MODEL 1
REMARK VINA RESULT:     -10.9      0.000      0.000
REMARK SMILES Cc1ccc([C@H](C)NC(=O)N[C@](C)(C(=O)OCCOCCOC(=O)c2ccc(-c3c4nc(c(-c5c(F)cccc5F)c5ccc([nH]5)c(-c5c(F)cccc5F)c5nc(c(-c6c(F)cccc6F)c6ccc3[nH]6)C=C5)C=C4)cc2)C(F)(F)F)s1
REMARK SMILES IDX 18 1 17 2 16 3 14 4 15 5 12 6 13 7 11 8 8 9 9 10 10 12 6 14
REMARK SMILES IDX 7 15 5 16 1 17 2 18 3 19 83 20 4 21 79 22 80 23 81 24 82 25
REMARK SMILES IDX 19 26 20 27 21 28 22 29 23 30 24 31 25 32 26 33 78 34 27 35
REMARK SMILES IDX 77 36 28 37 29 38 30 39 71 40 31 41 76 42 70 43 72 44 32 45
REMARK SMILES IDX 75 46 69 47 68 48 33 50 59 51 42 52 58 53 43 54 46 55 57 56
REMARK SMILES IDX 73 57 44 58 45 59 56 61 74 62 47 63 34 64 35 65 40 66 36 67
REMARK SMILES IDX 37 68 39 69 41 70 38 71 60 72 61 73 66 74 62 75 63 76 65 77
REMARK SMILES IDX 67 78 64 79 48 80 49 81 54 82 50 83 51 84 53 85 55 86 52 87
REMARK H PARENT 8 11 11 13 72 49 46 60
REMARK Flexibility Score: inf
ROOT
ATOM      1  C   UNL A   1      34.523  33.508  28.081  1.00  0.00     0.202 C 
ENDROOT
BRANCH   1   2
ATOM      2  C   UNL A   1      33.961  32.126  28.436  1.00  0.00     0.261 C 
BRANCH   2   3
ATOM      3  O   UNL A   1      33.381  31.541  27.261  1.00  0.00    -0.461 OA
BRANCH   3   4
ATOM      4  C   UNL A   1      33.963  30.399  26.805  1.00  0.00     0.341 C 
ATOM      5  O   UNL A   1      35.086  30.025  27.118  1.00  0.00    -0.249 OA
BRANCH   4   6
ATOM      6  C   UNL A   1      32.973  29.571  25.967  1.00  0.00     0.232 C 
ATOM      7  C   UNL A   1      31.687  30.402  25.735  1.00  0.00     0.058 C 
BRANCH   6   8
ATOM      8  N   UNL A   1      33.641  29.328  24.660  1.00  0.00    -0.315 N 
ATOM      9  N   UNL A   1      32.250  27.935  23.336  1.00  0.00    -0.331 N 
ATOM     10  C   UNL A   1      33.362  28.631  23.562  1.00  0.00     0.316 C 
ATOM     11  H   UNL A   1      32.247  27.567  22.422  1.00  0.00     0.166 HD
ATOM     12  O   UNL A   1      34.206  28.644  22.663  1.00  0.00    -0.249 OA
ATOM     13  H   UNL A   1      34.501  29.801  24.591  1.00  0.00     0.166 HD
BRANCH   9  14
ATOM     14  C   UNL A   1      31.036  27.561  24.050  1.00  0.00     0.121 C 
ATOM     15  C   UNL A   1      29.822  28.179  23.356  1.00  0.00     0.037 C 
BRANCH  14  16
ATOM     16  C   UNL A   1      30.935  26.055  24.141  1.00  0.00     0.027 A 
ATOM     17  C   UNL A   1      30.691  22.580  25.972  1.00  0.00     0.056 C 
ATOM     18  C   UNL A   1      30.787  23.749  25.053  1.00  0.00     0.002 A 
ATOM     19  C   UNL A   1      31.066  23.761  23.704  1.00  0.00     0.015 A 
ATOM     20  S   UNL A   1      30.558  25.328  25.658  1.00  0.00    -0.144 S 
ATOM     21  C   UNL A   1      31.144  25.084  23.178  1.00  0.00     0.018 A 
ENDBRANCH  14  16
ENDBRANCH   9  14
ENDBRANCH   6   8
BRANCH   6  22
ATOM     22  C   UNL A   1      32.816  28.303  26.850  1.00  0.00     0.422 C 
ATOM     23  F   UNL A   1      33.416  28.456  28.054  1.00  0.00    -0.168 F 
ATOM     24  F   UNL A   1      31.518  28.001  27.078  1.00  0.00    -0.168 F 
ATOM     25  F   UNL A   1      33.368  27.188  26.313  1.00  0.00    -0.168 F 
ENDBRANCH   6  22
ENDBRANCH   4   6
ENDBRANCH   3   4
ENDBRANCH   2   3
ENDBRANCH   1   2
BRANCH   1  26
ATOM     26  O   UNL A   1      34.929  34.333  29.176  1.00  0.00    -0.374 OA
BRANCH  26  27
ATOM     27  C   UNL A   1      34.028  34.498  30.271  1.00  0.00     0.202 C 
BRANCH  27  28
ATOM     28  C   UNL A   1      34.519  34.077  31.659  1.00  0.00     0.261 C 
BRANCH  28  29
ATOM     29  O   UNL A   1      34.713  32.655  31.756  1.00  0.00    -0.460 OA
BRANCH  29  30
ATOM     30  C   UNL A   1      35.716  32.281  32.584  1.00  0.00     0.338 C 
ATOM     31  O   UNL A   1      35.784  32.449  33.796  1.00  0.00    -0.246 OA
BRANCH  30  32
ATOM     32  C   UNL A   1      36.696  31.461  31.858  1.00  0.00     0.060 A 
ATOM     33  C   UNL A   1      37.670  30.800  32.616  1.00  0.00     0.016 A 
ATOM     34  C   UNL A   1      36.731  31.427  30.462  1.00  0.00     0.016 A 
ATOM     35  C   UNL A   1      38.716  30.137  31.980  1.00  0.00     0.010 A 
ATOM     36  C   UNL A   1      37.790  30.772  29.825  1.00  0.00     0.010 A 
ATOM     37  C   UNL A   1      38.804  30.156  30.582  1.00  0.00    -0.014 A 
BRANCH  37  38
ATOM     38  C   UNL A   1      40.044  29.678  29.928  1.00  0.00     0.031 A 
ATOM     39  C   UNL A   1      41.194  30.634  29.764  1.00  0.00     0.074 A 
ATOM     40  C   UNL A   1      40.159  28.403  29.518  1.00  0.00     0.049 A 
ATOM     41  N   UNL A   1      42.353  30.447  29.188  1.00  0.00    -0.248 NA
ATOM     42  C   UNL A   1      41.011  31.980  30.330  1.00  0.00     0.031 C 
ATOM     43  C   UNL A   1      39.133  27.373  29.666  1.00  0.00     0.029 A 
ATOM     44  N   UNL A   1      41.193  27.762  28.885  1.00  0.00    -0.354 N 
ATOM     45  C   UNL A   1      43.034  31.650  29.314  1.00  0.00     0.074 A 
ATOM     46  C   UNL A   1      42.151  32.570  29.998  1.00  0.00     0.031 C 
ATOM     47  C   UNL A   1      39.584  26.228  29.126  1.00  0.00     0.029 A 
ATOM     48  C   UNL A   1      40.916  26.455  28.566  1.00  0.00     0.049 A 
ATOM     49  H   UNL A   1      42.052  28.197  28.680  1.00  0.00     0.167 HD
ATOM     50  C   UNL A   1      44.287  31.960  28.902  1.00  0.00     0.037 A 
ATOM     51  C   UNL A   1      41.646  25.557  27.878  1.00  0.00     0.037 A 
ATOM     52  C   UNL A   1      45.164  31.043  28.225  1.00  0.00     0.049 A 
ATOM     53  C   UNL A   1      43.005  25.948  27.364  1.00  0.00     0.074 A 
ATOM     54  C   UNL A   1      46.457  31.257  27.779  1.00  0.00     0.029 A 
ATOM     55  N   UNL A   1      44.835  29.739  27.891  1.00  0.00    -0.354 N 
ATOM     56  N   UNL A   1      43.648  27.084  27.501  1.00  0.00    -0.248 NA
ATOM     57  C   UNL A   1      43.743  24.933  26.599  1.00  0.00     0.031 C 
ATOM     58  C   UNL A   1      46.893  30.095  27.134  1.00  0.00     0.029 A 
ATOM     59  C   UNL A   1      45.891  29.142  27.221  1.00  0.00     0.049 A 
ATOM     60  H   UNL A   1      43.978  29.301  28.097  1.00  0.00     0.167 HD
ATOM     61  C   UNL A   1      44.872  26.909  26.868  1.00  0.00     0.074 A 
ATOM     62  C   UNL A   1      44.887  25.556  26.353  1.00  0.00     0.031 C 
ATOM     63  C   UNL A   1      45.894  27.789  26.726  1.00  0.00     0.037 A 
BRANCH  50  64
ATOM     64  C   UNL A   1      44.770  33.358  29.150  1.00  0.00     0.057 A 
ATOM     65  C   UNL A   1      44.541  34.394  28.236  1.00  0.00     0.134 A 
ATOM     66  C   UNL A   1      45.443  33.678  30.336  1.00  0.00     0.134 A 
ATOM     67  F   UNL A   1      43.915  34.151  27.075  1.00  0.00    -0.206 F 
ATOM     68  C   UNL A   1      44.984  35.695  28.483  1.00  0.00     0.040 A 
ATOM     69  C   UNL A   1      45.870  34.979  30.605  1.00  0.00     0.040 A 
ATOM     70  F   UNL A   1      45.692  32.732  31.254  1.00  0.00    -0.206 F 
ATOM     71  C   UNL A   1      45.646  35.991  29.674  1.00  0.00     0.006 A 
ENDBRANCH  50  64
BRANCH  51  72
ATOM     72  C   UNL A   1      41.101  24.202  27.615  1.00  0.00     0.057 A 
ATOM     73  C   UNL A   1      41.582  23.079  28.298  1.00  0.00     0.134 A 
ATOM     74  C   UNL A   1      40.099  23.995  26.660  1.00  0.00     0.134 A 
ATOM     75  F   UNL A   1      42.559  23.211  29.208  1.00  0.00    -0.206 F 
ATOM     76  C   UNL A   1      41.101  21.797  28.028  1.00  0.00     0.040 A 
ATOM     77  C   UNL A   1      39.590  22.722  26.396  1.00  0.00     0.040 A 
ATOM     78  F   UNL A   1      39.595  25.030  25.972  1.00  0.00    -0.206 F 
ATOM     79  C   UNL A   1      40.097  21.617  27.077  1.00  0.00     0.006 A 
ENDBRANCH  51  72
BRANCH  63  80
ATOM     80  C   UNL A   1      47.129  27.307  26.025  1.00  0.00     0.057 A 
ATOM     81  C   UNL A   1      48.143  26.618  26.702  1.00  0.00     0.134 A 
ATOM     82  C   UNL A   1      47.280  27.492  24.645  1.00  0.00     0.134 A 
ATOM     83  F   UNL A   1      48.063  26.419  28.026  1.00  0.00    -0.206 F 
ATOM     84  C   UNL A   1      49.273  26.145  26.032  1.00  0.00     0.040 A 
ATOM     85  C   UNL A   1      48.393  27.002  23.961  1.00  0.00     0.040 A 
ATOM     86  F   UNL A   1      46.340  28.136  23.936  1.00  0.00    -0.206 F 
ATOM     87  C   UNL A   1      49.396  26.331  24.656  1.00  0.00     0.006 A 
ENDBRANCH  63  80
ENDBRANCH  37  38
ENDBRANCH  30  32
ENDBRANCH  29  30
ENDBRANCH  28  29
ENDBRANCH  27  28
ENDBRANCH  26  27
ENDBRANCH   1  26
TORSDOF 18
ENDMDL
MODEL 2
REMARK VINA RESULT:     -10.8      4.126      6.565
REMARK SMILES Cc1ccc([C@H](C)NC(=O)N[C@](C)(C(=O)OCCOCCOC(=O)c2ccc(-c3c4nc(c(-c5c(F)cccc5F)c5ccc([nH]5)c(-c5c(F)cccc5F)c5nc(c(-c6c(F)cccc6F)c6ccc3[nH]6)C=C5)C=C4)cc2)C(F)(F)F)s1
REMARK SMILES IDX 18 1 17 2 16 3 14 4 15 5 12 6 13 7 11 8 8 9 9 10 10 12 6 14
REMARK SMILES IDX 7 15 5 16 1 17 2 18 3 19 83 20 4 21 79 22 80 23 81 24 82 25
REMARK SMILES IDX 19 26 20 27 21 28 22 29 23 30 24 31 25 32 26 33 78 34 27 35
REMARK SMILES IDX 77 36 28 37 29 38 30 39 71 40 31 41 76 42 70 43 72 44 32 45
REMARK SMILES IDX 75 46 69 47 68 48 33 50 59 51 42 52 58 53 43 54 46 55 57 56
REMARK SMILES IDX 73 57 44 58 45 59 56 61 74 62 47 63 34 64 35 65 40 66 36 67
REMARK SMILES IDX 37 68 39 69 41 70 38 71 60 72 61 73 66 74 62 75 63 76 65 77
REMARK SMILES IDX 67 78 64 79 48 80 49 81 54 82 50 83 51 84 53 85 55 86 52 87
REMARK H PARENT 8 11 11 13 72 49 46 60
REMARK Flexibility Score: inf
ROOT
ATOM      1  C   UNL A   1      32.237  29.751  25.766  1.00  0.00     0.202 C 
ENDROOT
BRANCH   1   2
ATOM      2  C   UNL A   1      32.302  28.648  24.701  1.00  0.00     0.261 C 
BRANCH   2   3
ATOM      3  O   UNL A   1      32.477  27.382  25.351  1.00  0.00    -0.461 OA
BRANCH   3   4
ATOM      4  C   UNL A   1      31.432  26.513  25.275  1.00  0.00     0.341 C 
ATOM      5  O   UNL A   1      30.282  26.841  25.014  1.00  0.00    -0.249 OA
BRANCH   4   6
ATOM      6  C   UNL A   1      31.912  25.058  25.414  1.00  0.00     0.232 C 
ATOM      7  C   UNL A   1      33.295  25.044  26.109  1.00  0.00     0.058 C 
BRANCH   6   8
ATOM      8  N   UNL A   1      30.919  24.378  26.287  1.00  0.00    -0.315 N 
ATOM      9  N   UNL A   1      31.645  22.156  26.688  1.00  0.00    -0.331 N 
ATOM     10  C   UNL A   1      30.783  23.161  26.809  1.00  0.00     0.316 C 
ATOM     11  H   UNL A   1      31.358  21.381  27.224  1.00  0.00     0.166 HD
ATOM     12  O   UNL A   1      29.770  22.952  27.481  1.00  0.00    -0.249 OA
ATOM     13  H   UNL A   1      30.180  24.975  26.542  1.00  0.00     0.166 HD
BRANCH   9  14
ATOM     14  C   UNL A   1      32.894  21.869  25.991  1.00  0.00     0.121 C 
ATOM     15  C   UNL A   1      33.982  21.528  27.009  1.00  0.00     0.037 C 
BRANCH  14  16
ATOM     16  C   UNL A   1      32.681  20.757  24.989  1.00  0.00     0.027 A 
ATOM     17  C   UNL A   1      33.045  17.116  23.541  1.00  0.00     0.056 C 
ATOM     18  C   UNL A   1      32.773  18.545  23.862  1.00  0.00     0.002 A 
ATOM     19  C   UNL A   1      32.290  19.535  23.033  1.00  0.00     0.015 A 
ATOM     20  S   UNL A   1      33.088  19.141  25.429  1.00  0.00    -0.144 S 
ATOM     21  C   UNL A   1      32.230  20.803  23.682  1.00  0.00     0.018 A 
ENDBRANCH  14  16
ENDBRANCH   9  14
ENDBRANCH   6   8
BRANCH   6  22
ATOM     22  C   UNL A   1      31.888  24.590  23.933  1.00  0.00     0.422 C 
ATOM     23  F   UNL A   1      30.831  23.780  23.683  1.00  0.00    -0.168 F 
ATOM     24  F   UNL A   1      31.816  25.630  23.072  1.00  0.00    -0.168 F 
ATOM     25  F   UNL A   1      32.981  23.878  23.564  1.00  0.00    -0.168 F 
ENDBRANCH   6  22
ENDBRANCH   4   6
ENDBRANCH   3   4
ENDBRANCH   2   3
ENDBRANCH   1   2
BRANCH   1  26
ATOM     26  O   UNL A   1      31.420  30.885  25.462  1.00  0.00    -0.374 OA
BRANCH  26  27
ATOM     27  C   UNL A   1      31.051  31.760  26.528  1.00  0.00     0.202 C 
BRANCH  27  28
ATOM     28  C   UNL A   1      31.823  33.076  26.659  1.00  0.00     0.261 C 
BRANCH  28  29
ATOM     29  O   UNL A   1      32.304  33.290  27.998  1.00  0.00    -0.460 OA
BRANCH  29  30
ATOM     30  C   UNL A   1      33.390  34.093  28.081  1.00  0.00     0.338 C 
ATOM     31  O   UNL A   1      33.413  35.318  28.078  1.00  0.00    -0.246 OA
BRANCH  30  32
ATOM     32  C   UNL A   1      34.593  33.295  28.357  1.00  0.00     0.060 A 
ATOM     33  C   UNL A   1      34.406  31.976  28.789  1.00  0.00     0.016 A 
ATOM     34  C   UNL A   1      35.871  33.854  28.300  1.00  0.00     0.016 A 
ATOM     35  C   UNL A   1      35.495  31.221  29.213  1.00  0.00     0.010 A 
ATOM     36  C   UNL A   1      36.963  33.099  28.739  1.00  0.00     0.010 A 
ATOM     37  C   UNL A   1      36.773  31.794  29.231  1.00  0.00    -0.014 A 
BRANCH  37  38
ATOM     38  C   UNL A   1      37.875  31.084  29.921  1.00  0.00     0.031 A 
ATOM     39  C   UNL A   1      38.122  31.366  31.377  1.00  0.00     0.074 A 
ATOM     40  C   UNL A   1      38.623  30.175  29.270  1.00  0.00     0.049 A 
ATOM     41  N   UNL A   1      39.051  30.895  32.168  1.00  0.00    -0.248 NA
ATOM     42  C   UNL A   1      37.192  32.303  32.029  1.00  0.00     0.031 C 
ATOM     43  C   UNL A   1      38.447  29.781  27.874  1.00  0.00     0.029 A 
ATOM     44  N   UNL A   1      39.686  29.424  29.702  1.00  0.00    -0.354 N 
ATOM     45  C   UNL A   1      38.825  31.482  33.406  1.00  0.00     0.074 A 
ATOM     46  C   UNL A   1      37.687  32.364  33.257  1.00  0.00     0.031 C 
ATOM     47  C   UNL A   1      39.382  28.869  27.558  1.00  0.00     0.029 A 
ATOM     48  C   UNL A   1      40.239  28.640  28.721  1.00  0.00     0.049 A 
ATOM     49  H   UNL A   1      40.020  29.445  30.628  1.00  0.00     0.167 HD
ATOM     50  C   UNL A   1      39.500  31.299  34.565  1.00  0.00     0.037 A 
ATOM     51  C   UNL A   1      41.328  27.849  28.753  1.00  0.00     0.037 A 
ATOM     52  C   UNL A   1      40.629  30.419  34.712  1.00  0.00     0.049 A 
ATOM     53  C   UNL A   1      42.108  27.718  30.034  1.00  0.00     0.074 A 
ATOM     54  C   UNL A   1      41.374  30.154  35.848  1.00  0.00     0.029 A 
ATOM     55  N   UNL A   1      41.180  29.666  33.686  1.00  0.00    -0.354 N 
ATOM     56  N   UNL A   1      41.878  28.266  31.204  1.00  0.00    -0.248 NA
ATOM     57  C   UNL A   1      43.302  26.861  30.001  1.00  0.00     0.031 C 
ATOM     58  C   UNL A   1      42.404  29.274  35.498  1.00  0.00     0.029 A 
ATOM     59  C   UNL A   1      42.271  28.955  34.156  1.00  0.00     0.049 A 
ATOM     60  H   UNL A   1      40.846  29.642  32.760  1.00  0.00     0.167 HD
ATOM     61  C   UNL A   1      42.876  27.796  32.049  1.00  0.00     0.074 A 
ATOM     62  C   UNL A   1      43.709  26.913  31.260  1.00  0.00     0.031 C 
ATOM     63  C   UNL A   1      43.083  28.070  33.361  1.00  0.00     0.037 A 
BRANCH  50  64
ATOM     64  C   UNL A   1      39.050  32.086  35.760  1.00  0.00     0.057 A 
ATOM     65  C   UNL A   1      38.235  31.527  36.752  1.00  0.00     0.134 A 
ATOM     66  C   UNL A   1      39.466  33.412  35.936  1.00  0.00     0.134 A 
ATOM     67  F   UNL A   1      37.791  30.266  36.636  1.00  0.00    -0.206 F 
ATOM     68  C   UNL A   1      37.832  32.265  37.866  1.00  0.00     0.040 A 
ATOM     69  C   UNL A   1      39.089  34.153  37.057  1.00  0.00     0.040 A 
ATOM     70  F   UNL A   1      40.249  34.007  35.023  1.00  0.00    -0.206 F 
ATOM     71  C   UNL A   1      38.265  33.581  38.023  1.00  0.00     0.006 A 
ENDBRANCH  50  64
BRANCH  51  72
ATOM     72  C   UNL A   1      41.761  27.130  27.529  1.00  0.00     0.057 A 
ATOM     73  C   UNL A   1      41.401  25.796  27.303  1.00  0.00     0.134 A 
ATOM     74  C   UNL A   1      42.563  27.753  26.567  1.00  0.00     0.134 A 
ATOM     75  F   UNL A   1      40.653  25.138  28.202  1.00  0.00    -0.206 F 
ATOM     76  C   UNL A   1      41.837  25.103  26.173  1.00  0.00     0.040 A 
ATOM     77  C   UNL A   1      42.987  27.081  25.419  1.00  0.00     0.040 A 
ATOM     78  F   UNL A   1      42.942  29.030  26.724  1.00  0.00    -0.206 F 
ATOM     79  C   UNL A   1      42.629  25.748  25.224  1.00  0.00     0.006 A 
ENDBRANCH  51  72
BRANCH  63  80
ATOM     80  C   UNL A   1      44.228  27.377  34.038  1.00  0.00     0.057 A 
ATOM     81  C   UNL A   1      45.497  27.962  34.130  1.00  0.00     0.134 A 
ATOM     82  C   UNL A   1      44.043  26.132  34.651  1.00  0.00     0.134 A 
ATOM     83  F   UNL A   1      45.742  29.149  33.553  1.00  0.00    -0.206 F 
ATOM     84  C   UNL A   1      46.547  27.323  34.791  1.00  0.00     0.040 A 
ATOM     85  C   UNL A   1      45.078  25.495  35.336  1.00  0.00     0.040 A 
ATOM     86  F   UNL A   1      42.848  25.522  34.608  1.00  0.00    -0.206 F 
ATOM     87  C   UNL A   1      46.335  26.088  35.404  1.00  0.00     0.006 A 
ENDBRANCH  63  80
ENDBRANCH  37  38
ENDBRANCH  30  32
ENDBRANCH  29  30
ENDBRANCH  28  29
ENDBRANCH  27  28
ENDBRANCH  26  27
ENDBRANCH   1  26
TORSDOF 18
ENDMDL
MODEL 3
REMARK VINA RESULT:     -10.6      4.193      8.031
REMARK SMILES Cc1ccc([C@H](C)NC(=O)N[C@](C)(C(=O)OCCOCCOC(=O)c2ccc(-c3c4nc(c(-c5c(F)cccc5F)c5ccc([nH]5)c(-c5c(F)cccc5F)c5nc(c(-c6c(F)cccc6F)c6ccc3[nH]6)C=C5)C=C4)cc2)C(F)(F)F)s1
REMARK SMILES IDX 18 1 17 2 16 3 14 4 15 5 12 6 13 7 11 8 8 9 9 10 10 12 6 14
REMARK SMILES IDX 7 15 5 16 1 17 2 18 3 19 83 20 4 21 79 22 80 23 81 24 82 25
REMARK SMILES IDX 19 26 20 27 21 28 22 29 23 30 24 31 25 32 26 33 78 34 27 35
REMARK SMILES IDX 77 36 28 37 29 38 30 39 71 40 31 41 76 42 70 43 72 44 32 45
REMARK SMILES IDX 75 46 69 47 68 48 33 50 59 51 42 52 58 53 43 54 46 55 57 56
REMARK SMILES IDX 73 57 44 58 45 59 56 61 74 62 47 63 34 64 35 65 40 66 36 67
REMARK SMILES IDX 37 68 39 69 41 70 38 71 60 72 61 73 66 74 62 75 63 76 65 77
REMARK SMILES IDX 67 78 64 79 48 80 49 81 54 82 50 83 51 84 53 85 55 86 52 87
REMARK H PARENT 8 11 11 13 72 49 46 60
REMARK Flexibility Score: inf
ROOT
ATOM      1  C   UNL A   1      32.174  28.478  26.259  1.00  0.00     0.202 C 
ENDROOT
BRANCH   1   2
ATOM      2  C   UNL A   1      31.645  28.427  24.820  1.00  0.00     0.261 C 
BRANCH   2   3
ATOM      3  O   UNL A   1      31.896  27.123  24.277  1.00  0.00    -0.461 OA
BRANCH   3   4
ATOM      4  C   UNL A   1      30.942  26.180  24.502  1.00  0.00     0.341 C 
ATOM      5  O   UNL A   1      29.740  26.367  24.356  1.00  0.00    -0.249 OA
BRANCH   4   6
ATOM      6  C   UNL A   1      31.578  24.815  24.818  1.00  0.00     0.232 C 
ATOM      7  C   UNL A   1      32.987  25.038  25.419  1.00  0.00     0.058 C 
BRANCH   6   8
ATOM      8  N   UNL A   1      30.705  24.180  25.841  1.00  0.00    -0.315 N 
ATOM      9  N   UNL A   1      31.640  22.088  26.455  1.00  0.00    -0.331 N 
ATOM     10  C   UNL A   1      30.706  23.034  26.517  1.00  0.00     0.316 C 
ATOM     11  H   UNL A   1      31.454  21.370  27.103  1.00  0.00     0.166 HD
ATOM     12  O   UNL A   1      29.761  22.837  27.284  1.00  0.00    -0.249 OA
ATOM     13  H   UNL A   1      29.936  24.748  26.076  1.00  0.00     0.166 HD
BRANCH   9  14
ATOM     14  C   UNL A   1      32.860  21.809  25.707  1.00  0.00     0.121 C 
ATOM     15  C   UNL A   1      34.040  21.702  26.672  1.00  0.00     0.037 C 
BRANCH  14  16
ATOM     16  C   UNL A   1      32.682  20.554  24.882  1.00  0.00     0.027 A 
ATOM     17  C   UNL A   1      33.022  16.719  24.068  1.00  0.00     0.056 C 
ATOM     18  C   UNL A   1      32.778  18.188  24.133  1.00  0.00     0.002 A 
ATOM     19  C   UNL A   1      32.393  19.041  23.122  1.00  0.00     0.015 A 
ATOM     20  S   UNL A   1      32.997  19.022  25.606  1.00  0.00    -0.144 S 
ATOM     21  C   UNL A   1      32.331  20.399  23.553  1.00  0.00     0.018 A 
ENDBRANCH  14  16
ENDBRANCH   9  14
ENDBRANCH   6   8
BRANCH   6  22
ATOM     22  C   UNL A   1      31.532  24.130  23.424  1.00  0.00     0.422 C 
ATOM     23  F   UNL A   1      31.360  25.034  22.430  1.00  0.00    -0.168 F 
ATOM     24  F   UNL A   1      32.666  23.444  23.158  1.00  0.00    -0.168 F 
ATOM     25  F   UNL A   1      30.518  23.242  23.282  1.00  0.00    -0.168 F 
ENDBRANCH   6  22
ENDBRANCH   4   6
ENDBRANCH   3   4
ENDBRANCH   2   3
ENDBRANCH   1   2
BRANCH   1  26
ATOM     26  O   UNL A   1      32.365  29.779  26.822  1.00  0.00    -0.374 OA
BRANCH  26  27
ATOM     27  C   UNL A   1      31.722  30.889  26.198  1.00  0.00     0.202 C 
BRANCH  27  28
ATOM     28  C   UNL A   1      31.502  32.146  27.046  1.00  0.00     0.261 C 
BRANCH  28  29
ATOM     29  O   UNL A   1      32.464  33.173  26.750  1.00  0.00    -0.460 OA
BRANCH  29  30
ATOM     30  C   UNL A   1      32.997  33.773  27.840  1.00  0.00     0.338 C 
ATOM     31  O   UNL A   1      32.489  34.644  28.535  1.00  0.00    -0.246 OA
BRANCH  30  32
ATOM     32  C   UNL A   1      34.255  33.113  28.219  1.00  0.00     0.060 A 
ATOM     33  C   UNL A   1      34.171  31.813  28.732  1.00  0.00     0.016 A 
ATOM     34  C   UNL A   1      35.476  33.788  28.178  1.00  0.00     0.016 A 
ATOM     35  C   UNL A   1      35.305  31.195  29.251  1.00  0.00     0.010 A 
ATOM     36  C   UNL A   1      36.611  33.171  28.713  1.00  0.00     0.010 A 
ATOM     37  C   UNL A   1      36.521  31.887  29.284  1.00  0.00    -0.014 A 
BRANCH  37  38
ATOM     38  C   UNL A   1      37.651  31.333  30.066  1.00  0.00     0.031 A 
ATOM     39  C   UNL A   1      38.575  30.346  29.407  1.00  0.00     0.074 A 
ATOM     40  C   UNL A   1      37.873  31.729  31.331  1.00  0.00     0.049 A 
ATOM     41  N   UNL A   1      39.598  29.704  29.909  1.00  0.00    -0.248 NA
ATOM     42  C   UNL A   1      38.309  30.046  27.990  1.00  0.00     0.031 C 
ATOM     43  C   UNL A   1      37.077  32.715  32.059  1.00  0.00     0.029 A 
ATOM     44  N   UNL A   1      38.834  31.341  32.229  1.00  0.00    -0.354 N 
ATOM     45  C   UNL A   1      40.094  28.919  28.875  1.00  0.00     0.074 A 
ATOM     46  C   UNL A   1      39.245  29.145  27.725  1.00  0.00     0.031 C 
ATOM     47  C   UNL A   1      37.575  32.845  33.300  1.00  0.00     0.029 A 
ATOM     48  C   UNL A   1      38.703  31.929  33.462  1.00  0.00     0.049 A 
ATOM     49  H   UNL A   1      39.550  30.702  32.009  1.00  0.00     0.167 HD
ATOM     50  C   UNL A   1      41.164  28.090  28.882  1.00  0.00     0.037 A 
ATOM     51  C   UNL A   1      39.399  31.729  34.598  1.00  0.00     0.037 A 
ATOM     52  C   UNL A   1      42.008  27.870  30.026  1.00  0.00     0.049 A 
ATOM     53  C   UNL A   1      40.539  30.745  34.601  1.00  0.00     0.074 A 
ATOM     54  C   UNL A   1      43.125  27.059  30.130  1.00  0.00     0.029 A 
ATOM     55  N   UNL A   1      41.823  28.459  31.267  1.00  0.00    -0.354 N 
ATOM     56  N   UNL A   1      41.009  30.019  33.615  1.00  0.00    -0.248 NA
ATOM     57  C   UNL A   1      41.244  30.551  35.876  1.00  0.00     0.031 C 
ATOM     58  C   UNL A   1      43.589  27.124  31.448  1.00  0.00     0.029 A 
ATOM     59  C   UNL A   1      42.790  28.012  32.151  1.00  0.00     0.049 A 
ATOM     60  H   UNL A   1      41.109  29.100  31.488  1.00  0.00     0.167 HD
ATOM     61  C   UNL A   1      42.081  29.309  34.142  1.00  0.00     0.074 A 
ATOM     62  C   UNL A   1      42.197  29.697  35.532  1.00  0.00     0.031 C 
ATOM     63  C   UNL A   1      42.898  28.417  33.529  1.00  0.00     0.037 A 
BRANCH  50  64
ATOM     64  C   UNL A   1      41.464  27.340  27.619  1.00  0.00     0.057 A 
ATOM     65  C   UNL A   1      40.957  26.056  27.381  1.00  0.00     0.134 A 
ATOM     66  C   UNL A   1      42.245  27.923  26.613  1.00  0.00     0.134 A 
ATOM     67  F   UNL A   1      40.215  25.435  28.310  1.00  0.00    -0.206 F 
ATOM     68  C   UNL A   1      41.232  25.371  26.196  1.00  0.00     0.040 A 
ATOM     69  C   UNL A   1      42.508  27.259  25.414  1.00  0.00     0.040 A 
ATOM     70  F   UNL A   1      42.759  29.152  26.776  1.00  0.00    -0.206 F 
ATOM     71  C   UNL A   1      42.005  25.976  25.206  1.00  0.00     0.006 A 
ENDBRANCH  50  64
BRANCH  51  72
ATOM     72  C   UNL A   1      39.029  32.460  35.835  1.00  0.00     0.057 A 
ATOM     73  C   UNL A   1      39.527  33.742  36.099  1.00  0.00     0.134 A 
ATOM     74  C   UNL A   1      38.185  31.886  36.793  1.00  0.00     0.134 A 
ATOM     75  F   UNL A   1      40.359  34.334  35.229  1.00  0.00    -0.206 F 
ATOM     76  C   UNL A   1      39.213  34.418  37.279  1.00  0.00     0.040 A 
ATOM     77  C   UNL A   1      37.843  32.560  37.966  1.00  0.00     0.040 A 
ATOM     78  F   UNL A   1      37.675  30.661  36.599  1.00  0.00    -0.206 F 
ATOM     79  C   UNL A   1      38.364  33.829  38.215  1.00  0.00     0.006 A 
ENDBRANCH  51  72
BRANCH  63  80
ATOM     80  C   UNL A   1      44.014  27.830  34.342  1.00  0.00     0.057 A 
ATOM     81  C   UNL A   1      45.255  28.467  34.464  1.00  0.00     0.134 A 
ATOM     82  C   UNL A   1      43.824  26.638  35.052  1.00  0.00     0.134 A 
ATOM     83  F   UNL A   1      45.503  29.606  33.800  1.00  0.00    -0.206 F 
ATOM     84  C   UNL A   1      46.275  27.928  35.250  1.00  0.00     0.040 A 
ATOM     85  C   UNL A   1      44.828  26.102  35.860  1.00  0.00     0.040 A 
ATOM     86  F   UNL A   1      42.656  25.983  34.984  1.00  0.00    -0.206 F 
ATOM     87  C   UNL A   1      46.059  26.746  35.957  1.00  0.00     0.006 A 
ENDBRANCH  63  80
ENDBRANCH  37  38
ENDBRANCH  30  32
ENDBRANCH  29  30
ENDBRANCH  28  29
ENDBRANCH  27  28
ENDBRANCH  26  27
ENDBRANCH   1  26
TORSDOF 18
ENDMDL
