MODEL 1
REMARK VINA RESULT:      -8.4      0.000      0.000
REMARK SMILES COc1cc(/C=C/C(=O)OCCOCCOC(=O)c2ccc(-c3c4nc(c(-c5c(F)cccc5F)c5ccc([nH]5)c(-c5c(F)cccc5F)c5nc(c(-c6c(F)cccc6F)c6ccc3[nH]6)C=C5)C=C4)cc2)cc(OC)c1O
REMARK SMILES IDX 13 1 12 2 11 3 10 4 8 5 9 6 7 7 6 8 5 9 3 10 4 11 77 12
REMARK SMILES IDX 74 13 73 14 2 15 1 16 78 17 75 19 76 20 14 21 15 22 16 23
REMARK SMILES IDX 17 24 18 25 19 26 20 27 72 28 21 29 71 30 22 31 23 32 24 33
REMARK SMILES IDX 65 34 25 35 70 36 64 37 66 38 26 39 69 40 63 41 62 42 27 44
REMARK SMILES IDX 53 45 36 46 52 47 37 48 40 49 51 50 67 51 38 52 39 53 50 55
REMARK SMILES IDX 68 56 41 57 28 58 29 59 34 60 30 61 31 62 33 63 35 64 32 65
REMARK SMILES IDX 54 66 55 67 60 68 56 69 57 70 59 71 61 72 58 73 42 74 43 75
REMARK SMILES IDX 48 76 44 77 45 78 47 79 49 80 46 81
REMARK H PARENT 78 18 66 43 40 54
REMARK Flexibility Score: inf
ROOT
ATOM      1  O   UNL A   1      33.584  37.314  31.971  1.00  0.00    -0.374 OA
ENDROOT
BRANCH   1   2
ATOM      2  C   UNL A   1      34.040  36.809  33.225  1.00  0.00     0.202 C 
BRANCH   2   3
ATOM      3  C   UNL A   1      34.404  35.323  33.252  1.00  0.00     0.261 C 
BRANCH   3   4
ATOM      4  O   UNL A   1      35.790  35.130  33.578  1.00  0.00    -0.460 OA
BRANCH   4   5
ATOM      5  C   UNL A   1      36.026  34.204  34.536  1.00  0.00     0.330 C 
ATOM      6  O   UNL A   1      35.396  34.053  35.573  1.00  0.00    -0.247 OA
BRANCH   5   7
ATOM      7  C   UNL A   1      37.126  33.287  34.184  1.00  0.00     0.094 C 
ATOM      8  C   UNL A   1      37.505  32.174  34.835  1.00  0.00     0.016 C 
BRANCH   8   9
ATOM      9  C   UNL A   1      38.635  31.351  34.363  1.00  0.00    -0.018 A 
ATOM     10  C   UNL A   1      39.513  29.518  32.994  1.00  0.00     0.165 A 
ATOM     11  C   UNL A   1      38.469  30.372  33.377  1.00  0.00     0.058 A 
ATOM     12  C   UNL A   1      40.771  29.674  33.594  1.00  0.00     0.200 A 
ATOM     13  C   UNL A   1      40.985  30.699  34.531  1.00  0.00     0.165 A 
ATOM     14  C   UNL A   1      39.912  31.530  34.900  1.00  0.00     0.058 A 
BRANCH  10  15
ATOM     15  O   UNL A   1      39.105  28.602  32.065  1.00  0.00    -0.493 OA
ATOM     16  C   UNL A   1      38.465  27.407  32.476  1.00  0.00     0.278 C 
ENDBRANCH  10  15
BRANCH  12  17
ATOM     17  O   UNL A   1      41.779  28.799  33.305  1.00  0.00    -0.502 OA
ATOM     18  H   UNL A   1      41.807  28.375  32.469  1.00  0.00     0.293 HD
ENDBRANCH  12  17
BRANCH  13  19
ATOM     19  O   UNL A   1      42.137  31.009  35.207  1.00  0.00    -0.493 OA
ATOM     20  C   UNL A   1      42.260  30.630  36.570  1.00  0.00     0.278 C 
ENDBRANCH  13  19
ENDBRANCH   8   9
ENDBRANCH   5   7
ENDBRANCH   4   5
ENDBRANCH   3   4
ENDBRANCH   2   3
ENDBRANCH   1   2
BRANCH   1  21
ATOM     21  C   UNL A   1      32.592  36.544  31.287  1.00  0.00     0.202 C 
BRANCH  21  22
ATOM     22  C   UNL A   1      32.974  36.066  29.882  1.00  0.00     0.261 C 
BRANCH  22  23
ATOM     23  O   UNL A   1      32.516  34.724  29.630  1.00  0.00    -0.460 OA
BRANCH  23  24
ATOM     24  C   UNL A   1      33.183  34.062  28.656  1.00  0.00     0.338 C 
ATOM     25  O   UNL A   1      32.833  33.901  27.494  1.00  0.00    -0.246 OA
BRANCH  24  26
ATOM     26  C   UNL A   1      34.526  33.684  29.134  1.00  0.00     0.060 A 
ATOM     27  C   UNL A   1      35.615  33.975  28.303  1.00  0.00     0.016 A 
ATOM     28  C   UNL A   1      34.714  33.003  30.339  1.00  0.00     0.016 A 
ATOM     29  C   UNL A   1      36.893  33.544  28.650  1.00  0.00     0.010 A 
ATOM     30  C   UNL A   1      35.998  32.565  30.682  1.00  0.00     0.010 A 
ATOM     31  C   UNL A   1      37.087  32.804  29.824  1.00  0.00    -0.014 A 
BRANCH  31  32
ATOM     32  C   UNL A   1      38.400  32.165  30.079  1.00  0.00     0.031 A 
ATOM     33  C   UNL A   1      39.416  32.892  30.914  1.00  0.00     0.074 A 
ATOM     34  C   UNL A   1      38.678  30.944  29.591  1.00  0.00     0.049 A 
ATOM     35  N   UNL A   1      40.633  32.534  31.239  1.00  0.00    -0.248 NA
ATOM     36  C   UNL A   1      39.007  34.199  31.452  1.00  0.00     0.031 C 
ATOM     37  C   UNL A   1      37.766  30.125  28.795  1.00  0.00     0.029 A 
ATOM     38  N   UNL A   1      39.816  30.184  29.691  1.00  0.00    -0.354 N 
ATOM     39  C   UNL A   1      41.135  33.573  32.014  1.00  0.00     0.074 A 
ATOM     40  C   UNL A   1      40.105  34.586  32.085  1.00  0.00     0.031 C 
ATOM     41  C   UNL A   1      38.385  28.978  28.468  1.00  0.00     0.029 A 
ATOM     42  C   UNL A   1      39.745  28.996  29.007  1.00  0.00     0.049 A 
ATOM     43  H   UNL A   1      40.609  30.464  30.204  1.00  0.00     0.167 HD
ATOM     44  C   UNL A   1      42.343  33.670  32.620  1.00  0.00     0.037 A 
ATOM     45  C   UNL A   1      40.676  28.041  28.822  1.00  0.00     0.037 A 
ATOM     46  C   UNL A   1      43.369  32.662  32.549  1.00  0.00     0.049 A 
ATOM     47  C   UNL A   1      42.035  28.198  29.452  1.00  0.00     0.074 A 
ATOM     48  C   UNL A   1      44.615  32.655  33.152  1.00  0.00     0.029 A 
ATOM     49  N   UNL A   1      43.269  31.485  31.823  1.00  0.00    -0.354 N 
ATOM     50  N   UNL A   1      42.489  29.167  30.209  1.00  0.00    -0.248 NA
ATOM     51  C   UNL A   1      43.008  27.126  29.202  1.00  0.00     0.031 C 
ATOM     52  C   UNL A   1      45.288  31.496  32.751  1.00  0.00     0.029 A 
ATOM     53  C   UNL A   1      44.443  30.757  31.939  1.00  0.00     0.049 A 
ATOM     54  H   UNL A   1      42.481  31.207  31.302  1.00  0.00     0.167 HD
ATOM     55  C   UNL A   1      43.789  28.812  30.546  1.00  0.00     0.074 A 
ATOM     56  C   UNL A   1      44.048  27.531  29.919  1.00  0.00     0.031 C 
ATOM     57  C   UNL A   1      44.687  29.484  31.309  1.00  0.00     0.037 A 
BRANCH  44  58
ATOM     58  C   UNL A   1      42.626  34.926  33.388  1.00  0.00     0.057 A 
ATOM     59  C   UNL A   1      43.265  36.027  32.800  1.00  0.00     0.134 A 
ATOM     60  C   UNL A   1      42.242  35.044  34.730  1.00  0.00     0.134 A 
ATOM     61  F   UNL A   1      43.671  35.974  31.522  1.00  0.00    -0.206 F 
ATOM     62  C   UNL A   1      43.537  37.187  33.527  1.00  0.00     0.040 A 
ATOM     63  C   UNL A   1      42.487  36.208  35.460  1.00  0.00     0.040 A 
ATOM     64  F   UNL A   1      41.623  34.029  35.353  1.00  0.00    -0.206 F 
ATOM     65  C   UNL A   1      43.142  37.281  34.861  1.00  0.00     0.006 A 
ENDBRANCH  44  58
BRANCH  45  66
ATOM     66  C   UNL A   1      40.358  26.851  27.996  1.00  0.00     0.057 A 
ATOM     67  C   UNL A   1      39.544  25.824  28.486  1.00  0.00     0.134 A 
ATOM     68  C   UNL A   1      40.861  26.713  26.697  1.00  0.00     0.134 A 
ATOM     69  F   UNL A   1      39.052  25.890  29.732  1.00  0.00    -0.206 F 
ATOM     70  C   UNL A   1      39.249  24.697  27.718  1.00  0.00     0.040 A 
ATOM     71  C   UNL A   1      40.556  25.602  25.909  1.00  0.00     0.040 A 
ATOM     72  F   UNL A   1      41.647  27.665  26.170  1.00  0.00    -0.206 F 
ATOM     73  C   UNL A   1      39.752  24.587  26.422  1.00  0.00     0.006 A 
ENDBRANCH  45  66
BRANCH  57  74
ATOM     74  C   UNL A   1      46.022  28.836  31.533  1.00  0.00     0.057 A 
ATOM     75  C   UNL A   1      47.100  29.045  30.665  1.00  0.00     0.134 A 
ATOM     76  C   UNL A   1      46.242  28.026  32.655  1.00  0.00     0.134 A 
ATOM     77  F   UNL A   1      46.952  29.800  29.565  1.00  0.00    -0.206 F 
ATOM     78  C   UNL A   1      48.345  28.455  30.894  1.00  0.00     0.040 A 
ATOM     79  C   UNL A   1      47.488  27.451  32.908  1.00  0.00     0.040 A 
ATOM     80  F   UNL A   1      45.253  27.793  33.531  1.00  0.00    -0.206 F 
ATOM     81  C   UNL A   1      48.543  27.662  32.022  1.00  0.00     0.006 A 
ENDBRANCH  57  74
ENDBRANCH  31  32
ENDBRANCH  24  26
ENDBRANCH  23  24
ENDBRANCH  22  23
ENDBRANCH  21  22
ENDBRANCH   1  21
TORSDOF 18
ENDMDL
MODEL 2
REMARK VINA RESULT:      -8.1      4.416     10.557
REMARK SMILES COc1cc(/C=C/C(=O)OCCOCCOC(=O)c2ccc(-c3c4nc(c(-c5c(F)cccc5F)c5ccc([nH]5)c(-c5c(F)cccc5F)c5nc(c(-c6c(F)cccc6F)c6ccc3[nH]6)C=C5)C=C4)cc2)cc(OC)c1O
REMARK SMILES IDX 13 1 12 2 11 3 10 4 8 5 9 6 7 7 6 8 5 9 3 10 4 11 77 12
REMARK SMILES IDX 74 13 73 14 2 15 1 16 78 17 75 19 76 20 14 21 15 22 16 23
REMARK SMILES IDX 17 24 18 25 19 26 20 27 72 28 21 29 71 30 22 31 23 32 24 33
REMARK SMILES IDX 65 34 25 35 70 36 64 37 66 38 26 39 69 40 63 41 62 42 27 44
REMARK SMILES IDX 53 45 36 46 52 47 37 48 40 49 51 50 67 51 38 52 39 53 50 55
REMARK SMILES IDX 68 56 41 57 28 58 29 59 34 60 30 61 31 62 33 63 35 64 32 65
REMARK SMILES IDX 54 66 55 67 60 68 56 69 57 70 59 71 61 72 58 73 42 74 43 75
REMARK SMILES IDX 48 76 44 77 45 78 47 79 49 80 46 81
REMARK H PARENT 78 18 66 43 40 54
REMARK Flexibility Score: inf
ROOT
ATOM      1  O   UNL A   1      41.921  21.261  27.210  1.00  0.00    -0.374 OA
ENDROOT
BRANCH   1   2
ATOM      2  C   UNL A   1      40.504  21.412  27.283  1.00  0.00     0.202 C 
BRANCH   2   3
ATOM      3  C   UNL A   1      39.831  21.984  26.034  1.00  0.00     0.261 C 
BRANCH   3   4
ATOM      4  O   UNL A   1      38.584  22.622  26.356  1.00  0.00    -0.460 OA
BRANCH   4   5
ATOM      5  C   UNL A   1      37.548  22.285  25.553  1.00  0.00     0.330 C 
ATOM      6  O   UNL A   1      37.554  21.431  24.679  1.00  0.00    -0.247 OA
BRANCH   5   7
ATOM      7  C   UNL A   1      36.313  23.024  25.876  1.00  0.00     0.094 C 
ATOM      8  C   UNL A   1      35.670  23.920  25.109  1.00  0.00     0.016 C 
BRANCH   8   9
ATOM      9  C   UNL A   1      34.437  24.586  25.568  1.00  0.00    -0.018 A 
ATOM     10  C   UNL A   1      32.258  24.505  26.687  1.00  0.00     0.165 A 
ATOM     11  C   UNL A   1      33.477  23.911  26.332  1.00  0.00     0.058 A 
ATOM     12  C   UNL A   1      32.008  25.827  26.295  1.00  0.00     0.200 A 
ATOM     13  C   UNL A   1      32.986  26.554  25.594  1.00  0.00     0.165 A 
ATOM     14  C   UNL A   1      34.193  25.923  25.243  1.00  0.00     0.058 A 
BRANCH  10  15
ATOM     15  O   UNL A   1      31.454  23.639  27.375  1.00  0.00    -0.493 OA
ATOM     16  C   UNL A   1      30.460  22.895  26.692  1.00  0.00     0.278 C 
ENDBRANCH  10  15
BRANCH  12  17
ATOM     17  O   UNL A   1      30.794  26.398  26.551  1.00  0.00    -0.502 OA
ATOM     18  H   UNL A   1      30.098  25.880  26.906  1.00  0.00     0.293 HD
ENDBRANCH  12  17
BRANCH  13  19
ATOM     19  O   UNL A   1      32.926  27.846  25.141  1.00  0.00    -0.493 OA
ATOM     20  C   UNL A   1      33.304  28.127  23.801  1.00  0.00     0.278 C 
ENDBRANCH  13  19
ENDBRANCH   8   9
ENDBRANCH   5   7
ENDBRANCH   4   5
ENDBRANCH   3   4
ENDBRANCH   2   3
ENDBRANCH   1   2
BRANCH   1  21
ATOM     21  C   UNL A   1      42.471  20.932  25.932  1.00  0.00     0.202 C 
BRANCH  21  22
ATOM     22  C   UNL A   1      43.598  21.846  25.438  1.00  0.00     0.261 C 
BRANCH  22  23
ATOM     23  O   UNL A   1      43.089  23.077  24.890  1.00  0.00    -0.460 OA
BRANCH  23  24
ATOM     24  C   UNL A   1      43.855  24.168  25.117  1.00  0.00     0.338 C 
ATOM     25  O   UNL A   1      44.905  24.467  24.563  1.00  0.00    -0.246 OA
BRANCH  24  26
ATOM     26  C   UNL A   1      43.159  25.089  26.034  1.00  0.00     0.060 A 
ATOM     27  C   UNL A   1      43.722  26.357  26.228  1.00  0.00     0.016 A 
ATOM     28  C   UNL A   1      42.017  24.704  26.739  1.00  0.00     0.016 A 
ATOM     29  C   UNL A   1      43.171  27.229  27.165  1.00  0.00     0.010 A 
ATOM     30  C   UNL A   1      41.470  25.579  27.684  1.00  0.00     0.010 A 
ATOM     31  C   UNL A   1      42.064  26.831  27.926  1.00  0.00    -0.014 A 
BRANCH  31  32
ATOM     32  C   UNL A   1      41.618  27.668  29.064  1.00  0.00     0.031 A 
ATOM     33  C   UNL A   1      42.354  27.575  30.372  1.00  0.00     0.074 A 
ATOM     34  C   UNL A   1      40.584  28.516  28.932  1.00  0.00     0.049 A 
ATOM     35  N   UNL A   1      42.120  28.193  31.502  1.00  0.00    -0.248 NA
ATOM     36  C   UNL A   1      43.506  26.661  30.410  1.00  0.00     0.031 C 
ATOM     37  C   UNL A   1      39.810  28.720  27.709  1.00  0.00     0.029 A 
ATOM     38  N   UNL A   1      40.004  29.361  29.845  1.00  0.00    -0.354 N 
ATOM     39  C   UNL A   1      43.091  27.739  32.387  1.00  0.00     0.074 A 
ATOM     40  C   UNL A   1      43.896  26.772  31.672  1.00  0.00     0.031 C 
ATOM     41  C   UNL A   1      38.847  29.625  27.951  1.00  0.00     0.029 A 
ATOM     42  C   UNL A   1      38.920  30.041  29.351  1.00  0.00     0.049 A 
ATOM     43  H   UNL A   1      40.334  29.468  30.767  1.00  0.00     0.167 HD
ATOM     44  C   UNL A   1      43.298  28.100  33.676  1.00  0.00     0.037 A 
ATOM     45  C   UNL A   1      38.071  30.889  29.964  1.00  0.00     0.037 A 
ATOM     46  C   UNL A   1      42.496  29.061  34.387  1.00  0.00     0.049 A 
ATOM     47  C   UNL A   1      38.282  31.230  31.415  1.00  0.00     0.074 A 
ATOM     48  C   UNL A   1      42.644  29.515  35.686  1.00  0.00     0.029 A 
ATOM     49  N   UNL A   1      41.389  29.708  33.860  1.00  0.00    -0.354 N 
ATOM     50  N   UNL A   1      39.221  30.820  32.233  1.00  0.00    -0.248 NA
ATOM     51  C   UNL A   1      37.314  32.152  32.026  1.00  0.00     0.031 C 
ATOM     52  C   UNL A   1      41.597  30.401  35.961  1.00  0.00     0.029 A 
ATOM     53  C   UNL A   1      40.825  30.537  34.818  1.00  0.00     0.049 A 
ATOM     54  H   UNL A   1      41.051  29.595  32.942  1.00  0.00     0.167 HD
ATOM     55  C   UNL A   1      38.973  31.452  33.446  1.00  0.00     0.074 A 
ATOM     56  C   UNL A   1      37.801  32.281  33.253  1.00  0.00     0.031 C 
ATOM     57  C   UNL A   1      39.658  31.357  34.613  1.00  0.00     0.037 A 
BRANCH  44  58
ATOM     58  C   UNL A   1      44.424  27.427  34.404  1.00  0.00     0.057 A 
ATOM     59  C   UNL A   1      44.236  26.237  35.119  1.00  0.00     0.134 A 
ATOM     60  C   UNL A   1      45.714  27.969  34.379  1.00  0.00     0.134 A 
ATOM     61  F   UNL A   1      43.021  25.673  35.195  1.00  0.00    -0.206 F 
ATOM     62  C   UNL A   1      45.287  25.625  35.806  1.00  0.00     0.040 A 
ATOM     63  C   UNL A   1      46.778  27.354  35.041  1.00  0.00     0.040 A 
ATOM     64  F   UNL A   1      45.964  29.105  33.709  1.00  0.00    -0.206 F 
ATOM     65  C   UNL A   1      46.564  26.182  35.763  1.00  0.00     0.006 A 
ENDBRANCH  44  58
BRANCH  45  66
ATOM     66  C   UNL A   1      36.936  31.472  29.206  1.00  0.00     0.057 A 
ATOM     67  C   UNL A   1      36.984  32.783  28.722  1.00  0.00     0.134 A 
ATOM     68  C   UNL A   1      35.776  30.730  28.952  1.00  0.00     0.134 A 
ATOM     69  F   UNL A   1      38.059  33.549  28.955  1.00  0.00    -0.206 F 
ATOM     70  C   UNL A   1      35.915  33.340  28.017  1.00  0.00     0.040 A 
ATOM     71  C   UNL A   1      34.709  31.267  28.230  1.00  0.00     0.040 A 
ATOM     72  F   UNL A   1      35.670  29.466  29.390  1.00  0.00    -0.206 F 
ATOM     73  C   UNL A   1      34.776  32.579  27.766  1.00  0.00     0.006 A 
ENDBRANCH  45  66
BRANCH  57  74
ATOM     74  C   UNL A   1      39.175  32.189  35.764  1.00  0.00     0.057 A 
ATOM     75  C   UNL A   1      38.301  31.679  36.730  1.00  0.00     0.134 A 
ATOM     76  C   UNL A   1      39.625  33.505  35.930  1.00  0.00     0.134 A 
ATOM     77  F   UNL A   1      37.823  30.429  36.624  1.00  0.00    -0.206 F 
ATOM     78  C   UNL A   1      37.874  32.454  37.811  1.00  0.00     0.040 A 
ATOM     79  C   UNL A   1      39.226  34.282  37.018  1.00  0.00     0.040 A 
ATOM     80  F   UNL A   1      40.472  34.052  35.044  1.00  0.00    -0.206 F 
ATOM     81  C   UNL A   1      38.343  33.758  37.960  1.00  0.00     0.006 A 
ENDBRANCH  57  74
ENDBRANCH  31  32
ENDBRANCH  24  26
ENDBRANCH  23  24
ENDBRANCH  22  23
ENDBRANCH  21  22
ENDBRANCH   1  21
TORSDOF 18
ENDMDL
MODEL 3
REMARK VINA RESULT:      -7.9      4.540      7.409
REMARK SMILES COc1cc(/C=C/C(=O)OCCOCCOC(=O)c2ccc(-c3c4nc(c(-c5c(F)cccc5F)c5ccc([nH]5)c(-c5c(F)cccc5F)c5nc(c(-c6c(F)cccc6F)c6ccc3[nH]6)C=C5)C=C4)cc2)cc(OC)c1O
REMARK SMILES IDX 13 1 12 2 11 3 10 4 8 5 9 6 7 7 6 8 5 9 3 10 4 11 77 12
REMARK SMILES IDX 74 13 73 14 2 15 1 16 78 17 75 19 76 20 14 21 15 22 16 23
REMARK SMILES IDX 17 24 18 25 19 26 20 27 72 28 21 29 71 30 22 31 23 32 24 33
REMARK SMILES IDX 65 34 25 35 70 36 64 37 66 38 26 39 69 40 63 41 62 42 27 44
REMARK SMILES IDX 53 45 36 46 52 47 37 48 40 49 51 50 67 51 38 52 39 53 50 55
REMARK SMILES IDX 68 56 41 57 28 58 29 59 34 60 30 61 31 62 33 63 35 64 32 65
REMARK SMILES IDX 54 66 55 67 60 68 56 69 57 70 59 71 61 72 58 73 42 74 43 75
REMARK SMILES IDX 48 76 44 77 45 78 47 79 49 80 46 81
REMARK H PARENT 78 18 66 43 40 54
REMARK Flexibility Score: inf
ROOT
ATOM      1  O   UNL A   1      34.836  34.055  29.600  1.00  0.00    -0.374 OA
ENDROOT
BRANCH   1   2
ATOM      2  C   UNL A   1      34.093  33.153  28.782  1.00  0.00     0.202 C 
BRANCH   2   3
ATOM      3  C   UNL A   1      34.914  32.096  28.041  1.00  0.00     0.261 C 
BRANCH   3   4
ATOM      4  O   UNL A   1      34.066  31.155  27.363  1.00  0.00    -0.460 OA
BRANCH   4   5
ATOM      5  C   UNL A   1      34.555  29.895  27.293  1.00  0.00     0.330 C 
ATOM      6  O   UNL A   1      35.304  29.360  28.099  1.00  0.00    -0.247 OA
BRANCH   5   7
ATOM      7  C   UNL A   1      34.032  29.143  26.138  1.00  0.00     0.094 C 
ATOM      8  C   UNL A   1      32.876  29.346  25.484  1.00  0.00     0.016 C 
BRANCH   8   9
ATOM      9  C   UNL A   1      32.481  28.507  24.337  1.00  0.00    -0.018 A 
ATOM     10  C   UNL A   1      32.925  26.656  22.793  1.00  0.00     0.165 A 
ATOM     11  C   UNL A   1      33.238  27.398  23.940  1.00  0.00     0.058 A 
ATOM     12  C   UNL A   1      31.799  27.014  22.040  1.00  0.00     0.200 A 
ATOM     13  C   UNL A   1      30.977  28.075  22.459  1.00  0.00     0.165 A 
ATOM     14  C   UNL A   1      31.327  28.806  23.608  1.00  0.00     0.058 A 
BRANCH  10  15
ATOM     15  O   UNL A   1      33.838  25.663  22.568  1.00  0.00    -0.493 OA
ATOM     16  C   UNL A   1      34.225  24.799  23.621  1.00  0.00     0.278 C 
ENDBRANCH  10  15
BRANCH  12  17
ATOM     17  O   UNL A   1      31.523  26.364  20.871  1.00  0.00    -0.502 OA
ATOM     18  H   UNL A   1      31.054  26.805  20.189  1.00  0.00     0.293 HD
ENDBRANCH  12  17
BRANCH  13  19
ATOM     19  O   UNL A   1      29.840  28.558  21.863  1.00  0.00    -0.493 OA
ATOM     20  C   UNL A   1      29.646  29.962  21.783  1.00  0.00     0.278 C 
ENDBRANCH  13  19
ENDBRANCH   8   9
ENDBRANCH   5   7
ENDBRANCH   4   5
ENDBRANCH   3   4
ENDBRANCH   2   3
ENDBRANCH   1   2
BRANCH   1  21
ATOM     21  C   UNL A   1      34.172  34.577  30.755  1.00  0.00     0.202 C 
BRANCH  21  22
ATOM     22  C   UNL A   1      34.710  34.092  32.106  1.00  0.00     0.261 C 
BRANCH  22  23
ATOM     23  O   UNL A   1      35.026  32.687  32.084  1.00  0.00    -0.460 OA
BRANCH  23  24
ATOM     24  C   UNL A   1      36.047  32.315  32.889  1.00  0.00     0.338 C 
ATOM     25  O   UNL A   1      36.115  32.432  34.106  1.00  0.00    -0.246 OA
BRANCH  24  26
ATOM     26  C   UNL A   1      37.049  31.559  32.114  1.00  0.00     0.060 A 
ATOM     27  C   UNL A   1      38.101  30.964  32.822  1.00  0.00     0.016 A 
ATOM     28  C   UNL A   1      36.999  31.484  30.721  1.00  0.00     0.016 A 
ATOM     29  C   UNL A   1      39.135  30.332  32.136  1.00  0.00     0.010 A 
ATOM     30  C   UNL A   1      38.043  30.854  30.033  1.00  0.00     0.010 A 
ATOM     31  C   UNL A   1      39.131  30.305  30.735  1.00  0.00    -0.014 A 
BRANCH  31  32
ATOM     32  C   UNL A   1      40.331  29.827  30.008  1.00  0.00     0.031 A 
ATOM     33  C   UNL A   1      41.470  30.780  29.770  1.00  0.00     0.074 A 
ATOM     34  C   UNL A   1      40.417  28.556  29.581  1.00  0.00     0.049 A 
ATOM     35  N   UNL A   1      42.598  30.584  29.137  1.00  0.00    -0.248 NA
ATOM     36  C   UNL A   1      41.313  32.136  30.319  1.00  0.00     0.031 C 
ATOM     37  C   UNL A   1      39.395  27.529  29.776  1.00  0.00     0.029 A 
ATOM     38  N   UNL A   1      41.412  27.916  28.887  1.00  0.00    -0.354 N 
ATOM     39  C   UNL A   1      43.283  31.791  29.206  1.00  0.00     0.074 A 
ATOM     40  C   UNL A   1      42.431  32.721  29.915  1.00  0.00     0.031 C 
ATOM     41  C   UNL A   1      39.812  26.387  29.204  1.00  0.00     0.029 A 
ATOM     42  C   UNL A   1      41.115  26.612  28.579  1.00  0.00     0.049 A 
ATOM     43  H   UNL A   1      42.259  28.350  28.633  1.00  0.00     0.167 HD
ATOM     44  C   UNL A   1      44.514  32.095  28.729  1.00  0.00     0.037 A 
ATOM     45  C   UNL A   1      41.808  25.708  27.858  1.00  0.00     0.037 A 
ATOM     46  C   UNL A   1      45.361  31.171  28.022  1.00  0.00     0.049 A 
ATOM     47  C   UNL A   1      43.146  26.087  27.283  1.00  0.00     0.074 A 
ATOM     48  C   UNL A   1      46.636  31.375  27.524  1.00  0.00     0.029 A 
ATOM     49  N   UNL A   1      45.012  29.866  27.705  1.00  0.00    -0.354 N 
ATOM     50  N   UNL A   1      43.798  27.219  27.381  1.00  0.00    -0.248 NA
ATOM     51  C   UNL A   1      43.844  25.058  26.498  1.00  0.00     0.031 C 
ATOM     52  C   UNL A   1      47.039  30.210  26.864  1.00  0.00     0.029 A 
ATOM     53  C   UNL A   1      46.037  29.263  26.993  1.00  0.00     0.049 A 
ATOM     54  H   UNL A   1      44.162  29.433  27.950  1.00  0.00     0.167 HD
ATOM     55  C   UNL A   1      44.992  27.034  26.694  1.00  0.00     0.074 A 
ATOM     56  C   UNL A   1      44.978  25.675  26.193  1.00  0.00     0.031 C 
ATOM     57  C   UNL A   1      46.010  27.909  26.500  1.00  0.00     0.037 A 
BRANCH  44  58
ATOM     58  C   UNL A   1      45.001  33.499  28.934  1.00  0.00     0.057 A 
ATOM     59  C   UNL A   1      45.813  33.850  30.021  1.00  0.00     0.134 A 
ATOM     60  C   UNL A   1      44.666  34.510  28.025  1.00  0.00     0.134 A 
ATOM     61  F   UNL A   1      46.159  32.932  30.936  1.00  0.00    -0.206 F 
ATOM     62  C   UNL A   1      46.251  35.163  30.211  1.00  0.00     0.040 A 
ATOM     63  C   UNL A   1      45.118  35.820  28.190  1.00  0.00     0.040 A 
ATOM     64  F   UNL A   1      43.895  34.241  26.960  1.00  0.00    -0.206 F 
ATOM     65  C   UNL A   1      45.906  36.151  29.290  1.00  0.00     0.006 A 
ENDBRANCH  44  58
BRANCH  45  66
ATOM     66  C   UNL A   1      41.242  24.355  27.634  1.00  0.00     0.057 A 
ATOM     67  C   UNL A   1      41.712  23.245  28.344  1.00  0.00     0.134 A 
ATOM     68  C   UNL A   1      40.219  24.141  26.703  1.00  0.00     0.134 A 
ATOM     69  F   UNL A   1      42.706  23.384  29.232  1.00  0.00    -0.206 F 
ATOM     70  C   UNL A   1      41.191  21.968  28.130  1.00  0.00     0.040 A 
ATOM     71  C   UNL A   1      39.673  22.873  26.494  1.00  0.00     0.040 A 
ATOM     72  F   UNL A   1      39.725  25.166  25.990  1.00  0.00    -0.206 F 
ATOM     73  C   UNL A   1      40.165  21.781  27.205  1.00  0.00     0.006 A 
ENDBRANCH  45  66
BRANCH  57  74
ATOM     74  C   UNL A   1      47.204  27.418  25.736  1.00  0.00     0.057 A 
ATOM     75  C   UNL A   1      48.267  26.761  26.367  1.00  0.00     0.134 A 
ATOM     76  C   UNL A   1      47.271  27.567  24.344  1.00  0.00     0.134 A 
ATOM     77  F   UNL A   1      48.271  26.596  27.698  1.00  0.00    -0.206 F 
ATOM     78  C   UNL A   1      49.364  26.288  25.643  1.00  0.00     0.040 A 
ATOM     79  C   UNL A   1      48.349  27.077  23.607  1.00  0.00     0.040 A 
ATOM     80  F   UNL A   1      46.281  28.179  23.677  1.00  0.00    -0.206 F 
ATOM     81  C   UNL A   1      49.403  26.439  24.259  1.00  0.00     0.006 A 
ENDBRANCH  57  74
ENDBRANCH  31  32
ENDBRANCH  24  26
ENDBRANCH  23  24
ENDBRANCH  22  23
ENDBRANCH  21  22
ENDBRANCH   1  21
TORSDOF 18
ENDMDL
