MODEL 1
REMARK VINA RESULT:     -11.4      0.000      0.000
REMARK SMILES Cc1c(Br)c(C)c2c(c1Br)O[C@H](C(F)(F)F)C(C(=O)OCCOCCOC(=O)c1ccc(-c3c4nc(c(-c5c(F)cccc5F)c5ccc([nH]5)c(-c5c(F)cccc5F)c5nc(c(-c6c(F)cccc6F)c6ccc3[nH]6)C=C5)C=C4)cc1)=C2
REMARK SMILES IDX 24 1 23 2 22 3 21 4 20 5 18 6 19 7 17 8 1 9 2 10 3 11 9 12
REMARK SMILES IDX 4 13 5 14 8 15 10 16 6 17 7 18 11 19 83 20 12 21 13 22 14 23
REMARK SMILES IDX 15 24 16 25 25 26 26 27 27 28 28 29 29 30 30 31 82 32 31 33
REMARK SMILES IDX 81 34 32 35 33 36 34 37 75 38 35 39 80 40 74 41 76 42 36 43
REMARK SMILES IDX 79 44 73 45 72 46 37 48 63 49 46 50 62 51 47 52 50 53 61 54
REMARK SMILES IDX 77 55 48 56 49 57 60 59 78 60 51 61 38 62 39 63 44 64 40 65
REMARK SMILES IDX 41 66 43 67 45 68 42 69 64 70 65 71 70 72 66 73 67 74 69 75
REMARK SMILES IDX 71 76 68 77 52 78 53 79 58 80 54 81 55 82 57 83 59 84 56 85
REMARK H PARENT 76 47 50 58
REMARK Flexibility Score: inf
ROOT
ATOM      1  C   UNL A   1      31.493  31.901  26.827  1.00  0.00     0.202 C 
ENDROOT
BRANCH   1   2
ATOM      2  O   UNL A   1      32.058  30.719  26.255  1.00  0.00    -0.374 OA
BRANCH   2   3
ATOM      3  C   UNL A   1      31.994  29.517  27.018  1.00  0.00     0.202 C 
BRANCH   3   4
ATOM      4  C   UNL A   1      33.094  28.485  26.752  1.00  0.00     0.261 C 
BRANCH   4   5
ATOM      5  O   UNL A   1      32.547  27.254  26.250  1.00  0.00    -0.460 OA
BRANCH   5   6
ATOM      6  C   UNL A   1      33.142  26.790  25.129  1.00  0.00     0.338 C 
ATOM      7  O   UNL A   1      33.535  27.453  24.179  1.00  0.00    -0.246 OA
BRANCH   6   8
ATOM      8  C   UNL A   1      33.380  25.341  25.249  1.00  0.00     0.087 C 
ATOM      9  C   UNL A   1      35.934  19.368  24.809  1.00  0.00     0.047 C 
ATOM     10  C   UNL A   1      35.614  20.818  25.090  1.00  0.00    -0.019 A 
ATOM     11  C   UNL A   1      36.632  21.751  25.404  1.00  0.00     0.025 A 
ATOM     12  C   UNL A   1      34.277  21.268  25.091  1.00  0.00     0.064 A 
ATOM     13  Br  UNL A   1      38.439  21.129  25.593  1.00  0.00    -0.050 Br
ATOM     14  C   UNL A   1      36.341  23.125  25.592  1.00  0.00    -0.026 A 
ATOM     15  C   UNL A   1      33.970  22.630  25.258  1.00  0.00     0.142 A 
ATOM     16  Br  UNL A   1      32.825  20.037  24.861  1.00  0.00    -0.046 Br
ATOM     17  C   UNL A   1      37.407  24.145  25.930  1.00  0.00     0.046 C 
ATOM     18  C   UNL A   1      34.998  23.561  25.454  1.00  0.00     0.022 A 
ATOM     19  O   UNL A   1      32.644  22.981  25.243  1.00  0.00    -0.474 OA
ATOM     20  C   UNL A   1      34.650  24.979  25.460  1.00  0.00     0.027 C 
ATOM     21  C   UNL A   1      32.252  24.370  25.108  1.00  0.00     0.316 C 
BRANCH  21  22
ATOM     22  C   UNL A   1      31.478  24.538  23.792  1.00  0.00     0.430 C 
ATOM     23  F   UNL A   1      32.320  24.743  22.751  1.00  0.00    -0.167 F 
ATOM     24  F   UNL A   1      30.756  23.433  23.492  1.00  0.00    -0.167 F 
ATOM     25  F   UNL A   1      30.622  25.583  23.836  1.00  0.00    -0.167 F 
ENDBRANCH  21  22
ENDBRANCH   6   8
ENDBRANCH   5   6
ENDBRANCH   4   5
ENDBRANCH   3   4
ENDBRANCH   2   3
ENDBRANCH   1   2
BRANCH   1  26
ATOM     26  C   UNL A   1      32.399  33.135  26.899  1.00  0.00     0.261 C 
BRANCH  26  27
ATOM     27  O   UNL A   1      32.201  33.875  28.119  1.00  0.00    -0.460 OA
BRANCH  27  28
ATOM     28  C   UNL A   1      33.258  34.623  28.510  1.00  0.00     0.338 C 
ATOM     29  O   UNL A   1      33.263  35.818  28.783  1.00  0.00    -0.246 OA
BRANCH  28  30
ATOM     30  C   UNL A   1      34.424  33.760  28.755  1.00  0.00     0.060 A 
ATOM     31  C   UNL A   1      34.215  32.580  29.480  1.00  0.00     0.016 A 
ATOM     32  C   UNL A   1      35.711  34.141  28.371  1.00  0.00     0.016 A 
ATOM     33  C   UNL A   1      35.301  31.798  29.866  1.00  0.00     0.010 A 
ATOM     34  C   UNL A   1      36.802  33.361  28.770  1.00  0.00     0.010 A 
ATOM     35  C   UNL A   1      36.603  32.208  29.550  1.00  0.00    -0.014 A 
BRANCH  35  36
ATOM     36  C   UNL A   1      37.749  31.509  30.179  1.00  0.00     0.031 A 
ATOM     37  C   UNL A   1      38.077  31.799  31.617  1.00  0.00     0.074 A 
ATOM     38  C   UNL A   1      38.447  30.583  29.498  1.00  0.00     0.049 A 
ATOM     39  N   UNL A   1      39.015  31.286  32.372  1.00  0.00    -0.248 NA
ATOM     40  C   UNL A   1      37.232  32.793  32.298  1.00  0.00     0.031 C 
ATOM     41  C   UNL A   1      38.190  30.180  28.117  1.00  0.00     0.029 A 
ATOM     42  N   UNL A   1      39.510  29.808  29.886  1.00  0.00    -0.354 N 
ATOM     43  C   UNL A   1      38.865  31.886  33.616  1.00  0.00     0.074 A 
ATOM     44  C   UNL A   1      37.774  32.829  33.507  1.00  0.00     0.031 C 
ATOM     45  C   UNL A   1      39.071  29.224  27.773  1.00  0.00     0.029 A 
ATOM     46  C   UNL A   1      39.968  28.969  28.900  1.00  0.00     0.049 A 
ATOM     47  H   UNL A   1      39.906  29.848  30.786  1.00  0.00     0.167 HD
ATOM     48  C   UNL A   1      39.566  31.659  34.752  1.00  0.00     0.037 A 
ATOM     49  C   UNL A   1      40.998  28.102  28.904  1.00  0.00     0.037 A 
ATOM     50  C   UNL A   1      40.654  30.726  34.860  1.00  0.00     0.049 A 
ATOM     51  C   UNL A   1      41.825  27.940  30.152  1.00  0.00     0.074 A 
ATOM     52  C   UNL A   1      41.418  30.421  35.972  1.00  0.00     0.029 A 
ATOM     53  N   UNL A   1      41.134  29.949  33.817  1.00  0.00    -0.354 N 
ATOM     54  N   UNL A   1      41.666  28.500  31.326  1.00  0.00    -0.248 NA
ATOM     55  C   UNL A   1      42.978  27.031  30.073  1.00  0.00     0.031 C 
ATOM     56  C   UNL A   1      42.393  29.494  35.591  1.00  0.00     0.029 A 
ATOM     57  C   UNL A   1      42.206  29.187  34.252  1.00  0.00     0.049 A 
ATOM     58  H   UNL A   1      40.769  29.942  32.904  1.00  0.00     0.167 HD
ATOM     59  C   UNL A   1      42.683  27.999  32.130  1.00  0.00     0.074 A 
ATOM     60  C   UNL A   1      43.448  27.080  31.314  1.00  0.00     0.031 C 
ATOM     61  C   UNL A   1      42.957  28.276  33.428  1.00  0.00     0.037 A 
BRANCH  48  62
ATOM     62  C   UNL A   1      39.181  32.440  35.972  1.00  0.00     0.057 A 
ATOM     63  C   UNL A   1      38.305  31.917  36.932  1.00  0.00     0.134 A 
ATOM     64  C   UNL A   1      39.731  33.703  36.217  1.00  0.00     0.134 A 
ATOM     65  F   UNL A   1      37.732  30.717  36.748  1.00  0.00    -0.206 F 
ATOM     66  C   UNL A   1      37.981  32.629  38.087  1.00  0.00     0.040 A 
ATOM     67  C   UNL A   1      39.434  34.416  37.379  1.00  0.00     0.040 A 
ATOM     68  F   UNL A   1      40.580  34.259  35.338  1.00  0.00    -0.206 F 
ATOM     69  C   UNL A   1      38.554  33.880  38.318  1.00  0.00     0.006 A 
ENDBRANCH  48  62
BRANCH  49  70
ATOM     70  C   UNL A   1      41.307  27.315  27.685  1.00  0.00     0.057 A 
ATOM     71  C   UNL A   1      42.150  27.823  26.691  1.00  0.00     0.134 A 
ATOM     72  C   UNL A   1      40.768  26.037  27.485  1.00  0.00     0.134 A 
ATOM     73  F   UNL A   1      42.676  29.050  26.815  1.00  0.00    -0.206 F 
ATOM     74  C   UNL A   1      42.445  27.091  25.539  1.00  0.00     0.040 A 
ATOM     75  C   UNL A   1      41.072  25.286  26.349  1.00  0.00     0.040 A 
ATOM     76  F   UNL A   1      39.951  25.496  28.401  1.00  0.00    -0.206 F 
ATOM     77  C   UNL A   1      41.910  25.815  25.370  1.00  0.00     0.006 A 
ENDBRANCH  49  70
BRANCH  61  78
ATOM     78  C   UNL A   1      44.123  27.577  34.060  1.00  0.00     0.057 A 
ATOM     79  C   UNL A   1      45.388  28.172  34.119  1.00  0.00     0.134 A 
ATOM     80  C   UNL A   1      43.958  26.339  34.695  1.00  0.00     0.134 A 
ATOM     81  F   UNL A   1      45.613  29.352  33.522  1.00  0.00    -0.206 F 
ATOM     82  C   UNL A   1      46.452  27.558  34.782  1.00  0.00     0.040 A 
ATOM     83  C   UNL A   1      45.007  25.726  35.382  1.00  0.00     0.040 A 
ATOM     84  F   UNL A   1      42.766  25.722  34.685  1.00  0.00    -0.206 F 
ATOM     85  C   UNL A   1      46.258  26.337  35.426  1.00  0.00     0.006 A 
ENDBRANCH  61  78
ENDBRANCH  35  36
ENDBRANCH  28  30
ENDBRANCH  27  28
ENDBRANCH  26  27
ENDBRANCH   1  26
TORSDOF 15
ENDMDL
MODEL 2
REMARK VINA RESULT:     -11.3      4.173      7.813
REMARK SMILES Cc1c(Br)c(C)c2c(c1Br)O[C@H](C(F)(F)F)C(C(=O)OCCOCCOC(=O)c1ccc(-c3c4nc(c(-c5c(F)cccc5F)c5ccc([nH]5)c(-c5c(F)cccc5F)c5nc(c(-c6c(F)cccc6F)c6ccc3[nH]6)C=C5)C=C4)cc1)=C2
REMARK SMILES IDX 24 1 23 2 22 3 21 4 20 5 18 6 19 7 17 8 1 9 2 10 3 11 9 12
REMARK SMILES IDX 4 13 5 14 8 15 10 16 6 17 7 18 11 19 83 20 12 21 13 22 14 23
REMARK SMILES IDX 15 24 16 25 25 26 26 27 27 28 28 29 29 30 30 31 82 32 31 33
REMARK SMILES IDX 81 34 32 35 33 36 34 37 75 38 35 39 80 40 74 41 76 42 36 43
REMARK SMILES IDX 79 44 73 45 72 46 37 48 63 49 46 50 62 51 47 52 50 53 61 54
REMARK SMILES IDX 77 55 48 56 49 57 60 59 78 60 51 61 38 62 39 63 44 64 40 65
REMARK SMILES IDX 41 66 43 67 45 68 42 69 64 70 65 71 70 72 66 73 67 74 69 75
REMARK SMILES IDX 71 76 68 77 52 78 53 79 58 80 54 81 55 82 57 83 59 84 56 85
REMARK H PARENT 76 47 50 58
REMARK Flexibility Score: inf
ROOT
ATOM      1  C   UNL A   1      35.159  20.825  24.691  1.00  0.00     0.202 C 
ENDROOT
BRANCH   1   2
ATOM      2  O   UNL A   1      34.189  21.113  25.700  1.00  0.00    -0.374 OA
BRANCH   2   3
ATOM      3  C   UNL A   1      34.608  21.885  26.823  1.00  0.00     0.202 C 
BRANCH   3   4
ATOM      4  C   UNL A   1      34.959  23.349  26.546  1.00  0.00     0.261 C 
BRANCH   4   5
ATOM      5  O   UNL A   1      33.805  24.094  26.123  1.00  0.00    -0.460 OA
BRANCH   5   6
ATOM      6  C   UNL A   1      33.865  24.549  24.851  1.00  0.00     0.338 C 
ATOM      7  O   UNL A   1      34.219  23.922  23.863  1.00  0.00    -0.246 OA
BRANCH   6   8
ATOM      8  C   UNL A   1      33.312  25.913  24.780  1.00  0.00     0.087 C 
ATOM      9  C   UNL A   1      31.161  31.874  26.278  1.00  0.00     0.047 C 
ATOM     10  C   UNL A   1      31.953  30.610  26.033  1.00  0.00    -0.019 A 
ATOM     11  C   UNL A   1      33.161  30.349  26.728  1.00  0.00     0.025 A 
ATOM     12  C   UNL A   1      31.528  29.675  25.066  1.00  0.00     0.064 A 
ATOM     13  Br  UNL A   1      33.861  31.687  27.913  1.00  0.00    -0.050 Br
ATOM     14  C   UNL A   1      33.861  29.130  26.554  1.00  0.00    -0.026 A 
ATOM     15  C   UNL A   1      32.201  28.453  24.893  1.00  0.00     0.142 A 
ATOM     16  Br  UNL A   1      30.010  30.037  23.951  1.00  0.00    -0.046 Br
ATOM     17  C   UNL A   1      35.154  28.823  27.280  1.00  0.00     0.046 C 
ATOM     18  C   UNL A   1      33.329  28.158  25.669  1.00  0.00     0.022 A 
ATOM     19  O   UNL A   1      31.718  27.601  23.932  1.00  0.00    -0.474 OA
ATOM     20  C   UNL A   1      33.898  26.817  25.572  1.00  0.00     0.027 C 
ATOM     21  C   UNL A   1      32.152  26.220  23.887  1.00  0.00     0.316 C 
BRANCH  21  22
ATOM     22  C   UNL A   1      30.940  25.314  24.150  1.00  0.00     0.430 C 
ATOM     23  F   UNL A   1      29.781  25.945  23.847  1.00  0.00    -0.167 F 
ATOM     24  F   UNL A   1      30.979  24.194  23.391  1.00  0.00    -0.167 F 
ATOM     25  F   UNL A   1      30.867  24.927  25.443  1.00  0.00    -0.167 F 
ENDBRANCH  21  22
ENDBRANCH   6   8
ENDBRANCH   5   6
ENDBRANCH   4   5
ENDBRANCH   3   4
ENDBRANCH   2   3
ENDBRANCH   1   2
BRANCH   1  26
ATOM     26  C   UNL A   1      36.522  20.311  25.168  1.00  0.00     0.261 C 
BRANCH  26  27
ATOM     27  O   UNL A   1      37.535  21.333  25.100  1.00  0.00    -0.460 OA
BRANCH  27  28
ATOM     28  C   UNL A   1      38.685  21.038  25.749  1.00  0.00     0.338 C 
ATOM     29  O   UNL A   1      39.302  19.980  25.725  1.00  0.00    -0.246 OA
BRANCH  28  30
ATOM     30  C   UNL A   1      39.236  22.250  26.374  1.00  0.00     0.060 A 
ATOM     31  C   UNL A   1      38.694  23.483  25.987  1.00  0.00     0.016 A 
ATOM     32  C   UNL A   1      40.324  22.194  27.247  1.00  0.00     0.016 A 
ATOM     33  C   UNL A   1      39.270  24.669  26.436  1.00  0.00     0.010 A 
ATOM     34  C   UNL A   1      40.909  23.386  27.687  1.00  0.00     0.010 A 
ATOM     35  C   UNL A   1      40.407  24.627  27.253  1.00  0.00    -0.014 A 
BRANCH  35  36
ATOM     36  C   UNL A   1      41.154  25.881  27.512  1.00  0.00     0.031 A 
ATOM     37  C   UNL A   1      40.485  26.976  28.294  1.00  0.00     0.074 A 
ATOM     38  C   UNL A   1      42.430  26.016  27.112  1.00  0.00     0.049 A 
ATOM     39  N   UNL A   1      40.958  28.141  28.658  1.00  0.00    -0.248 NA
ATOM     40  C   UNL A   1      39.103  26.724  28.732  1.00  0.00     0.031 C 
ATOM     41  C   UNL A   1      43.200  25.004  26.392  1.00  0.00     0.029 A 
ATOM     42  N   UNL A   1      43.305  27.061  27.266  1.00  0.00    -0.354 N 
ATOM     43  C   UNL A   1      39.937  28.753  29.375  1.00  0.00     0.074 A 
ATOM     44  C   UNL A   1      38.807  27.851  29.363  1.00  0.00     0.031 C 
ATOM     45  C   UNL A   1      44.439  25.478  26.170  1.00  0.00     0.029 A 
ATOM     46  C   UNL A   1      44.539  26.833  26.710  1.00  0.00     0.049 A 
ATOM     47  H   UNL A   1      43.070  27.896  27.733  1.00  0.00     0.167 HD
ATOM     48  C   UNL A   1      39.948  29.954  30.000  1.00  0.00     0.037 A 
ATOM     49  C   UNL A   1      45.622  27.631  26.637  1.00  0.00     0.037 A 
ATOM     50  C   UNL A   1      41.069  30.853  30.009  1.00  0.00     0.049 A 
ATOM     51  C   UNL A   1      45.574  29.003  27.256  1.00  0.00     0.074 A 
ATOM     52  C   UNL A   1      41.176  32.088  30.623  1.00  0.00     0.029 A 
ATOM     53  N   UNL A   1      42.276  30.615  29.370  1.00  0.00    -0.354 N 
ATOM     54  N   UNL A   1      44.610  29.566  27.943  1.00  0.00    -0.248 NA
ATOM     55  C   UNL A   1      46.762  29.853  27.083  1.00  0.00     0.031 C 
ATOM     56  C   UNL A   1      42.433  32.620  30.317  1.00  0.00     0.029 A 
ATOM     57  C   UNL A   1      43.124  31.695  29.550  1.00  0.00     0.049 A 
ATOM     58  H   UNL A   1      42.497  29.801  28.864  1.00  0.00     0.167 HD
ATOM     59  C   UNL A   1      45.080  30.824  28.301  1.00  0.00     0.074 A 
ATOM     60  C   UNL A   1      46.420  30.939  27.765  1.00  0.00     0.031 C 
ATOM     61  C   UNL A   1      44.456  31.795  29.010  1.00  0.00     0.037 A 
BRANCH  48  62
ATOM     62  C   UNL A   1      38.703  30.369  30.724  1.00  0.00     0.057 A 
ATOM     63  C   UNL A   1      37.670  31.056  30.073  1.00  0.00     0.134 A 
ATOM     64  C   UNL A   1      38.511  30.034  32.070  1.00  0.00     0.134 A 
ATOM     65  F   UNL A   1      37.799  31.418  28.788  1.00  0.00    -0.206 F 
ATOM     66  C   UNL A   1      36.494  31.404  30.739  1.00  0.00     0.040 A 
ATOM     67  C   UNL A   1      37.330  30.357  32.740  1.00  0.00     0.040 A 
ATOM     68  F   UNL A   1      39.461  29.373  32.750  1.00  0.00    -0.206 F 
ATOM     69  C   UNL A   1      36.318  31.046  32.075  1.00  0.00     0.006 A 
ENDBRANCH  48  62
BRANCH  49  70
ATOM     70  C   UNL A   1      46.847  27.152  25.952  1.00  0.00     0.057 A 
ATOM     71  C   UNL A   1      47.846  26.466  26.652  1.00  0.00     0.134 A 
ATOM     72  C   UNL A   1      47.049  27.367  24.583  1.00  0.00     0.134 A 
ATOM     73  F   UNL A   1      47.719  26.250  27.970  1.00  0.00    -0.206 F 
ATOM     74  C   UNL A   1      49.003  26.012  26.017  1.00  0.00     0.040 A 
ATOM     75  C   UNL A   1      48.191  26.901  23.931  1.00  0.00     0.040 A 
ATOM     76  F   UNL A   1      46.130  28.021  23.858  1.00  0.00    -0.206 F 
ATOM     77  C   UNL A   1      49.174  26.224  24.650  1.00  0.00     0.006 A 
ENDBRANCH  49  70
BRANCH  61  78
ATOM     78  C   UNL A   1      45.208  33.068  29.262  1.00  0.00     0.057 A 
ATOM     79  C   UNL A   1      46.081  33.199  30.348  1.00  0.00     0.134 A 
ATOM     80  C   UNL A   1      45.126  34.138  28.362  1.00  0.00     0.134 A 
ATOM     81  F   UNL A   1      46.197  32.214  31.250  1.00  0.00    -0.206 F 
ATOM     82  C   UNL A   1      46.845  34.353  30.532  1.00  0.00     0.040 A 
ATOM     83  C   UNL A   1      45.901  35.287  28.522  1.00  0.00     0.040 A 
ATOM     84  F   UNL A   1      44.315  34.070  27.294  1.00  0.00    -0.206 F 
ATOM     85  C   UNL A   1      46.764  35.396  29.611  1.00  0.00     0.006 A 
ENDBRANCH  61  78
ENDBRANCH  35  36
ENDBRANCH  28  30
ENDBRANCH  27  28
ENDBRANCH  26  27
ENDBRANCH   1  26
TORSDOF 15
ENDMDL
MODEL 3
REMARK VINA RESULT:     -11.3      4.167      9.418
REMARK SMILES Cc1c(Br)c(C)c2c(c1Br)O[C@H](C(F)(F)F)C(C(=O)OCCOCCOC(=O)c1ccc(-c3c4nc(c(-c5c(F)cccc5F)c5ccc([nH]5)c(-c5c(F)cccc5F)c5nc(c(-c6c(F)cccc6F)c6ccc3[nH]6)C=C5)C=C4)cc1)=C2
REMARK SMILES IDX 24 1 23 2 22 3 21 4 20 5 18 6 19 7 17 8 1 9 2 10 3 11 9 12
REMARK SMILES IDX 4 13 5 14 8 15 10 16 6 17 7 18 11 19 83 20 12 21 13 22 14 23
REMARK SMILES IDX 15 24 16 25 25 26 26 27 27 28 28 29 29 30 30 31 82 32 31 33
REMARK SMILES IDX 81 34 32 35 33 36 34 37 75 38 35 39 80 40 74 41 76 42 36 43
REMARK SMILES IDX 79 44 73 45 72 46 37 48 63 49 46 50 62 51 47 52 50 53 61 54
REMARK SMILES IDX 77 55 48 56 49 57 60 59 78 60 51 61 38 62 39 63 44 64 40 65
REMARK SMILES IDX 41 66 43 67 45 68 42 69 64 70 65 71 70 72 66 73 67 74 69 75
REMARK SMILES IDX 71 76 68 77 52 78 53 79 58 80 54 81 55 82 57 83 59 84 56 85
REMARK H PARENT 76 47 50 58
REMARK Flexibility Score: inf
ROOT
ATOM      1  C   UNL A   1      36.226  20.103  24.952  1.00  0.00     0.202 C 
ENDROOT
BRANCH   1   2
ATOM      2  O   UNL A   1      35.843  21.479  24.916  1.00  0.00    -0.374 OA
BRANCH   2   3
ATOM      3  C   UNL A   1      35.196  22.019  26.066  1.00  0.00     0.202 C 
BRANCH   3   4
ATOM      4  C   UNL A   1      35.258  23.540  26.228  1.00  0.00     0.261 C 
BRANCH   4   5
ATOM      5  O   UNL A   1      34.045  24.164  25.776  1.00  0.00    -0.460 OA
BRANCH   5   6
ATOM      6  C   UNL A   1      34.119  24.706  24.539  1.00  0.00     0.338 C 
ATOM      7  O   UNL A   1      34.521  24.160  23.522  1.00  0.00    -0.246 OA
BRANCH   6   8
ATOM      8  C   UNL A   1      33.518  26.051  24.543  1.00  0.00     0.087 C 
ATOM      9  C   UNL A   1      31.164  31.841  26.369  1.00  0.00     0.047 C 
ATOM     10  C   UNL A   1      31.999  30.622  26.054  1.00  0.00    -0.019 A 
ATOM     11  C   UNL A   1      33.219  30.367  26.728  1.00  0.00     0.025 A 
ATOM     12  C   UNL A   1      31.602  29.726  25.039  1.00  0.00     0.064 A 
ATOM     13  Br  UNL A   1      33.877  31.664  27.981  1.00  0.00    -0.050 Br
ATOM     14  C   UNL A   1      33.962  29.186  26.487  1.00  0.00    -0.026 A 
ATOM     15  C   UNL A   1      32.316  28.540  24.798  1.00  0.00     0.142 A 
ATOM     16  Br  UNL A   1      30.066  30.092  23.951  1.00  0.00    -0.046 Br
ATOM     17  C   UNL A   1      35.269  28.887  27.190  1.00  0.00     0.046 C 
ATOM     18  C   UNL A   1      33.459  28.245  25.552  1.00  0.00     0.022 A 
ATOM     19  O   UNL A   1      31.859  27.724  23.794  1.00  0.00    -0.474 OA
ATOM     20  C   UNL A   1      34.076  26.932  25.381  1.00  0.00     0.027 C 
ATOM     21  C   UNL A   1      32.342  26.363  23.673  1.00  0.00     0.316 C 
BRANCH  21  22
ATOM     22  C   UNL A   1      31.165  25.401  23.891  1.00  0.00     0.430 C 
ATOM     23  F   UNL A   1      29.991  25.975  23.536  1.00  0.00    -0.167 F 
ATOM     24  F   UNL A   1      31.290  24.281  23.143  1.00  0.00    -0.167 F 
ATOM     25  F   UNL A   1      31.056  25.018  25.183  1.00  0.00    -0.167 F 
ENDBRANCH  21  22
ENDBRANCH   6   8
ENDBRANCH   5   6
ENDBRANCH   4   5
ENDBRANCH   3   4
ENDBRANCH   2   3
ENDBRANCH   1   2
BRANCH   1  26
ATOM     26  C   UNL A   1      37.728  19.803  24.976  1.00  0.00     0.261 C 
BRANCH  26  27
ATOM     27  O   UNL A   1      38.504  20.976  25.286  1.00  0.00    -0.460 OA
BRANCH  27  28
ATOM     28  C   UNL A   1      39.534  20.769  26.139  1.00  0.00     0.338 C 
ATOM     29  O   UNL A   1      40.192  19.744  26.275  1.00  0.00    -0.246 OA
BRANCH  28  30
ATOM     30  C   UNL A   1      39.911  22.032  26.792  1.00  0.00     0.060 A 
ATOM     31  C   UNL A   1      39.255  23.198  26.375  1.00  0.00     0.016 A 
ATOM     32  C   UNL A   1      40.950  22.094  27.722  1.00  0.00     0.016 A 
ATOM     33  C   UNL A   1      39.669  24.438  26.852  1.00  0.00     0.010 A 
ATOM     34  C   UNL A   1      41.372  23.343  28.192  1.00  0.00     0.010 A 
ATOM     35  C   UNL A   1      40.758  24.521  27.729  1.00  0.00    -0.014 A 
BRANCH  35  36
ATOM     36  C   UNL A   1      41.343  25.849  28.027  1.00  0.00     0.031 A 
ATOM     37  C   UNL A   1      42.736  26.154  27.549  1.00  0.00     0.074 A 
ATOM     38  C   UNL A   1      40.622  26.793  28.657  1.00  0.00     0.049 A 
ATOM     39  N   UNL A   1      43.431  27.255  27.673  1.00  0.00    -0.248 NA
ATOM     40  C   UNL A   1      43.434  25.078  26.828  1.00  0.00     0.031 C 
ATOM     41  C   UNL A   1      39.246  26.632  29.121  1.00  0.00     0.029 A 
ATOM     42  N   UNL A   1      40.949  28.079  29.004  1.00  0.00    -0.354 N 
ATOM     43  C   UNL A   1      44.642  27.008  27.039  1.00  0.00     0.074 A 
ATOM     44  C   UNL A   1      44.604  25.643  26.563  1.00  0.00     0.031 C 
ATOM     45  C   UNL A   1      38.842  27.782  29.691  1.00  0.00     0.029 A 
ATOM     46  C   UNL A   1      39.940  28.747  29.652  1.00  0.00     0.049 A 
ATOM     47  H   UNL A   1      41.824  28.484  28.806  1.00  0.00     0.167 HD
ATOM     48  C   UNL A   1      45.686  27.851  26.855  1.00  0.00     0.037 A 
ATOM     49  C   UNL A   1      39.910  29.993  30.164  1.00  0.00     0.037 A 
ATOM     50  C   UNL A   1      45.727  29.207  27.331  1.00  0.00     0.049 A 
ATOM     51  C   UNL A   1      41.122  30.877  30.034  1.00  0.00     0.074 A 
ATOM     52  C   UNL A   1      46.738  30.139  27.185  1.00  0.00     0.029 A 
ATOM     53  N   UNL A   1      44.713  29.821  28.048  1.00  0.00    -0.354 N 
ATOM     54  N   UNL A   1      42.255  30.639  29.419  1.00  0.00    -0.248 NA
ATOM     55  C   UNL A   1      41.053  32.200  30.673  1.00  0.00     0.031 C 
ATOM     56  C   UNL A   1      46.356  31.305  27.855  1.00  0.00     0.029 A 
ATOM     57  C   UNL A   1      45.087  31.113  28.379  1.00  0.00     0.049 A 
ATOM     58  H   UNL A   1      43.855  29.402  28.287  1.00  0.00     0.167 HD
ATOM     59  C   UNL A   1      43.025  31.785  29.580  1.00  0.00     0.074 A 
ATOM     60  C   UNL A   1      42.226  32.723  30.340  1.00  0.00     0.031 C 
ATOM     61  C   UNL A   1      44.280  32.036  29.136  1.00  0.00     0.037 A 
BRANCH  48  62
ATOM     62  C   UNL A   1      46.877  27.327  26.111  1.00  0.00     0.057 A 
ATOM     63  C   UNL A   1      47.924  26.671  26.771  1.00  0.00     0.134 A 
ATOM     64  C   UNL A   1      46.953  27.431  24.717  1.00  0.00     0.134 A 
ATOM     65  F   UNL A   1      47.917  26.552  28.107  1.00  0.00    -0.206 F 
ATOM     66  C   UNL A   1      49.011  26.147  26.070  1.00  0.00     0.040 A 
ATOM     67  C   UNL A   1      48.024  26.891  24.003  1.00  0.00     0.040 A 
ATOM     68  F   UNL A   1      45.980  28.044  24.025  1.00  0.00    -0.206 F 
ATOM     69  C   UNL A   1      49.058  26.248  24.680  1.00  0.00     0.006 A 
ENDBRANCH  48  62
BRANCH  49  70
ATOM     70  C   UNL A   1      38.688  30.481  30.848  1.00  0.00     0.057 A 
ATOM     71  C   UNL A   1      38.497  30.281  32.219  1.00  0.00     0.134 A 
ATOM     72  C   UNL A   1      37.682  31.161  30.148  1.00  0.00     0.134 A 
ATOM     73  F   UNL A   1      39.413  29.616  32.938  1.00  0.00    -0.206 F 
ATOM     74  C   UNL A   1      37.349  30.736  32.871  1.00  0.00     0.040 A 
ATOM     75  C   UNL A   1      36.540  31.640  30.791  1.00  0.00     0.040 A 
ATOM     76  F   UNL A   1      37.806  31.383  28.831  1.00  0.00    -0.206 F 
ATOM     77  C   UNL A   1      36.370  31.423  32.156  1.00  0.00     0.006 A 
ENDBRANCH  49  70
BRANCH  61  78
ATOM     78  C   UNL A   1      44.876  33.376  29.447  1.00  0.00     0.057 A 
ATOM     79  C   UNL A   1      44.651  34.486  28.625  1.00  0.00     0.134 A 
ATOM     80  C   UNL A   1      45.605  33.580  30.626  1.00  0.00     0.134 A 
ATOM     81  F   UNL A   1      43.968  34.355  27.478  1.00  0.00    -0.206 F 
ATOM     82  C   UNL A   1      45.134  35.751  28.961  1.00  0.00     0.040 A 
ATOM     83  C   UNL A   1      46.073  34.844  30.985  1.00  0.00     0.040 A 
ATOM     84  F   UNL A   1      45.846  32.559  31.463  1.00  0.00    -0.206 F 
ATOM     85  C   UNL A   1      45.838  35.934  30.150  1.00  0.00     0.006 A 
ENDBRANCH  61  78
ENDBRANCH  35  36
ENDBRANCH  28  30
ENDBRANCH  27  28
ENDBRANCH  26  27
ENDBRANCH   1  26
TORSDOF 15
ENDMDL
