MODEL 1
REMARK VINA RESULT:     -10.8      0.000      0.000
REMARK SMILES Cc1ccc(C)c(/C=C2\SC(=S)N(CC(=O)OCCOCCOC(=O)c3ccc(-c4c5nc(c(-c6c(F)cccc6F)c6ccc([nH]6)c(-c6c(F)cccc6F)c6nc(c(-c7c(F)cccc7F)c7ccc4[nH]7)C=C6)C=C5)cc3)C2=O)c1
REMARK SMILES IDX 20 1 19 2 18 3 17 4 15 5 16 6 14 7 13 8 8 9 9 10 10 11 80 12
REMARK SMILES IDX 11 13 81 14 12 15 7 16 1 17 2 18 3 19 82 20 4 21 5 22 6 23
REMARK SMILES IDX 21 24 22 25 23 26 24 27 25 28 26 29 27 30 79 31 28 32 78 33
REMARK SMILES IDX 29 34 30 35 31 36 72 37 32 38 77 39 71 40 73 41 33 42 76 43
REMARK SMILES IDX 70 44 69 45 34 47 60 48 43 49 59 50 44 51 47 52 58 53 74 54
REMARK SMILES IDX 45 55 46 56 57 58 75 59 48 60 35 61 36 62 41 63 37 64 38 65
REMARK SMILES IDX 40 66 42 67 39 68 61 69 62 70 67 71 63 72 64 73 66 74 68 75
REMARK SMILES IDX 65 76 49 77 50 78 55 79 51 80 52 81 54 82 56 83 53 84
REMARK H PARENT 73 46 47 57
REMARK Flexibility Score: inf
ROOT
ATOM      1  O   UNL A   1      33.129  28.121  25.955  1.00  0.00    -0.374 OA
ENDROOT
BRANCH   1   2
ATOM      2  C   UNL A   1      33.149  26.951  25.174  1.00  0.00     0.202 C 
BRANCH   2   3
ATOM      3  C   UNL A   1      31.763  26.827  24.538  1.00  0.00     0.261 C 
BRANCH   3   4
ATOM      4  O   UNL A   1      31.377  25.448  24.382  1.00  0.00    -0.462 OA
BRANCH   4   5
ATOM      5  C   UNL A   1      31.588  24.825  23.179  1.00  0.00     0.326 C 
ATOM      6  O   UNL A   1      31.876  25.329  22.125  1.00  0.00    -0.250 OA
BRANCH   5   7
ATOM      7  C   UNL A   1      31.471  23.323  23.341  1.00  0.00     0.250 C 
BRANCH   7   8
ATOM      8  N   UNL A   1      32.622  23.067  24.166  1.00  0.00    -0.282 N 
ATOM      9  C   UNL A   1      36.192  23.328  24.175  1.00  0.00     0.029 C 
ATOM     10  C   UNL A   1      34.907  23.258  24.544  1.00  0.00     0.081 C 
ATOM     11  S   UNL A   1      34.241  23.182  26.133  1.00  0.00    -0.054 SA
ATOM     12  C   UNL A   1      33.850  23.130  23.533  1.00  0.00     0.266 C 
ATOM     13  C   UNL A   1      32.600  23.048  25.544  1.00  0.00     0.148 C 
ATOM     14  O   UNL A   1      34.057  23.117  22.329  1.00  0.00    -0.268 OA
ATOM     15  S   UNL A   1      31.280  22.954  26.560  1.00  0.00    -0.052 S 
BRANCH   9  16
ATOM     16  C   UNL A   1      37.230  23.011  25.146  1.00  0.00    -0.021 A 
ATOM     17  C   UNL A   1      39.217  25.309  27.416  1.00  0.00     0.044 C 
ATOM     18  C   UNL A   1      38.747  24.060  26.736  1.00  0.00    -0.051 A 
ATOM     19  C   UNL A   1      39.403  22.839  26.870  1.00  0.00     0.004 A 
ATOM     20  C   UNL A   1      37.635  24.118  25.912  1.00  0.00     0.011 A 
ATOM     21  C   UNL A   1      38.966  21.710  26.160  1.00  0.00     0.004 A 
ATOM     22  C   UNL A   1      37.879  21.780  25.272  1.00  0.00    -0.044 A 
ATOM     23  C   UNL A   1      37.494  20.552  24.498  1.00  0.00     0.045 C 
ENDBRANCH   9  16
ENDBRANCH   7   8
ENDBRANCH   5   7
ENDBRANCH   4   5
ENDBRANCH   3   4
ENDBRANCH   2   3
ENDBRANCH   1   2
BRANCH   1  24
ATOM     24  C   UNL A   1      33.149  29.390  25.338  1.00  0.00     0.202 C 
BRANCH  24  25
ATOM     25  C   UNL A   1      32.710  30.475  26.313  1.00  0.00     0.261 C 
BRANCH  25  26
ATOM     26  O   UNL A   1      33.415  30.412  27.578  1.00  0.00    -0.460 OA
BRANCH  26  27
ATOM     27  C   UNL A   1      34.337  31.400  27.791  1.00  0.00     0.338 C 
ATOM     28  O   UNL A   1      34.247  32.530  27.341  1.00  0.00    -0.246 OA
BRANCH  27  29
ATOM     29  C   UNL A   1      35.549  30.838  28.473  1.00  0.00     0.060 A 
ATOM     30  C   UNL A   1      36.521  31.719  28.976  1.00  0.00     0.016 A 
ATOM     31  C   UNL A   1      35.887  29.507  28.229  1.00  0.00     0.016 A 
ATOM     32  C   UNL A   1      37.866  31.306  29.045  1.00  0.00     0.010 A 
ATOM     33  C   UNL A   1      37.231  29.158  28.161  1.00  0.00     0.010 A 
ATOM     34  C   UNL A   1      38.251  30.059  28.523  1.00  0.00    -0.014 A 
BRANCH  34  35
ATOM     35  C   UNL A   1      39.579  29.442  28.780  1.00  0.00     0.031 A 
ATOM     36  C   UNL A   1      39.742  29.444  30.239  1.00  0.00     0.074 A 
ATOM     37  C   UNL A   1      40.554  28.874  28.020  1.00  0.00     0.049 A 
ATOM     38  N   UNL A   1      40.398  30.374  30.851  1.00  0.00    -0.248 NA
ATOM     39  C   UNL A   1      38.882  28.628  31.107  1.00  0.00     0.031 C 
ATOM     40  C   UNL A   1      40.735  28.871  26.584  1.00  0.00     0.029 A 
ATOM     41  N   UNL A   1      41.623  28.081  28.401  1.00  0.00    -0.354 N 
ATOM     42  C   UNL A   1      40.259  30.059  32.182  1.00  0.00     0.074 A 
ATOM     43  C   UNL A   1      39.100  29.215  32.287  1.00  0.00     0.031 C 
ATOM     44  C   UNL A   1      41.548  27.870  26.172  1.00  0.00     0.029 A 
ATOM     45  C   UNL A   1      42.170  27.309  27.357  1.00  0.00     0.049 A 
ATOM     46  H   UNL A   1      41.972  28.060  29.321  1.00  0.00     0.167 HD
ATOM     47  C   UNL A   1      41.347  30.150  32.985  1.00  0.00     0.037 A 
ATOM     48  C   UNL A   1      43.295  26.541  27.329  1.00  0.00     0.037 A 
ATOM     49  C   UNL A   1      42.403  30.907  32.353  1.00  0.00     0.049 A 
ATOM     50  C   UNL A   1      44.195  27.098  28.347  1.00  0.00     0.074 A 
ATOM     51  C   UNL A   1      42.557  32.204  31.907  1.00  0.00     0.029 A 
ATOM     52  N   UNL A   1      43.328  30.142  31.688  1.00  0.00    -0.354 N 
ATOM     53  N   UNL A   1      44.819  28.230  28.198  1.00  0.00    -0.248 NA
ATOM     54  C   UNL A   1      44.088  26.604  29.708  1.00  0.00     0.031 C 
ATOM     55  C   UNL A   1      43.457  32.143  30.803  1.00  0.00     0.029 A 
ATOM     56  C   UNL A   1      43.882  30.826  30.640  1.00  0.00     0.049 A 
ATOM     57  H   UNL A   1      43.564  29.218  31.935  1.00  0.00     0.167 HD
ATOM     58  C   UNL A   1      44.729  28.814  29.444  1.00  0.00     0.074 A 
ATOM     59  C   UNL A   1      44.434  27.716  30.361  1.00  0.00     0.031 C 
ATOM     60  C   UNL A   1      44.572  30.164  29.554  1.00  0.00     0.037 A 
BRANCH  47  61
ATOM     61  C   UNL A   1      41.617  29.140  34.061  1.00  0.00     0.057 A 
ATOM     62  C   UNL A   1      41.772  29.582  35.377  1.00  0.00     0.134 A 
ATOM     63  C   UNL A   1      41.986  27.796  33.821  1.00  0.00     0.134 A 
ATOM     64  F   UNL A   1      41.520  30.858  35.703  1.00  0.00    -0.206 F 
ATOM     65  C   UNL A   1      42.259  28.744  36.386  1.00  0.00     0.040 A 
ATOM     66  C   UNL A   1      42.407  26.934  34.831  1.00  0.00     0.040 A 
ATOM     67  F   UNL A   1      42.068  27.276  32.592  1.00  0.00    -0.206 F 
ATOM     68  C   UNL A   1      42.566  27.415  36.117  1.00  0.00     0.006 A 
ENDBRANCH  47  61
BRANCH  48  69
ATOM     69  C   UNL A   1      43.592  25.245  26.658  1.00  0.00     0.057 A 
ATOM     70  C   UNL A   1      42.940  24.058  27.049  1.00  0.00     0.134 A 
ATOM     71  C   UNL A   1      44.272  25.187  25.432  1.00  0.00     0.134 A 
ATOM     72  F   UNL A   1      42.260  24.001  28.202  1.00  0.00    -0.206 F 
ATOM     73  C   UNL A   1      42.900  22.915  26.237  1.00  0.00     0.040 A 
ATOM     74  C   UNL A   1      44.239  24.049  24.609  1.00  0.00     0.040 A 
ATOM     75  F   UNL A   1      44.921  26.260  24.958  1.00  0.00    -0.206 F 
ATOM     76  C   UNL A   1      43.531  22.916  24.999  1.00  0.00     0.006 A 
ENDBRANCH  48  69
BRANCH  60  77
ATOM     77  C   UNL A   1      45.034  31.011  28.398  1.00  0.00     0.057 A 
ATOM     78  C   UNL A   1      44.289  31.296  27.245  1.00  0.00     0.134 A 
ATOM     79  C   UNL A   1      46.278  31.643  28.517  1.00  0.00     0.134 A 
ATOM     80  F   UNL A   1      43.062  30.788  27.063  1.00  0.00    -0.206 F 
ATOM     81  C   UNL A   1      44.773  32.154  26.250  1.00  0.00     0.040 A 
ATOM     82  C   UNL A   1      46.758  32.526  27.549  1.00  0.00     0.040 A 
ATOM     83  F   UNL A   1      47.037  31.438  29.605  1.00  0.00    -0.206 F 
ATOM     84  C   UNL A   1      46.007  32.780  26.406  1.00  0.00     0.006 A 
ENDBRANCH  60  77
ENDBRANCH  34  35
ENDBRANCH  27  29
ENDBRANCH  26  27
ENDBRANCH  25  26
ENDBRANCH  24  25
ENDBRANCH   1  24
TORSDOF 16
ENDMDL
MODEL 2
REMARK VINA RESULT:     -10.7      1.157      1.535
REMARK SMILES Cc1ccc(C)c(/C=C2\SC(=S)N(CC(=O)OCCOCCOC(=O)c3ccc(-c4c5nc(c(-c6c(F)cccc6F)c6ccc([nH]6)c(-c6c(F)cccc6F)c6nc(c(-c7c(F)cccc7F)c7ccc4[nH]7)C=C6)C=C5)cc3)C2=O)c1
REMARK SMILES IDX 20 1 19 2 18 3 17 4 15 5 16 6 14 7 13 8 8 9 9 10 10 11 80 12
REMARK SMILES IDX 11 13 81 14 12 15 7 16 1 17 2 18 3 19 82 20 4 21 5 22 6 23
REMARK SMILES IDX 21 24 22 25 23 26 24 27 25 28 26 29 27 30 79 31 28 32 78 33
REMARK SMILES IDX 29 34 30 35 31 36 72 37 32 38 77 39 71 40 73 41 33 42 76 43
REMARK SMILES IDX 70 44 69 45 34 47 60 48 43 49 59 50 44 51 47 52 58 53 74 54
REMARK SMILES IDX 45 55 46 56 57 58 75 59 48 60 35 61 36 62 41 63 37 64 38 65
REMARK SMILES IDX 40 66 42 67 39 68 61 69 62 70 67 71 63 72 64 73 66 74 68 75
REMARK SMILES IDX 65 76 49 77 50 78 55 79 51 80 52 81 54 82 56 83 53 84
REMARK H PARENT 73 46 47 57
REMARK Flexibility Score: inf
ROOT
ATOM      1  O   UNL A   1      32.664  29.304  24.845  1.00  0.00    -0.374 OA
ENDROOT
BRANCH   1   2
ATOM      2  C   UNL A   1      32.194  28.954  23.566  1.00  0.00     0.202 C 
BRANCH   2   3
ATOM      3  C   UNL A   1      30.674  28.815  23.683  1.00  0.00     0.261 C 
BRANCH   3   4
ATOM      4  O   UNL A   1      30.257  27.447  23.511  1.00  0.00    -0.462 OA
BRANCH   4   5
ATOM      5  C   UNL A   1      30.493  26.543  24.514  1.00  0.00     0.326 C 
ATOM      6  O   UNL A   1      30.753  26.769  25.667  1.00  0.00    -0.250 OA
BRANCH   5   7
ATOM      7  C   UNL A   1      30.322  25.130  23.996  1.00  0.00     0.250 C 
BRANCH   7   8
ATOM      8  N   UNL A   1      31.685  24.670  24.056  1.00  0.00    -0.282 N 
ATOM      9  C   UNL A   1      33.793  22.336  25.765  1.00  0.00     0.029 C 
ATOM     10  C   UNL A   1      33.264  23.166  24.857  1.00  0.00     0.081 C 
ATOM     11  S   UNL A   1      33.913  23.660  23.337  1.00  0.00    -0.054 SA
ATOM     12  C   UNL A   1      32.010  23.874  25.140  1.00  0.00     0.266 C 
ATOM     13  C   UNL A   1      32.571  24.731  23.003  1.00  0.00     0.148 C 
ATOM     14  O   UNL A   1      31.365  23.734  26.168  1.00  0.00    -0.268 OA
ATOM     15  S   UNL A   1      32.450  25.614  21.593  1.00  0.00    -0.052 S 
BRANCH   9  16
ATOM     16  C   UNL A   1      35.206  21.996  25.681  1.00  0.00    -0.021 A 
ATOM     17  C   UNL A   1      38.265  24.179  26.190  1.00  0.00     0.044 C 
ATOM     18  C   UNL A   1      37.425  22.980  25.878  1.00  0.00    -0.051 A 
ATOM     19  C   UNL A   1      37.960  21.804  25.352  1.00  0.00     0.004 A 
ATOM     20  C   UNL A   1      36.057  23.042  26.082  1.00  0.00     0.011 A 
ATOM     21  C   UNL A   1      37.124  20.730  25.011  1.00  0.00     0.004 A 
ATOM     22  C   UNL A   1      35.729  20.812  25.155  1.00  0.00    -0.044 A 
ATOM     23  C   UNL A   1      34.884  19.650  24.719  1.00  0.00     0.045 C 
ENDBRANCH   9  16
ENDBRANCH   7   8
ENDBRANCH   5   7
ENDBRANCH   4   5
ENDBRANCH   3   4
ENDBRANCH   2   3
ENDBRANCH   1   2
BRANCH   1  24
ATOM     24  C   UNL A   1      31.949  30.226  25.639  1.00  0.00     0.202 C 
BRANCH  24  25
ATOM     25  C   UNL A   1      32.599  30.382  27.009  1.00  0.00     0.261 C 
BRANCH  25  26
ATOM     26  O   UNL A   1      33.964  30.863  26.932  1.00  0.00    -0.460 OA
BRANCH  26  27
ATOM     27  C   UNL A   1      34.366  31.667  27.962  1.00  0.00     0.338 C 
ATOM     28  O   UNL A   1      33.903  32.772  28.190  1.00  0.00    -0.246 OA
BRANCH  27  29
ATOM     29  C   UNL A   1      35.576  31.086  28.629  1.00  0.00     0.060 A 
ATOM     30  C   UNL A   1      36.630  31.938  29.001  1.00  0.00     0.016 A 
ATOM     31  C   UNL A   1      35.815  29.718  28.491  1.00  0.00     0.016 A 
ATOM     32  C   UNL A   1      37.947  31.442  29.039  1.00  0.00     0.010 A 
ATOM     33  C   UNL A   1      37.128  29.274  28.388  1.00  0.00     0.010 A 
ATOM     34  C   UNL A   1      38.222  30.131  28.614  1.00  0.00    -0.014 A 
BRANCH  34  35
ATOM     35  C   UNL A   1      39.521  29.450  28.858  1.00  0.00     0.031 A 
ATOM     36  C   UNL A   1      39.693  29.436  30.317  1.00  0.00     0.074 A 
ATOM     37  C   UNL A   1      40.462  28.839  28.089  1.00  0.00     0.049 A 
ATOM     38  N   UNL A   1      40.397  30.330  30.928  1.00  0.00    -0.248 NA
ATOM     39  C   UNL A   1      38.801  28.658  31.187  1.00  0.00     0.031 C 
ATOM     40  C   UNL A   1      40.633  28.835  26.652  1.00  0.00     0.029 A 
ATOM     41  N   UNL A   1      41.493  27.994  28.458  1.00  0.00    -0.354 N 
ATOM     42  C   UNL A   1      40.253  30.016  32.259  1.00  0.00     0.074 A 
ATOM     43  C   UNL A   1      39.056  29.228  32.368  1.00  0.00     0.031 C 
ATOM     44  C   UNL A   1      41.393  27.798  26.229  1.00  0.00     0.029 A 
ATOM     45  C   UNL A   1      41.996  27.201  27.407  1.00  0.00     0.049 A 
ATOM     46  H   UNL A   1      41.847  27.951  29.376  1.00  0.00     0.167 HD
ATOM     47  C   UNL A   1      41.349  30.050  33.054  1.00  0.00     0.037 A 
ATOM     48  C   UNL A   1      43.081  26.380  27.367  1.00  0.00     0.037 A 
ATOM     49  C   UNL A   1      42.437  30.758  32.418  1.00  0.00     0.049 A 
ATOM     50  C   UNL A   1      44.015  26.888  28.381  1.00  0.00     0.074 A 
ATOM     51  C   UNL A   1      42.650  32.049  31.978  1.00  0.00     0.029 A 
ATOM     52  N   UNL A   1      43.319  29.952  31.743  1.00  0.00    -0.354 N 
ATOM     53  N   UNL A   1      44.692  27.989  28.233  1.00  0.00    -0.248 NA
ATOM     54  C   UNL A   1      43.893  26.392  29.741  1.00  0.00     0.031 C 
ATOM     55  C   UNL A   1      43.538  31.950  30.867  1.00  0.00     0.029 A 
ATOM     56  C   UNL A   1      43.898  30.615  30.694  1.00  0.00     0.049 A 
ATOM     57  H   UNL A   1      43.511  29.017  31.984  1.00  0.00     0.167 HD
ATOM     58  C   UNL A   1      44.639  28.570  29.483  1.00  0.00     0.074 A 
ATOM     59  C   UNL A   1      44.297  27.483  30.396  1.00  0.00     0.031 C 
ATOM     60  C   UNL A   1      44.548  29.926  29.600  1.00  0.00     0.037 A 
BRANCH  47  61
ATOM     61  C   UNL A   1      41.578  29.022  34.123  1.00  0.00     0.057 A 
ATOM     62  C   UNL A   1      41.729  29.447  35.446  1.00  0.00     0.134 A 
ATOM     63  C   UNL A   1      41.911  27.671  33.875  1.00  0.00     0.134 A 
ATOM     64  F   UNL A   1      41.509  30.727  35.781  1.00  0.00    -0.206 F 
ATOM     65  C   UNL A   1      42.180  28.587  36.452  1.00  0.00     0.040 A 
ATOM     66  C   UNL A   1      42.297  26.788  34.881  1.00  0.00     0.040 A 
ATOM     67  F   UNL A   1      41.994  27.160  32.641  1.00  0.00    -0.206 F 
ATOM     68  C   UNL A   1      42.453  27.252  36.174  1.00  0.00     0.006 A 
ENDBRANCH  47  61
BRANCH  48  69
ATOM     69  C   UNL A   1      43.311  25.075  26.688  1.00  0.00     0.057 A 
ATOM     70  C   UNL A   1      42.564  23.932  27.037  1.00  0.00     0.134 A 
ATOM     71  C   UNL A   1      44.030  24.984  25.486  1.00  0.00     0.134 A 
ATOM     72  F   UNL A   1      41.839  23.909  28.164  1.00  0.00    -0.206 F 
ATOM     73  C   UNL A   1      42.473  22.804  26.207  1.00  0.00     0.040 A 
ATOM     74  C   UNL A   1      43.947  23.862  24.646  1.00  0.00     0.040 A 
ATOM     75  F   UNL A   1      44.770  26.014  25.051  1.00  0.00    -0.206 F 
ATOM     76  C   UNL A   1      43.147  22.777  24.993  1.00  0.00     0.006 A 
ENDBRANCH  48  69
BRANCH  60  77
ATOM     77  C   UNL A   1      45.042  30.756  28.446  1.00  0.00     0.057 A 
ATOM     78  C   UNL A   1      44.269  31.183  27.357  1.00  0.00     0.134 A 
ATOM     79  C   UNL A   1      46.363  31.217  28.500  1.00  0.00     0.134 A 
ATOM     80  F   UNL A   1      42.977  30.846  27.243  1.00  0.00    -0.206 F 
ATOM     81  C   UNL A   1      44.796  32.014  26.361  1.00  0.00     0.040 A 
ATOM     82  C   UNL A   1      46.891  32.072  27.531  1.00  0.00     0.040 A 
ATOM     83  F   UNL A   1      47.156  30.869  29.525  1.00  0.00    -0.206 F 
ATOM     84  C   UNL A   1      46.110  32.469  26.453  1.00  0.00     0.006 A 
ENDBRANCH  60  77
ENDBRANCH  34  35
ENDBRANCH  27  29
ENDBRANCH  26  27
ENDBRANCH  25  26
ENDBRANCH  24  25
ENDBRANCH   1  24
TORSDOF 16
ENDMDL
MODEL 3
REMARK VINA RESULT:     -10.3      3.081      8.173
REMARK SMILES Cc1ccc(C)c(/C=C2\SC(=S)N(CC(=O)OCCOCCOC(=O)c3ccc(-c4c5nc(c(-c6c(F)cccc6F)c6ccc([nH]6)c(-c6c(F)cccc6F)c6nc(c(-c7c(F)cccc7F)c7ccc4[nH]7)C=C6)C=C5)cc3)C2=O)c1
REMARK SMILES IDX 20 1 19 2 18 3 17 4 15 5 16 6 14 7 13 8 8 9 9 10 10 11 80 12
REMARK SMILES IDX 11 13 81 14 12 15 7 16 1 17 2 18 3 19 82 20 4 21 5 22 6 23
REMARK SMILES IDX 21 24 22 25 23 26 24 27 25 28 26 29 27 30 79 31 28 32 78 33
REMARK SMILES IDX 29 34 30 35 31 36 72 37 32 38 77 39 71 40 73 41 33 42 76 43
REMARK SMILES IDX 70 44 69 45 34 47 60 48 43 49 59 50 44 51 47 52 58 53 74 54
REMARK SMILES IDX 45 55 46 56 57 58 75 59 48 60 35 61 36 62 41 63 37 64 38 65
REMARK SMILES IDX 40 66 42 67 39 68 61 69 62 70 67 71 63 72 64 73 66 74 68 75
REMARK SMILES IDX 65 76 49 77 50 78 55 79 51 80 52 81 54 82 56 83 53 84
REMARK H PARENT 73 46 47 57
REMARK Flexibility Score: inf
ROOT
ATOM      1  O   UNL A   1      37.897  22.229  24.929  1.00  0.00    -0.374 OA
ENDROOT
BRANCH   1   2
ATOM      2  C   UNL A   1      36.794  21.365  24.799  1.00  0.00     0.202 C 
BRANCH   2   3
ATOM      3  C   UNL A   1      35.555  22.181  25.176  1.00  0.00     0.261 C 
BRANCH   3   4
ATOM      4  O   UNL A   1      34.744  22.468  24.020  1.00  0.00    -0.462 OA
BRANCH   4   5
ATOM      5  C   UNL A   1      33.542  21.828  23.868  1.00  0.00     0.326 C 
ATOM      6  O   UNL A   1      33.202  20.772  24.334  1.00  0.00    -0.250 OA
BRANCH   5   7
ATOM      7  C   UNL A   1      32.599  22.676  23.041  1.00  0.00     0.250 C 
BRANCH   7   8
ATOM      8  N   UNL A   1      32.547  23.864  23.853  1.00  0.00    -0.282 N 
ATOM      9  C   UNL A   1      33.047  27.405  23.697  1.00  0.00     0.029 C 
ATOM     10  C   UNL A   1      32.630  26.178  24.037  1.00  0.00     0.081 C 
ATOM     11  S   UNL A   1      31.628  25.705  25.358  1.00  0.00    -0.054 SA
ATOM     12  C   UNL A   1      33.112  25.001  23.305  1.00  0.00     0.266 C 
ATOM     13  C   UNL A   1      31.752  24.005  24.969  1.00  0.00     0.148 C 
ATOM     14  O   UNL A   1      33.868  25.056  22.347  1.00  0.00    -0.268 OA
ATOM     15  S   UNL A   1      30.968  22.819  25.843  1.00  0.00    -0.052 S 
BRANCH   9  16
ATOM     16  C   UNL A   1      32.935  28.488  24.663  1.00  0.00    -0.021 A 
ATOM     17  C   UNL A   1      35.135  29.331  27.634  1.00  0.00     0.044 C 
ATOM     18  C   UNL A   1      34.006  29.395  26.653  1.00  0.00    -0.051 A 
ATOM     19  C   UNL A   1      32.907  30.233  26.826  1.00  0.00     0.004 A 
ATOM     20  C   UNL A   1      34.028  28.566  25.543  1.00  0.00     0.011 A 
ATOM     21  C   UNL A   1      31.839  30.210  25.915  1.00  0.00     0.004 A 
ATOM     22  C   UNL A   1      31.828  29.324  24.824  1.00  0.00    -0.044 A 
ATOM     23  C   UNL A   1      30.631  29.306  23.916  1.00  0.00     0.045 C 
ENDBRANCH   9  16
ENDBRANCH   7   8
ENDBRANCH   5   7
ENDBRANCH   4   5
ENDBRANCH   3   4
ENDBRANCH   2   3
ENDBRANCH   1   2
BRANCH   1  24
ATOM     24  C   UNL A   1      38.089  22.966  26.118  1.00  0.00     0.202 C 
BRANCH  24  25
ATOM     25  C   UNL A   1      39.507  22.787  26.645  1.00  0.00     0.261 C 
BRANCH  25  26
ATOM     26  O   UNL A   1      39.773  23.584  27.826  1.00  0.00    -0.460 OA
BRANCH  26  27
ATOM     27  C   UNL A   1      41.060  24.025  27.964  1.00  0.00     0.338 C 
ATOM     28  O   UNL A   1      42.023  23.292  28.115  1.00  0.00    -0.246 OA
BRANCH  27  29
ATOM     29  C   UNL A   1      41.083  25.518  28.106  1.00  0.00     0.060 A 
ATOM     30  C   UNL A   1      41.936  26.103  29.057  1.00  0.00     0.016 A 
ATOM     31  C   UNL A   1      39.997  26.245  27.616  1.00  0.00     0.016 A 
ATOM     32  C   UNL A   1      41.582  27.330  29.648  1.00  0.00     0.010 A 
ATOM     33  C   UNL A   1      39.583  27.377  28.307  1.00  0.00     0.010 A 
ATOM     34  C   UNL A   1      40.338  27.920  29.364  1.00  0.00    -0.014 A 
BRANCH  34  35
ATOM     35  C   UNL A   1      39.994  29.318  29.737  1.00  0.00     0.031 A 
ATOM     36  C   UNL A   1      41.214  30.101  29.506  1.00  0.00     0.074 A 
ATOM     37  C   UNL A   1      38.873  29.971  30.147  1.00  0.00     0.049 A 
ATOM     38  N   UNL A   1      42.040  30.375  30.462  1.00  0.00    -0.248 NA
ATOM     39  C   UNL A   1      41.755  30.297  28.154  1.00  0.00     0.031 C 
ATOM     40  C   UNL A   1      37.601  29.447  30.598  1.00  0.00     0.029 A 
ATOM     41  N   UNL A   1      38.607  31.327  30.194  1.00  0.00    -0.354 N 
ATOM     42  C   UNL A   1      43.063  31.046  29.836  1.00  0.00     0.074 A 
ATOM     43  C   UNL A   1      42.998  30.691  28.445  1.00  0.00     0.031 C 
ATOM     44  C   UNL A   1      36.609  30.364  30.511  1.00  0.00     0.029 A 
ATOM     45  C   UNL A   1      37.235  31.646  30.242  1.00  0.00     0.049 A 
ATOM     46  H   UNL A   1      39.315  32.011  30.194  1.00  0.00     0.167 HD
ATOM     47  C   UNL A   1      43.570  32.153  30.430  1.00  0.00     0.037 A 
ATOM     48  C   UNL A   1      36.617  32.844  30.438  1.00  0.00     0.037 A 
ATOM     49  C   UNL A   1      43.163  32.238  31.815  1.00  0.00     0.049 A 
ATOM     50  C   UNL A   1      37.566  33.673  31.193  1.00  0.00     0.074 A 
ATOM     51  C   UNL A   1      43.356  31.476  32.949  1.00  0.00     0.029 A 
ATOM     52  N   UNL A   1      42.041  33.000  32.028  1.00  0.00    -0.354 N 
ATOM     53  N   UNL A   1      37.839  33.473  32.450  1.00  0.00    -0.248 NA
ATOM     54  C   UNL A   1      38.526  34.473  30.453  1.00  0.00     0.031 C 
ATOM     55  C   UNL A   1      42.193  31.655  33.753  1.00  0.00     0.029 A 
ATOM     56  C   UNL A   1      41.347  32.568  33.127  1.00  0.00     0.049 A 
ATOM     57  H   UNL A   1      41.772  33.760  31.464  1.00  0.00     0.167 HD
ATOM     58  C   UNL A   1      39.202  33.675  32.520  1.00  0.00     0.074 A 
ATOM     59  C   UNL A   1      39.535  34.447  31.325  1.00  0.00     0.031 C 
ATOM     60  C   UNL A   1      39.961  32.914  33.358  1.00  0.00     0.037 A 
BRANCH  47  61
ATOM     61  C   UNL A   1      43.964  33.362  29.635  1.00  0.00     0.057 A 
ATOM     62  C   UNL A   1      42.969  34.087  28.974  1.00  0.00     0.134 A 
ATOM     63  C   UNL A   1      45.293  33.691  29.283  1.00  0.00     0.134 A 
ATOM     64  F   UNL A   1      41.673  33.810  29.178  1.00  0.00    -0.206 F 
ATOM     65  C   UNL A   1      43.276  35.071  28.027  1.00  0.00     0.040 A 
ATOM     66  C   UNL A   1      45.612  34.714  28.393  1.00  0.00     0.040 A 
ATOM     67  F   UNL A   1      46.348  32.973  29.687  1.00  0.00    -0.206 F 
ATOM     68  C   UNL A   1      44.598  35.395  27.744  1.00  0.00     0.006 A 
ENDBRANCH  47  61
BRANCH  48  69
ATOM     69  C   UNL A   1      35.373  33.422  29.861  1.00  0.00     0.057 A 
ATOM     70  C   UNL A   1      34.476  34.160  30.659  1.00  0.00     0.134 A 
ATOM     71  C   UNL A   1      35.186  33.539  28.475  1.00  0.00     0.134 A 
ATOM     72  F   UNL A   1      34.562  34.123  31.996  1.00  0.00    -0.206 F 
ATOM     73  C   UNL A   1      33.509  35.019  30.115  1.00  0.00     0.040 A 
ATOM     74  C   UNL A   1      34.224  34.395  27.917  1.00  0.00     0.040 A 
ATOM     75  F   UNL A   1      35.987  32.887  27.619  1.00  0.00    -0.206 F 
ATOM     76  C   UNL A   1      33.397  35.158  28.737  1.00  0.00     0.006 A 
ENDBRANCH  48  69
BRANCH  60  77
ATOM     77  C   UNL A   1      39.270  32.283  34.537  1.00  0.00     0.057 A 
ATOM     78  C   UNL A   1      38.761  30.977  34.583  1.00  0.00     0.134 A 
ATOM     79  C   UNL A   1      39.204  33.027  35.722  1.00  0.00     0.134 A 
ATOM     80  F   UNL A   1      38.830  30.163  33.521  1.00  0.00    -0.206 F 
ATOM     81  C   UNL A   1      38.195  30.449  35.750  1.00  0.00     0.040 A 
ATOM     82  C   UNL A   1      38.672  32.501  36.900  1.00  0.00     0.040 A 
ATOM     83  F   UNL A   1      39.694  34.276  35.761  1.00  0.00    -0.206 F 
ATOM     84  C   UNL A   1      38.159  31.209  36.916  1.00  0.00     0.006 A 
ENDBRANCH  60  77
ENDBRANCH  34  35
ENDBRANCH  27  29
ENDBRANCH  26  27
ENDBRANCH  25  26
ENDBRANCH  24  25
ENDBRANCH   1  24
TORSDOF 16
ENDMDL
