MODEL 1
REMARK VINA RESULT:      -9.1      0.000      0.000
REMARK SMILES CC(C)(C)N(CC(=O)OCCOCCOC(=O)c1ccc(-c2c3nc(c(-c4c(F)cccc4F)c4ccc([nH]4)c(-c4c(F)cccc4F)c4nc(c(-c5c(F)cccc5F)c5ccc2[nH]5)C=C4)C=C3)cc1)C(=O)N(CCO)C1CC1
REMARK SMILES IDX 10 1 9 2 7 3 8 4 6 5 5 6 2 7 1 8 3 9 4 10 72 11 73 12 74 13
REMARK SMILES IDX 75 14 76 15 77 16 78 18 79 19 80 20 11 21 12 22 13 23 14 24
REMARK SMILES IDX 15 25 16 26 17 27 18 28 19 29 71 30 20 31 70 32 21 33 22 34
REMARK SMILES IDX 23 35 64 36 24 37 69 38 63 39 65 40 25 41 68 42 62 43 61 44
REMARK SMILES IDX 26 46 52 47 35 48 51 49 36 50 39 51 50 52 66 53 37 54 38 55
REMARK SMILES IDX 49 57 67 58 40 59 27 60 28 61 33 62 29 63 30 64 32 65 34 66
REMARK SMILES IDX 31 67 53 68 54 69 59 70 55 71 56 72 58 73 60 74 57 75 41 76
REMARK SMILES IDX 42 77 47 78 43 79 44 80 46 81 48 82 45 83
REMARK H PARENT 77 17 65 45 39 56
REMARK Flexibility Score: inf
ROOT
ATOM      1  C   UNL A   1      33.704  28.911  26.638  1.00  0.00     0.261 C 
ENDROOT
BRANCH   1   2
ATOM      2  O   UNL A   1      34.213  28.880  25.280  1.00  0.00    -0.462 OA
BRANCH   2   3
ATOM      3  C   UNL A   1      33.294  28.802  24.281  1.00  0.00     0.325 C 
ATOM      4  O   UNL A   1      33.576  28.889  23.089  1.00  0.00    -0.250 OA
BRANCH   3   5
ATOM      5  C   UNL A   1      31.826  28.687  24.758  1.00  0.00     0.244 C 
BRANCH   5   6
ATOM      6  N   UNL A   1      31.041  27.424  24.783  1.00  0.00    -0.309 N 
BRANCH   6   7
ATOM      7  C   UNL A   1      30.201  27.147  23.515  1.00  0.00     0.037 C 
ATOM      8  C   UNL A   1      29.762  28.415  22.723  1.00  0.00     0.034 C 
ATOM      9  C   UNL A   1      28.874  26.418  23.853  1.00  0.00     0.034 C 
ATOM     10  C   UNL A   1      31.025  26.321  22.488  1.00  0.00     0.034 C 
ENDBRANCH   6   7
BRANCH   6  11
ATOM     11  C   UNL A   1      31.057  26.381  25.733  1.00  0.00     0.321 C 
ATOM     12  O   UNL A   1      30.532  26.607  26.835  1.00  0.00    -0.248 OA
BRANCH  11  13
ATOM     13  N   UNL A   1      31.631  25.111  25.588  1.00  0.00    -0.319 N 
BRANCH  13  14
ATOM     14  C   UNL A   1      31.027  23.753  25.499  1.00  0.00     0.150 C 
BRANCH  14  15
ATOM     15  C   UNL A   1      30.631  23.088  26.827  1.00  0.00     0.177 C 
BRANCH  15  16
ATOM     16  O   UNL A   1      29.403  23.610  27.324  1.00  0.00    -0.395 OA
ATOM     17  H   UNL A   1      29.364  23.488  28.285  1.00  0.00     0.210 HD
ENDBRANCH  15  16
ENDBRANCH  14  15
ENDBRANCH  13  14
BRANCH  13  18
ATOM     18  C   UNL A   1      33.082  25.014  25.960  1.00  0.00     0.087 C 
ATOM     19  C   UNL A   1      34.001  23.911  25.468  1.00  0.00     0.027 C 
ATOM     20  C   UNL A   1      34.252  25.317  25.041  1.00  0.00     0.027 C 
ENDBRANCH  13  18
ENDBRANCH  11  13
ENDBRANCH   6  11
ENDBRANCH   5   6
ENDBRANCH   3   5
ENDBRANCH   2   3
ENDBRANCH   1   2
BRANCH   1  21
ATOM     21  C   UNL A   1      33.906  30.295  27.288  1.00  0.00     0.202 C 
BRANCH  21  22
ATOM     22  O   UNL A   1      33.323  31.383  26.567  1.00  0.00    -0.374 OA
BRANCH  22  23
ATOM     23  C   UNL A   1      32.106  31.833  27.154  1.00  0.00     0.202 C 
BRANCH  23  24
ATOM     24  C   UNL A   1      32.007  33.335  27.235  1.00  0.00     0.261 C 
BRANCH  24  25
ATOM     25  O   UNL A   1      33.308  33.831  27.501  1.00  0.00    -0.460 OA
BRANCH  25  26
ATOM     26  C   UNL A   1      33.531  34.133  28.788  1.00  0.00     0.338 C 
ATOM     27  O   UNL A   1      32.796  34.689  29.577  1.00  0.00    -0.246 OA
BRANCH  26  28
ATOM     28  C   UNL A   1      34.755  33.407  29.123  1.00  0.00     0.060 A 
ATOM     29  C   UNL A   1      34.603  32.263  29.905  1.00  0.00     0.016 A 
ATOM     30  C   UNL A   1      36.000  33.798  28.612  1.00  0.00     0.016 A 
ATOM     31  C   UNL A   1      35.726  31.533  30.243  1.00  0.00     0.010 A 
ATOM     32  C   UNL A   1      37.124  33.055  28.936  1.00  0.00     0.010 A 
ATOM     33  C   UNL A   1      36.984  31.955  29.792  1.00  0.00    -0.014 A 
BRANCH  33  34
ATOM     34  C   UNL A   1      38.173  31.326  30.381  1.00  0.00     0.031 A 
ATOM     35  C   UNL A   1      38.510  31.668  31.800  1.00  0.00     0.074 A 
ATOM     36  C   UNL A   1      38.859  30.425  29.664  1.00  0.00     0.049 A 
ATOM     37  N   UNL A   1      39.449  31.180  32.562  1.00  0.00    -0.248 NA
ATOM     38  C   UNL A   1      37.679  32.697  32.451  1.00  0.00     0.031 C 
ATOM     39  C   UNL A   1      38.571  30.051  28.278  1.00  0.00     0.029 A 
ATOM     40  N   UNL A   1      39.930  29.652  30.007  1.00  0.00    -0.354 N 
ATOM     41  C   UNL A   1      39.321  31.841  33.777  1.00  0.00     0.074 A 
ATOM     42  C   UNL A   1      38.243  32.791  33.645  1.00  0.00     0.031 C 
ATOM     43  C   UNL A   1      39.445  29.107  27.891  1.00  0.00     0.029 A 
ATOM     44  C   UNL A   1      40.358  28.831  28.995  1.00  0.00     0.049 A 
ATOM     45  H   UNL A   1      40.355  29.680  30.896  1.00  0.00     0.167 HD
ATOM     46  C   UNL A   1      40.039  31.649  34.904  1.00  0.00     0.037 A 
ATOM     47  C   UNL A   1      41.383  27.960  28.981  1.00  0.00     0.037 A 
ATOM     48  C   UNL A   1      41.099  30.683  35.004  1.00  0.00     0.049 A 
ATOM     49  C   UNL A   1      42.176  27.785  30.248  1.00  0.00     0.074 A 
ATOM     50  C   UNL A   1      41.882  30.369  36.096  1.00  0.00     0.029 A 
ATOM     51  N   UNL A   1      41.521  29.878  33.954  1.00  0.00    -0.354 N 
ATOM     52  N   UNL A   1      42.014  28.371  31.412  1.00  0.00    -0.248 NA
ATOM     53  C   UNL A   1      43.282  26.823  30.206  1.00  0.00     0.031 C 
ATOM     54  C   UNL A   1      42.812  29.406  35.695  1.00  0.00     0.029 A 
ATOM     55  C   UNL A   1      42.575  29.084  34.366  1.00  0.00     0.049 A 
ATOM     56  H   UNL A   1      41.129  29.873  33.051  1.00  0.00     0.167 HD
ATOM     57  C   UNL A   1      42.984  27.836  32.246  1.00  0.00     0.074 A 
ATOM     58  C   UNL A   1      43.710  26.858  31.459  1.00  0.00     0.031 C 
ATOM     59  C   UNL A   1      43.263  28.124  33.542  1.00  0.00     0.037 A 
BRANCH  46  60
ATOM     60  C   UNL A   1      39.719  32.502  36.093  1.00  0.00     0.057 A 
ATOM     61  C   UNL A   1      40.405  33.695  36.359  1.00  0.00     0.134 A 
ATOM     62  C   UNL A   1      38.686  32.142  36.967  1.00  0.00     0.134 A 
ATOM     63  F   UNL A   1      41.422  34.083  35.575  1.00  0.00    -0.206 F 
ATOM     64  C   UNL A   1      40.077  34.496  37.455  1.00  0.00     0.040 A 
ATOM     65  C   UNL A   1      38.334  32.947  38.053  1.00  0.00     0.040 A 
ATOM     66  F   UNL A   1      37.996  31.008  36.775  1.00  0.00    -0.206 F 
ATOM     67  C   UNL A   1      39.032  34.128  38.299  1.00  0.00     0.006 A 
ENDBRANCH  46  60
BRANCH  47  68
ATOM     68  C   UNL A   1      41.712  27.204  27.746  1.00  0.00     0.057 A 
ATOM     69  C   UNL A   1      42.535  27.748  26.753  1.00  0.00     0.134 A 
ATOM     70  C   UNL A   1      41.188  25.926  27.518  1.00  0.00     0.134 A 
ATOM     71  F   UNL A   1      43.060  28.972  26.906  1.00  0.00    -0.206 F 
ATOM     72  C   UNL A   1      42.800  27.062  25.566  1.00  0.00     0.040 A 
ATOM     73  C   UNL A   1      41.465  25.217  26.348  1.00  0.00     0.040 A 
ATOM     74  F   UNL A   1      40.401  25.342  28.434  1.00  0.00    -0.206 F 
ATOM     75  C   UNL A   1      42.265  25.791  25.361  1.00  0.00     0.006 A 
ENDBRANCH  47  68
BRANCH  59  76
ATOM     76  C   UNL A   1      44.382  27.354  34.174  1.00  0.00     0.057 A 
ATOM     77  C   UNL A   1      45.692  27.844  34.191  1.00  0.00     0.134 A 
ATOM     78  C   UNL A   1      44.135  26.124  34.797  1.00  0.00     0.134 A 
ATOM     79  F   UNL A   1      45.990  29.010  33.598  1.00  0.00    -0.206 F 
ATOM     80  C   UNL A   1      46.729  27.121  34.781  1.00  0.00     0.040 A 
ATOM     81  C   UNL A   1      45.158  25.408  35.417  1.00  0.00     0.040 A 
ATOM     82  F   UNL A   1      42.897  25.609  34.826  1.00  0.00    -0.206 F 
ATOM     83  C   UNL A   1      46.461  25.903  35.402  1.00  0.00     0.006 A 
ENDBRANCH  59  76
ENDBRANCH  33  34
ENDBRANCH  26  28
ENDBRANCH  25  26
ENDBRANCH  24  25
ENDBRANCH  23  24
ENDBRANCH  22  23
ENDBRANCH  21  22
ENDBRANCH   1  21
TORSDOF 22
ENDMDL
MODEL 2
REMARK VINA RESULT:      -8.8      0.809      1.902
REMARK SMILES CC(C)(C)N(CC(=O)OCCOCCOC(=O)c1ccc(-c2c3nc(c(-c4c(F)cccc4F)c4ccc([nH]4)c(-c4c(F)cccc4F)c4nc(c(-c5c(F)cccc5F)c5ccc2[nH]5)C=C4)C=C3)cc1)C(=O)N(CCO)C1CC1
REMARK SMILES IDX 10 1 9 2 7 3 8 4 6 5 5 6 2 7 1 8 3 9 4 10 72 11 73 12 74 13
REMARK SMILES IDX 75 14 76 15 77 16 78 18 79 19 80 20 11 21 12 22 13 23 14 24
REMARK SMILES IDX 15 25 16 26 17 27 18 28 19 29 71 30 20 31 70 32 21 33 22 34
REMARK SMILES IDX 23 35 64 36 24 37 69 38 63 39 65 40 25 41 68 42 62 43 61 44
REMARK SMILES IDX 26 46 52 47 35 48 51 49 36 50 39 51 50 52 66 53 37 54 38 55
REMARK SMILES IDX 49 57 67 58 40 59 27 60 28 61 33 62 29 63 30 64 32 65 34 66
REMARK SMILES IDX 31 67 53 68 54 69 59 70 55 71 56 72 58 73 60 74 57 75 41 76
REMARK SMILES IDX 42 77 47 78 43 79 44 80 46 81 48 82 45 83
REMARK H PARENT 77 17 65 45 39 56
REMARK Flexibility Score: inf
ROOT
ATOM      1  C   UNL A   1      34.118  28.917  26.476  1.00  0.00     0.261 C 
ENDROOT
BRANCH   1   2
ATOM      2  O   UNL A   1      33.270  28.066  27.290  1.00  0.00    -0.462 OA
BRANCH   2   3
ATOM      3  C   UNL A   1      31.939  28.083  27.014  1.00  0.00     0.325 C 
ATOM      4  O   UNL A   1      31.069  27.857  27.851  1.00  0.00    -0.250 OA
BRANCH   3   5
ATOM      5  C   UNL A   1      31.588  28.318  25.525  1.00  0.00     0.244 C 
BRANCH   5   6
ATOM      6  N   UNL A   1      31.356  27.236  24.530  1.00  0.00    -0.309 N 
BRANCH   6   7
ATOM      7  C   UNL A   1      31.435  27.678  23.050  1.00  0.00     0.037 C 
ATOM      8  C   UNL A   1      32.341  28.915  22.777  1.00  0.00     0.034 C 
ATOM      9  C   UNL A   1      30.043  28.083  22.497  1.00  0.00     0.034 C 
ATOM     10  C   UNL A   1      32.055  26.550  22.179  1.00  0.00     0.034 C 
ENDBRANCH   6   7
BRANCH   6  11
ATOM     11  C   UNL A   1      31.211  25.848  24.736  1.00  0.00     0.321 C 
ATOM     12  O   UNL A   1      30.205  25.304  24.254  1.00  0.00    -0.248 OA
BRANCH  11  13
ATOM     13  N   UNL A   1      32.067  25.004  25.457  1.00  0.00    -0.319 N 
BRANCH  13  14
ATOM     14  C   UNL A   1      31.889  24.269  26.739  1.00  0.00     0.150 C 
BRANCH  14  15
ATOM     15  C   UNL A   1      30.832  23.152  26.749  1.00  0.00     0.177 C 
BRANCH  15  16
ATOM     16  O   UNL A   1      29.521  23.679  26.922  1.00  0.00    -0.395 OA
ATOM     17  H   UNL A   1      28.868  23.030  26.617  1.00  0.00     0.210 HD
ENDBRANCH  15  16
ENDBRANCH  14  15
ENDBRANCH  13  14
BRANCH  13  18
ATOM     18  C   UNL A   1      33.526  25.134  25.127  1.00  0.00     0.087 C 
ATOM     19  C   UNL A   1      34.611  24.306  25.791  1.00  0.00     0.027 C 
ATOM     20  C   UNL A   1      34.345  24.131  24.334  1.00  0.00     0.027 C 
ENDBRANCH  13  18
ENDBRANCH  11  13
ENDBRANCH   6  11
ENDBRANCH   5   6
ENDBRANCH   3   5
ENDBRANCH   2   3
ENDBRANCH   1   2
BRANCH   1  21
ATOM     21  C   UNL A   1      34.142  30.366  27.003  1.00  0.00     0.202 C 
BRANCH  21  22
ATOM     22  O   UNL A   1      32.894  30.830  27.526  1.00  0.00    -0.374 OA
BRANCH  22  23
ATOM     23  C   UNL A   1      32.289  31.813  26.693  1.00  0.00     0.202 C 
BRANCH  23  24
ATOM     24  C   UNL A   1      31.894  33.060  27.440  1.00  0.00     0.261 C 
BRANCH  24  25
ATOM     25  O   UNL A   1      33.037  33.896  27.503  1.00  0.00    -0.460 OA
BRANCH  25  26
ATOM     26  C   UNL A   1      33.346  34.314  28.738  1.00  0.00     0.338 C 
ATOM     27  O   UNL A   1      32.684  34.984  29.504  1.00  0.00    -0.246 OA
BRANCH  26  28
ATOM     28  C   UNL A   1      34.554  33.565  29.083  1.00  0.00     0.060 A 
ATOM     29  C   UNL A   1      34.387  32.482  29.944  1.00  0.00     0.016 A 
ATOM     30  C   UNL A   1      35.794  33.872  28.506  1.00  0.00     0.016 A 
ATOM     31  C   UNL A   1      35.492  31.732  30.295  1.00  0.00     0.010 A 
ATOM     32  C   UNL A   1      36.900  33.108  28.844  1.00  0.00     0.010 A 
ATOM     33  C   UNL A   1      36.750  32.074  29.776  1.00  0.00    -0.014 A 
BRANCH  33  34
ATOM     34  C   UNL A   1      37.934  31.440  30.367  1.00  0.00     0.031 A 
ATOM     35  C   UNL A   1      38.263  31.771  31.791  1.00  0.00     0.074 A 
ATOM     36  C   UNL A   1      38.623  30.542  29.648  1.00  0.00     0.049 A 
ATOM     37  N   UNL A   1      39.198  31.277  32.555  1.00  0.00    -0.248 NA
ATOM     38  C   UNL A   1      37.430  32.798  32.444  1.00  0.00     0.031 C 
ATOM     39  C   UNL A   1      38.342  30.177  28.258  1.00  0.00     0.029 A 
ATOM     40  N   UNL A   1      39.691  29.764  29.993  1.00  0.00    -0.354 N 
ATOM     41  C   UNL A   1      39.063  31.930  33.773  1.00  0.00     0.074 A 
ATOM     42  C   UNL A   1      37.987  32.883  33.641  1.00  0.00     0.031 C 
ATOM     43  C   UNL A   1      39.217  29.235  27.871  1.00  0.00     0.029 A 
ATOM     44  C   UNL A   1      40.123  28.950  28.977  1.00  0.00     0.049 A 
ATOM     45  H   UNL A   1      40.111  29.787  30.884  1.00  0.00     0.167 HD
ATOM     46  C   UNL A   1      39.775  31.730  34.904  1.00  0.00     0.037 A 
ATOM     47  C   UNL A   1      41.146  28.077  28.964  1.00  0.00     0.037 A 
ATOM     48  C   UNL A   1      40.832  30.761  35.003  1.00  0.00     0.049 A 
ATOM     49  C   UNL A   1      41.932  27.892  30.234  1.00  0.00     0.074 A 
ATOM     50  C   UNL A   1      41.608  30.439  36.097  1.00  0.00     0.029 A 
ATOM     51  N   UNL A   1      41.259  29.962  33.950  1.00  0.00    -0.354 N 
ATOM     52  N   UNL A   1      41.765  28.472  31.400  1.00  0.00    -0.248 NA
ATOM     53  C   UNL A   1      43.037  26.930  30.192  1.00  0.00     0.031 C 
ATOM     54  C   UNL A   1      42.540  29.477  35.695  1.00  0.00     0.029 A 
ATOM     55  C   UNL A   1      42.309  29.164  34.363  1.00  0.00     0.049 A 
ATOM     56  H   UNL A   1      40.872  29.964  33.045  1.00  0.00     0.167 HD
ATOM     57  C   UNL A   1      42.729  27.929  32.237  1.00  0.00     0.074 A 
ATOM     58  C   UNL A   1      43.458  26.955  31.448  1.00  0.00     0.031 C 
ATOM     59  C   UNL A   1      43.001  28.208  33.537  1.00  0.00     0.037 A 
BRANCH  46  60
ATOM     60  C   UNL A   1      39.449  32.575  36.096  1.00  0.00     0.057 A 
ATOM     61  C   UNL A   1      38.505  32.180  37.052  1.00  0.00     0.134 A 
ATOM     62  C   UNL A   1      40.116  33.789  36.308  1.00  0.00     0.134 A 
ATOM     63  F   UNL A   1      37.813  31.041  36.895  1.00  0.00    -0.206 F 
ATOM     64  C   UNL A   1      38.231  32.964  38.175  1.00  0.00     0.040 A 
ATOM     65  C   UNL A   1      39.867  34.570  37.438  1.00  0.00     0.040 A 
ATOM     66  F   UNL A   1      41.024  34.230  35.426  1.00  0.00    -0.206 F 
ATOM     67  C   UNL A   1      38.921  34.158  38.376  1.00  0.00     0.006 A 
ENDBRANCH  46  60
BRANCH  47  68
ATOM     68  C   UNL A   1      41.481  27.329  27.726  1.00  0.00     0.057 A 
ATOM     69  C   UNL A   1      41.008  26.031  27.503  1.00  0.00     0.134 A 
ATOM     70  C   UNL A   1      42.308  27.889  26.743  1.00  0.00     0.134 A 
ATOM     71  F   UNL A   1      40.220  25.435  28.410  1.00  0.00    -0.206 F 
ATOM     72  C   UNL A   1      41.368  25.305  26.366  1.00  0.00     0.040 A 
ATOM     73  C   UNL A   1      42.655  27.186  25.589  1.00  0.00     0.040 A 
ATOM     74  F   UNL A   1      42.786  29.134  26.888  1.00  0.00    -0.206 F 
ATOM     75  C   UNL A   1      42.194  25.884  25.403  1.00  0.00     0.006 A 
ENDBRANCH  47  68
BRANCH  59  76
ATOM     76  C   UNL A   1      44.114  27.432  34.169  1.00  0.00     0.057 A 
ATOM     77  C   UNL A   1      43.895  26.183  34.760  1.00  0.00     0.134 A 
ATOM     78  C   UNL A   1      45.424  27.929  34.157  1.00  0.00     0.134 A 
ATOM     79  F   UNL A   1      42.660  25.662  34.811  1.00  0.00    -0.206 F 
ATOM     80  C   UNL A   1      44.937  25.465  35.347  1.00  0.00     0.040 A 
ATOM     81  C   UNL A   1      46.478  27.207  34.714  1.00  0.00     0.040 A 
ATOM     82  F   UNL A   1      45.699  29.115  33.594  1.00  0.00    -0.206 F 
ATOM     83  C   UNL A   1      46.234  25.976  35.319  1.00  0.00     0.006 A 
ENDBRANCH  59  76
ENDBRANCH  33  34
ENDBRANCH  26  28
ENDBRANCH  25  26
ENDBRANCH  24  25
ENDBRANCH  23  24
ENDBRANCH  22  23
ENDBRANCH  21  22
ENDBRANCH   1  21
TORSDOF 22
ENDMDL
MODEL 3
REMARK VINA RESULT:      -8.7      1.894      2.738
REMARK SMILES CC(C)(C)N(CC(=O)OCCOCCOC(=O)c1ccc(-c2c3nc(c(-c4c(F)cccc4F)c4ccc([nH]4)c(-c4c(F)cccc4F)c4nc(c(-c5c(F)cccc5F)c5ccc2[nH]5)C=C4)C=C3)cc1)C(=O)N(CCO)C1CC1
REMARK SMILES IDX 10 1 9 2 7 3 8 4 6 5 5 6 2 7 1 8 3 9 4 10 72 11 73 12 74 13
REMARK SMILES IDX 75 14 76 15 77 16 78 18 79 19 80 20 11 21 12 22 13 23 14 24
REMARK SMILES IDX 15 25 16 26 17 27 18 28 19 29 71 30 20 31 70 32 21 33 22 34
REMARK SMILES IDX 23 35 64 36 24 37 69 38 63 39 65 40 25 41 68 42 62 43 61 44
REMARK SMILES IDX 26 46 52 47 35 48 51 49 36 50 39 51 50 52 66 53 37 54 38 55
REMARK SMILES IDX 49 57 67 58 40 59 27 60 28 61 33 62 29 63 30 64 32 65 34 66
REMARK SMILES IDX 31 67 53 68 54 69 59 70 55 71 56 72 58 73 60 74 57 75 41 76
REMARK SMILES IDX 42 77 47 78 43 79 44 80 46 81 48 82 45 83
REMARK H PARENT 77 17 65 45 39 56
REMARK Flexibility Score: inf
ROOT
ATOM      1  C   UNL A   1      33.373  27.789  23.774  1.00  0.00     0.261 C 
ENDROOT
BRANCH   1   2
ATOM      2  O   UNL A   1      32.935  27.289  22.485  1.00  0.00    -0.462 OA
BRANCH   2   3
ATOM      3  C   UNL A   1      33.275  26.009  22.174  1.00  0.00     0.325 C 
ATOM      4  O   UNL A   1      33.278  25.565  21.029  1.00  0.00    -0.250 OA
BRANCH   3   5
ATOM      5  C   UNL A   1      33.573  25.104  23.393  1.00  0.00     0.244 C 
BRANCH   5   6
ATOM      6  N   UNL A   1      32.798  23.885  23.752  1.00  0.00    -0.309 N 
BRANCH   6   7
ATOM      7  C   UNL A   1      31.462  24.150  24.484  1.00  0.00     0.037 C 
ATOM      8  C   UNL A   1      31.461  25.385  25.434  1.00  0.00     0.034 C 
ATOM      9  C   UNL A   1      31.059  22.958  25.392  1.00  0.00     0.034 C 
ATOM     10  C   UNL A   1      30.333  24.455  23.460  1.00  0.00     0.034 C 
ENDBRANCH   6   7
BRANCH   6  11
ATOM     11  C   UNL A   1      33.037  22.540  23.404  1.00  0.00     0.321 C 
ATOM     12  O   UNL A   1      32.522  22.125  22.353  1.00  0.00    -0.248 OA
BRANCH  11  13
ATOM     13  N   UNL A   1      33.774  21.594  24.129  1.00  0.00    -0.319 N 
BRANCH  13  14
ATOM     14  C   UNL A   1      35.119  21.658  24.764  1.00  0.00     0.150 C 
BRANCH  14  15
ATOM     15  C   UNL A   1      35.158  22.035  26.254  1.00  0.00     0.177 C 
BRANCH  15  16
ATOM     16  O   UNL A   1      36.095  23.078  26.502  1.00  0.00    -0.395 OA
ATOM     17  H   UNL A   1      36.796  23.050  25.832  1.00  0.00     0.210 HD
ENDBRANCH  15  16
ENDBRANCH  14  15
ENDBRANCH  13  14
BRANCH  13  18
ATOM     18  C   UNL A   1      33.355  20.166  23.934  1.00  0.00     0.087 C 
ATOM     19  C   UNL A   1      33.653  19.063  24.934  1.00  0.00     0.027 C 
ATOM     20  C   UNL A   1      32.238  19.462  24.685  1.00  0.00     0.027 C 
ENDBRANCH  13  18
ENDBRANCH  11  13
ENDBRANCH   6  11
ENDBRANCH   5   6
ENDBRANCH   3   5
ENDBRANCH   2   3
ENDBRANCH   1   2
BRANCH   1  21
ATOM     21  C   UNL A   1      32.919  29.245  24.002  1.00  0.00     0.202 C 
BRANCH  21  22
ATOM     22  O   UNL A   1      31.623  29.379  24.592  1.00  0.00    -0.374 OA
BRANCH  22  23
ATOM     23  C   UNL A   1      31.682  29.504  26.009  1.00  0.00     0.202 C 
BRANCH  23  24
ATOM     24  C   UNL A   1      31.817  30.932  26.472  1.00  0.00     0.261 C 
BRANCH  24  25
ATOM     25  O   UNL A   1      32.765  30.946  27.527  1.00  0.00    -0.460 OA
BRANCH  25  26
ATOM     26  C   UNL A   1      33.466  32.084  27.621  1.00  0.00     0.338 C 
ATOM     27  O   UNL A   1      33.073  33.230  27.553  1.00  0.00    -0.246 OA
BRANCH  26  28
ATOM     28  C   UNL A   1      34.783  31.659  28.094  1.00  0.00     0.060 A 
ATOM     29  C   UNL A   1      34.946  30.295  28.331  1.00  0.00     0.016 A 
ATOM     30  C   UNL A   1      35.844  32.568  28.219  1.00  0.00     0.016 A 
ATOM     31  C   UNL A   1      36.172  29.837  28.770  1.00  0.00     0.010 A 
ATOM     32  C   UNL A   1      37.079  32.104  28.641  1.00  0.00     0.010 A 
ATOM     33  C   UNL A   1      37.221  30.748  28.962  1.00  0.00    -0.014 A 
BRANCH  33  34
ATOM     34  C   UNL A   1      38.415  30.283  29.677  1.00  0.00     0.031 A 
ATOM     35  C   UNL A   1      38.584  30.710  31.103  1.00  0.00     0.074 A 
ATOM     36  C   UNL A   1      39.260  29.443  29.062  1.00  0.00     0.049 A 
ATOM     37  N   UNL A   1      39.500  30.362  31.963  1.00  0.00    -0.248 NA
ATOM     38  C   UNL A   1      37.586  31.658  31.635  1.00  0.00     0.031 C 
ATOM     39  C   UNL A   1      39.141  28.990  27.674  1.00  0.00     0.029 A 
ATOM     40  N   UNL A   1      40.377  28.812  29.529  1.00  0.00    -0.354 N 
ATOM     41  C   UNL A   1      39.190  31.045  33.132  1.00  0.00     0.074 A 
ATOM     42  C   UNL A   1      38.027  31.858  32.866  1.00  0.00     0.031 C 
ATOM     43  C   UNL A   1      40.148  28.142  27.406  1.00  0.00     0.029 A 
ATOM     44  C   UNL A   1      40.983  28.012  28.594  1.00  0.00     0.049 A 
ATOM     45  H   UNL A   1      40.715  28.921  30.448  1.00  0.00     0.167 HD
ATOM     46  C   UNL A   1      39.821  30.977  34.324  1.00  0.00     0.037 A 
ATOM     47  C   UNL A   1      42.097  27.266  28.706  1.00  0.00     0.037 A 
ATOM     48  C   UNL A   1      40.970  30.145  34.555  1.00  0.00     0.049 A 
ATOM     49  C   UNL A   1      42.788  27.228  30.042  1.00  0.00     0.074 A 
ATOM     50  C   UNL A   1      41.683  29.962  35.723  1.00  0.00     0.029 A 
ATOM     51  N   UNL A   1      41.573  29.358  33.583  1.00  0.00    -0.354 N 
ATOM     52  N   UNL A   1      42.458  27.832  31.161  1.00  0.00    -0.248 NA
ATOM     53  C   UNL A   1      43.996  26.402  30.137  1.00  0.00     0.031 C 
ATOM     54  C   UNL A   1      42.748  29.100  35.446  1.00  0.00     0.029 A 
ATOM     55  C   UNL A   1      42.668  28.707  34.117  1.00  0.00     0.049 A 
ATOM     56  H   UNL A   1      41.266  29.277  32.651  1.00  0.00     0.167 HD
ATOM     57  C   UNL A   1      43.404  27.443  32.098  1.00  0.00     0.074 A 
ATOM     58  C   UNL A   1      44.303  26.529  31.419  1.00  0.00     0.031 C 
ATOM     59  C   UNL A   1      43.532  27.806  33.398  1.00  0.00     0.037 A 
BRANCH  46  60
ATOM     60  C   UNL A   1      39.302  31.827  35.442  1.00  0.00     0.057 A 
ATOM     61  C   UNL A   1      39.744  33.141  35.643  1.00  0.00     0.134 A 
ATOM     62  C   UNL A   1      38.319  31.335  36.310  1.00  0.00     0.134 A 
ATOM     63  F   UNL A   1      40.702  33.664  34.862  1.00  0.00    -0.206 F 
ATOM     64  C   UNL A   1      39.230  33.934  36.672  1.00  0.00     0.040 A 
ATOM     65  C   UNL A   1      37.782  32.126  37.327  1.00  0.00     0.040 A 
ATOM     66  F   UNL A   1      37.860  30.083  36.178  1.00  0.00    -0.206 F 
ATOM     67  C   UNL A   1      38.239  33.430  37.511  1.00  0.00     0.006 A 
ENDBRANCH  46  60
BRANCH  47  68
ATOM     68  C   UNL A   1      42.618  26.512  27.538  1.00  0.00     0.057 A 
ATOM     69  C   UNL A   1      42.267  25.176  27.313  1.00  0.00     0.134 A 
ATOM     70  C   UNL A   1      43.504  27.106  26.630  1.00  0.00     0.134 A 
ATOM     71  F   UNL A   1      41.431  24.547  28.151  1.00  0.00    -0.206 F 
ATOM     72  C   UNL A   1      42.801  24.448  26.248  1.00  0.00     0.040 A 
ATOM     73  C   UNL A   1      44.025  26.399  25.546  1.00  0.00     0.040 A 
ATOM     74  F   UNL A   1      43.873  28.386  26.781  1.00  0.00    -0.206 F 
ATOM     75  C   UNL A   1      43.683  25.061  25.359  1.00  0.00     0.006 A 
ENDBRANCH  47  68
BRANCH  59  76
ATOM     76  C   UNL A   1      44.669  27.193  34.156  1.00  0.00     0.057 A 
ATOM     77  C   UNL A   1      45.911  27.829  34.256  1.00  0.00     0.134 A 
ATOM     78  C   UNL A   1      44.505  25.970  34.818  1.00  0.00     0.134 A 
ATOM     79  F   UNL A   1      46.130  28.997  33.633  1.00  0.00    -0.206 F 
ATOM     80  C   UNL A   1      46.966  27.253  34.963  1.00  0.00     0.040 A 
ATOM     81  C   UNL A   1      45.543  25.400  35.553  1.00  0.00     0.040 A 
ATOM     82  F   UNL A   1      43.334  25.319  34.770  1.00  0.00    -0.206 F 
ATOM     83  C   UNL A   1      46.780  26.038  35.620  1.00  0.00     0.006 A 
ENDBRANCH  59  76
ENDBRANCH  33  34
ENDBRANCH  26  28
ENDBRANCH  25  26
ENDBRANCH  24  25
ENDBRANCH  23  24
ENDBRANCH  22  23
ENDBRANCH  21  22
ENDBRANCH   1  21
TORSDOF 22
ENDMDL
