MODEL 1
REMARK VINA RESULT:      -9.6      0.000      0.000
REMARK SMILES CC1=C(CC(=O)OCCOCCOC(=O)c2ccc(-c3c4nc(c(-c5c(F)cccc5F)c5ccc([nH]5)c(-c5c(F)cccc5F)c5nc(c(-c6c(F)cccc6F)c6ccc3[nH]6)C=C5)C=C4)cc2)c2cc(F)ccc2/C1=C\c1cccc(OCc2ccccc2)c1
REMARK SMILES IDX 8 1 7 2 5 3 6 4 4 5 3 6 1 7 2 8 77 9 70 10 76 11 78 12 71 13
REMARK SMILES IDX 75 14 72 15 74 16 73 17 79 18 80 19 92 20 81 21 83 22 82 23
REMARK SMILES IDX 84 24 85 25 86 26 87 27 91 28 88 29 90 30 89 31 9 32 10 33
REMARK SMILES IDX 11 34 12 35 13 36 14 37 15 38 16 39 17 40 69 41 18 42 68 43
REMARK SMILES IDX 19 44 20 45 21 46 62 47 22 48 67 49 61 50 63 51 23 52 66 53
REMARK SMILES IDX 60 54 59 55 24 57 50 58 33 59 49 60 34 61 37 62 48 63 64 64
REMARK SMILES IDX 35 65 36 66 47 68 65 69 38 70 25 71 26 72 31 73 27 74 28 75
REMARK SMILES IDX 30 76 32 77 29 78 51 79 52 80 57 81 53 82 54 83 56 84 58 85
REMARK SMILES IDX 55 86 39 87 40 88 45 89 41 90 42 91 44 92 46 93 43 94
REMARK H PARENT 63 56 37 67
REMARK Flexibility Score: inf
ROOT
ATOM      1  C   UNL A   1      34.005  35.213  31.265  1.00  0.00     0.261 C 
ENDROOT
BRANCH   1   2
ATOM      2  O   UNL A   1      33.615  34.178  30.341  1.00  0.00    -0.463 OA
BRANCH   2   3
ATOM      3  C   UNL A   1      33.382  34.596  29.066  1.00  0.00     0.310 C 
ATOM      4  O   UNL A   1      32.576  35.472  28.763  1.00  0.00    -0.252 OA
BRANCH   3   5
ATOM      5  C   UNL A   1      34.215  33.906  27.990  1.00  0.00     0.159 C 
BRANCH   5   6
ATOM      6  C   UNL A   1      35.161  32.814  28.370  1.00  0.00    -0.025 C 
ATOM      7  C   UNL A   1      33.963  30.808  27.363  1.00  0.00     0.045 C 
ATOM      8  C   UNL A   1      35.071  31.491  28.094  1.00  0.00    -0.039 C 
ATOM      9  C   UNL A   1      36.273  30.798  28.584  1.00  0.00    -0.014 C 
ATOM     10  C   UNL A   1      36.479  33.050  28.987  1.00  0.00    -0.011 A 
ATOM     11  C   UNL A   1      37.139  31.826  29.194  1.00  0.00    -0.010 A 
ATOM     12  C   UNL A   1      36.525  29.483  28.430  1.00  0.00     0.017 C 
ATOM     13  C   UNL A   1      37.095  34.244  29.340  1.00  0.00     0.048 A 
ATOM     14  C   UNL A   1      38.369  31.783  29.842  1.00  0.00     0.012 A 
ATOM     15  C   UNL A   1      38.335  34.190  29.976  1.00  0.00     0.123 A 
ATOM     16  C   UNL A   1      38.963  32.977  30.250  1.00  0.00     0.040 A 
ATOM     17  F   UNL A   1      38.911  35.328  30.386  1.00  0.00    -0.207 F 
BRANCH  12  18
ATOM     18  C   UNL A   1      37.755  28.818  28.867  1.00  0.00    -0.021 A 
ATOM     19  C   UNL A   1      37.877  28.364  30.184  1.00  0.00     0.008 A 
ATOM     20  C   UNL A   1      38.854  28.751  27.997  1.00  0.00     0.054 A 
ATOM     21  C   UNL A   1      39.108  27.903  30.647  1.00  0.00     0.004 A 
ATOM     22  C   UNL A   1      40.080  28.269  28.453  1.00  0.00     0.120 A 
ATOM     23  C   UNL A   1      40.207  27.871  29.786  1.00  0.00     0.046 A 
BRANCH  22  24
ATOM     24  O   UNL A   1      41.225  28.153  27.710  1.00  0.00    -0.489 OA
BRANCH  24  25
ATOM     25  C   UNL A   1      42.479  28.105  28.402  1.00  0.00     0.265 C 
BRANCH  25  26
ATOM     26  C   UNL A   1      43.219  26.795  28.226  1.00  0.00    -0.011 A 
ATOM     27  C   UNL A   1      44.190  26.647  27.223  1.00  0.00     0.007 A 
ATOM     28  C   UNL A   1      42.945  25.710  29.070  1.00  0.00     0.007 A 
ATOM     29  C   UNL A   1      44.909  25.459  27.104  1.00  0.00     0.000 A 
ATOM     30  C   UNL A   1      43.662  24.519  28.945  1.00  0.00     0.000 A 
ATOM     31  C   UNL A   1      44.650  24.398  27.969  1.00  0.00     0.000 A 
ENDBRANCH  25  26
ENDBRANCH  24  25
ENDBRANCH  22  24
ENDBRANCH  12  18
ENDBRANCH   5   6
ENDBRANCH   3   5
ENDBRANCH   2   3
ENDBRANCH   1   2
BRANCH   1  32
ATOM     32  C   UNL A   1      34.681  34.703  32.546  1.00  0.00     0.202 C 
BRANCH  32  33
ATOM     33  O   UNL A   1      35.889  35.328  32.968  1.00  0.00    -0.374 OA
BRANCH  33  34
ATOM     34  C   UNL A   1      36.978  34.491  33.343  1.00  0.00     0.202 C 
BRANCH  34  35
ATOM     35  C   UNL A   1      37.000  33.938  34.773  1.00  0.00     0.261 C 
BRANCH  35  36
ATOM     36  O   UNL A   1      36.829  32.521  34.845  1.00  0.00    -0.460 OA
BRANCH  36  37
ATOM     37  C   UNL A   1      37.807  31.881  35.522  1.00  0.00     0.338 C 
ATOM     38  O   UNL A   1      37.777  31.459  36.671  1.00  0.00    -0.246 OA
BRANCH  37  39
ATOM     39  C   UNL A   1      38.914  31.593  34.605  1.00  0.00     0.060 A 
ATOM     40  C   UNL A   1      40.203  32.062  34.862  1.00  0.00     0.016 A 
ATOM     41  C   UNL A   1      38.642  30.787  33.494  1.00  0.00     0.016 A 
ATOM     42  C   UNL A   1      41.241  31.675  34.016  1.00  0.00     0.010 A 
ATOM     43  C   UNL A   1      39.679  30.397  32.656  1.00  0.00     0.010 A 
ATOM     44  C   UNL A   1      40.989  30.816  32.930  1.00  0.00    -0.014 A 
BRANCH  44  45
ATOM     45  C   UNL A   1      42.113  30.229  32.172  1.00  0.00     0.031 A 
ATOM     46  C   UNL A   1      42.723  30.936  31.004  1.00  0.00     0.074 A 
ATOM     47  C   UNL A   1      42.544  29.008  32.536  1.00  0.00     0.049 A 
ATOM     48  N   UNL A   1      43.756  30.590  30.280  1.00  0.00    -0.248 NA
ATOM     49  C   UNL A   1      42.077  32.187  30.584  1.00  0.00     0.031 C 
ATOM     50  C   UNL A   1      41.981  28.208  33.625  1.00  0.00     0.029 A 
ATOM     51  N   UNL A   1      43.558  28.233  32.041  1.00  0.00    -0.354 N 
ATOM     52  C   UNL A   1      43.898  31.589  29.326  1.00  0.00     0.074 A 
ATOM     53  C   UNL A   1      42.807  32.519  29.528  1.00  0.00     0.031 C 
ATOM     54  C   UNL A   1      42.693  27.079  33.754  1.00  0.00     0.029 A 
ATOM     55  C   UNL A   1      43.736  27.062  32.736  1.00  0.00     0.049 A 
ATOM     56  H   UNL A   1      44.106  28.489  31.264  1.00  0.00     0.167 HD
ATOM     57  C   UNL A   1      44.863  31.720  28.382  1.00  0.00     0.037 A 
ATOM     58  C   UNL A   1      44.651  26.091  32.574  1.00  0.00     0.037 A 
ATOM     59  C   UNL A   1      45.915  30.757  28.164  1.00  0.00     0.049 A 
ATOM     60  C   UNL A   1      45.672  26.235  31.483  1.00  0.00     0.074 A 
ATOM     61  C   UNL A   1      46.960  30.802  27.258  1.00  0.00     0.029 A 
ATOM     62  N   UNL A   1      46.038  29.554  28.849  1.00  0.00    -0.354 N 
ATOM     63  N   UNL A   1      45.857  27.226  30.644  1.00  0.00    -0.248 NA
ATOM     64  C   UNL A   1      46.614  25.121  31.326  1.00  0.00     0.031 C 
ATOM     65  C   UNL A   1      47.677  29.601  27.353  1.00  0.00     0.029 A 
ATOM     66  C   UNL A   1      47.118  28.833  28.361  1.00  0.00     0.049 A 
ATOM     67  H   UNL A   1      45.444  29.256  29.575  1.00  0.00     0.167 HD
ATOM     68  C   UNL A   1      46.954  26.868  29.873  1.00  0.00     0.074 A 
ATOM     69  C   UNL A   1      47.405  25.581  30.369  1.00  0.00     0.031 C 
ATOM     70  C   UNL A   1      47.537  27.541  28.849  1.00  0.00     0.037 A 
BRANCH  57  71
ATOM     71  C   UNL A   1      44.789  32.941  27.506  1.00  0.00     0.057 A 
ATOM     72  C   UNL A   1      45.382  34.147  27.901  1.00  0.00     0.134 A 
ATOM     73  C   UNL A   1      44.154  32.919  26.255  1.00  0.00     0.134 A 
ATOM     74  F   UNL A   1      45.998  34.249  29.089  1.00  0.00    -0.206 F 
ATOM     75  C   UNL A   1      45.366  35.275  27.077  1.00  0.00     0.040 A 
ATOM     76  C   UNL A   1      44.161  34.029  25.408  1.00  0.00     0.040 A 
ATOM     77  F   UNL A   1      43.573  31.795  25.808  1.00  0.00    -0.206 F 
ATOM     78  C   UNL A   1      44.769  35.213  25.819  1.00  0.00     0.006 A 
ENDBRANCH  57  71
BRANCH  58  79
ATOM     79  C   UNL A   1      44.682  24.935  33.502  1.00  0.00     0.057 A 
ATOM     80  C   UNL A   1      44.155  23.687  33.145  1.00  0.00     0.134 A 
ATOM     81  C   UNL A   1      45.246  25.059  34.776  1.00  0.00     0.134 A 
ATOM     82  F   UNL A   1      43.590  23.508  31.943  1.00  0.00    -0.206 F 
ATOM     83  C   UNL A   1      44.186  22.606  34.028  1.00  0.00     0.040 A 
ATOM     84  C   UNL A   1      45.308  23.980  35.657  1.00  0.00     0.040 A 
ATOM     85  F   UNL A   1      45.777  26.226  35.167  1.00  0.00    -0.206 F 
ATOM     86  C   UNL A   1      44.772  22.748  35.284  1.00  0.00     0.006 A 
ENDBRANCH  58  79
BRANCH  70  87
ATOM     87  C   UNL A   1      48.740  26.888  28.224  1.00  0.00     0.057 A 
ATOM     88  C   UNL A   1      48.637  26.234  26.990  1.00  0.00     0.134 A 
ATOM     89  C   UNL A   1      50.008  26.940  28.822  1.00  0.00     0.134 A 
ATOM     90  F   UNL A   1      47.455  26.139  26.365  1.00  0.00    -0.206 F 
ATOM     91  C   UNL A   1      49.752  25.673  26.365  1.00  0.00     0.040 A 
ATOM     92  C   UNL A   1      51.136  26.414  28.189  1.00  0.00     0.040 A 
ATOM     93  F   UNL A   1      50.182  27.566  29.997  1.00  0.00    -0.206 F 
ATOM     94  C   UNL A   1      51.009  25.777  26.957  1.00  0.00     0.006 A 
ENDBRANCH  70  87
ENDBRANCH  44  45
ENDBRANCH  37  39
ENDBRANCH  36  37
ENDBRANCH  35  36
ENDBRANCH  34  35
ENDBRANCH  33  34
ENDBRANCH  32  33
ENDBRANCH   1  32
TORSDOF 19
ENDMDL
MODEL 2
REMARK VINA RESULT:      -9.5      0.541      5.882
REMARK SMILES CC1=C(CC(=O)OCCOCCOC(=O)c2ccc(-c3c4nc(c(-c5c(F)cccc5F)c5ccc([nH]5)c(-c5c(F)cccc5F)c5nc(c(-c6c(F)cccc6F)c6ccc3[nH]6)C=C5)C=C4)cc2)c2cc(F)ccc2/C1=C\c1cccc(OCc2ccccc2)c1
REMARK SMILES IDX 8 1 7 2 5 3 6 4 4 5 3 6 1 7 2 8 77 9 70 10 76 11 78 12 71 13
REMARK SMILES IDX 75 14 72 15 74 16 73 17 79 18 80 19 92 20 81 21 83 22 82 23
REMARK SMILES IDX 84 24 85 25 86 26 87 27 91 28 88 29 90 30 89 31 9 32 10 33
REMARK SMILES IDX 11 34 12 35 13 36 14 37 15 38 16 39 17 40 69 41 18 42 68 43
REMARK SMILES IDX 19 44 20 45 21 46 62 47 22 48 67 49 61 50 63 51 23 52 66 53
REMARK SMILES IDX 60 54 59 55 24 57 50 58 33 59 49 60 34 61 37 62 48 63 64 64
REMARK SMILES IDX 35 65 36 66 47 68 65 69 38 70 25 71 26 72 31 73 27 74 28 75
REMARK SMILES IDX 30 76 32 77 29 78 51 79 52 80 57 81 53 82 54 83 56 84 58 85
REMARK SMILES IDX 55 86 39 87 40 88 45 89 41 90 42 91 44 92 46 93 43 94
REMARK H PARENT 63 56 37 67
REMARK Flexibility Score: inf
ROOT
ATOM      1  C   UNL A   1      33.837  35.007  31.291  1.00  0.00     0.261 C 
ENDROOT
BRANCH   1   2
ATOM      2  O   UNL A   1      33.624  34.006  30.276  1.00  0.00    -0.463 OA
BRANCH   2   3
ATOM      3  C   UNL A   1      33.421  34.488  29.019  1.00  0.00     0.310 C 
ATOM      4  O   UNL A   1      32.686  35.436  28.753  1.00  0.00    -0.252 OA
BRANCH   3   5
ATOM      5  C   UNL A   1      34.195  33.776  27.914  1.00  0.00     0.159 C 
BRANCH   5   6
ATOM      6  C   UNL A   1      35.186  32.715  28.267  1.00  0.00    -0.025 C 
ATOM      7  C   UNL A   1      34.024  30.670  27.299  1.00  0.00     0.045 C 
ATOM      8  C   UNL A   1      35.131  31.389  27.996  1.00  0.00    -0.039 C 
ATOM      9  C   UNL A   1      36.369  30.736  28.451  1.00  0.00    -0.014 C 
ATOM     10  C   UNL A   1      36.514  32.994  28.846  1.00  0.00    -0.011 A 
ATOM     11  C   UNL A   1      37.219  31.792  29.034  1.00  0.00    -0.010 A 
ATOM     12  C   UNL A   1      36.657  29.429  28.292  1.00  0.00     0.017 C 
ATOM     13  C   UNL A   1      37.102  34.208  29.178  1.00  0.00     0.048 A 
ATOM     14  C   UNL A   1      38.467  31.790  29.646  1.00  0.00     0.012 A 
ATOM     15  C   UNL A   1      38.361  34.195  29.778  1.00  0.00     0.123 A 
ATOM     16  C   UNL A   1      39.035  33.003  30.035  1.00  0.00     0.040 A 
ATOM     17  F   UNL A   1      38.912  35.352  30.170  1.00  0.00    -0.207 F 
BRANCH  12  18
ATOM     18  C   UNL A   1      37.921  28.805  28.692  1.00  0.00    -0.021 A 
ATOM     19  C   UNL A   1      38.063  28.275  29.979  1.00  0.00     0.008 A 
ATOM     20  C   UNL A   1      39.024  28.853  27.828  1.00  0.00     0.054 A 
ATOM     21  C   UNL A   1      39.316  27.852  30.419  1.00  0.00     0.004 A 
ATOM     22  C   UNL A   1      40.273  28.409  28.259  1.00  0.00     0.120 A 
ATOM     23  C   UNL A   1      40.417  27.934  29.565  1.00  0.00     0.046 A 
BRANCH  22  24
ATOM     24  O   UNL A   1      41.424  28.403  27.517  1.00  0.00    -0.489 OA
BRANCH  24  25
ATOM     25  C   UNL A   1      42.665  28.167  28.195  1.00  0.00     0.265 C 
BRANCH  25  26
ATOM     26  C   UNL A   1      43.235  26.785  27.955  1.00  0.00    -0.011 A 
ATOM     27  C   UNL A   1      44.134  26.551  26.904  1.00  0.00     0.007 A 
ATOM     28  C   UNL A   1      42.872  25.716  28.787  1.00  0.00     0.007 A 
ATOM     29  C   UNL A   1      44.701  25.290  26.723  1.00  0.00     0.000 A 
ATOM     30  C   UNL A   1      43.436  24.454  28.602  1.00  0.00     0.000 A 
ATOM     31  C   UNL A   1      44.356  24.243  27.576  1.00  0.00     0.000 A 
ENDBRANCH  25  26
ENDBRANCH  24  25
ENDBRANCH  22  24
ENDBRANCH  12  18
ENDBRANCH   5   6
ENDBRANCH   3   5
ENDBRANCH   2   3
ENDBRANCH   1   2
BRANCH   1  32
ATOM     32  C   UNL A   1      34.904  34.642  32.334  1.00  0.00     0.202 C 
BRANCH  32  33
ATOM     33  O   UNL A   1      34.473  34.248  33.632  1.00  0.00    -0.374 OA
BRANCH  33  34
ATOM     34  C   UNL A   1      35.427  34.273  34.689  1.00  0.00     0.202 C 
BRANCH  34  35
ATOM     35  C   UNL A   1      36.797  33.632  34.435  1.00  0.00     0.261 C 
BRANCH  35  36
ATOM     36  O   UNL A   1      36.791  32.206  34.529  1.00  0.00    -0.460 OA
BRANCH  36  37
ATOM     37  C   UNL A   1      37.817  31.696  35.245  1.00  0.00     0.338 C 
ATOM     38  O   UNL A   1      37.813  31.331  36.414  1.00  0.00    -0.246 OA
BRANCH  37  39
ATOM     39  C   UNL A   1      38.958  31.472  34.353  1.00  0.00     0.060 A 
ATOM     40  C   UNL A   1      40.235  31.926  34.687  1.00  0.00     0.016 A 
ATOM     41  C   UNL A   1      38.730  30.739  33.183  1.00  0.00     0.016 A 
ATOM     42  C   UNL A   1      41.305  31.598  33.856  1.00  0.00     0.010 A 
ATOM     43  C   UNL A   1      39.800  30.407  32.360  1.00  0.00     0.010 A 
ATOM     44  C   UNL A   1      41.096  30.810  32.708  1.00  0.00    -0.014 A 
BRANCH  44  45
ATOM     45  C   UNL A   1      42.250  30.276  31.956  1.00  0.00     0.031 A 
ATOM     46  C   UNL A   1      42.858  28.952  32.291  1.00  0.00     0.074 A 
ATOM     47  C   UNL A   1      42.774  31.045  30.984  1.00  0.00     0.049 A 
ATOM     48  N   UNL A   1      43.825  28.312  31.685  1.00  0.00    -0.248 NA
ATOM     49  C   UNL A   1      42.320  28.263  33.472  1.00  0.00     0.031 C 
ATOM     50  C   UNL A   1      42.292  32.377  30.615  1.00  0.00     0.029 A 
ATOM     51  N   UNL A   1      43.813  30.814  30.124  1.00  0.00    -0.354 N 
ATOM     52  C   UNL A   1      44.002  27.135  32.398  1.00  0.00     0.074 A 
ATOM     53  C   UNL A   1      43.085  27.181  33.518  1.00  0.00     0.031 C 
ATOM     54  C   UNL A   1      42.998  32.824  29.566  1.00  0.00     0.029 A 
ATOM     55  C   UNL A   1      44.001  31.826  29.215  1.00  0.00     0.049 A 
ATOM     56  H   UNL A   1      44.371  30.004  30.153  1.00  0.00     0.167 HD
ATOM     57  C   UNL A   1      44.845  26.106  32.130  1.00  0.00     0.037 A 
ATOM     58  C   UNL A   1      44.878  31.926  28.202  1.00  0.00     0.037 A 
ATOM     59  C   UNL A   1      45.787  26.099  31.037  1.00  0.00     0.049 A 
ATOM     60  C   UNL A   1      45.838  30.797  27.963  1.00  0.00     0.074 A 
ATOM     61  C   UNL A   1      46.666  25.101  30.654  1.00  0.00     0.029 A 
ATOM     62  N   UNL A   1      45.991  27.161  30.165  1.00  0.00    -0.354 N 
ATOM     63  N   UNL A   1      45.939  29.647  28.585  1.00  0.00    -0.248 NA
ATOM     64  C   UNL A   1      46.802  30.986  26.872  1.00  0.00     0.031 C 
ATOM     65  C   UNL A   1      47.441  25.582  29.590  1.00  0.00     0.029 A 
ATOM     66  C   UNL A   1      47.005  26.858  29.268  1.00  0.00     0.049 A 
ATOM     67  H   UNL A   1      45.488  28.008  30.180  1.00  0.00     0.167 HD
ATOM     68  C   UNL A   1      46.962  28.960  27.945  1.00  0.00     0.074 A 
ATOM     69  C   UNL A   1      47.426  29.817  26.870  1.00  0.00     0.031 C 
ATOM     70  C   UNL A   1      47.472  27.733  28.220  1.00  0.00     0.037 A 
BRANCH  57  71
ATOM     71  C   UNL A   1      44.788  24.926  33.061  1.00  0.00     0.057 A 
ATOM     72  C   UNL A   1      45.372  24.985  34.333  1.00  0.00     0.134 A 
ATOM     73  C   UNL A   1      44.130  23.737  32.712  1.00  0.00     0.134 A 
ATOM     74  F   UNL A   1      46.028  26.084  34.734  1.00  0.00    -0.206 F 
ATOM     75  C   UNL A   1      45.283  23.916  35.228  1.00  0.00     0.040 A 
ATOM     76  C   UNL A   1      44.006  22.675  33.611  1.00  0.00     0.040 A 
ATOM     77  F   UNL A   1      43.540  23.614  31.513  1.00  0.00    -0.206 F 
ATOM     78  C   UNL A   1      44.584  22.763  34.875  1.00  0.00     0.006 A 
ENDBRANCH  57  71
BRANCH  58  79
ATOM     79  C   UNL A   1      44.847  33.106  27.304  1.00  0.00     0.057 A 
ATOM     80  C   UNL A   1      45.519  34.293  27.619  1.00  0.00     0.134 A 
ATOM     81  C   UNL A   1      44.137  33.065  26.099  1.00  0.00     0.134 A 
ATOM     82  F   UNL A   1      46.207  34.398  28.765  1.00  0.00    -0.206 F 
ATOM     83  C   UNL A   1      45.480  35.399  26.769  1.00  0.00     0.040 A 
ATOM     84  C   UNL A   1      44.112  34.153  25.227  1.00  0.00     0.040 A 
ATOM     85  F   UNL A   1      43.485  31.950  25.738  1.00  0.00    -0.206 F 
ATOM     86  C   UNL A   1      44.783  35.328  25.565  1.00  0.00     0.006 A 
ENDBRANCH  58  79
BRANCH  70  87
ATOM     87  C   UNL A   1      48.576  27.255  27.317  1.00  0.00     0.057 A 
ATOM     88  C   UNL A   1      49.913  27.318  27.729  1.00  0.00     0.134 A 
ATOM     89  C   UNL A   1      48.315  26.695  26.057  1.00  0.00     0.134 A 
ATOM     90  F   UNL A   1      50.236  27.848  28.917  1.00  0.00    -0.206 F 
ATOM     91  C   UNL A   1      50.947  26.826  26.931  1.00  0.00     0.040 A 
ATOM     92  C   UNL A   1      49.338  26.167  25.267  1.00  0.00     0.040 A 
ATOM     93  F   UNL A   1      47.055  26.588  25.608  1.00  0.00    -0.206 F 
ATOM     94  C   UNL A   1      50.659  26.233  25.703  1.00  0.00     0.006 A 
ENDBRANCH  70  87
ENDBRANCH  44  45
ENDBRANCH  37  39
ENDBRANCH  36  37
ENDBRANCH  35  36
ENDBRANCH  34  35
ENDBRANCH  33  34
ENDBRANCH  32  33
ENDBRANCH   1  32
TORSDOF 19
ENDMDL
MODEL 3
REMARK VINA RESULT:      -9.4      4.439     10.935
REMARK SMILES CC1=C(CC(=O)OCCOCCOC(=O)c2ccc(-c3c4nc(c(-c5c(F)cccc5F)c5ccc([nH]5)c(-c5c(F)cccc5F)c5nc(c(-c6c(F)cccc6F)c6ccc3[nH]6)C=C5)C=C4)cc2)c2cc(F)ccc2/C1=C\c1cccc(OCc2ccccc2)c1
REMARK SMILES IDX 8 1 7 2 5 3 6 4 4 5 3 6 1 7 2 8 77 9 70 10 76 11 78 12 71 13
REMARK SMILES IDX 75 14 72 15 74 16 73 17 79 18 80 19 92 20 81 21 83 22 82 23
REMARK SMILES IDX 84 24 85 25 86 26 87 27 91 28 88 29 90 30 89 31 9 32 10 33
REMARK SMILES IDX 11 34 12 35 13 36 14 37 15 38 16 39 17 40 69 41 18 42 68 43
REMARK SMILES IDX 19 44 20 45 21 46 62 47 22 48 67 49 61 50 63 51 23 52 66 53
REMARK SMILES IDX 60 54 59 55 24 57 50 58 33 59 49 60 34 61 37 62 48 63 64 64
REMARK SMILES IDX 35 65 36 66 47 68 65 69 38 70 25 71 26 72 31 73 27 74 28 75
REMARK SMILES IDX 30 76 32 77 29 78 51 79 52 80 57 81 53 82 54 83 56 84 58 85
REMARK SMILES IDX 55 86 39 87 40 88 45 89 41 90 42 91 44 92 46 93 43 94
REMARK H PARENT 63 56 37 67
REMARK Flexibility Score: inf
ROOT
ATOM      1  C   UNL A   1      48.174  26.198  30.271  1.00  0.00     0.261 C 
ENDROOT
BRANCH   1   2
ATOM      2  O   UNL A   1      48.962  25.969  29.085  1.00  0.00    -0.463 OA
BRANCH   2   3
ATOM      3  C   UNL A   1      48.301  25.370  28.057  1.00  0.00     0.310 C 
ATOM      4  O   UNL A   1      48.746  24.430  27.403  1.00  0.00    -0.252 OA
BRANCH   3   5
ATOM      5  C   UNL A   1      46.916  25.935  27.753  1.00  0.00     0.159 C 
BRANCH   5   6
ATOM      6  C   UNL A   1      45.768  25.006  27.530  1.00  0.00    -0.025 C 
ATOM      7  C   UNL A   1      45.909  24.710  25.007  1.00  0.00     0.045 C 
ATOM      8  C   UNL A   1      45.339  24.465  26.365  1.00  0.00    -0.039 C 
ATOM      9  C   UNL A   1      44.229  23.534  26.627  1.00  0.00    -0.014 C 
ATOM     10  C   UNL A   1      44.997  24.380  28.620  1.00  0.00    -0.011 A 
ATOM     11  C   UNL A   1      44.006  23.537  28.086  1.00  0.00    -0.010 A 
ATOM     12  C   UNL A   1      43.604  22.792  25.692  1.00  0.00     0.017 C 
ATOM     13  C   UNL A   1      45.141  24.504  29.996  1.00  0.00     0.048 A 
ATOM     14  C   UNL A   1      43.095  22.897  28.919  1.00  0.00     0.012 A 
ATOM     15  C   UNL A   1      44.230  23.845  30.822  1.00  0.00     0.123 A 
ATOM     16  C   UNL A   1      43.200  23.067  30.299  1.00  0.00     0.040 A 
ATOM     17  F   UNL A   1      44.311  24.012  32.149  1.00  0.00    -0.207 F 
BRANCH  12  18
ATOM     18  C   UNL A   1      42.544  21.822  25.976  1.00  0.00    -0.021 A 
ATOM     19  C   UNL A   1      42.855  20.465  26.111  1.00  0.00     0.008 A 
ATOM     20  C   UNL A   1      41.206  22.240  25.988  1.00  0.00     0.054 A 
ATOM     21  C   UNL A   1      41.829  19.525  26.196  1.00  0.00     0.004 A 
ATOM     22  C   UNL A   1      40.179  21.302  26.096  1.00  0.00     0.120 A 
ATOM     23  C   UNL A   1      40.498  19.944  26.173  1.00  0.00     0.046 A 
BRANCH  22  24
ATOM     24  O   UNL A   1      38.838  21.578  26.119  1.00  0.00    -0.489 OA
BRANCH  24  25
ATOM     25  C   UNL A   1      38.429  22.952  26.110  1.00  0.00     0.265 C 
BRANCH  25  26
ATOM     26  C   UNL A   1      37.139  23.196  25.356  1.00  0.00    -0.011 A 
ATOM     27  C   UNL A   1      37.002  22.798  24.017  1.00  0.00     0.007 A 
ATOM     28  C   UNL A   1      36.058  23.824  25.990  1.00  0.00     0.007 A 
ATOM     29  C   UNL A   1      35.793  22.972  23.346  1.00  0.00     0.000 A 
ATOM     30  C   UNL A   1      34.850  24.003  25.315  1.00  0.00     0.000 A 
ATOM     31  C   UNL A   1      34.715  23.569  23.997  1.00  0.00     0.000 A 
ENDBRANCH  25  26
ENDBRANCH  24  25
ENDBRANCH  22  24
ENDBRANCH  12  18
ENDBRANCH   5   6
ENDBRANCH   3   5
ENDBRANCH   2   3
ENDBRANCH   1   2
BRANCH   1  32
ATOM     32  C   UNL A   1      48.812  25.685  31.570  1.00  0.00     0.202 C 
BRANCH  32  33
ATOM     33  O   UNL A   1      48.022  25.677  32.754  1.00  0.00    -0.374 OA
BRANCH  33  34
ATOM     34  C   UNL A   1      48.430  24.829  33.823  1.00  0.00     0.202 C 
BRANCH  34  35
ATOM     35  C   UNL A   1      48.748  25.481  35.175  1.00  0.00     0.261 C 
BRANCH  35  36
ATOM     36  O   UNL A   1      47.661  25.443  36.101  1.00  0.00    -0.460 OA
BRANCH  36  37
ATOM     37  C   UNL A   1      47.201  26.661  36.463  1.00  0.00     0.338 C 
ATOM     38  O   UNL A   1      47.653  27.414  37.317  1.00  0.00    -0.246 OA
BRANCH  37  39
ATOM     39  C   UNL A   1      46.131  27.061  35.546  1.00  0.00     0.060 A 
ATOM     40  C   UNL A   1      45.011  26.252  35.347  1.00  0.00     0.016 A 
ATOM     41  C   UNL A   1      46.246  28.307  34.921  1.00  0.00     0.016 A 
ATOM     42  C   UNL A   1      43.973  26.723  34.546  1.00  0.00     0.010 A 
ATOM     43  C   UNL A   1      45.207  28.778  34.127  1.00  0.00     0.010 A 
ATOM     44  C   UNL A   1      44.053  28.000  33.960  1.00  0.00    -0.014 A 
BRANCH  44  45
ATOM     45  C   UNL A   1      42.869  28.589  33.301  1.00  0.00     0.031 A 
ATOM     46  C   UNL A   1      41.943  29.509  34.032  1.00  0.00     0.074 A 
ATOM     47  C   UNL A   1      42.617  28.232  32.029  1.00  0.00     0.049 A 
ATOM     48  N   UNL A   1      40.904  30.162  33.579  1.00  0.00    -0.248 NA
ATOM     49  C   UNL A   1      42.211  29.708  35.462  1.00  0.00     0.031 C 
ATOM     50  C   UNL A   1      43.426  27.297  31.244  1.00  0.00     0.029 A 
ATOM     51  N   UNL A   1      41.624  28.619  31.171  1.00  0.00    -0.354 N 
ATOM     52  C   UNL A   1      40.400  30.866  34.664  1.00  0.00     0.074 A 
ATOM     53  C   UNL A   1      41.213  30.509  35.809  1.00  0.00     0.031 C 
ATOM     54  C   UNL A   1      42.929  27.225  30.000  1.00  0.00     0.029 A 
ATOM     55  C   UNL A   1      41.751  28.080  29.914  1.00  0.00     0.049 A 
ATOM     56  H   UNL A   1      40.891  29.223  31.428  1.00  0.00     0.167 HD
ATOM     57  C   UNL A   1      39.364  31.741  34.692  1.00  0.00     0.037 A 
ATOM     58  C   UNL A   1      41.004  28.269  28.813  1.00  0.00     0.037 A 
ATOM     59  C   UNL A   1      38.536  32.048  33.551  1.00  0.00     0.049 A 
ATOM     60  C   UNL A   1      39.828  29.199  28.889  1.00  0.00     0.074 A 
ATOM     61  C   UNL A   1      37.480  32.937  33.458  1.00  0.00     0.029 A 
ATOM     62  N   UNL A   1      38.655  31.445  32.305  1.00  0.00    -0.354 N 
ATOM     63  N   UNL A   1      39.411  29.932  29.893  1.00  0.00    -0.248 NA
ATOM     64  C   UNL A   1      39.023  29.327  27.668  1.00  0.00     0.031 C 
ATOM     65  C   UNL A   1      36.925  32.829  32.176  1.00  0.00     0.029 A 
ATOM     66  C   UNL A   1      37.672  31.917  31.448  1.00  0.00     0.049 A 
ATOM     67  H   UNL A   1      39.339  30.779  32.064  1.00  0.00     0.167 HD
ATOM     68  C   UNL A   1      38.310  30.631  29.420  1.00  0.00     0.074 A 
ATOM     69  C   UNL A   1      38.146  30.251  28.029  1.00  0.00     0.031 C 
ATOM     70  C   UNL A   1      37.506  31.508  30.074  1.00  0.00     0.037 A 
BRANCH  57  71
ATOM     71  C   UNL A   1      39.069  32.396  36.014  1.00  0.00     0.057 A 
ATOM     72  C   UNL A   1      39.604  33.651  36.331  1.00  0.00     0.134 A 
ATOM     73  C   UNL A   1      38.231  31.797  36.967  1.00  0.00     0.134 A 
ATOM     74  F   UNL A   1      40.423  34.281  35.475  1.00  0.00    -0.206 F 
ATOM     75  C   UNL A   1      39.298  34.295  37.532  1.00  0.00     0.040 A 
ATOM     76  C   UNL A   1      37.891  32.446  38.157  1.00  0.00     0.040 A 
ATOM     77  F   UNL A   1      37.676  30.599  36.727  1.00  0.00    -0.206 F 
ATOM     78  C   UNL A   1      38.426  33.700  38.442  1.00  0.00     0.006 A 
ENDBRANCH  57  71
BRANCH  58  79
ATOM     79  C   UNL A   1      41.381  27.616  27.537  1.00  0.00     0.057 A 
ATOM     80  C   UNL A   1      42.187  28.257  26.589  1.00  0.00     0.134 A 
ATOM     81  C   UNL A   1      40.936  26.323  27.240  1.00  0.00     0.134 A 
ATOM     82  F   UNL A   1      42.635  29.501  26.809  1.00  0.00    -0.206 F 
ATOM     83  C   UNL A   1      42.533  27.635  25.388  1.00  0.00     0.040 A 
ATOM     84  C   UNL A   1      41.296  25.679  26.056  1.00  0.00     0.040 A 
ATOM     85  F   UNL A   1      40.171  25.655  28.116  1.00  0.00    -0.206 F 
ATOM     86  C   UNL A   1      42.095  26.339  25.123  1.00  0.00     0.006 A 
ENDBRANCH  58  79
BRANCH  70  87
ATOM     87  C   UNL A   1      36.396  32.121  29.266  1.00  0.00     0.057 A 
ATOM     88  C   UNL A   1      35.263  31.371  28.923  1.00  0.00     0.134 A 
ATOM     89  C   UNL A   1      36.426  33.464  28.859  1.00  0.00     0.134 A 
ATOM     90  F   UNL A   1      35.170  30.080  29.272  1.00  0.00    -0.206 F 
ATOM     91  C   UNL A   1      34.196  31.937  28.225  1.00  0.00     0.040 A 
ATOM     92  C   UNL A   1      35.349  34.050  28.192  1.00  0.00     0.040 A 
ATOM     93  F   UNL A   1      37.473  34.245  29.169  1.00  0.00    -0.206 F 
ATOM     94  C   UNL A   1      34.229  33.285  27.871  1.00  0.00     0.006 A 
ENDBRANCH  70  87
ENDBRANCH  44  45
ENDBRANCH  37  39
ENDBRANCH  36  37
ENDBRANCH  35  36
ENDBRANCH  34  35
ENDBRANCH  33  34
ENDBRANCH  32  33
ENDBRANCH   1  32
TORSDOF 19
ENDMDL
