MODEL 1
REMARK VINA RESULT:     -10.8      0.000      0.000
REMARK SMILES Nn1c(Cc2ccc(F)c(F)c2)nnc1SCC(=O)OCCOCCOC(=O)c1ccc(-c2c3nc(c(-c4c(F)cccc4F)c4ccc([nH]4)c(-c4c(F)cccc4F)c4nc(c(-c5c(F)cccc5F)c5ccc2[nH]5)C=C4)C=C3)cc1
REMARK SMILES IDX 22 1 21 2 20 3 18 4 19 5 17 6 16 7 15 8 2 9 3 10 13 11 14 12
REMARK SMILES IDX 1 13 4 16 5 17 6 18 12 19 7 20 10 21 8 22 11 23 9 24 23 25
REMARK SMILES IDX 24 26 25 27 26 28 27 29 28 30 29 31 30 32 82 33 31 34 81 35
REMARK SMILES IDX 32 36 33 37 34 38 75 39 35 40 80 41 74 42 76 43 36 44 79 45
REMARK SMILES IDX 73 46 72 47 37 49 63 50 46 51 62 52 47 53 50 54 61 55 77 56
REMARK SMILES IDX 48 57 49 58 60 60 78 61 51 62 38 63 39 64 44 65 40 66 41 67
REMARK SMILES IDX 43 68 45 69 42 70 64 71 65 72 70 73 66 74 67 75 69 76 71 77
REMARK SMILES IDX 68 78 52 79 53 80 58 81 54 82 55 83 57 84 59 85 56 86
REMARK H PARENT 1 14 1 15 76 48 50 59
REMARK Flexibility Score: inf
ROOT
ATOM      1  C   UNL A   1      44.975  19.993  23.953  1.00  0.00     0.202 C 
ENDROOT
BRANCH   1   2
ATOM      2  C   UNL A   1      44.235  19.194  25.037  1.00  0.00     0.261 C 
BRANCH   2   3
ATOM      3  O   UNL A   1      42.797  19.351  25.036  1.00  0.00    -0.463 OA
BRANCH   3   4
ATOM      4  C   UNL A   1      42.158  19.099  26.213  1.00  0.00     0.316 C 
ATOM      5  O   UNL A   1      42.701  18.601  27.195  1.00  0.00    -0.251 OA
BRANCH   4   6
ATOM      6  C   UNL A   1      40.687  19.449  26.231  1.00  0.00     0.200 C 
BRANCH   6   7
ATOM      7  S   UNL A   1      40.292  21.183  26.410  1.00  0.00    -0.073 SA
BRANCH   7   8
ATOM      8  C   UNL A   1      38.711  21.532  25.797  1.00  0.00     0.210 A 
ATOM      9  N   UNL A   1      37.959  22.694  25.834  1.00  0.00    -0.221 N 
ATOM     10  C   UNL A   1      37.009  22.535  24.832  1.00  0.00     0.157 A 
ATOM     11  N   UNL A   1      37.017  21.271  24.451  1.00  0.00    -0.132 NA
ATOM     12  N   UNL A   1      38.091  20.657  25.032  1.00  0.00    -0.121 NA
BRANCH   9  13
ATOM     13  N   UNL A   1      38.081  23.811  26.719  1.00  0.00    -0.336 N 
ATOM     14  H   UNL A   1      38.715  23.777  27.470  1.00  0.00     0.178 HD
ATOM     15  H   UNL A   1      37.529  24.614  26.576  1.00  0.00     0.178 HD
ENDBRANCH   9  13
BRANCH  10  16
ATOM     16  C   UNL A   1      36.165  23.614  24.215  1.00  0.00     0.115 C 
BRANCH  16  17
ATOM     17  C   UNL A   1      34.835  23.865  24.930  1.00  0.00    -0.037 A 
ATOM     18  C   UNL A   1      34.474  25.151  25.379  1.00  0.00     0.007 A 
ATOM     19  C   UNL A   1      33.915  22.819  25.127  1.00  0.00     0.046 A 
ATOM     20  C   UNL A   1      33.255  25.377  26.032  1.00  0.00     0.043 A 
ATOM     21  C   UNL A   1      32.700  23.054  25.780  1.00  0.00     0.159 A 
ATOM     22  C   UNL A   1      32.373  24.324  26.232  1.00  0.00     0.158 A 
ATOM     23  F   UNL A   1      31.849  22.035  25.963  1.00  0.00    -0.204 F 
ATOM     24  F   UNL A   1      31.203  24.549  26.846  1.00  0.00    -0.204 F 
ENDBRANCH  16  17
ENDBRANCH  10  16
ENDBRANCH   7   8
ENDBRANCH   6   7
ENDBRANCH   4   6
ENDBRANCH   3   4
ENDBRANCH   2   3
ENDBRANCH   1   2
BRANCH   1  25
ATOM     25  O   UNL A   1      45.460  21.289  24.298  1.00  0.00    -0.374 OA
BRANCH  25  26
ATOM     26  C   UNL A   1      45.678  21.559  25.673  1.00  0.00     0.202 C 
BRANCH  26  27
ATOM     27  C   UNL A   1      45.340  22.955  26.188  1.00  0.00     0.261 C 
BRANCH  27  28
ATOM     28  O   UNL A   1      44.824  23.826  25.197  1.00  0.00    -0.460 OA
BRANCH  28  29
ATOM     29  C   UNL A   1      43.489  23.726  25.050  1.00  0.00     0.338 C 
ATOM     30  O   UNL A   1      42.847  22.888  24.428  1.00  0.00    -0.246 OA
BRANCH  29  31
ATOM     31  C   UNL A   1      42.870  24.729  25.901  1.00  0.00     0.060 A 
ATOM     32  C   UNL A   1      43.450  26.001  25.928  1.00  0.00     0.016 A 
ATOM     33  C   UNL A   1      41.777  24.392  26.702  1.00  0.00     0.016 A 
ATOM     34  C   UNL A   1      42.965  26.944  26.816  1.00  0.00     0.010 A 
ATOM     35  C   UNL A   1      41.294  25.340  27.595  1.00  0.00     0.010 A 
ATOM     36  C   UNL A   1      41.916  26.597  27.679  1.00  0.00    -0.014 A 
BRANCH  36  37
ATOM     37  C   UNL A   1      41.585  27.486  28.804  1.00  0.00     0.031 A 
ATOM     38  C   UNL A   1      42.404  27.374  30.055  1.00  0.00     0.074 A 
ATOM     39  C   UNL A   1      40.580  28.366  28.691  1.00  0.00     0.049 A 
ATOM     40  N   UNL A   1      42.249  27.978  31.202  1.00  0.00    -0.248 NA
ATOM     41  C   UNL A   1      43.550  26.449  30.009  1.00  0.00     0.031 C 
ATOM     42  C   UNL A   1      39.766  28.568  27.493  1.00  0.00     0.029 A 
ATOM     43  N   UNL A   1      40.065  29.244  29.604  1.00  0.00    -0.354 N 
ATOM     44  C   UNL A   1      43.266  27.499  32.015  1.00  0.00     0.074 A 
ATOM     45  C   UNL A   1      44.018  26.535  31.244  1.00  0.00     0.031 C 
ATOM     46  C   UNL A   1      38.837  29.504  27.752  1.00  0.00     0.029 A 
ATOM     47  C   UNL A   1      38.973  29.933  29.142  1.00  0.00     0.049 A 
ATOM     48  H   UNL A   1      40.442  29.370  30.505  1.00  0.00     0.167 HD
ATOM     49  C   UNL A   1      43.547  27.845  33.292  1.00  0.00     0.037 A 
ATOM     50  C   UNL A   1      38.162  30.788  29.790  1.00  0.00     0.037 A 
ATOM     51  C   UNL A   1      42.779  28.802  34.039  1.00  0.00     0.049 A 
ATOM     52  C   UNL A   1      38.451  31.101  31.233  1.00  0.00     0.074 A 
ATOM     53  C   UNL A   1      42.964  29.234  35.339  1.00  0.00     0.029 A 
ATOM     54  N   UNL A   1      41.670  29.474  33.543  1.00  0.00    -0.354 N 
ATOM     55  N   UNL A   1      39.422  30.656  31.996  1.00  0.00    -0.248 NA
ATOM     56  C   UNL A   1      37.537  32.032  31.906  1.00  0.00     0.031 C 
ATOM     57  C   UNL A   1      41.940  30.136  35.644  1.00  0.00     0.029 A 
ATOM     58  C   UNL A   1      41.149  30.306  34.517  1.00  0.00     0.049 A 
ATOM     59  H   UNL A   1      41.308  29.373  32.633  1.00  0.00     0.167 HD
ATOM     60  C   UNL A   1      39.257  31.279  33.225  1.00  0.00     0.074 A 
ATOM     61  C   UNL A   1      38.092  32.133  33.105  1.00  0.00     0.031 C 
ATOM     62  C   UNL A   1      40.002  31.162  34.352  1.00  0.00     0.037 A 
BRANCH  49  63
ATOM     63  C   UNL A   1      44.704  27.160  33.956  1.00  0.00     0.057 A 
ATOM     64  C   UNL A   1      44.552  25.949  34.644  1.00  0.00     0.134 A 
ATOM     65  C   UNL A   1      45.989  27.713  33.898  1.00  0.00     0.134 A 
ATOM     66  F   UNL A   1      43.344  25.375  34.753  1.00  0.00    -0.206 F 
ATOM     67  C   UNL A   1      45.633  25.324  35.269  1.00  0.00     0.040 A 
ATOM     68  C   UNL A   1      47.082  27.085  34.497  1.00  0.00     0.040 A 
ATOM     69  F   UNL A   1      46.204  28.872  33.257  1.00  0.00    -0.206 F 
ATOM     70  C   UNL A   1      46.904  25.890  35.191  1.00  0.00     0.006 A 
ENDBRANCH  49  63
BRANCH  50  71
ATOM     71  C   UNL A   1      37.005  31.394  29.085  1.00  0.00     0.057 A 
ATOM     72  C   UNL A   1      35.848  30.654  28.825  1.00  0.00     0.134 A 
ATOM     73  C   UNL A   1      37.028  32.728  28.658  1.00  0.00     0.134 A 
ATOM     74  F   UNL A   1      35.772  29.368  29.197  1.00  0.00    -0.206 F 
ATOM     75  C   UNL A   1      34.761  31.210  28.148  1.00  0.00     0.040 A 
ATOM     76  C   UNL A   1      35.939  33.305  28.002  1.00  0.00     0.040 A 
ATOM     77  F   UNL A   1      38.104  33.496  28.886  1.00  0.00    -0.206 F 
ATOM     78  C   UNL A   1      34.803  32.542  27.738  1.00  0.00     0.006 A 
ENDBRANCH  50  71
BRANCH  62  79
ATOM     79  C   UNL A   1      39.620  32.018  35.521  1.00  0.00     0.057 A 
ATOM     80  C   UNL A   1      38.658  31.612  36.453  1.00  0.00     0.134 A 
ATOM     81  C   UNL A   1      40.286  33.227  35.756  1.00  0.00     0.134 A 
ATOM     82  F   UNL A   1      37.978  30.469  36.276  1.00  0.00    -0.206 F 
ATOM     83  C   UNL A   1      38.364  32.387  37.575  1.00  0.00     0.040 A 
ATOM     84  C   UNL A   1      40.019  33.998  36.887  1.00  0.00     0.040 A 
ATOM     85  F   UNL A   1      41.226  33.665  34.904  1.00  0.00    -0.206 F 
ATOM     86  C   UNL A   1      39.054  33.578  37.800  1.00  0.00     0.006 A 
ENDBRANCH  62  79
ENDBRANCH  36  37
ENDBRANCH  29  31
ENDBRANCH  28  29
ENDBRANCH  27  28
ENDBRANCH  26  27
ENDBRANCH  25  26
ENDBRANCH   1  25
TORSDOF 19
ENDMDL
MODEL 2
REMARK VINA RESULT:     -10.5      4.675      9.098
REMARK SMILES Nn1c(Cc2ccc(F)c(F)c2)nnc1SCC(=O)OCCOCCOC(=O)c1ccc(-c2c3nc(c(-c4c(F)cccc4F)c4ccc([nH]4)c(-c4c(F)cccc4F)c4nc(c(-c5c(F)cccc5F)c5ccc2[nH]5)C=C4)C=C3)cc1
REMARK SMILES IDX 22 1 21 2 20 3 18 4 19 5 17 6 16 7 15 8 2 9 3 10 13 11 14 12
REMARK SMILES IDX 1 13 4 16 5 17 6 18 12 19 7 20 10 21 8 22 11 23 9 24 23 25
REMARK SMILES IDX 24 26 25 27 26 28 27 29 28 30 29 31 30 32 82 33 31 34 81 35
REMARK SMILES IDX 32 36 33 37 34 38 75 39 35 40 80 41 74 42 76 43 36 44 79 45
REMARK SMILES IDX 73 46 72 47 37 49 63 50 46 51 62 52 47 53 50 54 61 55 77 56
REMARK SMILES IDX 48 57 49 58 60 60 78 61 51 62 38 63 39 64 44 65 40 66 41 67
REMARK SMILES IDX 43 68 45 69 42 70 64 71 65 72 70 73 66 74 67 75 69 76 71 77
REMARK SMILES IDX 68 78 52 79 53 80 58 81 54 82 55 83 57 84 59 85 56 86
REMARK H PARENT 1 14 1 15 76 48 50 59
REMARK Flexibility Score: inf
ROOT
ATOM      1  C   UNL A   1      32.365  30.081  25.755  1.00  0.00     0.202 C 
ENDROOT
BRANCH   1   2
ATOM      2  C   UNL A   1      31.223  29.292  25.097  1.00  0.00     0.261 C 
BRANCH   2   3
ATOM      3  O   UNL A   1      31.533  28.740  23.796  1.00  0.00    -0.463 OA
BRANCH   3   4
ATOM      4  C   UNL A   1      30.496  28.179  23.112  1.00  0.00     0.316 C 
ATOM      5  O   UNL A   1      30.118  28.557  22.008  1.00  0.00    -0.251 OA
BRANCH   4   6
ATOM      6  C   UNL A   1      29.793  27.049  23.831  1.00  0.00     0.200 C 
BRANCH   6   7
ATOM      7  S   UNL A   1      30.468  25.415  23.579  1.00  0.00    -0.073 SA
BRANCH   7   8
ATOM      8  C   UNL A   1      30.884  24.669  25.085  1.00  0.00     0.210 A 
ATOM      9  N   UNL A   1      31.475  23.448  25.361  1.00  0.00    -0.221 N 
ATOM     10  C   UNL A   1      31.961  23.573  26.657  1.00  0.00     0.157 A 
ATOM     11  N   UNL A   1      31.435  24.658  27.193  1.00  0.00    -0.132 NA
ATOM     12  N   UNL A   1      30.788  25.350  26.209  1.00  0.00    -0.121 NA
BRANCH   9  13
ATOM     13  N   UNL A   1      31.552  22.283  24.534  1.00  0.00    -0.336 N 
ATOM     14  H   UNL A   1      32.423  21.859  24.362  1.00  0.00     0.178 HD
ATOM     15  H   UNL A   1      30.734  21.906  24.137  1.00  0.00     0.178 HD
ENDBRANCH   9  13
BRANCH  10  16
ATOM     16  C   UNL A   1      32.973  22.686  27.327  1.00  0.00     0.115 C 
BRANCH  16  17
ATOM     17  C   UNL A   1      34.282  22.521  26.552  1.00  0.00    -0.037 A 
ATOM     18  C   UNL A   1      35.093  23.628  26.236  1.00  0.00     0.007 A 
ATOM     19  C   UNL A   1      34.732  21.245  26.163  1.00  0.00     0.046 A 
ATOM     20  C   UNL A   1      36.292  23.473  25.527  1.00  0.00     0.043 A 
ATOM     21  C   UNL A   1      35.930  21.099  25.456  1.00  0.00     0.159 A 
ATOM     22  C   UNL A   1      36.704  22.205  25.137  1.00  0.00     0.158 A 
ATOM     23  F   UNL A   1      36.327  19.872  25.089  1.00  0.00    -0.204 F 
ATOM     24  F   UNL A   1      37.858  22.061  24.470  1.00  0.00    -0.204 F 
ENDBRANCH  16  17
ENDBRANCH  10  16
ENDBRANCH   7   8
ENDBRANCH   6   7
ENDBRANCH   4   6
ENDBRANCH   3   4
ENDBRANCH   2   3
ENDBRANCH   1   2
BRANCH   1  25
ATOM     25  O   UNL A   1      32.044  30.900  26.879  1.00  0.00    -0.374 OA
BRANCH  25  26
ATOM     26  C   UNL A   1      31.410  32.142  26.621  1.00  0.00     0.202 C 
BRANCH  26  27
ATOM     27  C   UNL A   1      32.207  33.416  26.884  1.00  0.00     0.261 C 
BRANCH  27  28
ATOM     28  O   UNL A   1      32.352  33.733  28.257  1.00  0.00    -0.460 OA
BRANCH  28  29
ATOM     29  C   UNL A   1      33.421  34.512  28.509  1.00  0.00     0.338 C 
ATOM     30  O   UNL A   1      33.471  35.730  28.632  1.00  0.00    -0.246 OA
BRANCH  29  31
ATOM     31  C   UNL A   1      34.555  33.641  28.772  1.00  0.00     0.060 A 
ATOM     32  C   UNL A   1      34.284  32.344  29.216  1.00  0.00     0.016 A 
ATOM     33  C   UNL A   1      35.858  34.126  28.641  1.00  0.00     0.016 A 
ATOM     34  C   UNL A   1      35.336  31.527  29.595  1.00  0.00     0.010 A 
ATOM     35  C   UNL A   1      36.911  33.306  29.024  1.00  0.00     0.010 A 
ATOM     36  C   UNL A   1      36.644  32.026  29.539  1.00  0.00    -0.014 A 
BRANCH  36  37
ATOM     37  C   UNL A   1      37.729  31.277  30.194  1.00  0.00     0.031 A 
ATOM     38  C   UNL A   1      38.011  31.565  31.638  1.00  0.00     0.074 A 
ATOM     39  C   UNL A   1      38.428  30.366  29.503  1.00  0.00     0.049 A 
ATOM     40  N   UNL A   1      38.965  31.106  32.402  1.00  0.00    -0.248 NA
ATOM     41  C   UNL A   1      37.097  32.505  32.311  1.00  0.00     0.031 C 
ATOM     42  C   UNL A   1      38.186  29.996  28.109  1.00  0.00     0.029 A 
ATOM     43  N   UNL A   1      39.494  29.597  29.879  1.00  0.00    -0.354 N 
ATOM     44  C   UNL A   1      38.774  31.708  33.638  1.00  0.00     0.074 A 
ATOM     45  C   UNL A   1      37.632  32.586  33.518  1.00  0.00     0.031 C 
ATOM     46  C   UNL A   1      39.094  29.077  27.740  1.00  0.00     0.029 A 
ATOM     47  C   UNL A   1      39.998  28.830  28.860  1.00  0.00     0.049 A 
ATOM     48  H   UNL A   1      39.864  29.594  30.792  1.00  0.00     0.167 HD
ATOM     49  C   UNL A   1      39.490  31.533  34.771  1.00  0.00     0.037 A 
ATOM     50  C   UNL A   1      41.089  28.042  28.839  1.00  0.00     0.037 A 
ATOM     51  C   UNL A   1      40.626  30.658  34.861  1.00  0.00     0.049 A 
ATOM     52  C   UNL A   1      41.913  27.920  30.092  1.00  0.00     0.074 A 
ATOM     53  C   UNL A   1      41.433  30.397  35.952  1.00  0.00     0.029 A 
ATOM     54  N   UNL A   1      41.118  29.903  33.805  1.00  0.00    -0.354 N 
ATOM     55  N   UNL A   1      41.723  28.481  31.263  1.00  0.00    -0.248 NA
ATOM     56  C   UNL A   1      43.100  27.059  30.024  1.00  0.00     0.031 C 
ATOM     57  C   UNL A   1      42.439  29.517  35.546  1.00  0.00     0.029 A 
ATOM     58  C   UNL A   1      42.228  29.187  34.214  1.00  0.00     0.049 A 
ATOM     59  H   UNL A   1      40.733  29.879  32.900  1.00  0.00     0.167 HD
ATOM     60  C   UNL A   1      42.743  28.013  32.081  1.00  0.00     0.074 A 
ATOM     61  C   UNL A   1      43.549  27.123  31.269  1.00  0.00     0.031 C 
ATOM     62  C   UNL A   1      42.991  28.289  33.385  1.00  0.00     0.037 A 
BRANCH  49  63
ATOM     63  C   UNL A   1      39.081  32.323  35.978  1.00  0.00     0.057 A 
ATOM     64  C   UNL A   1      38.211  31.801  36.945  1.00  0.00     0.134 A 
ATOM     65  C   UNL A   1      39.569  33.619  36.182  1.00  0.00     0.134 A 
ATOM     66  F   UNL A   1      37.691  30.572  36.800  1.00  0.00    -0.206 F 
ATOM     67  C   UNL A   1      37.825  32.549  38.059  1.00  0.00     0.040 A 
ATOM     68  C   UNL A   1      39.211  34.367  37.305  1.00  0.00     0.040 A 
ATOM     69  F   UNL A   1      40.405  34.180  35.294  1.00  0.00    -0.206 F 
ATOM     70  C   UNL A   1      38.331  33.833  38.244  1.00  0.00     0.006 A 
ENDBRANCH  49  63
BRANCH  50  71
ATOM     71  C   UNL A   1      41.464  27.325  27.596  1.00  0.00     0.057 A 
ATOM     72  C   UNL A   1      42.231  27.946  26.605  1.00  0.00     0.134 A 
ATOM     73  C   UNL A   1      41.067  26.001  27.369  1.00  0.00     0.134 A 
ATOM     74  F   UNL A   1      42.629  29.217  26.758  1.00  0.00    -0.206 F 
ATOM     75  C   UNL A   1      42.574  27.285  25.424  1.00  0.00     0.040 A 
ATOM     76  C   UNL A   1      41.425  25.319  26.205  1.00  0.00     0.040 A 
ATOM     77  F   UNL A   1      40.339  25.344  28.284  1.00  0.00    -0.206 F 
ATOM     78  C   UNL A   1      42.174  25.965  25.224  1.00  0.00     0.006 A 
ENDBRANCH  50  71
BRANCH  62  79
ATOM     79  C   UNL A   1      44.139  27.578  34.032  1.00  0.00     0.057 A 
ATOM     80  C   UNL A   1      44.017  26.277  34.533  1.00  0.00     0.134 A 
ATOM     81  C   UNL A   1      45.404  28.178  34.078  1.00  0.00     0.134 A 
ATOM     82  F   UNL A   1      42.828  25.654  34.527  1.00  0.00    -0.206 F 
ATOM     83  C   UNL A   1      45.113  25.600  35.067  1.00  0.00     0.040 A 
ATOM     84  C   UNL A   1      46.513  27.502  34.587  1.00  0.00     0.040 A 
ATOM     85  F   UNL A   1      45.588  29.420  33.603  1.00  0.00    -0.206 F 
ATOM     86  C   UNL A   1      46.368  26.209  35.084  1.00  0.00     0.006 A 
ENDBRANCH  62  79
ENDBRANCH  36  37
ENDBRANCH  29  31
ENDBRANCH  28  29
ENDBRANCH  27  28
ENDBRANCH  26  27
ENDBRANCH  25  26
ENDBRANCH   1  25
TORSDOF 19
ENDMDL
MODEL 3
REMARK VINA RESULT:     -10.5      5.479     10.224
REMARK SMILES Nn1c(Cc2ccc(F)c(F)c2)nnc1SCC(=O)OCCOCCOC(=O)c1ccc(-c2c3nc(c(-c4c(F)cccc4F)c4ccc([nH]4)c(-c4c(F)cccc4F)c4nc(c(-c5c(F)cccc5F)c5ccc2[nH]5)C=C4)C=C3)cc1
REMARK SMILES IDX 22 1 21 2 20 3 18 4 19 5 17 6 16 7 15 8 2 9 3 10 13 11 14 12
REMARK SMILES IDX 1 13 4 16 5 17 6 18 12 19 7 20 10 21 8 22 11 23 9 24 23 25
REMARK SMILES IDX 24 26 25 27 26 28 27 29 28 30 29 31 30 32 82 33 31 34 81 35
REMARK SMILES IDX 32 36 33 37 34 38 75 39 35 40 80 41 74 42 76 43 36 44 79 45
REMARK SMILES IDX 73 46 72 47 37 49 63 50 46 51 62 52 47 53 50 54 61 55 77 56
REMARK SMILES IDX 48 57 49 58 60 60 78 61 51 62 38 63 39 64 44 65 40 66 41 67
REMARK SMILES IDX 43 68 45 69 42 70 64 71 65 72 70 73 66 74 67 75 69 76 71 77
REMARK SMILES IDX 68 78 52 79 53 80 58 81 54 82 55 83 57 84 59 85 56 86
REMARK H PARENT 1 14 1 15 76 48 50 59
REMARK Flexibility Score: inf
ROOT
ATOM      1  C   UNL A   1      34.373  33.379  28.262  1.00  0.00     0.202 C 
ENDROOT
BRANCH   1   2
ATOM      2  C   UNL A   1      34.219  31.855  28.377  1.00  0.00     0.261 C 
BRANCH   2   3
ATOM      3  O   UNL A   1      34.338  31.133  27.129  1.00  0.00    -0.463 OA
BRANCH   3   4
ATOM      4  C   UNL A   1      34.165  29.783  27.191  1.00  0.00     0.316 C 
ATOM      5  O   UNL A   1      35.083  28.978  27.313  1.00  0.00    -0.251 OA
BRANCH   4   6
ATOM      6  C   UNL A   1      32.732  29.315  27.065  1.00  0.00     0.200 C 
BRANCH   6   7
ATOM      7  S   UNL A   1      31.809  29.968  25.681  1.00  0.00    -0.073 SA
BRANCH   7   8
ATOM      8  C   UNL A   1      31.936  28.934  24.299  1.00  0.00     0.210 A 
ATOM      9  N   UNL A   1      33.044  28.476  23.607  1.00  0.00    -0.221 N 
ATOM     10  C   UNL A   1      32.591  27.364  22.906  1.00  0.00     0.157 A 
ATOM     11  N   UNL A   1      31.272  27.358  22.949  1.00  0.00    -0.132 NA
ATOM     12  N   UNL A   1      30.869  28.317  23.834  1.00  0.00    -0.121 NA
BRANCH   9  13
ATOM     13  N   UNL A   1      34.365  29.022  23.569  1.00  0.00    -0.336 N 
ATOM     14  H   UNL A   1      34.732  29.363  22.722  1.00  0.00     0.178 HD
ATOM     15  H   UNL A   1      34.908  29.056  24.390  1.00  0.00     0.178 HD
ENDBRANCH   9  13
BRANCH  10  16
ATOM     16  C   UNL A   1      33.436  26.296  22.270  1.00  0.00     0.115 C 
BRANCH  16  17
ATOM     17  C   UNL A   1      33.638  25.051  23.135  1.00  0.00    -0.037 A 
ATOM     18  C   UNL A   1      33.688  23.762  22.568  1.00  0.00     0.007 A 
ATOM     19  C   UNL A   1      33.819  25.162  24.527  1.00  0.00     0.046 A 
ATOM     20  C   UNL A   1      33.875  22.623  23.364  1.00  0.00     0.043 A 
ATOM     21  C   UNL A   1      34.006  24.020  25.313  1.00  0.00     0.159 A 
ATOM     22  C   UNL A   1      34.031  22.759  24.736  1.00  0.00     0.158 A 
ATOM     23  F   UNL A   1      34.164  24.157  26.637  1.00  0.00    -0.204 F 
ATOM     24  F   UNL A   1      34.222  21.667  25.490  1.00  0.00    -0.204 F 
ENDBRANCH  16  17
ENDBRANCH  10  16
ENDBRANCH   7   8
ENDBRANCH   6   7
ENDBRANCH   4   6
ENDBRANCH   3   4
ENDBRANCH   2   3
ENDBRANCH   1   2
BRANCH   1  25
ATOM     25  O   UNL A   1      34.950  34.073  29.368  1.00  0.00    -0.374 OA
BRANCH  25  26
ATOM     26  C   UNL A   1      34.100  34.382  30.459  1.00  0.00     0.202 C 
BRANCH  26  27
ATOM     27  C   UNL A   1      34.405  33.733  31.807  1.00  0.00     0.261 C 
BRANCH  27  28
ATOM     28  O   UNL A   1      34.889  32.405  31.711  1.00  0.00    -0.460 OA
BRANCH  28  29
ATOM     29  C   UNL A   1      35.902  32.150  32.560  1.00  0.00     0.338 C 
ATOM     30  O   UNL A   1      35.982  32.404  33.756  1.00  0.00    -0.246 OA
BRANCH  29  31
ATOM     31  C   UNL A   1      36.892  31.356  31.850  1.00  0.00     0.060 A 
ATOM     32  C   UNL A   1      37.790  30.609  32.617  1.00  0.00     0.016 A 
ATOM     33  C   UNL A   1      36.963  31.405  30.457  1.00  0.00     0.016 A 
ATOM     34  C   UNL A   1      38.822  29.938  31.983  1.00  0.00     0.010 A 
ATOM     35  C   UNL A   1      38.001  30.735  29.823  1.00  0.00     0.010 A 
ATOM     36  C   UNL A   1      38.951  30.039  30.591  1.00  0.00    -0.014 A 
BRANCH  36  37
ATOM     37  C   UNL A   1      40.187  29.570  29.946  1.00  0.00     0.031 A 
ATOM     38  C   UNL A   1      41.311  30.549  29.780  1.00  0.00     0.074 A 
ATOM     39  C   UNL A   1      40.287  28.299  29.530  1.00  0.00     0.049 A 
ATOM     40  N   UNL A   1      42.453  30.400  29.167  1.00  0.00    -0.248 NA
ATOM     41  C   UNL A   1      41.115  31.880  30.381  1.00  0.00     0.031 C 
ATOM     42  C   UNL A   1      39.258  27.273  29.696  1.00  0.00     0.029 A 
ATOM     43  N   UNL A   1      41.301  27.660  28.871  1.00  0.00    -0.354 N 
ATOM     44  C   UNL A   1      43.107  31.618  29.297  1.00  0.00     0.074 A 
ATOM     45  C   UNL A   1      42.225  32.505  30.023  1.00  0.00     0.031 C 
ATOM     46  C   UNL A   1      39.688  26.132  29.134  1.00  0.00     0.029 A 
ATOM     47  C   UNL A   1      41.003  26.363  28.540  1.00  0.00     0.049 A 
ATOM     48  H   UNL A   1      42.161  28.089  28.656  1.00  0.00     0.167 HD
ATOM     49  C   UNL A   1      44.338  31.956  28.853  1.00  0.00     0.037 A 
ATOM     50  C   UNL A   1      41.710  25.481  27.811  1.00  0.00     0.037 A 
ATOM     51  C   UNL A   1      45.192  31.057  28.128  1.00  0.00     0.049 A 
ATOM     52  C   UNL A   1      43.046  25.905  27.265  1.00  0.00     0.074 A 
ATOM     53  C   UNL A   1      46.459  31.283  27.625  1.00  0.00     0.029 A 
ATOM     54  N   UNL A   1      44.854  29.751  27.799  1.00  0.00    -0.354 N 
ATOM     55  N   UNL A   1      43.667  27.053  27.401  1.00  0.00    -0.248 NA
ATOM     56  C   UNL A   1      43.780  24.916  26.466  1.00  0.00     0.031 C 
ATOM     57  C   UNL A   1      46.871  30.129  26.955  1.00  0.00     0.029 A 
ATOM     58  C   UNL A   1      45.882  29.164  27.085  1.00  0.00     0.049 A 
ATOM     59  H   UNL A   1      44.008  29.309  28.039  1.00  0.00     0.167 HD
ATOM     60  C   UNL A   1      44.878  26.913  26.737  1.00  0.00     0.074 A 
ATOM     61  C   UNL A   1      44.903  25.567  26.199  1.00  0.00     0.031 C 
ATOM     62  C   UNL A   1      45.882  27.812  26.588  1.00  0.00     0.037 A 
BRANCH  49  63
ATOM     63  C   UNL A   1      44.807  33.357  29.114  1.00  0.00     0.057 A 
ATOM     64  C   UNL A   1      44.539  34.405  28.224  1.00  0.00     0.134 A 
ATOM     65  C   UNL A   1      45.527  33.663  30.275  1.00  0.00     0.134 A 
ATOM     66  F   UNL A   1      43.870  34.176  27.083  1.00  0.00    -0.206 F 
ATOM     67  C   UNL A   1      44.990  35.704  28.469  1.00  0.00     0.040 A 
ATOM     68  C   UNL A   1      45.962  34.963  30.544  1.00  0.00     0.040 A 
ATOM     69  F   UNL A   1      45.820  32.706  31.168  1.00  0.00    -0.206 F 
ATOM     70  C   UNL A   1      45.698  35.986  29.635  1.00  0.00     0.006 A 
ENDBRANCH  49  63
BRANCH  50  71
ATOM     71  C   UNL A   1      41.164  24.126  27.551  1.00  0.00     0.057 A 
ATOM     72  C   UNL A   1      40.152  23.922  26.608  1.00  0.00     0.134 A 
ATOM     73  C   UNL A   1      41.643  23.002  28.236  1.00  0.00     0.134 A 
ATOM     74  F   UNL A   1      39.643  24.961  25.930  1.00  0.00    -0.206 F 
ATOM     75  C   UNL A   1      39.621  22.653  26.368  1.00  0.00     0.040 A 
ATOM     76  C   UNL A   1      41.139  21.724  27.989  1.00  0.00     0.040 A 
ATOM     77  F   UNL A   1      42.620  23.128  29.147  1.00  0.00    -0.206 F 
ATOM     78  C   UNL A   1      40.118  21.549  27.057  1.00  0.00     0.006 A 
ENDBRANCH  50  71
BRANCH  62  79
ATOM     79  C   UNL A   1      47.114  27.353  25.869  1.00  0.00     0.057 A 
ATOM     80  C   UNL A   1      48.119  26.622  26.514  1.00  0.00     0.134 A 
ATOM     81  C   UNL A   1      47.253  27.578  24.494  1.00  0.00     0.134 A 
ATOM     82  F   UNL A   1      48.047  26.385  27.833  1.00  0.00    -0.206 F 
ATOM     83  C   UNL A   1      49.226  26.140  25.816  1.00  0.00     0.040 A 
ATOM     84  C   UNL A   1      48.342  27.079  23.780  1.00  0.00     0.040 A 
ATOM     85  F   UNL A   1      46.317  28.263  23.817  1.00  0.00    -0.206 F 
ATOM     86  C   UNL A   1      49.333  26.359  24.443  1.00  0.00     0.006 A 
ENDBRANCH  62  79
ENDBRANCH  36  37
ENDBRANCH  29  31
ENDBRANCH  28  29
ENDBRANCH  27  28
ENDBRANCH  26  27
ENDBRANCH  25  26
ENDBRANCH   1  25
TORSDOF 19
ENDMDL
