MODEL 1
REMARK VINA RESULT:     -12.2      0.000      0.000
REMARK SMILES Cc1oc2ccc(NS(=O)(=O)c3ccc(C(C)C)cc3)cc2c1C(=O)OCCOCCOC(=O)c1ccc(-c2c3nc(c(-c4c(F)cccc4F)c4ccc([nH]4)c(-c4c(F)cccc4F)c4nc(c(-c5c(F)cccc5F)c5ccc2[nH]5)C=C4)C=C3)cc1
REMARK SMILES IDX 28 1 27 2 26 3 24 4 25 5 23 6 1 7 2 8 3 9 4 10 22 11 5 12
REMARK SMILES IDX 21 13 6 14 7 15 8 16 9 18 10 19 11 20 12 21 13 22 20 23
REMARK SMILES IDX 14 24 19 25 15 26 16 27 17 28 18 29 29 30 30 31 31 32 32 33
REMARK SMILES IDX 33 34 34 35 35 36 36 37 88 38 37 39 87 40 38 41 39 42 40 43
REMARK SMILES IDX 81 44 41 45 86 46 80 47 82 48 42 49 85 50 79 51 78 52 43 54
REMARK SMILES IDX 69 55 52 56 68 57 53 58 56 59 67 60 83 61 54 62 55 63 66 65
REMARK SMILES IDX 84 66 57 67 44 68 45 69 50 70 46 71 47 72 49 73 51 74 48 75
REMARK SMILES IDX 70 76 71 77 76 78 72 79 73 80 75 81 77 82 74 83 58 84 59 85
REMARK SMILES IDX 64 86 60 87 61 88 63 89 65 90 62 91
REMARK H PARENT 8 17 82 53 56 64
REMARK Flexibility Score: inf
ROOT
ATOM      1  C   UNL A   1      39.782  21.914  26.575  1.00  0.00     0.202 C 
ENDROOT
BRANCH   1   2
ATOM      2  C   UNL A   1      38.725  21.378  25.604  1.00  0.00     0.261 C 
BRANCH   2   3
ATOM      3  O   UNL A   1      37.508  22.103  25.816  1.00  0.00    -0.460 OA
BRANCH   3   4
ATOM      4  C   UNL A   1      36.672  22.228  24.750  1.00  0.00     0.342 C 
ATOM      5  O   UNL A   1      36.993  22.686  23.663  1.00  0.00    -0.246 OA
BRANCH   4   6
ATOM      6  C   UNL A   1      35.391  21.597  25.010  1.00  0.00     0.109 A 
ATOM      7  C   UNL A   1      35.914  19.010  24.787  1.00  0.00     0.088 C 
ATOM      8  C   UNL A   1      35.102  20.240  24.970  1.00  0.00     0.116 A 
ATOM      9  O   UNL A   1      33.758  20.041  25.094  1.00  0.00    -0.460 OA
ATOM     10  C   UNL A   1      33.173  21.265  25.183  1.00  0.00     0.135 A 
ATOM     11  C   UNL A   1      34.138  22.260  25.214  1.00  0.00     0.037 A 
ATOM     12  C   UNL A   1      31.801  21.512  25.200  1.00  0.00     0.050 A 
ATOM     13  C   UNL A   1      33.710  23.599  25.324  1.00  0.00     0.039 A 
ATOM     14  C   UNL A   1      31.402  22.861  25.184  1.00  0.00     0.030 A 
ATOM     15  C   UNL A   1      32.340  23.896  25.245  1.00  0.00     0.050 A 
BRANCH  15  16
ATOM     16  N   UNL A   1      31.931  25.274  25.219  1.00  0.00    -0.280 N 
ATOM     17  H   UNL A   1      31.361  25.619  25.944  1.00  0.00     0.180 HD
BRANCH  16  18
ATOM     18  S   UNL A   1      32.411  26.328  23.954  1.00  0.00     0.261 S 
ATOM     19  O   UNL A   1      33.595  27.034  24.395  1.00  0.00    -0.201 OA
ATOM     20  O   UNL A   1      32.455  25.492  22.771  1.00  0.00    -0.201 OA
BRANCH  18  21
ATOM     21  C   UNL A   1      31.120  27.522  23.715  1.00  0.00     0.087 A 
ATOM     22  C   UNL A   1      31.343  28.904  23.769  1.00  0.00     0.022 A 
ATOM     23  C   UNL A   1      29.839  27.049  23.496  1.00  0.00     0.022 A 
ATOM     24  C   UNL A   1      30.293  29.804  23.491  1.00  0.00     0.005 A 
ATOM     25  C   UNL A   1      28.856  27.942  23.103  1.00  0.00     0.005 A 
ATOM     26  C   UNL A   1      29.045  29.324  23.094  1.00  0.00    -0.045 A 
BRANCH  26  27
ATOM     27  C   UNL A   1      27.863  30.174  22.662  1.00  0.00     0.013 C 
ATOM     28  C   UNL A   1      27.514  31.246  23.691  1.00  0.00     0.012 C 
ATOM     29  C   UNL A   1      27.988  30.743  21.253  1.00  0.00     0.012 C 
ENDBRANCH  26  27
ENDBRANCH  18  21
ENDBRANCH  16  18
ENDBRANCH  15  16
ENDBRANCH   4   6
ENDBRANCH   3   4
ENDBRANCH   2   3
ENDBRANCH   1   2
BRANCH   1  30
ATOM     30  O   UNL A   1      40.730  20.923  26.989  1.00  0.00    -0.374 OA
BRANCH  30  31
ATOM     31  C   UNL A   1      41.797  20.647  26.072  1.00  0.00     0.202 C 
BRANCH  31  32
ATOM     32  C   UNL A   1      42.947  21.646  26.189  1.00  0.00     0.261 C 
BRANCH  32  33
ATOM     33  O   UNL A   1      42.676  22.763  25.346  1.00  0.00    -0.460 OA
BRANCH  33  34
ATOM     34  C   UNL A   1      43.583  23.769  25.439  1.00  0.00     0.338 C 
ATOM     35  O   UNL A   1      44.600  23.921  24.800  1.00  0.00    -0.246 OA
BRANCH  34  36
ATOM     36  C   UNL A   1      43.002  24.790  26.333  1.00  0.00     0.060 A 
ATOM     37  C   UNL A   1      43.590  26.062  26.345  1.00  0.00     0.016 A 
ATOM     38  C   UNL A   1      41.859  24.521  27.092  1.00  0.00     0.016 A 
ATOM     39  C   UNL A   1      43.059  27.060  27.155  1.00  0.00     0.010 A 
ATOM     40  C   UNL A   1      41.326  25.517  27.898  1.00  0.00     0.010 A 
ATOM     41  C   UNL A   1      41.952  26.771  27.961  1.00  0.00    -0.014 A 
BRANCH  41  42
ATOM     42  C   UNL A   1      41.571  27.685  29.051  1.00  0.00     0.031 A 
ATOM     43  C   UNL A   1      42.328  27.571  30.341  1.00  0.00     0.074 A 
ATOM     44  C   UNL A   1      40.553  28.547  28.902  1.00  0.00     0.049 A 
ATOM     45  N   UNL A   1      42.115  28.166  31.484  1.00  0.00    -0.248 NA
ATOM     46  C   UNL A   1      43.471  26.640  30.346  1.00  0.00     0.031 C 
ATOM     47  C   UNL A   1      39.772  28.733  27.682  1.00  0.00     0.029 A 
ATOM     48  N   UNL A   1      39.991  29.410  29.803  1.00  0.00    -0.354 N 
ATOM     49  C   UNL A   1      43.089  27.674  32.343  1.00  0.00     0.074 A 
ATOM     50  C   UNL A   1      43.867  26.705  31.607  1.00  0.00     0.031 C 
ATOM     51  C   UNL A   1      38.813  29.646  27.917  1.00  0.00     0.029 A 
ATOM     52  C   UNL A   1      38.900  30.079  29.309  1.00  0.00     0.049 A 
ATOM     53  H   UNL A   1      40.336  29.539  30.716  1.00  0.00     0.167 HD
ATOM     54  C   UNL A   1      43.316  28.013  33.631  1.00  0.00     0.037 A 
ATOM     55  C   UNL A   1      38.061  30.927  29.932  1.00  0.00     0.037 A 
ATOM     56  C   UNL A   1      42.527  28.976  34.349  1.00  0.00     0.049 A 
ATOM     57  C   UNL A   1      38.305  31.253  31.381  1.00  0.00     0.074 A 
ATOM     58  C   UNL A   1      42.672  29.416  35.651  1.00  0.00     0.029 A 
ATOM     59  N   UNL A   1      41.433  29.643  33.814  1.00  0.00    -0.354 N 
ATOM     60  N   UNL A   1      39.247  30.813  32.182  1.00  0.00    -0.248 NA
ATOM     61  C   UNL A   1      37.372  32.196  32.013  1.00  0.00     0.031 C 
ATOM     62  C   UNL A   1      41.638  30.319  35.919  1.00  0.00     0.029 A 
ATOM     63  C   UNL A   1      40.880  30.479  34.768  1.00  0.00     0.049 A 
ATOM     64  H   UNL A   1      41.100  29.537  32.895  1.00  0.00     0.167 HD
ATOM     65  C   UNL A   1      39.040  31.447  33.400  1.00  0.00     0.074 A 
ATOM     66  C   UNL A   1      37.888  32.309  33.229  1.00  0.00     0.031 C 
ATOM     67  C   UNL A   1      39.736  31.331  34.559  1.00  0.00     0.037 A 
BRANCH  54  68
ATOM     68  C   UNL A   1      44.444  27.321  34.336  1.00  0.00     0.057 A 
ATOM     69  C   UNL A   1      44.265  26.094  34.991  1.00  0.00     0.134 A 
ATOM     70  C   UNL A   1      45.724  27.887  34.365  1.00  0.00     0.134 A 
ATOM     71  F   UNL A   1      43.057  25.511  35.023  1.00  0.00    -0.206 F 
ATOM     72  C   UNL A   1      45.313  25.468  35.669  1.00  0.00     0.040 A 
ATOM     73  C   UNL A   1      46.786  27.256  35.015  1.00  0.00     0.040 A 
ATOM     74  F   UNL A   1      45.963  29.062  33.763  1.00  0.00    -0.206 F 
ATOM     75  C   UNL A   1      46.580  26.048  35.677  1.00  0.00     0.006 A 
ENDBRANCH  54  68
BRANCH  55  76
ATOM     76  C   UNL A   1      36.920  31.522  29.193  1.00  0.00     0.057 A 
ATOM     77  C   UNL A   1      35.759  30.784  28.940  1.00  0.00     0.134 A 
ATOM     78  C   UNL A   1      36.962  32.839  28.718  1.00  0.00     0.134 A 
ATOM     79  F   UNL A   1      35.665  29.512  29.355  1.00  0.00    -0.206 F 
ATOM     80  C   UNL A   1      34.688  31.323  28.223  1.00  0.00     0.040 A 
ATOM     81  C   UNL A   1      35.890  33.400  28.022  1.00  0.00     0.040 A 
ATOM     82  F   UNL A   1      38.043  33.603  28.935  1.00  0.00    -0.206 F 
ATOM     83  C   UNL A   1      34.751  32.638  27.766  1.00  0.00     0.006 A 
ENDBRANCH  55  76
BRANCH  67  84
ATOM     84  C   UNL A   1      39.295  32.184  35.711  1.00  0.00     0.057 A 
ATOM     85  C   UNL A   1      39.758  33.495  35.881  1.00  0.00     0.134 A 
ATOM     86  C   UNL A   1      38.357  31.702  36.631  1.00  0.00     0.134 A 
ATOM     87  F   UNL A   1      40.667  34.010  35.038  1.00  0.00    -0.206 F 
ATOM     88  C   UNL A   1      39.319  34.288  36.941  1.00  0.00     0.040 A 
ATOM     89  C   UNL A   1      37.888  32.495  37.678  1.00  0.00     0.040 A 
ATOM     90  F   UNL A   1      37.865  30.459  36.516  1.00  0.00    -0.206 F 
ATOM     91  C   UNL A   1      38.374  33.791  37.837  1.00  0.00     0.006 A 
ENDBRANCH  67  84
ENDBRANCH  41  42
ENDBRANCH  34  36
ENDBRANCH  33  34
ENDBRANCH  32  33
ENDBRANCH  31  32
ENDBRANCH  30  31
ENDBRANCH   1  30
TORSDOF 18
ENDMDL
MODEL 2
REMARK VINA RESULT:     -12.0      2.587      9.036
REMARK SMILES Cc1oc2ccc(NS(=O)(=O)c3ccc(C(C)C)cc3)cc2c1C(=O)OCCOCCOC(=O)c1ccc(-c2c3nc(c(-c4c(F)cccc4F)c4ccc([nH]4)c(-c4c(F)cccc4F)c4nc(c(-c5c(F)cccc5F)c5ccc2[nH]5)C=C4)C=C3)cc1
REMARK SMILES IDX 28 1 27 2 26 3 24 4 25 5 23 6 1 7 2 8 3 9 4 10 22 11 5 12
REMARK SMILES IDX 21 13 6 14 7 15 8 16 9 18 10 19 11 20 12 21 13 22 20 23
REMARK SMILES IDX 14 24 19 25 15 26 16 27 17 28 18 29 29 30 30 31 31 32 32 33
REMARK SMILES IDX 33 34 34 35 35 36 36 37 88 38 37 39 87 40 38 41 39 42 40 43
REMARK SMILES IDX 81 44 41 45 86 46 80 47 82 48 42 49 85 50 79 51 78 52 43 54
REMARK SMILES IDX 69 55 52 56 68 57 53 58 56 59 67 60 83 61 54 62 55 63 66 65
REMARK SMILES IDX 84 66 57 67 44 68 45 69 50 70 46 71 47 72 49 73 51 74 48 75
REMARK SMILES IDX 70 76 71 77 76 78 72 79 73 80 75 81 77 82 74 83 58 84 59 85
REMARK SMILES IDX 64 86 60 87 61 88 63 89 65 90 62 91
REMARK H PARENT 8 17 82 53 56 64
REMARK Flexibility Score: inf
ROOT
ATOM      1  C   UNL A   1      32.208  29.103  26.603  1.00  0.00     0.202 C 
ENDROOT
BRANCH   1   2
ATOM      2  C   UNL A   1      33.287  28.618  25.629  1.00  0.00     0.261 C 
BRANCH   2   3
ATOM      3  O   UNL A   1      33.124  29.316  24.389  1.00  0.00    -0.460 OA
BRANCH   3   4
ATOM      4  C   UNL A   1      33.255  28.586  23.249  1.00  0.00     0.342 C 
ATOM      5  O   UNL A   1      34.229  28.617  22.511  1.00  0.00    -0.246 OA
BRANCH   4   6
ATOM      6  C   UNL A   1      32.165  27.639  23.103  1.00  0.00     0.109 A 
ATOM      7  C   UNL A   1      30.003  29.168  23.132  1.00  0.00     0.088 C 
ATOM      8  C   UNL A   1      30.805  27.920  23.106  1.00  0.00     0.116 A 
ATOM      9  O   UNL A   1      30.086  26.760  23.125  1.00  0.00    -0.460 OA
ATOM     10  C   UNL A   1      30.974  25.732  23.166  1.00  0.00     0.135 A 
ATOM     11  C   UNL A   1      32.272  26.211  23.077  1.00  0.00     0.037 A 
ATOM     12  C   UNL A   1      30.652  24.384  23.317  1.00  0.00     0.050 A 
ATOM     13  C   UNL A   1      33.328  25.277  23.086  1.00  0.00     0.039 A 
ATOM     14  C   UNL A   1      31.728  23.488  23.447  1.00  0.00     0.030 A 
ATOM     15  C   UNL A   1      33.053  23.923  23.335  1.00  0.00     0.050 A 
BRANCH  15  16
ATOM     16  N   UNL A   1      34.152  23.007  23.478  1.00  0.00    -0.280 N 
ATOM     17  H   UNL A   1      34.769  22.876  22.723  1.00  0.00     0.180 HD
BRANCH  16  18
ATOM     18  S   UNL A   1      34.411  22.139  24.934  1.00  0.00     0.261 S 
ATOM     19  O   UNL A   1      33.790  22.884  26.008  1.00  0.00    -0.201 OA
ATOM     20  O   UNL A   1      33.982  20.785  24.640  1.00  0.00    -0.201 OA
BRANCH  18  21
ATOM     21  C   UNL A   1      36.157  22.089  25.240  1.00  0.00     0.087 A 
ATOM     22  C   UNL A   1      36.875  23.192  25.723  1.00  0.00     0.022 A 
ATOM     23  C   UNL A   1      36.828  20.914  24.958  1.00  0.00     0.022 A 
ATOM     24  C   UNL A   1      38.248  23.068  26.023  1.00  0.00     0.005 A 
ATOM     25  C   UNL A   1      38.141  20.777  25.376  1.00  0.00     0.005 A 
ATOM     26  C   UNL A   1      38.883  21.831  25.906  1.00  0.00    -0.045 A 
BRANCH  26  27
ATOM     27  C   UNL A   1      40.319  21.530  26.297  1.00  0.00     0.013 C 
ATOM     28  C   UNL A   1      40.705  22.176  27.626  1.00  0.00     0.012 C 
ATOM     29  C   UNL A   1      40.681  20.050  26.246  1.00  0.00     0.012 C 
ENDBRANCH  26  27
ENDBRANCH  18  21
ENDBRANCH  16  18
ENDBRANCH  15  16
ENDBRANCH   4   6
ENDBRANCH   3   4
ENDBRANCH   2   3
ENDBRANCH   1   2
BRANCH   1  30
ATOM     30  O   UNL A   1      32.374  30.468  27.003  1.00  0.00    -0.374 OA
BRANCH  30  31
ATOM     31  C   UNL A   1      31.405  31.397  26.501  1.00  0.00     0.202 C 
BRANCH  31  32
ATOM     32  C   UNL A   1      31.735  32.845  26.860  1.00  0.00     0.261 C 
BRANCH  32  33
ATOM     33  O   UNL A   1      33.064  32.902  27.372  1.00  0.00    -0.460 OA
BRANCH  33  34
ATOM     34  C   UNL A   1      33.298  33.945  28.209  1.00  0.00     0.338 C 
ATOM     35  O   UNL A   1      32.623  34.936  28.376  1.00  0.00    -0.246 OA
BRANCH  34  36
ATOM     36  C   UNL A   1      34.440  33.563  29.063  1.00  0.00     0.060 A 
ATOM     37  C   UNL A   1      35.686  34.143  28.789  1.00  0.00     0.016 A 
ATOM     38  C   UNL A   1      34.272  32.704  30.154  1.00  0.00     0.016 A 
ATOM     39  C   UNL A   1      36.783  33.828  29.584  1.00  0.00     0.010 A 
ATOM     40  C   UNL A   1      35.366  32.393  30.950  1.00  0.00     0.010 A 
ATOM     41  C   UNL A   1      36.627  32.921  30.639  1.00  0.00    -0.014 A 
BRANCH  41  42
ATOM     42  C   UNL A   1      37.809  32.327  31.285  1.00  0.00     0.031 A 
ATOM     43  C   UNL A   1      38.517  31.227  30.548  1.00  0.00     0.074 A 
ATOM     44  C   UNL A   1      38.199  32.724  32.505  1.00  0.00     0.049 A 
ATOM     45  N   UNL A   1      39.498  30.462  30.942  1.00  0.00    -0.248 NA
ATOM     46  C   UNL A   1      38.034  30.940  29.186  1.00  0.00     0.031 C 
ATOM     47  C   UNL A   1      37.579  33.792  33.287  1.00  0.00     0.029 A 
ATOM     48  N   UNL A   1      39.203  32.252  33.307  1.00  0.00    -0.354 N 
ATOM     49  C   UNL A   1      39.742  29.599  29.881  1.00  0.00     0.074 A 
ATOM     50  C   UNL A   1      38.783  29.904  28.845  1.00  0.00     0.031 C 
ATOM     51  C   UNL A   1      38.208  33.881  34.472  1.00  0.00     0.029 A 
ATOM     52  C   UNL A   1      39.250  32.859  34.536  1.00  0.00     0.049 A 
ATOM     53  H   UNL A   1      39.830  31.546  33.029  1.00  0.00     0.167 HD
ATOM     54  C   UNL A   1      40.692  28.643  29.782  1.00  0.00     0.037 A 
ATOM     55  C   UNL A   1      40.037  32.591  35.595  1.00  0.00     0.037 A 
ATOM     56  C   UNL A   1      41.634  28.350  30.828  1.00  0.00     0.049 A 
ATOM     57  C   UNL A   1      41.055  31.488  35.479  1.00  0.00     0.074 A 
ATOM     58  C   UNL A   1      42.653  27.417  30.837  1.00  0.00     0.029 A 
ATOM     59  N   UNL A   1      41.659  28.991  32.059  1.00  0.00    -0.354 N 
ATOM     60  N   UNL A   1      41.307  30.696  34.463  1.00  0.00    -0.248 NA
ATOM     61  C   UNL A   1      41.902  31.244  36.654  1.00  0.00     0.031 C 
ATOM     62  C   UNL A   1      43.269  27.463  32.092  1.00  0.00     0.029 A 
ATOM     63  C   UNL A   1      42.666  28.460  32.845  1.00  0.00     0.049 A 
ATOM     64  H   UNL A   1      41.050  29.714  32.332  1.00  0.00     0.167 HD
ATOM     65  C   UNL A   1      42.359  29.883  34.863  1.00  0.00     0.074 A 
ATOM     66  C   UNL A   1      42.703  30.285  36.212  1.00  0.00     0.031 C 
ATOM     67  C   UNL A   1      42.987  28.892  34.182  1.00  0.00     0.037 A 
BRANCH  54  68
ATOM     68  C   UNL A   1      40.734  27.844  28.514  1.00  0.00     0.057 A 
ATOM     69  C   UNL A   1      41.481  28.259  27.403  1.00  0.00     0.134 A 
ATOM     70  C   UNL A   1      40.017  26.647  28.400  1.00  0.00     0.134 A 
ATOM     71  F   UNL A   1      42.170  29.409  27.439  1.00  0.00    -0.206 F 
ATOM     72  C   UNL A   1      41.494  27.524  26.216  1.00  0.00     0.040 A 
ATOM     73  C   UNL A   1      40.045  25.890  27.228  1.00  0.00     0.040 A 
ATOM     74  F   UNL A   1      39.277  26.195  29.423  1.00  0.00    -0.206 F 
ATOM     75  C   UNL A   1      40.778  26.331  26.129  1.00  0.00     0.006 A 
ENDBRANCH  54  68
BRANCH  55  76
ATOM     76  C   UNL A   1      39.893  33.374  36.847  1.00  0.00     0.057 A 
ATOM     77  C   UNL A   1      40.690  34.499  37.091  1.00  0.00     0.134 A 
ATOM     78  C   UNL A   1      38.964  33.018  37.832  1.00  0.00     0.134 A 
ATOM     79  F   UNL A   1      41.610  34.881  36.193  1.00  0.00    -0.206 F 
ATOM     80  C   UNL A   1      40.583  35.229  38.276  1.00  0.00     0.040 A 
ATOM     81  C   UNL A   1      38.828  33.753  39.011  1.00  0.00     0.040 A 
ATOM     82  F   UNL A   1      38.164  31.955  37.656  1.00  0.00    -0.206 F 
ATOM     83  C   UNL A   1      39.646  34.858  39.238  1.00  0.00     0.006 A 
ENDBRANCH  55  76
BRANCH  67  84
ATOM     84  C   UNL A   1      44.131  28.208  34.869  1.00  0.00     0.057 A 
ATOM     85  C   UNL A   1      43.955  27.030  35.604  1.00  0.00     0.134 A 
ATOM     86  C   UNL A   1      45.433  28.711  34.749  1.00  0.00     0.134 A 
ATOM     87  F   UNL A   1      42.731  26.505  35.765  1.00  0.00    -0.206 F 
ATOM     88  C   UNL A   1      45.032  26.387  36.215  1.00  0.00     0.040 A 
ATOM     89  C   UNL A   1      46.521  28.062  35.331  1.00  0.00     0.040 A 
ATOM     90  F   UNL A   1      45.669  29.830  34.047  1.00  0.00    -0.206 F 
ATOM     91  C   UNL A   1      46.321  26.899  36.071  1.00  0.00     0.006 A 
ENDBRANCH  67  84
ENDBRANCH  41  42
ENDBRANCH  34  36
ENDBRANCH  33  34
ENDBRANCH  32  33
ENDBRANCH  31  32
ENDBRANCH  30  31
ENDBRANCH   1  30
TORSDOF 18
ENDMDL
MODEL 3
REMARK VINA RESULT:     -11.9      3.214      9.265
REMARK SMILES Cc1oc2ccc(NS(=O)(=O)c3ccc(C(C)C)cc3)cc2c1C(=O)OCCOCCOC(=O)c1ccc(-c2c3nc(c(-c4c(F)cccc4F)c4ccc([nH]4)c(-c4c(F)cccc4F)c4nc(c(-c5c(F)cccc5F)c5ccc2[nH]5)C=C4)C=C3)cc1
REMARK SMILES IDX 28 1 27 2 26 3 24 4 25 5 23 6 1 7 2 8 3 9 4 10 22 11 5 12
REMARK SMILES IDX 21 13 6 14 7 15 8 16 9 18 10 19 11 20 12 21 13 22 20 23
REMARK SMILES IDX 14 24 19 25 15 26 16 27 17 28 18 29 29 30 30 31 31 32 32 33
REMARK SMILES IDX 33 34 34 35 35 36 36 37 88 38 37 39 87 40 38 41 39 42 40 43
REMARK SMILES IDX 81 44 41 45 86 46 80 47 82 48 42 49 85 50 79 51 78 52 43 54
REMARK SMILES IDX 69 55 52 56 68 57 53 58 56 59 67 60 83 61 54 62 55 63 66 65
REMARK SMILES IDX 84 66 57 67 44 68 45 69 50 70 46 71 47 72 49 73 51 74 48 75
REMARK SMILES IDX 70 76 71 77 76 78 72 79 73 80 75 81 77 82 74 83 58 84 59 85
REMARK SMILES IDX 64 86 60 87 61 88 63 89 65 90 62 91
REMARK H PARENT 8 17 82 53 56 64
REMARK Flexibility Score: inf
ROOT
ATOM      1  C   UNL A   1      34.578  32.811  29.207  1.00  0.00     0.202 C 
ENDROOT
BRANCH   1   2
ATOM      2  C   UNL A   1      35.425  32.003  28.217  1.00  0.00     0.261 C 
BRANCH   2   3
ATOM      3  O   UNL A   1      34.547  31.382  27.273  1.00  0.00    -0.460 OA
BRANCH   3   4
ATOM      4  C   UNL A   1      34.441  30.027  27.329  1.00  0.00     0.342 C 
ATOM      5  O   UNL A   1      35.155  29.299  28.003  1.00  0.00    -0.246 OA
BRANCH   4   6
ATOM      6  C   UNL A   1      33.264  29.562  26.616  1.00  0.00     0.109 A 
ATOM      7  C   UNL A   1      31.683  31.686  26.571  1.00  0.00     0.088 C 
ATOM      8  C   UNL A   1      32.104  30.278  26.358  1.00  0.00     0.116 A 
ATOM      9  O   UNL A   1      31.153  29.457  25.824  1.00  0.00    -0.460 OA
ATOM     10  C   UNL A   1      31.684  28.207  25.764  1.00  0.00     0.135 A 
ATOM     11  C   UNL A   1      33.010  28.226  26.168  1.00  0.00     0.037 A 
ATOM     12  C   UNL A   1      31.001  27.050  25.393  1.00  0.00     0.050 A 
ATOM     13  C   UNL A   1      33.728  27.012  26.152  1.00  0.00     0.039 A 
ATOM     14  C   UNL A   1      31.705  25.838  25.505  1.00  0.00     0.030 A 
ATOM     15  C   UNL A   1      33.052  25.813  25.879  1.00  0.00     0.050 A 
BRANCH  15  16
ATOM     16  N   UNL A   1      33.767  24.571  26.003  1.00  0.00    -0.280 N 
ATOM     17  H   UNL A   1      33.659  24.034  26.820  1.00  0.00     0.180 HD
BRANCH  16  18
ATOM     18  S   UNL A   1      34.804  24.007  24.758  1.00  0.00     0.261 S 
ATOM     19  O   UNL A   1      34.389  24.632  23.521  1.00  0.00    -0.201 OA
ATOM     20  O   UNL A   1      36.145  24.216  25.270  1.00  0.00    -0.201 OA
BRANCH  18  21
ATOM     21  C   UNL A   1      34.563  22.257  24.595  1.00  0.00     0.087 A 
ATOM     22  C   UNL A   1      35.490  21.315  25.062  1.00  0.00     0.022 A 
ATOM     23  C   UNL A   1      33.419  21.822  23.952  1.00  0.00     0.022 A 
ATOM     24  C   UNL A   1      35.205  19.936  24.976  1.00  0.00     0.005 A 
ATOM     25  C   UNL A   1      33.102  20.474  23.991  1.00  0.00     0.005 A 
ATOM     26  C   UNL A   1      33.971  19.504  24.489  1.00  0.00    -0.045 A 
BRANCH  26  27
ATOM     27  C   UNL A   1      33.490  18.064  24.442  1.00  0.00     0.013 C 
ATOM     28  C   UNL A   1      32.709  17.674  25.694  1.00  0.00     0.012 C 
ATOM     29  C   UNL A   1      32.750  17.696  23.161  1.00  0.00     0.012 C 
ENDBRANCH  26  27
ENDBRANCH  18  21
ENDBRANCH  16  18
ENDBRANCH  15  16
ENDBRANCH   4   6
ENDBRANCH   3   4
ENDBRANCH   2   3
ENDBRANCH   1   2
BRANCH   1  30
ATOM     30  O   UNL A   1      34.785  34.225  29.113  1.00  0.00    -0.374 OA
BRANCH  30  31
ATOM     31  C   UNL A   1      33.732  34.979  28.499  1.00  0.00     0.202 C 
BRANCH  31  32
ATOM     32  C   UNL A   1      33.026  35.912  29.482  1.00  0.00     0.261 C 
BRANCH  32  33
ATOM     33  O   UNL A   1      32.518  35.141  30.567  1.00  0.00    -0.460 OA
BRANCH  33  34
ATOM     34  C   UNL A   1      32.754  35.675  31.793  1.00  0.00     0.338 C 
ATOM     35  O   UNL A   1      32.077  36.470  32.405  1.00  0.00    -0.246 OA
BRANCH  34  36
ATOM     36  C   UNL A   1      33.903  34.945  32.366  1.00  0.00     0.060 A 
ATOM     37  C   UNL A   1      35.151  35.581  32.362  1.00  0.00     0.016 A 
ATOM     38  C   UNL A   1      33.739  33.688  32.956  1.00  0.00     0.016 A 
ATOM     39  C   UNL A   1      36.254  34.938  32.913  1.00  0.00     0.010 A 
ATOM     40  C   UNL A   1      34.839  33.047  33.510  1.00  0.00     0.010 A 
ATOM     41  C   UNL A   1      36.102  33.654  33.449  1.00  0.00    -0.014 A 
BRANCH  41  42
ATOM     42  C   UNL A   1      37.285  32.828  33.739  1.00  0.00     0.031 A 
ATOM     43  C   UNL A   1      38.031  33.114  35.010  1.00  0.00     0.074 A 
ATOM     44  C   UNL A   1      37.701  31.892  32.872  1.00  0.00     0.049 A 
ATOM     45  N   UNL A   1      39.160  32.621  35.439  1.00  0.00    -0.248 NA
ATOM     46  C   UNL A   1      37.425  34.113  35.909  1.00  0.00     0.031 C 
ATOM     47  C   UNL A   1      37.032  31.538  31.622  1.00  0.00     0.029 A 
ATOM     48  N   UNL A   1      38.806  31.086  32.909  1.00  0.00    -0.354 N 
ATOM     49  C   UNL A   1      39.404  33.255  36.650  1.00  0.00     0.074 A 
ATOM     50  C   UNL A   1      38.331  34.197  36.870  1.00  0.00     0.031 C 
ATOM     51  C   UNL A   1      37.756  30.593  30.997  1.00  0.00     0.029 A 
ATOM     52  C   UNL A   1      38.947  30.303  31.791  1.00  0.00     0.049 A 
ATOM     53  H   UNL A   1      39.438  31.069  33.664  1.00  0.00     0.167 HD
ATOM     54  C   UNL A   1      40.431  33.058  37.506  1.00  0.00     0.037 A 
ATOM     55  C   UNL A   1      39.946  29.468  31.450  1.00  0.00     0.037 A 
ATOM     56  C   UNL A   1      41.494  32.121  37.266  1.00  0.00     0.049 A 
ATOM     57  C   UNL A   1      41.105  29.301  32.397  1.00  0.00     0.074 A 
ATOM     58  C   UNL A   1      42.579  31.819  38.067  1.00  0.00     0.029 A 
ATOM     59  N   UNL A   1      41.601  31.336  36.126  1.00  0.00    -0.354 N 
ATOM     60  N   UNL A   1      41.316  29.876  33.558  1.00  0.00    -0.248 NA
ATOM     61  C   UNL A   1      42.162  28.366  31.989  1.00  0.00     0.031 C 
ATOM     62  C   UNL A   1      43.368  30.883  37.392  1.00  0.00     0.029 A 
ATOM     63  C   UNL A   1      42.747  30.564  36.193  1.00  0.00     0.049 A 
ATOM     64  H   UNL A   1      40.959  31.331  35.381  1.00  0.00     0.167 HD
ATOM     65  C   UNL A   1      42.511  29.351  34.033  1.00  0.00     0.074 A 
ATOM     66  C   UNL A   1      42.972  28.404  33.038  1.00  0.00     0.031 C 
ATOM     67  C   UNL A   1      43.171  29.623  35.186  1.00  0.00     0.037 A 
BRANCH  54  68
ATOM     68  C   UNL A   1      40.454  33.887  38.756  1.00  0.00     0.057 A 
ATOM     69  C   UNL A   1      41.121  35.119  38.813  1.00  0.00     0.134 A 
ATOM     70  C   UNL A   1      39.806  33.448  39.916  1.00  0.00     0.134 A 
ATOM     71  F   UNL A   1      41.783  35.585  37.744  1.00  0.00    -0.206 F 
ATOM     72  C   UNL A   1      41.162  35.873  39.988  1.00  0.00     0.040 A 
ATOM     73  C   UNL A   1      39.817  34.206  41.088  1.00  0.00     0.040 A 
ATOM     74  F   UNL A   1      39.154  32.276  39.931  1.00  0.00    -0.206 F 
ATOM     75  C   UNL A   1      40.502  35.418  41.129  1.00  0.00     0.006 A 
ENDBRANCH  54  68
BRANCH  55  76
ATOM     76  C   UNL A   1      39.894  28.732  30.163  1.00  0.00     0.057 A 
ATOM     77  C   UNL A   1      40.504  29.245  29.012  1.00  0.00     0.134 A 
ATOM     78  C   UNL A   1      39.233  27.503  30.048  1.00  0.00     0.134 A 
ATOM     79  F   UNL A   1      41.138  30.425  29.055  1.00  0.00    -0.206 F 
ATOM     80  C   UNL A   1      40.441  28.575  27.789  1.00  0.00     0.040 A 
ATOM     81  C   UNL A   1      39.182  26.809  28.837  1.00  0.00     0.040 A 
ATOM     82  F   UNL A   1      38.635  26.953  31.116  1.00  0.00    -0.206 F 
ATOM     83  C   UNL A   1      39.782  27.350  27.701  1.00  0.00     0.006 A 
ENDBRANCH  55  76
BRANCH  67  84
ATOM     84  C   UNL A   1      44.434  28.859  35.448  1.00  0.00     0.057 A 
ATOM     85  C   UNL A   1      45.686  29.339  35.045  1.00  0.00     0.134 A 
ATOM     86  C   UNL A   1      44.398  27.652  36.157  1.00  0.00     0.134 A 
ATOM     87  F   UNL A   1      45.785  30.485  34.353  1.00  0.00    -0.206 F 
ATOM     88  C   UNL A   1      46.857  28.633  35.320  1.00  0.00     0.040 A 
ATOM     89  C   UNL A   1      45.565  26.952  36.463  1.00  0.00     0.040 A 
ATOM     90  F   UNL A   1      43.231  27.144  36.581  1.00  0.00    -0.206 F 
ATOM     91  C   UNL A   1      46.799  27.440  36.038  1.00  0.00     0.006 A 
ENDBRANCH  67  84
ENDBRANCH  41  42
ENDBRANCH  34  36
ENDBRANCH  33  34
ENDBRANCH  32  33
ENDBRANCH  31  32
ENDBRANCH  30  31
ENDBRANCH   1  30
TORSDOF 18
ENDMDL
