MODEL 1
REMARK VINA RESULT:     -11.1      0.000      0.000
REMARK SMILES C#Cc1cccc(NS(=O)(=O)c2cc(C)c(C(=O)OCCOCCOC(=O)c3ccc(-c4c5nc(c(-c6c(F)cccc6F)c6ccc([nH]6)c(-c6c(F)cccc6F)c6nc(c(-c7c(F)cccc7F)c7ccc4[nH]7)C=C6)C=C5)cc3)s2)c1
REMARK SMILES IDX 21 1 20 2 19 3 17 4 18 5 16 6 12 7 13 8 82 9 14 10 15 11
REMARK SMILES IDX 9 12 10 13 11 14 8 15 7 17 3 18 4 19 83 20 5 21 6 22 2 23
REMARK SMILES IDX 1 24 22 25 23 26 24 27 25 28 26 29 27 30 28 31 29 32 81 33
REMARK SMILES IDX 30 34 80 35 31 36 32 37 33 38 74 39 34 40 79 41 73 42 75 43
REMARK SMILES IDX 35 44 78 45 72 46 71 47 36 49 62 50 45 51 61 52 46 53 49 54
REMARK SMILES IDX 60 55 76 56 47 57 48 58 59 60 77 61 50 62 37 63 38 64 43 65
REMARK SMILES IDX 39 66 40 67 42 68 44 69 41 70 63 71 64 72 69 73 65 74 66 75
REMARK SMILES IDX 68 76 70 77 67 78 51 79 52 80 57 81 53 82 54 83 56 84 58 85
REMARK SMILES IDX 55 86
REMARK H PARENT 8 16 75 48 49 59
REMARK Flexibility Score: inf
ROOT
ATOM      1  C   UNL A   1      40.136  20.100  26.068  1.00  0.00     0.202 C 
ENDROOT
BRANCH   1   2
ATOM      2  C   UNL A   1      39.607  21.531  26.180  1.00  0.00     0.261 C 
BRANCH   2   3
ATOM      3  O   UNL A   1      38.223  21.607  25.815  1.00  0.00    -0.459 OA
BRANCH   3   4
ATOM      4  C   UNL A   1      37.636  22.832  25.913  1.00  0.00     0.348 C 
ATOM      5  O   UNL A   1      38.226  23.847  26.260  1.00  0.00    -0.245 OA
BRANCH   4   6
ATOM      6  C   UNL A   1      36.243  22.753  25.492  1.00  0.00     0.116 A 
ATOM      7  C   UNL A   1      33.759  22.666  25.589  1.00  0.00     0.141 A 
ATOM      8  C   UNL A   1      34.284  22.286  24.372  1.00  0.00     0.038 A 
ATOM      9  S   UNL A   1      35.031  22.821  26.725  1.00  0.00    -0.115 S 
ATOM     10  C   UNL A   1      35.642  22.731  24.238  1.00  0.00    -0.024 A 
ATOM     11  C   UNL A   1      36.220  23.062  22.899  1.00  0.00     0.046 C 
BRANCH   7  12
ATOM     12  S   UNL A   1      32.116  23.019  26.185  1.00  0.00     0.271 S 
ATOM     13  O   UNL A   1      32.270  23.194  27.614  1.00  0.00    -0.200 OA
ATOM     14  O   UNL A   1      31.288  21.964  25.637  1.00  0.00    -0.200 OA
BRANCH  12  15
ATOM     15  N   UNL A   1      31.450  24.455  25.593  1.00  0.00    -0.279 N 
ATOM     16  H   UNL A   1      30.547  24.409  25.204  1.00  0.00     0.180 HD
BRANCH  15  17
ATOM     17  C   UNL A   1      32.090  25.729  25.614  1.00  0.00     0.050 A 
ATOM     18  C   UNL A   1      33.374  27.400  24.414  1.00  0.00     0.026 A 
ATOM     19  C   UNL A   1      33.613  28.074  25.611  1.00  0.00     0.017 A 
ATOM     20  C   UNL A   1      32.639  26.209  24.418  1.00  0.00     0.044 A 
ATOM     21  C   UNL A   1      32.960  27.667  26.768  1.00  0.00     0.003 A 
ATOM     22  C   UNL A   1      32.126  26.547  26.742  1.00  0.00     0.027 A 
BRANCH  18  23
ATOM     23  C   UNL A   1      33.814  28.012  23.198  1.00  0.00    -0.070 C 
ATOM     24  C   UNL A   1      34.199  28.367  22.120  1.00  0.00     0.010 C 
ENDBRANCH  18  23
ENDBRANCH  15  17
ENDBRANCH  12  15
ENDBRANCH   7  12
ENDBRANCH   4   6
ENDBRANCH   3   4
ENDBRANCH   2   3
ENDBRANCH   1   2
BRANCH   1  25
ATOM     25  O   UNL A   1      41.500  19.945  25.691  1.00  0.00    -0.374 OA
BRANCH  25  26
ATOM     26  C   UNL A   1      42.474  20.715  26.397  1.00  0.00     0.202 C 
BRANCH  26  27
ATOM     27  C   UNL A   1      43.452  21.547  25.559  1.00  0.00     0.261 C 
BRANCH  27  28
ATOM     28  O   UNL A   1      42.824  22.688  24.950  1.00  0.00    -0.460 OA
BRANCH  28  29
ATOM     29  C   UNL A   1      43.565  23.822  24.995  1.00  0.00     0.338 C 
ATOM     30  O   UNL A   1      44.535  24.102  24.313  1.00  0.00    -0.246 OA
BRANCH  29  31
ATOM     31  C   UNL A   1      42.924  24.797  25.894  1.00  0.00     0.060 A 
ATOM     32  C   UNL A   1      43.525  26.056  26.024  1.00  0.00     0.016 A 
ATOM     33  C   UNL A   1      41.807  24.458  26.658  1.00  0.00     0.016 A 
ATOM     34  C   UNL A   1      43.043  26.963  26.962  1.00  0.00     0.010 A 
ATOM     35  C   UNL A   1      41.325  25.372  27.600  1.00  0.00     0.010 A 
ATOM     36  C   UNL A   1      41.964  26.612  27.784  1.00  0.00    -0.014 A 
BRANCH  36  37
ATOM     37  C   UNL A   1      41.579  27.489  28.916  1.00  0.00     0.031 A 
ATOM     38  C   UNL A   1      42.348  27.408  30.206  1.00  0.00     0.074 A 
ATOM     39  C   UNL A   1      40.560  28.356  28.791  1.00  0.00     0.049 A 
ATOM     40  N   UNL A   1      42.141  28.034  31.336  1.00  0.00    -0.248 NA
ATOM     41  C   UNL A   1      43.498  26.491  30.226  1.00  0.00     0.031 C 
ATOM     42  C   UNL A   1      39.762  28.551  27.582  1.00  0.00     0.029 A 
ATOM     43  N   UNL A   1      40.015  29.226  29.700  1.00  0.00    -0.354 N 
ATOM     44  C   UNL A   1      43.125  27.579  32.206  1.00  0.00     0.074 A 
ATOM     45  C   UNL A   1      43.902  26.595  31.484  1.00  0.00     0.031 C 
ATOM     46  C   UNL A   1      38.823  29.480  27.826  1.00  0.00     0.029 A 
ATOM     47  C   UNL A   1      38.926  29.910  29.219  1.00  0.00     0.049 A 
ATOM     48  H   UNL A   1      40.370  29.349  30.611  1.00  0.00     0.167 HD
ATOM     49  C   UNL A   1      43.364  27.954  33.485  1.00  0.00     0.037 A 
ATOM     50  C   UNL A   1      38.089  30.764  29.840  1.00  0.00     0.037 A 
ATOM     51  C   UNL A   1      42.581  28.932  34.199  1.00  0.00     0.049 A 
ATOM     52  C   UNL A   1      38.325  31.107  31.287  1.00  0.00     0.074 A 
ATOM     53  C   UNL A   1      42.755  29.399  35.490  1.00  0.00     0.029 A 
ATOM     54  N   UNL A   1      41.466  29.580  33.688  1.00  0.00    -0.354 N 
ATOM     55  N   UNL A   1      39.273  30.693  32.092  1.00  0.00    -0.248 NA
ATOM     56  C   UNL A   1      37.374  32.039  31.909  1.00  0.00     0.031 C 
ATOM     57  C   UNL A   1      41.703  30.272  35.784  1.00  0.00     0.029 A 
ATOM     58  C   UNL A   1      40.920  30.414  34.650  1.00  0.00     0.049 A 
ATOM     59  H   UNL A   1      41.114  29.464  32.775  1.00  0.00     0.167 HD
ATOM     60  C   UNL A   1      39.056  31.341  33.303  1.00  0.00     0.074 A 
ATOM     61  C   UNL A   1      37.892  32.183  33.121  1.00  0.00     0.031 C 
ATOM     62  C   UNL A   1      39.761  31.251  34.459  1.00  0.00     0.037 A 
BRANCH  49  63
ATOM     63  C   UNL A   1      44.494  27.276  34.209  1.00  0.00     0.057 A 
ATOM     64  C   UNL A   1      44.324  26.065  34.894  1.00  0.00     0.134 A 
ATOM     65  C   UNL A   1      45.780  27.835  34.203  1.00  0.00     0.134 A 
ATOM     66  F   UNL A   1      43.119  25.477  34.949  1.00  0.00    -0.206 F 
ATOM     67  C   UNL A   1      45.380  25.454  35.576  1.00  0.00     0.040 A 
ATOM     68  C   UNL A   1      46.851  27.215  34.850  1.00  0.00     0.040 A 
ATOM     69  F   UNL A   1      46.019  28.987  33.561  1.00  0.00    -0.206 F 
ATOM     70  C   UNL A   1      46.649  26.027  35.548  1.00  0.00     0.006 A 
ENDBRANCH  49  63
BRANCH  50  71
ATOM     71  C   UNL A   1      36.942  31.346  29.097  1.00  0.00     0.057 A 
ATOM     72  C   UNL A   1      36.966  32.671  28.647  1.00  0.00     0.134 A 
ATOM     73  C   UNL A   1      35.793  30.594  28.822  1.00  0.00     0.134 A 
ATOM     74  F   UNL A   1      38.030  33.449  28.896  1.00  0.00    -0.206 F 
ATOM     75  C   UNL A   1      35.882  33.234  27.970  1.00  0.00     0.040 A 
ATOM     76  C   UNL A   1      34.716  31.133  28.119  1.00  0.00     0.040 A 
ATOM     77  F   UNL A   1      35.708  29.315  29.220  1.00  0.00    -0.206 F 
ATOM     78  C   UNL A   1      34.756  32.460  27.698  1.00  0.00     0.006 A 
ENDBRANCH  50  71
BRANCH  62  79
ATOM     79  C   UNL A   1      39.327  32.121  35.607  1.00  0.00     0.057 A 
ATOM     80  C   UNL A   1      38.428  31.676  36.585  1.00  0.00     0.134 A 
ATOM     81  C   UNL A   1      39.851  33.413  35.755  1.00  0.00     0.134 A 
ATOM     82  F   UNL A   1      37.880  30.454  36.501  1.00  0.00    -0.206 F 
ATOM     83  C   UNL A   1      38.044  32.493  37.651  1.00  0.00     0.040 A 
ATOM     84  C   UNL A   1      39.503  34.225  36.835  1.00  0.00     0.040 A 
ATOM     85  F   UNL A   1      40.725  33.901  34.862  1.00  0.00    -0.206 F 
ATOM     86  C   UNL A   1      38.589  33.770  37.782  1.00  0.00     0.006 A 
ENDBRANCH  62  79
ENDBRANCH  36  37
ENDBRANCH  29  31
ENDBRANCH  28  29
ENDBRANCH  27  28
ENDBRANCH  26  27
ENDBRANCH  25  26
ENDBRANCH   1  25
TORSDOF 18
ENDMDL
MODEL 2
REMARK VINA RESULT:     -10.9      1.581      2.198
REMARK SMILES C#Cc1cccc(NS(=O)(=O)c2cc(C)c(C(=O)OCCOCCOC(=O)c3ccc(-c4c5nc(c(-c6c(F)cccc6F)c6ccc([nH]6)c(-c6c(F)cccc6F)c6nc(c(-c7c(F)cccc7F)c7ccc4[nH]7)C=C6)C=C5)cc3)s2)c1
REMARK SMILES IDX 21 1 20 2 19 3 17 4 18 5 16 6 12 7 13 8 82 9 14 10 15 11
REMARK SMILES IDX 9 12 10 13 11 14 8 15 7 17 3 18 4 19 83 20 5 21 6 22 2 23
REMARK SMILES IDX 1 24 22 25 23 26 24 27 25 28 26 29 27 30 28 31 29 32 81 33
REMARK SMILES IDX 30 34 80 35 31 36 32 37 33 38 74 39 34 40 79 41 73 42 75 43
REMARK SMILES IDX 35 44 78 45 72 46 71 47 36 49 62 50 45 51 61 52 46 53 49 54
REMARK SMILES IDX 60 55 76 56 47 57 48 58 59 60 77 61 50 62 37 63 38 64 43 65
REMARK SMILES IDX 39 66 40 67 42 68 44 69 41 70 63 71 64 72 69 73 65 74 66 75
REMARK SMILES IDX 68 76 70 77 67 78 51 79 52 80 57 81 53 82 54 83 56 84 58 85
REMARK SMILES IDX 55 86
REMARK H PARENT 8 16 75 48 49 59
REMARK Flexibility Score: inf
ROOT
ATOM      1  C   UNL A   1      40.048  21.099  26.843  1.00  0.00     0.202 C 
ENDROOT
BRANCH   1   2
ATOM      2  C   UNL A   1      39.370  21.924  25.747  1.00  0.00     0.261 C 
BRANCH   2   3
ATOM      3  O   UNL A   1      38.017  22.244  26.096  1.00  0.00    -0.459 OA
BRANCH   3   4
ATOM      4  C   UNL A   1      37.043  21.658  25.345  1.00  0.00     0.348 C 
ATOM      5  O   UNL A   1      37.055  20.482  25.007  1.00  0.00    -0.245 OA
BRANCH   4   6
ATOM      6  C   UNL A   1      35.983  22.619  25.066  1.00  0.00     0.116 A 
ATOM      7  C   UNL A   1      34.463  24.149  23.827  1.00  0.00     0.141 A 
ATOM      8  C   UNL A   1      34.453  24.337  25.193  1.00  0.00     0.038 A 
ATOM      9  S   UNL A   1      35.738  23.082  23.417  1.00  0.00    -0.115 S 
ATOM     10  C   UNL A   1      35.010  23.202  25.871  1.00  0.00    -0.024 A 
ATOM     11  C   UNL A   1      34.555  22.818  27.244  1.00  0.00     0.046 C 
BRANCH   7  12
ATOM     12  S   UNL A   1      33.466  24.751  22.476  1.00  0.00     0.271 S 
ATOM     13  O   UNL A   1      33.353  23.626  21.571  1.00  0.00    -0.200 OA
ATOM     14  O   UNL A   1      34.100  25.988  22.070  1.00  0.00    -0.200 OA
BRANCH  12  15
ATOM     15  N   UNL A   1      31.890  25.182  22.907  1.00  0.00    -0.279 N 
ATOM     16  H   UNL A   1      31.183  24.510  22.772  1.00  0.00     0.180 HD
BRANCH  15  17
ATOM     17  C   UNL A   1      31.500  26.441  23.450  1.00  0.00     0.050 A 
ATOM     18  C   UNL A   1      30.536  28.633  23.064  1.00  0.00     0.026 A 
ATOM     19  C   UNL A   1      30.953  29.039  24.330  1.00  0.00     0.017 A 
ATOM     20  C   UNL A   1      30.836  27.344  22.609  1.00  0.00     0.044 A 
ATOM     21  C   UNL A   1      31.492  28.104  25.206  1.00  0.00     0.003 A 
ATOM     22  C   UNL A   1      31.678  26.782  24.790  1.00  0.00     0.027 A 
BRANCH  18  23
ATOM     23  C   UNL A   1      29.720  29.531  22.304  1.00  0.00    -0.070 C 
ATOM     24  C   UNL A   1      29.181  30.338  21.602  1.00  0.00     0.010 C 
ENDBRANCH  18  23
ENDBRANCH  15  17
ENDBRANCH  12  15
ENDBRANCH   7  12
ENDBRANCH   4   6
ENDBRANCH   3   4
ENDBRANCH   2   3
ENDBRANCH   1   2
BRANCH   1  25
ATOM     25  O   UNL A   1      41.445  21.301  27.030  1.00  0.00    -0.374 OA
BRANCH  25  26
ATOM     26  C   UNL A   1      42.333  20.719  26.075  1.00  0.00     0.202 C 
BRANCH  26  27
ATOM     27  C   UNL A   1      43.382  21.639  25.440  1.00  0.00     0.261 C 
BRANCH  27  28
ATOM     28  O   UNL A   1      42.806  22.837  24.893  1.00  0.00    -0.460 OA
BRANCH  28  29
ATOM     29  C   UNL A   1      43.590  23.936  25.011  1.00  0.00     0.338 C 
ATOM     30  O   UNL A   1      44.601  24.199  24.384  1.00  0.00    -0.246 OA
BRANCH  29  31
ATOM     31  C   UNL A   1      42.949  24.905  25.917  1.00  0.00     0.060 A 
ATOM     32  C   UNL A   1      43.569  26.151  26.081  1.00  0.00     0.016 A 
ATOM     33  C   UNL A   1      41.812  24.573  26.654  1.00  0.00     0.016 A 
ATOM     34  C   UNL A   1      43.085  27.049  27.028  1.00  0.00     0.010 A 
ATOM     35  C   UNL A   1      41.328  25.476  27.603  1.00  0.00     0.010 A 
ATOM     36  C   UNL A   1      41.985  26.701  27.823  1.00  0.00    -0.014 A 
BRANCH  36  37
ATOM     37  C   UNL A   1      41.594  27.564  28.963  1.00  0.00     0.031 A 
ATOM     38  C   UNL A   1      42.353  27.464  30.258  1.00  0.00     0.074 A 
ATOM     39  C   UNL A   1      40.577  28.435  28.843  1.00  0.00     0.049 A 
ATOM     40  N   UNL A   1      42.140  28.075  31.395  1.00  0.00    -0.248 NA
ATOM     41  C   UNL A   1      43.501  26.544  30.274  1.00  0.00     0.031 C 
ATOM     42  C   UNL A   1      39.789  28.648  27.632  1.00  0.00     0.029 A 
ATOM     43  N   UNL A   1      40.028  29.294  29.761  1.00  0.00    -0.354 N 
ATOM     44  C   UNL A   1      43.116  27.606  32.265  1.00  0.00     0.074 A 
ATOM     45  C   UNL A   1      43.896  26.630  31.536  1.00  0.00     0.031 C 
ATOM     46  C   UNL A   1      38.850  29.576  27.881  1.00  0.00     0.029 A 
ATOM     47  C   UNL A   1      38.944  29.987  29.281  1.00  0.00     0.049 A 
ATOM     48  H   UNL A   1      40.376  29.404  30.675  1.00  0.00     0.167 HD
ATOM     49  C   UNL A   1      43.347  27.963  33.552  1.00  0.00     0.037 A 
ATOM     50  C   UNL A   1      38.104  30.834  29.907  1.00  0.00     0.037 A 
ATOM     51  C   UNL A   1      42.561  28.933  34.273  1.00  0.00     0.049 A 
ATOM     52  C   UNL A   1      38.330  31.157  31.360  1.00  0.00     0.074 A 
ATOM     53  C   UNL A   1      42.727  29.382  35.571  1.00  0.00     0.029 A 
ATOM     54  N   UNL A   1      41.451  29.590  33.762  1.00  0.00    -0.354 N 
ATOM     55  N   UNL A   1      39.272  30.730  32.167  1.00  0.00    -0.248 NA
ATOM     56  C   UNL A   1      37.377  32.082  31.989  1.00  0.00     0.031 C 
ATOM     57  C   UNL A   1      41.675  30.253  35.870  1.00  0.00     0.029 A 
ATOM     58  C   UNL A   1      40.900  30.412  34.732  1.00  0.00     0.049 A 
ATOM     59  H   UNL A   1      41.105  29.487  32.846  1.00  0.00     0.167 HD
ATOM     60  C   UNL A   1      39.048  31.362  33.385  1.00  0.00     0.074 A 
ATOM     61  C   UNL A   1      37.887  32.209  33.206  1.00  0.00     0.031 C 
ATOM     62  C   UNL A   1      39.744  31.255  34.544  1.00  0.00     0.037 A 
BRANCH  49  63
ATOM     63  C   UNL A   1      44.470  27.273  34.274  1.00  0.00     0.057 A 
ATOM     64  C   UNL A   1      44.282  26.077  34.981  1.00  0.00     0.134 A 
ATOM     65  C   UNL A   1      45.767  27.803  34.245  1.00  0.00     0.134 A 
ATOM     66  F   UNL A   1      43.065  25.516  35.059  1.00  0.00    -0.206 F 
ATOM     67  C   UNL A   1      45.332  25.455  35.661  1.00  0.00     0.040 A 
ATOM     68  C   UNL A   1      46.832  27.171  34.890  1.00  0.00     0.040 A 
ATOM     69  F   UNL A   1      46.024  28.939  33.581  1.00  0.00    -0.206 F 
ATOM     70  C   UNL A   1      46.613  25.999  35.610  1.00  0.00     0.006 A 
ENDBRANCH  49  63
BRANCH  50  71
ATOM     71  C   UNL A   1      36.964  31.429  29.164  1.00  0.00     0.057 A 
ATOM     72  C   UNL A   1      35.797  30.697  28.918  1.00  0.00     0.134 A 
ATOM     73  C   UNL A   1      37.015  32.741  28.677  1.00  0.00     0.134 A 
ATOM     74  F   UNL A   1      35.694  29.428  29.341  1.00  0.00    -0.206 F 
ATOM     75  C   UNL A   1      34.731  31.239  28.197  1.00  0.00     0.040 A 
ATOM     76  C   UNL A   1      35.945  33.307  27.984  1.00  0.00     0.040 A 
ATOM     77  F   UNL A   1      38.102  33.500  28.885  1.00  0.00    -0.206 F 
ATOM     78  C   UNL A   1      34.802  32.552  27.735  1.00  0.00     0.006 A 
ENDBRANCH  50  71
BRANCH  62  79
ATOM     79  C   UNL A   1      39.304  32.110  35.701  1.00  0.00     0.057 A 
ATOM     80  C   UNL A   1      39.759  33.424  35.876  1.00  0.00     0.134 A 
ATOM     81  C   UNL A   1      38.376  31.621  36.631  1.00  0.00     0.134 A 
ATOM     82  F   UNL A   1      40.655  33.953  35.029  1.00  0.00    -0.206 F 
ATOM     83  C   UNL A   1      39.332  34.208  36.950  1.00  0.00     0.040 A 
ATOM     84  C   UNL A   1      37.915  32.407  37.687  1.00  0.00     0.040 A 
ATOM     85  F   UNL A   1      37.889  30.377  36.519  1.00  0.00    -0.206 F 
ATOM     86  C   UNL A   1      38.400  33.702  37.855  1.00  0.00     0.006 A 
ENDBRANCH  62  79
ENDBRANCH  36  37
ENDBRANCH  29  31
ENDBRANCH  28  29
ENDBRANCH  27  28
ENDBRANCH  26  27
ENDBRANCH  25  26
ENDBRANCH   1  25
TORSDOF 18
ENDMDL
MODEL 3
REMARK VINA RESULT:     -10.2      4.798      9.808
REMARK SMILES C#Cc1cccc(NS(=O)(=O)c2cc(C)c(C(=O)OCCOCCOC(=O)c3ccc(-c4c5nc(c(-c6c(F)cccc6F)c6ccc([nH]6)c(-c6c(F)cccc6F)c6nc(c(-c7c(F)cccc7F)c7ccc4[nH]7)C=C6)C=C5)cc3)s2)c1
REMARK SMILES IDX 21 1 20 2 19 3 17 4 18 5 16 6 12 7 13 8 82 9 14 10 15 11
REMARK SMILES IDX 9 12 10 13 11 14 8 15 7 17 3 18 4 19 83 20 5 21 6 22 2 23
REMARK SMILES IDX 1 24 22 25 23 26 24 27 25 28 26 29 27 30 28 31 29 32 81 33
REMARK SMILES IDX 30 34 80 35 31 36 32 37 33 38 74 39 34 40 79 41 73 42 75 43
REMARK SMILES IDX 35 44 78 45 72 46 71 47 36 49 62 50 45 51 61 52 46 53 49 54
REMARK SMILES IDX 60 55 76 56 47 57 48 58 59 60 77 61 50 62 37 63 38 64 43 65
REMARK SMILES IDX 39 66 40 67 42 68 44 69 41 70 63 71 64 72 69 73 65 74 66 75
REMARK SMILES IDX 68 76 70 77 67 78 51 79 52 80 57 81 53 82 54 83 56 84 58 85
REMARK SMILES IDX 55 86
REMARK H PARENT 8 16 75 48 49 59
REMARK Flexibility Score: inf
ROOT
ATOM      1  C   UNL A   1      32.593  31.005  27.061  1.00  0.00     0.202 C 
ENDROOT
BRANCH   1   2
ATOM      2  C   UNL A   1      32.036  29.653  26.611  1.00  0.00     0.261 C 
BRANCH   2   3
ATOM      3  O   UNL A   1      33.055  28.840  26.015  1.00  0.00    -0.459 OA
BRANCH   3   4
ATOM      4  C   UNL A   1      32.831  28.428  24.736  1.00  0.00     0.348 C 
ATOM      5  O   UNL A   1      33.157  29.068  23.745  1.00  0.00    -0.245 OA
BRANCH   4   6
ATOM      6  C   UNL A   1      32.211  27.109  24.739  1.00  0.00     0.116 A 
ATOM      7  C   UNL A   1      31.770  24.720  25.272  1.00  0.00     0.141 A 
ATOM      8  C   UNL A   1      31.095  25.177  24.160  1.00  0.00     0.038 A 
ATOM      9  S   UNL A   1      32.906  25.902  25.765  1.00  0.00    -0.115 S 
ATOM     10  C   UNL A   1      31.060  26.612  24.136  1.00  0.00    -0.024 A 
ATOM     11  C   UNL A   1      29.922  27.349  23.504  1.00  0.00     0.046 C 
BRANCH   7  12
ATOM     12  S   UNL A   1      31.695  23.233  26.254  1.00  0.00     0.271 S 
ATOM     13  O   UNL A   1      30.581  22.484  25.708  1.00  0.00    -0.200 OA
ATOM     14  O   UNL A   1      31.695  23.694  27.626  1.00  0.00    -0.200 OA
BRANCH  12  15
ATOM     15  N   UNL A   1      33.054  22.237  26.122  1.00  0.00    -0.279 N 
ATOM     16  H   UNL A   1      33.039  21.383  26.610  1.00  0.00     0.180 HD
BRANCH  15  17
ATOM     17  C   UNL A   1      34.221  22.534  25.359  1.00  0.00     0.050 A 
ATOM     18  C   UNL A   1      36.492  23.386  25.330  1.00  0.00     0.026 A 
ATOM     19  C   UNL A   1      36.462  23.417  23.937  1.00  0.00     0.017 A 
ATOM     20  C   UNL A   1      35.361  22.974  26.044  1.00  0.00     0.044 A 
ATOM     21  C   UNL A   1      35.382  22.859  23.263  1.00  0.00     0.003 A 
ATOM     22  C   UNL A   1      34.305  22.334  23.982  1.00  0.00     0.027 A 
BRANCH  18  23
ATOM     23  C   UNL A   1      37.729  23.687  25.983  1.00  0.00    -0.070 C 
ATOM     24  C   UNL A   1      38.685  24.072  26.596  1.00  0.00     0.010 C 
ENDBRANCH  18  23
ENDBRANCH  15  17
ENDBRANCH  12  15
ENDBRANCH   7  12
ENDBRANCH   4   6
ENDBRANCH   3   4
ENDBRANCH   2   3
ENDBRANCH   1   2
BRANCH   1  25
ATOM     25  O   UNL A   1      33.974  31.049  27.408  1.00  0.00    -0.374 OA
BRANCH  25  26
ATOM     26  C   UNL A   1      34.430  32.164  28.174  1.00  0.00     0.202 C 
BRANCH  26  27
ATOM     27  C   UNL A   1      35.392  31.875  29.332  1.00  0.00     0.261 C 
BRANCH  27  28
ATOM     28  O   UNL A   1      35.848  30.511  29.341  1.00  0.00    -0.460 OA
BRANCH  28  29
ATOM     29  C   UNL A   1      36.616  30.188  30.409  1.00  0.00     0.338 C 
ATOM     30  O   UNL A   1      36.242  29.876  31.526  1.00  0.00    -0.246 OA
BRANCH  29  31
ATOM     31  C   UNL A   1      38.026  30.090  29.994  1.00  0.00     0.060 A 
ATOM     32  C   UNL A   1      38.296  29.992  28.622  1.00  0.00     0.016 A 
ATOM     33  C   UNL A   1      39.058  30.011  30.930  1.00  0.00     0.016 A 
ATOM     34  C   UNL A   1      39.595  29.757  28.185  1.00  0.00     0.010 A 
ATOM     35  C   UNL A   1      40.362  29.776  30.488  1.00  0.00     0.010 A 
ATOM     36  C   UNL A   1      40.631  29.608  29.116  1.00  0.00    -0.014 A 
BRANCH  36  37
ATOM     37  C   UNL A   1      41.971  29.160  28.668  1.00  0.00     0.031 A 
ATOM     38  C   UNL A   1      42.176  27.720  28.282  1.00  0.00     0.074 A 
ATOM     39  C   UNL A   1      42.994  30.029  28.598  1.00  0.00     0.049 A 
ATOM     40  N   UNL A   1      43.273  27.105  27.925  1.00  0.00    -0.248 NA
ATOM     41  C   UNL A   1      40.984  26.859  28.311  1.00  0.00     0.031 C 
ATOM     42  C   UNL A   1      42.912  31.454  28.912  1.00  0.00     0.029 A 
ATOM     43  N   UNL A   1      44.306  29.834  28.249  1.00  0.00    -0.354 N 
ATOM     44  C   UNL A   1      42.909  25.782  27.700  1.00  0.00     0.074 A 
ATOM     45  C   UNL A   1      41.498  25.678  28.000  1.00  0.00     0.031 C 
ATOM     46  C   UNL A   1      44.126  32.006  28.747  1.00  0.00     0.029 A 
ATOM     47  C   UNL A   1      45.076  30.965  28.362  1.00  0.00     0.049 A 
ATOM     48  H   UNL A   1      44.662  28.966  27.948  1.00  0.00     0.167 HD
ATOM     49  C   UNL A   1      43.679  24.753  27.273  1.00  0.00     0.037 A 
ATOM     50  C   UNL A   1      46.403  31.135  28.200  1.00  0.00     0.037 A 
ATOM     51  C   UNL A   1      45.086  24.865  26.982  1.00  0.00     0.049 A 
ATOM     52  C   UNL A   1      47.254  29.958  27.803  1.00  0.00     0.074 A 
ATOM     53  C   UNL A   1      45.951  23.887  26.521  1.00  0.00     0.029 A 
ATOM     54  N   UNL A   1      45.838  26.020  27.138  1.00  0.00    -0.354 N 
ATOM     55  N   UNL A   1      46.897  28.719  27.566  1.00  0.00    -0.248 NA
ATOM     56  C   UNL A   1      48.695  30.207  27.649  1.00  0.00     0.031 C 
ATOM     57  C   UNL A   1      47.238  24.430  26.471  1.00  0.00     0.029 A 
ATOM     58  C   UNL A   1      47.164  25.769  26.820  1.00  0.00     0.049 A 
ATOM     59  H   UNL A   1      45.483  26.890  27.432  1.00  0.00     0.167 HD
ATOM     60  C   UNL A   1      48.059  28.050  27.199  1.00  0.00     0.074 A 
ATOM     61  C   UNL A   1      49.129  29.024  27.235  1.00  0.00     0.031 C 
ATOM     62  C   UNL A   1      48.223  26.748  26.856  1.00  0.00     0.037 A 
BRANCH  49  63
ATOM     63  C   UNL A   1      43.025  23.406  27.134  1.00  0.00     0.057 A 
ATOM     64  C   UNL A   1      42.851  22.543  28.225  1.00  0.00     0.134 A 
ATOM     65  C   UNL A   1      42.541  22.975  25.891  1.00  0.00     0.134 A 
ATOM     66  F   UNL A   1      43.297  22.886  29.443  1.00  0.00    -0.206 F 
ATOM     67  C   UNL A   1      42.255  21.288  28.078  1.00  0.00     0.040 A 
ATOM     68  C   UNL A   1      41.911  21.739  25.739  1.00  0.00     0.040 A 
ATOM     69  F   UNL A   1      42.664  23.752  24.805  1.00  0.00    -0.206 F 
ATOM     70  C   UNL A   1      41.777  20.886  26.832  1.00  0.00     0.006 A 
ENDBRANCH  49  63
BRANCH  50  71
ATOM     71  C   UNL A   1      47.009  32.472  28.425  1.00  0.00     0.057 A 
ATOM     72  C   UNL A   1      47.182  33.376  27.372  1.00  0.00     0.134 A 
ATOM     73  C   UNL A   1      47.434  32.877  29.697  1.00  0.00     0.134 A 
ATOM     74  F   UNL A   1      46.814  33.042  26.126  1.00  0.00    -0.206 F 
ATOM     75  C   UNL A   1      47.774  34.626  27.569  1.00  0.00     0.040 A 
ATOM     76  C   UNL A   1      47.997  34.134  29.916  1.00  0.00     0.040 A 
ATOM     77  F   UNL A   1      47.290  32.059  30.751  1.00  0.00    -0.206 F 
ATOM     78  C   UNL A   1      48.177  35.009  28.847  1.00  0.00     0.006 A 
ENDBRANCH  50  71
BRANCH  62  79
ATOM     79  C   UNL A   1      49.600  26.306  26.444  1.00  0.00     0.057 A 
ATOM     80  C   UNL A   1      50.058  26.414  25.124  1.00  0.00     0.134 A 
ATOM     81  C   UNL A   1      50.497  25.801  27.396  1.00  0.00     0.134 A 
ATOM     82  F   UNL A   1      49.249  26.880  24.159  1.00  0.00    -0.206 F 
ATOM     83  C   UNL A   1      51.344  26.009  24.760  1.00  0.00     0.040 A 
ATOM     84  C   UNL A   1      51.797  25.426  27.051  1.00  0.00     0.040 A 
ATOM     85  F   UNL A   1      50.132  25.679  28.680  1.00  0.00    -0.206 F 
ATOM     86  C   UNL A   1      52.221  25.520  25.728  1.00  0.00     0.006 A 
ENDBRANCH  62  79
ENDBRANCH  36  37
ENDBRANCH  29  31
ENDBRANCH  28  29
ENDBRANCH  27  28
ENDBRANCH  26  27
ENDBRANCH  25  26
ENDBRANCH   1  25
TORSDOF 18
ENDMDL
