MODEL 1
REMARK VINA RESULT:      -9.8      0.000      0.000
REMARK SMILES COc1nc(Cl)nc(N(CC(=O)OCCOCCOC(=O)c2ccc(-c3c4nc(c(-c5c(F)cccc5F)c5ccc([nH]5)c(-c5c(F)cccc5F)c5nc(c(-c6c(F)cccc6F)c6ccc3[nH]6)C=C5)C=C4)cc2)C(C)(C)C)n1
REMARK SMILES IDX 15 1 14 2 13 3 11 4 12 5 10 6 9 7 8 8 3 9 4 10 80 11 5 12
REMARK SMILES IDX 6 13 7 14 2 15 1 16 76 17 77 18 78 19 79 20 16 21 17 22
REMARK SMILES IDX 18 23 19 24 20 25 21 26 22 27 23 28 75 29 24 30 74 31 25 32
REMARK SMILES IDX 26 33 27 34 68 35 28 36 73 37 67 38 69 39 29 40 72 41 66 42
REMARK SMILES IDX 65 43 30 45 56 46 39 47 55 48 40 49 43 50 54 51 70 52 41 53
REMARK SMILES IDX 42 54 53 56 71 57 44 58 31 59 32 60 37 61 33 62 34 63 36 64
REMARK SMILES IDX 38 65 35 66 57 67 58 68 63 69 59 70 60 71 62 72 64 73 61 74
REMARK SMILES IDX 45 75 46 76 51 77 47 78 48 79 50 80 52 81 49 82
REMARK H PARENT 69 44 43 55
REMARK Flexibility Score: inf
ROOT
ATOM      1  C   UNL A   1      36.743  22.379  25.866  1.00  0.00     0.202 C 
ENDROOT
BRANCH   1   2
ATOM      2  C   UNL A   1      36.160  23.513  25.009  1.00  0.00     0.261 C 
BRANCH   2   3
ATOM      3  O   UNL A   1      34.762  23.338  24.660  1.00  0.00    -0.462 OA
BRANCH   3   4
ATOM      4  C   UNL A   1      34.496  23.378  23.323  1.00  0.00     0.325 C 
ATOM      5  O   UNL A   1      35.357  23.226  22.457  1.00  0.00    -0.250 OA
BRANCH   4   6
ATOM      6  C   UNL A   1      33.040  23.605  22.915  1.00  0.00     0.242 C 
BRANCH   6   7
ATOM      7  N   UNL A   1      32.444  24.939  23.134  1.00  0.00    -0.325 N 
BRANCH   7   8
ATOM      8  C   UNL A   1      32.167  25.262  24.463  1.00  0.00     0.233 A 
ATOM      9  C   UNL A   1      30.816  25.101  26.277  1.00  0.00     0.322 A 
ATOM     10  N   UNL A   1      31.373  26.102  26.927  1.00  0.00    -0.164 NA
ATOM     11  N   UNL A   1      31.182  24.633  25.091  1.00  0.00    -0.158 NA
ATOM     12  C   UNL A   1      32.390  26.601  26.249  1.00  0.00     0.230 A 
ATOM     13  Cl  UNL A   1      33.186  27.930  26.975  1.00  0.00    -0.041 Cl
ATOM     14  N   UNL A   1      32.833  26.250  25.045  1.00  0.00    -0.182 NA
BRANCH   9  15
ATOM     15  O   UNL A   1      29.758  24.447  26.866  1.00  0.00    -0.467 OA
ATOM     16  C   UNL A   1      30.005  23.046  26.873  1.00  0.00     0.282 C 
ENDBRANCH   9  15
ENDBRANCH   7   8
BRANCH   7  17
ATOM     17  C   UNL A   1      32.468  26.004  22.084  1.00  0.00     0.035 C 
ATOM     18  C   UNL A   1      31.159  26.819  22.134  1.00  0.00     0.034 C 
ATOM     19  C   UNL A   1      33.697  26.931  22.235  1.00  0.00     0.034 C 
ATOM     20  C   UNL A   1      32.596  25.425  20.657  1.00  0.00     0.034 C 
ENDBRANCH   7  17
ENDBRANCH   6   7
ENDBRANCH   4   6
ENDBRANCH   3   4
ENDBRANCH   2   3
ENDBRANCH   1   2
BRANCH   1  21
ATOM     21  O   UNL A   1      36.628  21.051  25.348  1.00  0.00    -0.374 OA
BRANCH  21  22
ATOM     22  C   UNL A   1      37.830  20.459  24.869  1.00  0.00     0.202 C 
BRANCH  22  23
ATOM     23  C   UNL A   1      39.110  20.843  25.621  1.00  0.00     0.261 C 
BRANCH  23  24
ATOM     24  O   UNL A   1      39.768  19.690  26.172  1.00  0.00    -0.460 OA
BRANCH  24  25
ATOM     25  C   UNL A   1      41.114  19.692  26.053  1.00  0.00     0.338 C 
ATOM     26  O   UNL A   1      41.809  18.873  25.466  1.00  0.00    -0.246 OA
BRANCH  25  27
ATOM     27  C   UNL A   1      41.657  20.954  26.579  1.00  0.00     0.060 A 
ATOM     28  C   UNL A   1      41.488  21.203  27.946  1.00  0.00     0.016 A 
ATOM     29  C   UNL A   1      42.265  21.902  25.752  1.00  0.00     0.016 A 
ATOM     30  C   UNL A   1      41.888  22.423  28.486  1.00  0.00     0.010 A 
ATOM     31  C   UNL A   1      42.657  23.132  26.295  1.00  0.00     0.010 A 
ATOM     32  C   UNL A   1      42.444  23.409  27.658  1.00  0.00    -0.014 A 
BRANCH  32  33
ATOM     33  C   UNL A   1      42.693  24.761  28.215  1.00  0.00     0.031 A 
ATOM     34  C   UNL A   1      44.089  25.148  28.616  1.00  0.00     0.074 A 
ATOM     35  C   UNL A   1      41.691  25.654  28.310  1.00  0.00     0.049 A 
ATOM     36  N   UNL A   1      44.532  26.289  29.079  1.00  0.00    -0.248 NA
ATOM     37  C   UNL A   1      45.124  24.113  28.471  1.00  0.00     0.031 C 
ATOM     38  C   UNL A   1      40.304  25.406  27.925  1.00  0.00     0.029 A 
ATOM     39  N   UNL A   1      41.693  26.951  28.756  1.00  0.00    -0.354 N 
ATOM     40  C   UNL A   1      45.896  26.114  29.273  1.00  0.00     0.074 A 
ATOM     41  C   UNL A   1      46.203  24.746  28.909  1.00  0.00     0.031 C 
ATOM     42  C   UNL A   1      39.583  26.517  28.156  1.00  0.00     0.029 A 
ATOM     43  C   UNL A   1      40.456  27.545  28.723  1.00  0.00     0.049 A 
ATOM     44  H   UNL A   1      42.503  27.412  29.069  1.00  0.00     0.167 HD
ATOM     45  C   UNL A   1      46.811  27.014  29.704  1.00  0.00     0.037 A 
ATOM     46  C   UNL A   1      40.068  28.772  29.119  1.00  0.00     0.037 A 
ATOM     47  C   UNL A   1      46.505  28.371  30.074  1.00  0.00     0.049 A 
ATOM     48  C   UNL A   1      41.092  29.730  29.668  1.00  0.00     0.074 A 
ATOM     49  C   UNL A   1      47.369  29.367  30.495  1.00  0.00     0.029 A 
ATOM     50  N   UNL A   1      45.231  28.917  30.080  1.00  0.00    -0.354 N 
ATOM     51  N   UNL A   1      42.386  29.567  29.804  1.00  0.00    -0.248 NA
ATOM     52  C   UNL A   1      40.602  31.040  30.119  1.00  0.00     0.031 C 
ATOM     53  C   UNL A   1      46.610  30.503  30.803  1.00  0.00     0.029 A 
ATOM     54  C   UNL A   1      45.280  30.226  30.531  1.00  0.00     0.049 A 
ATOM     55  H   UNL A   1      44.412  28.446  29.804  1.00  0.00     0.167 HD
ATOM     56  C   UNL A   1      42.866  30.756  30.340  1.00  0.00     0.074 A 
ATOM     57  C   UNL A   1      41.726  31.638  30.487  1.00  0.00     0.031 C 
ATOM     58  C   UNL A   1      44.135  31.088  30.680  1.00  0.00     0.037 A 
BRANCH  45  59
ATOM     59  C   UNL A   1      48.234  26.552  29.819  1.00  0.00     0.057 A 
ATOM     60  C   UNL A   1      49.161  26.753  28.788  1.00  0.00     0.134 A 
ATOM     61  C   UNL A   1      48.690  25.928  30.986  1.00  0.00     0.134 A 
ATOM     62  F   UNL A   1      48.784  27.334  27.638  1.00  0.00    -0.206 F 
ATOM     63  C   UNL A   1      50.487  26.332  28.907  1.00  0.00     0.040 A 
ATOM     64  C   UNL A   1      50.019  25.523  31.125  1.00  0.00     0.040 A 
ATOM     65  F   UNL A   1      47.855  25.709  32.013  1.00  0.00    -0.206 F 
ATOM     66  C   UNL A   1      50.920  25.720  30.081  1.00  0.00     0.006 A 
ENDBRANCH  45  59
BRANCH  46  67
ATOM     67  C   UNL A   1      38.640  29.165  29.025  1.00  0.00     0.057 A 
ATOM     68  C   UNL A   1      38.086  29.615  27.823  1.00  0.00     0.134 A 
ATOM     69  C   UNL A   1      37.800  29.113  30.144  1.00  0.00     0.134 A 
ATOM     70  F   UNL A   1      38.847  29.713  26.723  1.00  0.00    -0.206 F 
ATOM     71  C   UNL A   1      36.748  30.009  27.737  1.00  0.00     0.040 A 
ATOM     72  C   UNL A   1      36.455  29.480  30.068  1.00  0.00     0.040 A 
ATOM     73  F   UNL A   1      38.273  28.692  31.328  1.00  0.00    -0.206 F 
ATOM     74  C   UNL A   1      35.928  29.936  28.861  1.00  0.00     0.006 A 
ENDBRANCH  46  67
BRANCH  58  75
ATOM     75  C   UNL A   1      44.359  32.462  31.240  1.00  0.00     0.057 A 
ATOM     76  C   UNL A   1      44.337  32.707  32.618  1.00  0.00     0.134 A 
ATOM     77  C   UNL A   1      44.639  33.543  30.395  1.00  0.00     0.134 A 
ATOM     78  F   UNL A   1      44.061  31.715  33.480  1.00  0.00    -0.206 F 
ATOM     79  C   UNL A   1      44.567  33.983  33.136  1.00  0.00     0.040 A 
ATOM     80  C   UNL A   1      44.894  34.817  30.901  1.00  0.00     0.040 A 
ATOM     81  F   UNL A   1      44.683  33.374  29.064  1.00  0.00    -0.206 F 
ATOM     82  C   UNL A   1      44.854  35.041  32.276  1.00  0.00     0.006 A 
ENDBRANCH  58  75
ENDBRANCH  32  33
ENDBRANCH  25  27
ENDBRANCH  24  25
ENDBRANCH  23  24
ENDBRANCH  22  23
ENDBRANCH  21  22
ENDBRANCH   1  21
TORSDOF 18
ENDMDL
MODEL 2
REMARK VINA RESULT:      -9.8      3.925      8.353
REMARK SMILES COc1nc(Cl)nc(N(CC(=O)OCCOCCOC(=O)c2ccc(-c3c4nc(c(-c5c(F)cccc5F)c5ccc([nH]5)c(-c5c(F)cccc5F)c5nc(c(-c6c(F)cccc6F)c6ccc3[nH]6)C=C5)C=C4)cc2)C(C)(C)C)n1
REMARK SMILES IDX 15 1 14 2 13 3 11 4 12 5 10 6 9 7 8 8 3 9 4 10 80 11 5 12
REMARK SMILES IDX 6 13 7 14 2 15 1 16 76 17 77 18 78 19 79 20 16 21 17 22
REMARK SMILES IDX 18 23 19 24 20 25 21 26 22 27 23 28 75 29 24 30 74 31 25 32
REMARK SMILES IDX 26 33 27 34 68 35 28 36 73 37 67 38 69 39 29 40 72 41 66 42
REMARK SMILES IDX 65 43 30 45 56 46 39 47 55 48 40 49 43 50 54 51 70 52 41 53
REMARK SMILES IDX 42 54 53 56 71 57 44 58 31 59 32 60 37 61 33 62 34 63 36 64
REMARK SMILES IDX 38 65 35 66 57 67 58 68 63 69 59 70 60 71 62 72 64 73 61 74
REMARK SMILES IDX 45 75 46 76 51 77 47 78 48 79 50 80 52 81 49 82
REMARK H PARENT 69 44 43 55
REMARK Flexibility Score: inf
ROOT
ATOM      1  C   UNL A   1      30.410  28.242  23.278  1.00  0.00     0.202 C 
ENDROOT
BRANCH   1   2
ATOM      2  C   UNL A   1      30.952  27.093  22.416  1.00  0.00     0.261 C 
BRANCH   2   3
ATOM      3  O   UNL A   1      32.366  26.822  22.602  1.00  0.00    -0.462 OA
BRANCH   3   4
ATOM      4  C   UNL A   1      32.714  25.507  22.514  1.00  0.00     0.325 C 
ATOM      5  O   UNL A   1      33.775  25.119  22.025  1.00  0.00    -0.250 OA
BRANCH   4   6
ATOM      6  C   UNL A   1      31.722  24.490  23.081  1.00  0.00     0.242 C 
BRANCH   6   7
ATOM      7  N   UNL A   1      32.000  23.897  24.406  1.00  0.00    -0.325 N 
BRANCH   7   8
ATOM      8  C   UNL A   1      32.748  22.720  24.393  1.00  0.00     0.233 A 
ATOM      9  C   UNL A   1      32.855  20.464  24.601  1.00  0.00     0.322 A 
ATOM     10  N   UNL A   1      34.166  20.420  24.717  1.00  0.00    -0.164 NA
ATOM     11  N   UNL A   1      32.119  21.552  24.412  1.00  0.00    -0.158 NA
ATOM     12  C   UNL A   1      34.694  21.624  24.603  1.00  0.00     0.230 A 
ATOM     13  Cl  UNL A   1      36.395  21.707  24.764  1.00  0.00    -0.041 Cl
ATOM     14  N   UNL A   1      34.071  22.789  24.449  1.00  0.00    -0.182 NA
BRANCH   9  15
ATOM     15  O   UNL A   1      32.152  19.283  24.663  1.00  0.00    -0.467 OA
ATOM     16  C   UNL A   1      32.301  18.571  23.439  1.00  0.00     0.282 C 
ENDBRANCH   9  15
ENDBRANCH   7   8
BRANCH   7  17
ATOM     17  C   UNL A   1      31.820  24.667  25.676  1.00  0.00     0.035 C 
ATOM     18  C   UNL A   1      30.465  25.404  25.654  1.00  0.00     0.034 C 
ATOM     19  C   UNL A   1      31.927  23.754  26.920  1.00  0.00     0.034 C 
ATOM     20  C   UNL A   1      32.921  25.732  25.884  1.00  0.00     0.034 C 
ENDBRANCH   7  17
ENDBRANCH   6   7
ENDBRANCH   4   6
ENDBRANCH   3   4
ENDBRANCH   2   3
ENDBRANCH   1   2
BRANCH   1  21
ATOM     21  O   UNL A   1      31.313  29.312  23.573  1.00  0.00    -0.374 OA
BRANCH  21  22
ATOM     22  C   UNL A   1      31.355  29.741  24.929  1.00  0.00     0.202 C 
BRANCH  22  23
ATOM     23  C   UNL A   1      32.754  29.917  25.531  1.00  0.00     0.261 C 
BRANCH  23  24
ATOM     24  O   UNL A   1      32.694  30.265  26.924  1.00  0.00    -0.460 OA
BRANCH  24  25
ATOM     25  C   UNL A   1      33.372  31.383  27.262  1.00  0.00     0.338 C 
ATOM     26  O   UNL A   1      32.941  32.528  27.312  1.00  0.00    -0.246 OA
BRANCH  25  27
ATOM     27  C   UNL A   1      34.706  31.020  27.767  1.00  0.00     0.060 A 
ATOM     28  C   UNL A   1      34.892  29.699  28.192  1.00  0.00     0.016 A 
ATOM     29  C   UNL A   1      35.736  31.957  27.881  1.00  0.00     0.016 A 
ATOM     30  C   UNL A   1      36.099  29.319  28.774  1.00  0.00     0.010 A 
ATOM     31  C   UNL A   1      36.944  31.576  28.476  1.00  0.00     0.010 A 
ATOM     32  C   UNL A   1      37.121  30.263  28.951  1.00  0.00    -0.014 A 
BRANCH  32  33
ATOM     33  C   UNL A   1      38.323  29.885  29.735  1.00  0.00     0.031 A 
ATOM     34  C   UNL A   1      38.500  30.432  31.124  1.00  0.00     0.074 A 
ATOM     35  C   UNL A   1      39.219  29.017  29.233  1.00  0.00     0.049 A 
ATOM     36  N   UNL A   1      39.448  30.195  31.993  1.00  0.00    -0.248 NA
ATOM     37  C   UNL A   1      37.467  31.368  31.597  1.00  0.00     0.031 C 
ATOM     38  C   UNL A   1      39.140  28.397  27.912  1.00  0.00     0.029 A 
ATOM     39  N   UNL A   1      40.368  28.506  29.779  1.00  0.00    -0.354 N 
ATOM     40  C   UNL A   1      39.124  30.942  33.119  1.00  0.00     0.074 A 
ATOM     41  C   UNL A   1      37.910  31.668  32.810  1.00  0.00     0.031 C 
ATOM     42  C   UNL A   1      40.202  27.589  27.747  1.00  0.00     0.029 A 
ATOM     43  C   UNL A   1      41.043  27.652  28.942  1.00  0.00     0.049 A 
ATOM     44  H   UNL A   1      40.680  28.730  30.685  1.00  0.00     0.167 HD
ATOM     45  C   UNL A   1      39.775  31.009  34.305  1.00  0.00     0.037 A 
ATOM     46  C   UNL A   1      42.212  27.007  29.114  1.00  0.00     0.037 A 
ATOM     47  C   UNL A   1      40.986  30.294  34.609  1.00  0.00     0.049 A 
ATOM     48  C   UNL A   1      42.956  27.159  30.414  1.00  0.00     0.074 A 
ATOM     49  C   UNL A   1      41.703  30.275  35.794  1.00  0.00     0.029 A 
ATOM     50  N   UNL A   1      41.667  29.483  33.715  1.00  0.00    -0.354 N 
ATOM     51  N   UNL A   1      42.617  27.833  31.486  1.00  0.00    -0.248 NA
ATOM     52  C   UNL A   1      44.245  26.460  30.528  1.00  0.00     0.031 C 
ATOM     53  C   UNL A   1      42.845  29.490  35.600  1.00  0.00     0.029 A 
ATOM     54  C   UNL A   1      42.816  28.986  34.309  1.00  0.00     0.049 A 
ATOM     55  H   UNL A   1      41.378  29.288  32.795  1.00  0.00     0.167 HD
ATOM     56  C   UNL A   1      43.639  27.628  32.406  1.00  0.00     0.074 A 
ATOM     57  C   UNL A   1      44.602  26.752  31.771  1.00  0.00     0.031 C 
ATOM     58  C   UNL A   1      43.769  28.122  33.661  1.00  0.00     0.037 A 
BRANCH  45  59
ATOM     59  C   UNL A   1      39.195  31.904  35.360  1.00  0.00     0.057 A 
ATOM     60  C   UNL A   1      39.472  33.277  35.398  1.00  0.00     0.134 A 
ATOM     61  C   UNL A   1      38.324  31.394  36.330  1.00  0.00     0.134 A 
ATOM     62  F   UNL A   1      40.310  33.826  34.504  1.00  0.00    -0.206 F 
ATOM     63  C   UNL A   1      38.918  34.107  36.375  1.00  0.00     0.040 A 
ATOM     64  C   UNL A   1      37.746  32.218  37.298  1.00  0.00     0.040 A 
ATOM     65  F   UNL A   1      38.013  30.089  36.348  1.00  0.00    -0.206 F 
ATOM     66  C   UNL A   1      38.048  33.577  37.325  1.00  0.00     0.006 A 
ENDBRANCH  45  59
BRANCH  46  67
ATOM     67  C   UNL A   1      42.763  26.167  28.022  1.00  0.00     0.057 A 
ATOM     68  C   UNL A   1      42.403  24.824  27.883  1.00  0.00     0.134 A 
ATOM     69  C   UNL A   1      43.678  26.689  27.099  1.00  0.00     0.134 A 
ATOM     70  F   UNL A   1      41.551  24.260  28.752  1.00  0.00    -0.206 F 
ATOM     71  C   UNL A   1      42.938  24.024  26.871  1.00  0.00     0.040 A 
ATOM     72  C   UNL A   1      44.203  25.909  26.067  1.00  0.00     0.040 A 
ATOM     73  F   UNL A   1      44.066  27.971  27.180  1.00  0.00    -0.206 F 
ATOM     74  C   UNL A   1      43.837  24.569  25.956  1.00  0.00     0.006 A 
ENDBRANCH  46  67
BRANCH  58  75
ATOM     75  C   UNL A   1      44.993  27.722  34.432  1.00  0.00     0.057 A 
ATOM     76  C   UNL A   1      45.026  26.553  35.202  1.00  0.00     0.134 A 
ATOM     77  C   UNL A   1      46.161  28.491  34.372  1.00  0.00     0.134 A 
ATOM     78  F   UNL A   1      43.935  25.779  35.312  1.00  0.00    -0.206 F 
ATOM     79  C   UNL A   1      46.174  26.173  35.900  1.00  0.00     0.040 A 
ATOM     80  C   UNL A   1      47.322  28.109  35.045  1.00  0.00     0.040 A 
ATOM     81  F   UNL A   1      46.198  29.619  33.645  1.00  0.00    -0.206 F 
ATOM     82  C   UNL A   1      47.328  26.949  35.816  1.00  0.00     0.006 A 
ENDBRANCH  58  75
ENDBRANCH  32  33
ENDBRANCH  25  27
ENDBRANCH  24  25
ENDBRANCH  23  24
ENDBRANCH  22  23
ENDBRANCH  21  22
ENDBRANCH   1  21
TORSDOF 18
ENDMDL
MODEL 3
REMARK VINA RESULT:      -9.8      2.371      3.387
REMARK SMILES COc1nc(Cl)nc(N(CC(=O)OCCOCCOC(=O)c2ccc(-c3c4nc(c(-c5c(F)cccc5F)c5ccc([nH]5)c(-c5c(F)cccc5F)c5nc(c(-c6c(F)cccc6F)c6ccc3[nH]6)C=C5)C=C4)cc2)C(C)(C)C)n1
REMARK SMILES IDX 15 1 14 2 13 3 11 4 12 5 10 6 9 7 8 8 3 9 4 10 80 11 5 12
REMARK SMILES IDX 6 13 7 14 2 15 1 16 76 17 77 18 78 19 79 20 16 21 17 22
REMARK SMILES IDX 18 23 19 24 20 25 21 26 22 27 23 28 75 29 24 30 74 31 25 32
REMARK SMILES IDX 26 33 27 34 68 35 28 36 73 37 67 38 69 39 29 40 72 41 66 42
REMARK SMILES IDX 65 43 30 45 56 46 39 47 55 48 40 49 43 50 54 51 70 52 41 53
REMARK SMILES IDX 42 54 53 56 71 57 44 58 31 59 32 60 37 61 33 62 34 63 36 64
REMARK SMILES IDX 38 65 35 66 57 67 58 68 63 69 59 70 60 71 62 72 64 73 61 74
REMARK SMILES IDX 45 75 46 76 51 77 47 78 48 79 50 80 52 81 49 82
REMARK H PARENT 69 44 43 55
REMARK Flexibility Score: inf
ROOT
ATOM      1  C   UNL A   1      33.172  20.652  24.927  1.00  0.00     0.202 C 
ENDROOT
BRANCH   1   2
ATOM      2  C   UNL A   1      32.963  21.447  26.225  1.00  0.00     0.261 C 
BRANCH   2   3
ATOM      3  O   UNL A   1      33.101  22.884  26.074  1.00  0.00    -0.462 OA
BRANCH   3   4
ATOM      4  C   UNL A   1      31.937  23.585  26.177  1.00  0.00     0.325 C 
ATOM      5  O   UNL A   1      31.424  23.893  27.253  1.00  0.00    -0.250 OA
BRANCH   4   6
ATOM      6  C   UNL A   1      31.271  24.015  24.868  1.00  0.00     0.242 C 
BRANCH   6   7
ATOM      7  N   UNL A   1      31.982  24.971  23.994  1.00  0.00    -0.325 N 
BRANCH   7   8
ATOM      8  C   UNL A   1      31.998  26.293  24.438  1.00  0.00     0.233 A 
ATOM      9  C   UNL A   1      32.553  27.823  26.018  1.00  0.00     0.322 A 
ATOM     10  N   UNL A   1      31.781  28.774  25.536  1.00  0.00    -0.164 NA
ATOM     11  N   UNL A   1      32.718  26.609  25.507  1.00  0.00    -0.158 NA
ATOM     12  C   UNL A   1      31.176  28.381  24.431  1.00  0.00     0.230 A 
ATOM     13  Cl  UNL A   1      30.118  29.520  23.718  1.00  0.00    -0.041 Cl
ATOM     14  N   UNL A   1      31.227  27.190  23.840  1.00  0.00    -0.182 NA
BRANCH   9  15
ATOM     15  O   UNL A   1      33.283  28.085  27.155  1.00  0.00    -0.467 OA
ATOM     16  C   UNL A   1      34.360  28.962  26.841  1.00  0.00     0.282 C 
ENDBRANCH   9  15
ENDBRANCH   7   8
BRANCH   7  17
ATOM     17  C   UNL A   1      32.919  24.521  22.919  1.00  0.00     0.035 C 
ATOM     18  C   UNL A   1      32.829  25.478  21.712  1.00  0.00     0.034 C 
ATOM     19  C   UNL A   1      34.375  24.421  23.431  1.00  0.00     0.034 C 
ATOM     20  C   UNL A   1      32.593  23.099  22.406  1.00  0.00     0.034 C 
ENDBRANCH   7  17
ENDBRANCH   6   7
ENDBRANCH   4   6
ENDBRANCH   3   4
ENDBRANCH   2   3
ENDBRANCH   1   2
BRANCH   1  21
ATOM     21  O   UNL A   1      34.488  20.148  24.683  1.00  0.00    -0.374 OA
BRANCH  21  22
ATOM     22  C   UNL A   1      35.551  20.819  25.350  1.00  0.00     0.202 C 
BRANCH  22  23
ATOM     23  C   UNL A   1      36.966  20.334  25.010  1.00  0.00     0.261 C 
BRANCH  23  24
ATOM     24  O   UNL A   1      37.931  21.392  25.123  1.00  0.00    -0.460 OA
BRANCH  24  25
ATOM     25  C   UNL A   1      39.011  21.099  25.880  1.00  0.00     0.338 C 
ATOM     26  O   UNL A   1      39.600  20.028  25.953  1.00  0.00    -0.246 OA
BRANCH  25  27
ATOM     27  C   UNL A   1      39.534  22.329  26.495  1.00  0.00     0.060 A 
ATOM     28  C   UNL A   1      38.973  23.542  26.078  1.00  0.00     0.016 A 
ATOM     29  C   UNL A   1      40.587  22.310  27.413  1.00  0.00     0.016 A 
ATOM     30  C   UNL A   1      39.492  24.747  26.546  1.00  0.00     0.010 A 
ATOM     31  C   UNL A   1      41.115  23.522  27.874  1.00  0.00     0.010 A 
ATOM     32  C   UNL A   1      40.589  24.746  27.420  1.00  0.00    -0.014 A 
BRANCH  32  33
ATOM     33  C   UNL A   1      41.240  26.035  27.760  1.00  0.00     0.031 A 
ATOM     34  C   UNL A   1      42.648  26.294  27.303  1.00  0.00     0.074 A 
ATOM     35  C   UNL A   1      40.560  26.987  28.423  1.00  0.00     0.049 A 
ATOM     36  N   UNL A   1      43.384  27.365  27.452  1.00  0.00    -0.248 NA
ATOM     37  C   UNL A   1      43.313  25.201  26.577  1.00  0.00     0.031 C 
ATOM     38  C   UNL A   1      39.181  26.866  28.892  1.00  0.00     0.029 A 
ATOM     39  N   UNL A   1      40.940  28.247  28.812  1.00  0.00    -0.354 N 
ATOM     40  C   UNL A   1      44.594  27.081  26.832  1.00  0.00     0.074 A 
ATOM     41  C   UNL A   1      44.507  25.724  26.334  1.00  0.00     0.031 C 
ATOM     42  C   UNL A   1      38.830  28.006  29.511  1.00  0.00     0.029 A 
ATOM     43  C   UNL A   1      39.965  28.928  29.500  1.00  0.00     0.049 A 
ATOM     44  H   UNL A   1      41.826  28.627  28.617  1.00  0.00     0.167 HD
ATOM     45  C   UNL A   1      45.675  27.883  26.681  1.00  0.00     0.037 A 
ATOM     46  C   UNL A   1      39.992  30.148  30.067  1.00  0.00     0.037 A 
ATOM     47  C   UNL A   1      45.766  29.229  27.183  1.00  0.00     0.049 A 
ATOM     48  C   UNL A   1      41.234  30.990  29.952  1.00  0.00     0.074 A 
ATOM     49  C   UNL A   1      46.809  30.129  27.055  1.00  0.00     0.029 A 
ATOM     50  N   UNL A   1      44.778  29.861  27.922  1.00  0.00    -0.354 N 
ATOM     51  N   UNL A   1      42.355  30.728  29.326  1.00  0.00    -0.248 NA
ATOM     52  C   UNL A   1      41.215  32.298  30.625  1.00  0.00     0.031 C 
ATOM     53  C   UNL A   1      46.472  31.291  27.759  1.00  0.00     0.029 A 
ATOM     54  C   UNL A   1      45.202  31.129  28.288  1.00  0.00     0.049 A 
ATOM     55  H   UNL A   1      43.906  29.469  28.153  1.00  0.00     0.167 HD
ATOM     56  C   UNL A   1      43.167  31.840  29.513  1.00  0.00     0.074 A 
ATOM     57  C   UNL A   1      42.403  32.788  30.298  1.00  0.00     0.031 C 
ATOM     58  C   UNL A   1      44.432  32.057  29.077  1.00  0.00     0.037 A 
BRANCH  45  59
ATOM     59  C   UNL A   1      46.861  27.314  25.958  1.00  0.00     0.057 A 
ATOM     60  C   UNL A   1      47.846  26.574  26.623  1.00  0.00     0.134 A 
ATOM     61  C   UNL A   1      47.000  27.481  24.575  1.00  0.00     0.134 A 
ATOM     62  F   UNL A   1      47.778  26.388  27.950  1.00  0.00    -0.206 F 
ATOM     63  C   UNL A   1      48.940  26.036  25.940  1.00  0.00     0.040 A 
ATOM     64  C   UNL A   1      48.076  26.929  23.878  1.00  0.00     0.040 A 
ATOM     65  F   UNL A   1      46.088  28.175  23.877  1.00  0.00    -0.206 F 
ATOM     66  C   UNL A   1      49.053  26.209  24.562  1.00  0.00     0.006 A 
ENDBRANCH  45  59
BRANCH  46  67
ATOM     67  C   UNL A   1      38.807  30.647  30.809  1.00  0.00     0.057 A 
ATOM     68  C   UNL A   1      38.615  30.347  32.161  1.00  0.00     0.134 A 
ATOM     69  C   UNL A   1      37.831  31.425  30.175  1.00  0.00     0.134 A 
ATOM     70  F   UNL A   1      39.502  29.584  32.816  1.00  0.00    -0.206 F 
ATOM     71  C   UNL A   1      37.489  30.794  32.856  1.00  0.00     0.040 A 
ATOM     72  C   UNL A   1      36.712  31.899  30.862  1.00  0.00     0.040 A 
ATOM     73  F   UNL A   1      37.956  31.745  28.878  1.00  0.00    -0.206 F 
ATOM     74  C   UNL A   1      36.536  31.578  32.207  1.00  0.00     0.006 A 
ENDBRANCH  46  67
BRANCH  58  75
ATOM     75  C   UNL A   1      45.066  33.369  29.434  1.00  0.00     0.057 A 
ATOM     76  C   UNL A   1      45.846  33.519  30.586  1.00  0.00     0.134 A 
ATOM     77  C   UNL A   1      44.927  34.483  28.596  1.00  0.00     0.134 A 
ATOM     78  F   UNL A   1      46.006  32.493  31.437  1.00  0.00    -0.206 F 
ATOM     79  C   UNL A   1      46.452  34.736  30.903  1.00  0.00     0.040 A 
ATOM     80  C   UNL A   1      45.547  35.698  28.889  1.00  0.00     0.040 A 
ATOM     81  F   UNL A   1      44.200  34.404  27.472  1.00  0.00    -0.206 F 
ATOM     82  C   UNL A   1      46.309  35.828  30.049  1.00  0.00     0.006 A 
ENDBRANCH  58  75
ENDBRANCH  32  33
ENDBRANCH  25  27
ENDBRANCH  24  25
ENDBRANCH  23  24
ENDBRANCH  22  23
ENDBRANCH  21  22
ENDBRANCH   1  21
TORSDOF 18
ENDMDL
