MODEL 1
REMARK VINA RESULT:     -11.8      0.000      0.000
REMARK SMILES Nn1c(S[C@@H](C(=O)OCCOCCOC(=O)c2ccc(-c3c4nc(c(-c5c(F)cccc5F)c5ccc([nH]5)c(-c5c(F)cccc5F)c5nc(c(-c6c(F)cccc6F)c6ccc3[nH]6)C=C5)C=C4)cc2)c2ccccc2)nc2ccc(Br)cc2c1=O
REMARK SMILES IDX 10 1 9 2 8 3 6 4 7 5 5 6 4 7 3 8 2 9 85 10 77 11 84 12 86 13
REMARK SMILES IDX 78 14 83 15 79 16 81 17 80 18 82 19 1 20 71 23 72 24 76 25
REMARK SMILES IDX 73 26 75 27 74 28 11 29 12 30 13 31 14 32 15 33 16 34 17 35
REMARK SMILES IDX 18 36 70 37 19 38 69 39 20 40 21 41 22 42 63 43 23 44 68 45
REMARK SMILES IDX 62 46 64 47 24 48 67 49 61 50 60 51 25 53 51 54 34 55 50 56
REMARK SMILES IDX 35 57 38 58 49 59 65 60 36 61 37 62 48 64 66 65 39 66 26 67
REMARK SMILES IDX 27 68 32 69 28 70 29 71 31 72 33 73 30 74 52 75 53 76 58 77
REMARK SMILES IDX 54 78 55 79 57 80 59 81 56 82 40 83 41 84 46 85 42 86 43 87
REMARK SMILES IDX 45 88 47 89 44 90
REMARK H PARENT 1 21 1 22 64 52 38 63
REMARK Flexibility Score: inf
ROOT
ATOM      1  C   UNL A   1      37.322  22.183  24.787  1.00  0.00     0.202 C 
ENDROOT
BRANCH   1   2
ATOM      2  C   UNL A   1      35.973  22.520  25.422  1.00  0.00     0.261 C 
BRANCH   2   3
ATOM      3  O   UNL A   1      35.519  21.513  26.359  1.00  0.00    -0.462 OA
BRANCH   3   4
ATOM      4  C   UNL A   1      34.195  21.179  26.256  1.00  0.00     0.324 C 
ATOM      5  O   UNL A   1      33.435  21.221  27.222  1.00  0.00    -0.251 OA
BRANCH   4   6
ATOM      6  C   UNL A   1      33.789  20.575  24.886  1.00  0.00     0.194 C 
BRANCH   6   7
ATOM      7  S   UNL A   1      32.511  21.451  23.997  1.00  0.00    -0.066 SA
BRANCH   7   8
ATOM      8  C   UNL A   1      32.060  22.989  24.689  1.00  0.00     0.191 A 
ATOM      9  N   UNL A   1      30.997  23.230  25.568  1.00  0.00    -0.202 N 
ATOM     10  C   UNL A   1      30.771  24.504  26.108  1.00  0.00     0.280 A 
ATOM     11  N   UNL A   1      32.876  23.933  24.327  1.00  0.00    -0.222 NA
ATOM     12  C   UNL A   1      31.745  25.549  25.768  1.00  0.00     0.069 A 
ATOM     13  O   UNL A   1      29.842  24.746  26.879  1.00  0.00    -0.267 OA
ATOM     14  C   UNL A   1      32.756  25.211  24.875  1.00  0.00     0.079 A 
ATOM     15  C   UNL A   1      31.694  26.813  26.367  1.00  0.00     0.031 A 
ATOM     16  C   UNL A   1      33.723  26.170  24.559  1.00  0.00     0.030 A 
ATOM     17  C   UNL A   1      32.672  27.751  26.051  1.00  0.00     0.018 A 
ATOM     18  C   UNL A   1      33.685  27.439  25.144  1.00  0.00     0.018 A 
ATOM     19  Br  UNL A   1      32.641  29.454  26.870  1.00  0.00    -0.051 Br
BRANCH   9  20
ATOM     20  N   UNL A   1      30.178  22.202  26.128  1.00  0.00    -0.334 N 
ATOM     21  H   UNL A   1      30.005  21.377  25.618  1.00  0.00     0.178 HD
ATOM     22  H   UNL A   1      29.786  22.317  27.024  1.00  0.00     0.178 HD
ENDBRANCH   9  20
ENDBRANCH   7   8
ENDBRANCH   6   7
BRANCH   6  23
ATOM     23  C   UNL A   1      33.775  19.037  24.887  1.00  0.00    -0.023 A 
ATOM     24  C   UNL A   1      34.759  18.229  24.299  1.00  0.00     0.005 A 
ATOM     25  C   UNL A   1      32.619  18.394  25.372  1.00  0.00     0.005 A 
ATOM     26  C   UNL A   1      34.485  16.899  23.969  1.00  0.00     0.000 A 
ATOM     27  C   UNL A   1      32.368  17.052  25.093  1.00  0.00     0.000 A 
ATOM     28  C   UNL A   1      33.277  16.320  24.339  1.00  0.00     0.000 A 
ENDBRANCH   6  23
ENDBRANCH   4   6
ENDBRANCH   3   4
ENDBRANCH   2   3
ENDBRANCH   1   2
BRANCH   1  29
ATOM     29  O   UNL A   1      38.204  21.345  25.527  1.00  0.00    -0.374 OA
BRANCH  29  30
ATOM     30  C   UNL A   1      38.470  20.042  25.029  1.00  0.00     0.202 C 
BRANCH  30  31
ATOM     31  C   UNL A   1      39.529  19.205  25.753  1.00  0.00     0.261 C 
BRANCH  31  32
ATOM     32  O   UNL A   1      40.842  19.285  25.240  1.00  0.00    -0.460 OA
BRANCH  32  33
ATOM     33  C   UNL A   1      41.839  19.127  26.125  1.00  0.00     0.338 C 
ATOM     34  O   UNL A   1      42.451  18.116  26.411  1.00  0.00    -0.246 OA
BRANCH  33  35
ATOM     35  C   UNL A   1      42.154  20.503  26.524  1.00  0.00     0.060 A 
ATOM     36  C   UNL A   1      42.103  20.872  27.875  1.00  0.00     0.016 A 
ATOM     37  C   UNL A   1      42.347  21.446  25.515  1.00  0.00     0.016 A 
ATOM     38  C   UNL A   1      42.273  22.206  28.220  1.00  0.00     0.010 A 
ATOM     39  C   UNL A   1      42.536  22.777  25.864  1.00  0.00     0.010 A 
ATOM     40  C   UNL A   1      42.524  23.155  27.216  1.00  0.00    -0.014 A 
BRANCH  40  41
ATOM     41  C   UNL A   1      42.957  24.515  27.587  1.00  0.00     0.031 A 
ATOM     42  C   UNL A   1      41.975  25.574  27.966  1.00  0.00     0.074 A 
ATOM     43  C   UNL A   1      44.273  24.775  27.498  1.00  0.00     0.049 A 
ATOM     44  N   UNL A   1      42.197  26.824  28.275  1.00  0.00    -0.248 NA
ATOM     45  C   UNL A   1      40.557  25.186  27.989  1.00  0.00     0.031 C 
ATOM     46  C   UNL A   1      45.296  23.802  27.097  1.00  0.00     0.029 A 
ATOM     47  N   UNL A   1      44.977  25.925  27.722  1.00  0.00    -0.354 N 
ATOM     48  C   UNL A   1      40.952  27.377  28.536  1.00  0.00     0.074 A 
ATOM     49  C   UNL A   1      39.973  26.332  28.310  1.00  0.00     0.031 C 
ATOM     50  C   UNL A   1      46.497  24.395  27.115  1.00  0.00     0.029 A 
ATOM     51  C   UNL A   1      46.323  25.792  27.487  1.00  0.00     0.049 A 
ATOM     52  H   UNL A   1      44.559  26.765  28.023  1.00  0.00     0.167 HD
ATOM     53  C   UNL A   1      40.664  28.640  28.934  1.00  0.00     0.037 A 
ATOM     54  C   UNL A   1      47.303  26.707  27.549  1.00  0.00     0.037 A 
ATOM     55  C   UNL A   1      41.660  29.667  29.120  1.00  0.00     0.049 A 
ATOM     56  C   UNL A   1      46.946  28.108  27.949  1.00  0.00     0.074 A 
ATOM     57  C   UNL A   1      41.488  30.972  29.549  1.00  0.00     0.029 A 
ATOM     58  N   UNL A   1      43.016  29.508  28.867  1.00  0.00    -0.354 N 
ATOM     59  N   UNL A   1      45.773  28.605  28.264  1.00  0.00    -0.248 NA
ATOM     60  C   UNL A   1      48.048  29.074  28.006  1.00  0.00     0.031 C 
ATOM     61  C   UNL A   1      42.732  31.615  29.504  1.00  0.00     0.029 A 
ATOM     62  C   UNL A   1      43.689  30.697  29.102  1.00  0.00     0.049 A 
ATOM     63  H   UNL A   1      43.439  28.671  28.564  1.00  0.00     0.167 HD
ATOM     64  C   UNL A   1      45.998  29.937  28.577  1.00  0.00     0.074 A 
ATOM     65  C   UNL A   1      47.426  30.159  28.440  1.00  0.00     0.031 C 
ATOM     66  C   UNL A   1      45.109  30.893  28.944  1.00  0.00     0.037 A 
BRANCH  53  67
ATOM     67  C   UNL A   1      39.220  28.978  29.174  1.00  0.00     0.057 A 
ATOM     68  C   UNL A   1      38.423  29.499  28.146  1.00  0.00     0.134 A 
ATOM     69  C   UNL A   1      38.621  28.811  30.430  1.00  0.00     0.134 A 
ATOM     70  F   UNL A   1      38.931  29.692  26.921  1.00  0.00    -0.206 F 
ATOM     71  C   UNL A   1      37.084  29.835  28.358  1.00  0.00     0.040 A 
ATOM     72  C   UNL A   1      37.276  29.120  30.648  1.00  0.00     0.040 A 
ATOM     73  F   UNL A   1      39.323  28.309  31.457  1.00  0.00    -0.206 F 
ATOM     74  C   UNL A   1      36.505  29.639  29.610  1.00  0.00     0.006 A 
ENDBRANCH  53  67
BRANCH  54  75
ATOM     75  C   UNL A   1      48.702  26.324  27.241  1.00  0.00     0.057 A 
ATOM     76  C   UNL A   1      49.586  25.909  28.244  1.00  0.00     0.134 A 
ATOM     77  C   UNL A   1      49.185  26.363  25.929  1.00  0.00     0.134 A 
ATOM     78  F   UNL A   1      49.188  25.867  29.524  1.00  0.00    -0.206 F 
ATOM     79  C   UNL A   1      50.901  25.547  27.953  1.00  0.00     0.040 A 
ATOM     80  C   UNL A   1      50.489  25.975  25.620  1.00  0.00     0.040 A 
ATOM     81  F   UNL A   1      48.382  26.744  24.925  1.00  0.00    -0.206 F 
ATOM     82  C   UNL A   1      51.352  25.569  26.636  1.00  0.00     0.006 A 
ENDBRANCH  54  75
BRANCH  66  83
ATOM     83  C   UNL A   1      45.676  32.251  29.238  1.00  0.00     0.057 A 
ATOM     84  C   UNL A   1      46.135  32.569  30.521  1.00  0.00     0.134 A 
ATOM     85  C   UNL A   1      45.781  33.238  28.248  1.00  0.00     0.134 A 
ATOM     86  F   UNL A   1      46.057  31.670  31.515  1.00  0.00    -0.206 F 
ATOM     87  C   UNL A   1      46.685  33.818  30.810  1.00  0.00     0.040 A 
ATOM     88  C   UNL A   1      46.359  34.480  28.517  1.00  0.00     0.040 A 
ATOM     89  F   UNL A   1      45.379  32.989  26.993  1.00  0.00    -0.206 F 
ATOM     90  C   UNL A   1      46.809  34.773  29.803  1.00  0.00     0.006 A 
ENDBRANCH  66  83
ENDBRANCH  40  41
ENDBRANCH  33  35
ENDBRANCH  32  33
ENDBRANCH  31  32
ENDBRANCH  30  31
ENDBRANCH  29  30
ENDBRANCH   1  29
TORSDOF 18
ENDMDL
MODEL 2
REMARK VINA RESULT:     -11.7      1.445      6.203
REMARK SMILES Nn1c(S[C@@H](C(=O)OCCOCCOC(=O)c2ccc(-c3c4nc(c(-c5c(F)cccc5F)c5ccc([nH]5)c(-c5c(F)cccc5F)c5nc(c(-c6c(F)cccc6F)c6ccc3[nH]6)C=C5)C=C4)cc2)c2ccccc2)nc2ccc(Br)cc2c1=O
REMARK SMILES IDX 10 1 9 2 8 3 6 4 7 5 5 6 4 7 3 8 2 9 85 10 77 11 84 12 86 13
REMARK SMILES IDX 78 14 83 15 79 16 81 17 80 18 82 19 1 20 71 23 72 24 76 25
REMARK SMILES IDX 73 26 75 27 74 28 11 29 12 30 13 31 14 32 15 33 16 34 17 35
REMARK SMILES IDX 18 36 70 37 19 38 69 39 20 40 21 41 22 42 63 43 23 44 68 45
REMARK SMILES IDX 62 46 64 47 24 48 67 49 61 50 60 51 25 53 51 54 34 55 50 56
REMARK SMILES IDX 35 57 38 58 49 59 65 60 36 61 37 62 48 64 66 65 39 66 26 67
REMARK SMILES IDX 27 68 32 69 28 70 29 71 31 72 33 73 30 74 52 75 53 76 58 77
REMARK SMILES IDX 54 78 55 79 57 80 59 81 56 82 40 83 41 84 46 85 42 86 43 87
REMARK SMILES IDX 45 88 47 89 44 90
REMARK H PARENT 1 21 1 22 64 52 38 63
REMARK Flexibility Score: inf
ROOT
ATOM      1  C   UNL A   1      37.457  21.531  24.794  1.00  0.00     0.202 C 
ENDROOT
BRANCH   1   2
ATOM      2  C   UNL A   1      36.161  22.145  25.325  1.00  0.00     0.261 C 
BRANCH   2   3
ATOM      3  O   UNL A   1      35.516  21.327  26.332  1.00  0.00    -0.462 OA
BRANCH   3   4
ATOM      4  C   UNL A   1      34.173  21.132  26.148  1.00  0.00     0.324 C 
ATOM      5  O   UNL A   1      33.366  21.246  27.069  1.00  0.00    -0.251 OA
BRANCH   4   6
ATOM      6  C   UNL A   1      33.788  20.582  24.749  1.00  0.00     0.194 C 
BRANCH   6   7
ATOM      7  S   UNL A   1      32.660  21.592  23.801  1.00  0.00    -0.066 SA
BRANCH   7   8
ATOM      8  C   UNL A   1      32.163  23.071  24.583  1.00  0.00     0.191 A 
ATOM      9  N   UNL A   1      31.112  23.220  25.496  1.00  0.00    -0.202 N 
ATOM     10  C   UNL A   1      30.847  24.454  26.109  1.00  0.00     0.280 A 
ATOM     11  N   UNL A   1      32.932  24.065  24.257  1.00  0.00    -0.222 NA
ATOM     12  C   UNL A   1      31.771  25.554  25.806  1.00  0.00     0.069 A 
ATOM     13  O   UNL A   1      29.927  24.616  26.911  1.00  0.00    -0.267 OA
ATOM     14  C   UNL A   1      32.774  25.307  24.875  1.00  0.00     0.079 A 
ATOM     15  C   UNL A   1      31.683  26.781  26.473  1.00  0.00     0.031 A 
ATOM     16  C   UNL A   1      33.694  26.319  24.592  1.00  0.00     0.030 A 
ATOM     17  C   UNL A   1      32.615  27.775  26.188  1.00  0.00     0.018 A 
ATOM     18  C   UNL A   1      33.619  27.553  25.245  1.00  0.00     0.018 A 
ATOM     19  Br  UNL A   1      32.534  29.428  27.098  1.00  0.00    -0.051 Br
BRANCH   9  20
ATOM     20  N   UNL A   1      30.348  22.131  26.017  1.00  0.00    -0.334 N 
ATOM     21  H   UNL A   1      30.713  21.576  26.743  1.00  0.00     0.178 HD
ATOM     22  H   UNL A   1      29.456  21.934  25.649  1.00  0.00     0.178 HD
ENDBRANCH   9  20
ENDBRANCH   7   8
ENDBRANCH   6   7
BRANCH   6  23
ATOM     23  C   UNL A   1      33.618  19.054  24.730  1.00  0.00    -0.023 A 
ATOM     24  C   UNL A   1      32.478  18.372  25.180  1.00  0.00     0.005 A 
ATOM     25  C   UNL A   1      34.741  18.276  24.386  1.00  0.00     0.005 A 
ATOM     26  C   UNL A   1      32.546  17.020  25.524  1.00  0.00     0.000 A 
ATOM     27  C   UNL A   1      34.791  16.914  24.677  1.00  0.00     0.000 A 
ATOM     28  C   UNL A   1      33.713  16.299  25.301  1.00  0.00     0.000 A 
ENDBRANCH   6  23
ENDBRANCH   4   6
ENDBRANCH   3   4
ENDBRANCH   2   3
ENDBRANCH   1   2
BRANCH   1  29
ATOM     29  O   UNL A   1      37.495  20.116  24.637  1.00  0.00    -0.374 OA
BRANCH  29  30
ATOM     30  C   UNL A   1      38.524  19.394  25.298  1.00  0.00     0.202 C 
BRANCH  30  31
ATOM     31  C   UNL A   1      39.779  20.167  25.716  1.00  0.00     0.261 C 
BRANCH  31  32
ATOM     32  O   UNL A   1      40.825  19.400  26.275  1.00  0.00    -0.460 OA
BRANCH  32  33
ATOM     33  C   UNL A   1      42.070  19.711  25.881  1.00  0.00     0.338 C 
ATOM     34  O   UNL A   1      42.792  19.121  25.102  1.00  0.00    -0.246 OA
BRANCH  33  35
ATOM     35  C   UNL A   1      42.281  21.042  26.459  1.00  0.00     0.060 A 
ATOM     36  C   UNL A   1      42.052  21.261  27.825  1.00  0.00     0.016 A 
ATOM     37  C   UNL A   1      42.561  22.095  25.588  1.00  0.00     0.016 A 
ATOM     38  C   UNL A   1      42.129  22.552  28.326  1.00  0.00     0.010 A 
ATOM     39  C   UNL A   1      42.655  23.384  26.096  1.00  0.00     0.010 A 
ATOM     40  C   UNL A   1      42.464  23.612  27.468  1.00  0.00    -0.014 A 
BRANCH  40  41
ATOM     41  C   UNL A   1      42.797  24.933  28.031  1.00  0.00     0.031 A 
ATOM     42  C   UNL A   1      44.178  25.263  28.491  1.00  0.00     0.074 A 
ATOM     43  C   UNL A   1      41.780  25.802  28.176  1.00  0.00     0.049 A 
ATOM     44  N   UNL A   1      44.617  26.363  29.045  1.00  0.00    -0.248 NA
ATOM     45  C   UNL A   1      45.201  24.220  28.320  1.00  0.00     0.031 C 
ATOM     46  C   UNL A   1      40.390  25.540  27.786  1.00  0.00     0.029 A 
ATOM     47  N   UNL A   1      41.747  27.064  28.697  1.00  0.00    -0.354 N 
ATOM     48  C   UNL A   1      45.967  26.153  29.287  1.00  0.00     0.074 A 
ATOM     49  C   UNL A   1      46.267  24.803  28.853  1.00  0.00     0.031 C 
ATOM     50  C   UNL A   1      39.644  26.615  28.072  1.00  0.00     0.029 A 
ATOM     51  C   UNL A   1      40.492  27.618  28.699  1.00  0.00     0.049 A 
ATOM     52  H   UNL A   1      42.546  27.530  29.037  1.00  0.00     0.167 HD
ATOM     53  C   UNL A   1      46.865  27.019  29.816  1.00  0.00     0.037 A 
ATOM     54  C   UNL A   1      40.073  28.803  29.174  1.00  0.00     0.037 A 
ATOM     55  C   UNL A   1      46.528  28.347  30.268  1.00  0.00     0.049 A 
ATOM     56  C   UNL A   1      41.085  29.720  29.796  1.00  0.00     0.074 A 
ATOM     57  C   UNL A   1      47.361  29.320  30.792  1.00  0.00     0.029 A 
ATOM     58  N   UNL A   1      45.246  28.881  30.265  1.00  0.00    -0.354 N 
ATOM     59  N   UNL A   1      42.374  29.541  29.955  1.00  0.00    -0.248 NA
ATOM     60  C   UNL A   1      40.583  31.003  30.298  1.00  0.00     0.031 C 
ATOM     61  C   UNL A   1      46.574  30.421  31.155  1.00  0.00     0.029 A 
ATOM     62  C   UNL A   1      45.259  30.157  30.805  1.00  0.00     0.049 A 
ATOM     63  H   UNL A   1      44.443  28.419  29.928  1.00  0.00     0.167 HD
ATOM     64  C   UNL A   1      42.844  30.699  30.558  1.00  0.00     0.074 A 
ATOM     65  C   UNL A   1      41.702  31.581  30.708  1.00  0.00     0.031 C 
ATOM     66  C   UNL A   1      44.104  31.007  30.955  1.00  0.00     0.037 A 
BRANCH  53  67
ATOM     67  C   UNL A   1      48.285  26.546  29.949  1.00  0.00     0.057 A 
ATOM     68  C   UNL A   1      48.705  25.844  31.086  1.00  0.00     0.134 A 
ATOM     69  C   UNL A   1      49.246  26.806  28.962  1.00  0.00     0.134 A 
ATOM     70  F   UNL A   1      47.842  25.566  32.074  1.00  0.00    -0.206 F 
ATOM     71  C   UNL A   1      50.026  25.414  31.234  1.00  0.00     0.040 A 
ATOM     72  C   UNL A   1      50.563  26.358  29.086  1.00  0.00     0.040 A 
ATOM     73  F   UNL A   1      48.911  27.465  27.843  1.00  0.00    -0.206 F 
ATOM     74  C   UNL A   1      50.958  25.664  30.228  1.00  0.00     0.006 A 
ENDBRANCH  53  67
BRANCH  54  75
ATOM     75  C   UNL A   1      38.645  29.186  29.067  1.00  0.00     0.057 A 
ATOM     76  C   UNL A   1      37.782  29.110  30.167  1.00  0.00     0.134 A 
ATOM     77  C   UNL A   1      38.110  29.640  27.857  1.00  0.00     0.134 A 
ATOM     78  F   UNL A   1      38.230  28.666  31.351  1.00  0.00    -0.206 F 
ATOM     79  C   UNL A   1      36.439  29.473  30.067  1.00  0.00     0.040 A 
ATOM     80  C   UNL A   1      36.777  30.033  27.750  1.00  0.00     0.040 A 
ATOM     81  F   UNL A   1      38.891  29.742  26.770  1.00  0.00    -0.206 F 
ATOM     82  C   UNL A   1      35.935  29.946  28.858  1.00  0.00     0.006 A 
ENDBRANCH  54  75
BRANCH  66  83
ATOM     83  C   UNL A   1      44.294  32.365  31.566  1.00  0.00     0.057 A 
ATOM     84  C   UNL A   1      44.571  33.476  30.761  1.00  0.00     0.134 A 
ATOM     85  C   UNL A   1      44.190  32.575  32.948  1.00  0.00     0.134 A 
ATOM     86  F   UNL A   1      44.691  33.342  29.431  1.00  0.00    -0.206 F 
ATOM     87  C   UNL A   1      44.731  34.749  31.307  1.00  0.00     0.040 A 
ATOM     88  C   UNL A   1      44.316  33.849  33.502  1.00  0.00     0.040 A 
ATOM     89  F   UNL A   1      43.905  31.555  33.771  1.00  0.00    -0.206 F 
ATOM     90  C   UNL A   1      44.591  34.940  32.680  1.00  0.00     0.006 A 
ENDBRANCH  66  83
ENDBRANCH  40  41
ENDBRANCH  33  35
ENDBRANCH  32  33
ENDBRANCH  31  32
ENDBRANCH  30  31
ENDBRANCH  29  30
ENDBRANCH   1  29
TORSDOF 18
ENDMDL
MODEL 3
REMARK VINA RESULT:     -11.6      5.270     10.437
REMARK SMILES Nn1c(S[C@@H](C(=O)OCCOCCOC(=O)c2ccc(-c3c4nc(c(-c5c(F)cccc5F)c5ccc([nH]5)c(-c5c(F)cccc5F)c5nc(c(-c6c(F)cccc6F)c6ccc3[nH]6)C=C5)C=C4)cc2)c2ccccc2)nc2ccc(Br)cc2c1=O
REMARK SMILES IDX 10 1 9 2 8 3 6 4 7 5 5 6 4 7 3 8 2 9 85 10 77 11 84 12 86 13
REMARK SMILES IDX 78 14 83 15 79 16 81 17 80 18 82 19 1 20 71 23 72 24 76 25
REMARK SMILES IDX 73 26 75 27 74 28 11 29 12 30 13 31 14 32 15 33 16 34 17 35
REMARK SMILES IDX 18 36 70 37 19 38 69 39 20 40 21 41 22 42 63 43 23 44 68 45
REMARK SMILES IDX 62 46 64 47 24 48 67 49 61 50 60 51 25 53 51 54 34 55 50 56
REMARK SMILES IDX 35 57 38 58 49 59 65 60 36 61 37 62 48 64 66 65 39 66 26 67
REMARK SMILES IDX 27 68 32 69 28 70 29 71 31 72 33 73 30 74 52 75 53 76 58 77
REMARK SMILES IDX 54 78 55 79 57 80 59 81 56 82 40 83 41 84 46 85 42 86 43 87
REMARK SMILES IDX 45 88 47 89 44 90
REMARK H PARENT 1 21 1 22 64 52 38 63
REMARK Flexibility Score: inf
ROOT
ATOM      1  C   UNL A   1      32.031  29.674  27.192  1.00  0.00     0.202 C 
ENDROOT
BRANCH   1   2
ATOM      2  C   UNL A   1      32.108  28.659  26.052  1.00  0.00     0.261 C 
BRANCH   2   3
ATOM      3  O   UNL A   1      32.729  29.194  24.857  1.00  0.00    -0.462 OA
BRANCH   3   4
ATOM      4  C   UNL A   1      32.097  28.879  23.684  1.00  0.00     0.324 C 
ATOM      5  O   UNL A   1      32.693  28.856  22.608  1.00  0.00    -0.251 OA
BRANCH   4   6
ATOM      6  C   UNL A   1      30.556  28.742  23.801  1.00  0.00     0.194 C 
BRANCH   6   7
ATOM      7  S   UNL A   1      29.901  27.097  23.558  1.00  0.00    -0.066 SA
BRANCH   7   8
ATOM      8  C   UNL A   1      31.106  25.843  23.405  1.00  0.00     0.191 A 
ATOM      9  N   UNL A   1      31.833  25.520  22.253  1.00  0.00    -0.202 N 
ATOM     10  C   UNL A   1      32.824  24.528  22.269  1.00  0.00     0.280 A 
ATOM     11  N   UNL A   1      31.309  25.235  24.535  1.00  0.00    -0.222 NA
ATOM     12  C   UNL A   1      33.112  23.904  23.566  1.00  0.00     0.069 A 
ATOM     13  O   UNL A   1      33.475  24.219  21.270  1.00  0.00    -0.267 OA
ATOM     14  C   UNL A   1      32.324  24.284  24.647  1.00  0.00     0.079 A 
ATOM     15  C   UNL A   1      34.178  23.009  23.721  1.00  0.00     0.031 A 
ATOM     16  C   UNL A   1      32.598  23.739  25.905  1.00  0.00     0.030 A 
ATOM     17  C   UNL A   1      34.444  22.485  24.983  1.00  0.00     0.018 A 
ATOM     18  C   UNL A   1      33.655  22.841  26.077  1.00  0.00     0.018 A 
ATOM     19  Br  UNL A   1      35.895  21.300  25.222  1.00  0.00    -0.051 Br
BRANCH   9  20
ATOM     20  N   UNL A   1      31.770  26.267  21.036  1.00  0.00    -0.334 N 
ATOM     21  H   UNL A   1      32.051  25.852  20.189  1.00  0.00     0.178 HD
ATOM     22  H   UNL A   1      31.447  27.196  21.045  1.00  0.00     0.178 HD
ENDBRANCH   9  20
ENDBRANCH   7   8
ENDBRANCH   6   7
BRANCH   6  23
ATOM     23  C   UNL A   1      29.799  29.940  23.206  1.00  0.00    -0.023 A 
ATOM     24  C   UNL A   1      29.303  31.021  23.951  1.00  0.00     0.005 A 
ATOM     25  C   UNL A   1      29.438  29.876  21.846  1.00  0.00     0.005 A 
ATOM     26  C   UNL A   1      28.291  31.835  23.438  1.00  0.00     0.000 A 
ATOM     27  C   UNL A   1      28.467  30.724  21.316  1.00  0.00     0.000 A 
ATOM     28  C   UNL A   1      27.851  31.666  22.130  1.00  0.00     0.000 A 
ENDBRANCH   6  23
ENDBRANCH   4   6
ENDBRANCH   3   4
ENDBRANCH   2   3
ENDBRANCH   1   2
BRANCH   1  29
ATOM     29  O   UNL A   1      31.860  31.044  26.840  1.00  0.00    -0.374 OA
BRANCH  29  30
ATOM     30  C   UNL A   1      32.852  31.973  27.255  1.00  0.00     0.202 C 
BRANCH  30  31
ATOM     31  C   UNL A   1      32.451  33.448  27.348  1.00  0.00     0.261 C 
BRANCH  31  32
ATOM     32  O   UNL A   1      32.467  34.017  28.640  1.00  0.00    -0.460 OA
BRANCH  32  33
ATOM     33  C   UNL A   1      33.375  34.980  28.858  1.00  0.00     0.338 C 
ATOM     34  O   UNL A   1      33.232  36.187  28.815  1.00  0.00    -0.246 OA
BRANCH  33  35
ATOM     35  C   UNL A   1      34.539  34.238  29.354  1.00  0.00     0.060 A 
ATOM     36  C   UNL A   1      35.796  34.423  28.764  1.00  0.00     0.016 A 
ATOM     37  C   UNL A   1      34.319  33.246  30.311  1.00  0.00     0.016 A 
ATOM     38  C   UNL A   1      36.855  33.617  29.158  1.00  0.00     0.010 A 
ATOM     39  C   UNL A   1      35.385  32.453  30.716  1.00  0.00     0.010 A 
ATOM     40  C   UNL A   1      36.658  32.653  30.159  1.00  0.00    -0.014 A 
BRANCH  40  41
ATOM     41  C   UNL A   1      37.821  31.974  30.761  1.00  0.00     0.031 A 
ATOM     42  C   UNL A   1      38.547  30.883  30.047  1.00  0.00     0.074 A 
ATOM     43  C   UNL A   1      38.152  32.338  32.013  1.00  0.00     0.049 A 
ATOM     44  N   UNL A   1      39.557  30.164  30.460  1.00  0.00    -0.248 NA
ATOM     45  C   UNL A   1      38.070  30.541  28.698  1.00  0.00     0.031 C 
ATOM     46  C   UNL A   1      37.466  33.372  32.795  1.00  0.00     0.029 A 
ATOM     47  N   UNL A   1      39.127  31.879  32.852  1.00  0.00    -0.354 N 
ATOM     48  C   UNL A   1      39.847  29.286  29.425  1.00  0.00     0.074 A 
ATOM     49  C   UNL A   1      38.877  29.538  28.377  1.00  0.00     0.031 C 
ATOM     50  C   UNL A   1      38.051  33.475  33.996  1.00  0.00     0.029 A 
ATOM     51  C   UNL A   1      39.120  32.491  34.079  1.00  0.00     0.049 A 
ATOM     52  H   UNL A   1      39.772  31.178  32.599  1.00  0.00     0.167 HD
ATOM     53  C   UNL A   1      40.838  28.364  29.363  1.00  0.00     0.037 A 
ATOM     54  C   UNL A   1      39.886  32.266  35.160  1.00  0.00     0.037 A 
ATOM     55  C   UNL A   1      41.769  28.116  30.436  1.00  0.00     0.049 A 
ATOM     56  C   UNL A   1      40.945  31.206  35.074  1.00  0.00     0.074 A 
ATOM     57  C   UNL A   1      42.831  27.229  30.474  1.00  0.00     0.029 A 
ATOM     58  N   UNL A   1      41.734  28.746  31.674  1.00  0.00    -0.354 N 
ATOM     59  N   UNL A   1      41.258  30.430  34.065  1.00  0.00    -0.248 NA
ATOM     60  C   UNL A   1      41.759  30.996  36.276  1.00  0.00     0.031 C 
ATOM     61  C   UNL A   1      43.404  27.285  31.751  1.00  0.00     0.029 A 
ATOM     62  C   UNL A   1      42.736  28.247  32.492  1.00  0.00     0.049 A 
ATOM     63  H   UNL A   1      41.091  29.445  31.933  1.00  0.00     0.167 HD
ATOM     64  C   UNL A   1      42.320  29.652  34.502  1.00  0.00     0.074 A 
ATOM     65  C   UNL A   1      42.611  30.074  35.859  1.00  0.00     0.031 C 
ATOM     66  C   UNL A   1      42.994  28.676  33.844  1.00  0.00     0.037 A 
BRANCH  53  67
ATOM     67  C   UNL A   1      40.949  27.552  28.104  1.00  0.00     0.057 A 
ATOM     68  C   UNL A   1      41.722  27.999  27.026  1.00  0.00     0.134 A 
ATOM     69  C   UNL A   1      40.271  26.335  27.948  1.00  0.00     0.134 A 
ATOM     70  F   UNL A   1      42.393  29.158  27.102  1.00  0.00    -0.206 F 
ATOM     71  C   UNL A   1      41.821  27.265  25.841  1.00  0.00     0.040 A 
ATOM     72  C   UNL A   1      40.383  25.578  26.779  1.00  0.00     0.040 A 
ATOM     73  F   UNL A   1      39.519  25.842  28.944  1.00  0.00    -0.206 F 
ATOM     74  C   UNL A   1      41.156  26.047  25.719  1.00  0.00     0.006 A 
ENDBRANCH  53  67
BRANCH  54  75
ATOM     75  C   UNL A   1      39.686  33.061  36.394  1.00  0.00     0.057 A 
ATOM     76  C   UNL A   1      40.426  34.223  36.646  1.00  0.00     0.134 A 
ATOM     77  C   UNL A   1      38.743  32.676  37.353  1.00  0.00     0.134 A 
ATOM     78  F   UNL A   1      41.358  34.635  35.773  1.00  0.00    -0.206 F 
ATOM     79  C   UNL A   1      40.236  34.973  37.806  1.00  0.00     0.040 A 
ATOM     80  C   UNL A   1      38.522  33.433  38.504  1.00  0.00     0.040 A 
ATOM     81  F   UNL A   1      37.998  31.577  37.164  1.00  0.00    -0.206 F 
ATOM     82  C   UNL A   1      39.274  34.583  38.735  1.00  0.00     0.006 A 
ENDBRANCH  54  75
BRANCH  66  83
ATOM     83  C   UNL A   1      44.120  28.026  34.593  1.00  0.00     0.057 A 
ATOM     84  C   UNL A   1      43.908  26.847  35.317  1.00  0.00     0.134 A 
ATOM     85  C   UNL A   1      45.417  28.558  34.586  1.00  0.00     0.134 A 
ATOM     86  F   UNL A   1      42.688  26.289  35.370  1.00  0.00    -0.206 F 
ATOM     87  C   UNL A   1      44.945  26.215  36.003  1.00  0.00     0.040 A 
ATOM     88  C   UNL A   1      46.470  27.918  35.242  1.00  0.00     0.040 A 
ATOM     89  F   UNL A   1      45.691  29.673  33.894  1.00  0.00    -0.206 F 
ATOM     90  C   UNL A   1      46.233  26.745  35.956  1.00  0.00     0.006 A 
ENDBRANCH  66  83
ENDBRANCH  40  41
ENDBRANCH  33  35
ENDBRANCH  32  33
ENDBRANCH  31  32
ENDBRANCH  30  31
ENDBRANCH  29  30
ENDBRANCH   1  29
TORSDOF 18
ENDMDL
