MODEL 1
REMARK VINA RESULT:     -11.9      0.000      0.000
REMARK SMILES O=C(OCCOCCOC(=O)[C@H]1C[N@H+](Cc2ccc(Cl)c(Cl)c2)CC12CCCCC2)c1ccc(-c2c3nc(c(-c4c(F)cccc4F)c4ccc([nH]4)c(-c4c(F)cccc4F)c4nc(c(-c5c(F)cccc5F)c5ccc2[nH]5)C=C4)C=C3)cc1
REMARK SMILES IDX 6 1 5 2 4 3 3 4 2 5 1 6 31 7 32 8 84 9 33 10 83 11 34 12
REMARK SMILES IDX 35 13 36 14 77 15 37 16 82 17 76 18 78 19 38 20 81 21 75 22
REMARK SMILES IDX 74 23 39 25 65 26 48 27 64 28 49 29 52 30 63 31 79 32 50 33
REMARK SMILES IDX 51 34 62 36 80 37 53 38 40 39 41 40 46 41 42 42 43 43 45 44
REMARK SMILES IDX 47 45 44 46 66 47 67 48 72 49 68 50 69 51 71 52 73 53 70 54
REMARK SMILES IDX 54 55 55 56 60 57 56 58 57 59 59 60 61 61 58 62 7 63 8 64
REMARK SMILES IDX 9 65 10 66 11 67 12 68 13 69 25 70 14 71 24 72 26 73 30 74
REMARK SMILES IDX 27 76 29 77 28 78 15 79 16 80 17 81 23 82 18 83 21 84 19 85
REMARK SMILES IDX 22 86 20 87
REMARK H PARENT 78 24 52 35 14 75
REMARK Flexibility Score: inf
ROOT
ATOM      1  O   UNL A   1      39.450  21.491  25.749  1.00  0.00    -0.374 OA
ENDROOT
BRANCH   1   2
ATOM      2  C   UNL A   1      40.379  20.978  26.677  1.00  0.00     0.202 C 
BRANCH   2   3
ATOM      3  C   UNL A   1      41.779  20.754  26.127  1.00  0.00     0.261 C 
BRANCH   3   4
ATOM      4  O   UNL A   1      42.667  21.784  26.585  1.00  0.00    -0.460 OA
BRANCH   4   5
ATOM      5  C   UNL A   1      42.690  23.033  26.044  1.00  0.00     0.338 C 
ATOM      6  O   UNL A   1      42.826  23.202  24.839  1.00  0.00    -0.246 OA
BRANCH   5   7
ATOM      7  C   UNL A   1      42.414  24.197  26.917  1.00  0.00     0.060 A 
ATOM      8  C   UNL A   1      41.611  24.099  28.050  1.00  0.00     0.016 A 
ATOM      9  C   UNL A   1      43.018  25.416  26.627  1.00  0.00     0.016 A 
ATOM     10  C   UNL A   1      41.208  25.200  28.756  1.00  0.00     0.010 A 
ATOM     11  C   UNL A   1      42.804  26.495  27.484  1.00  0.00     0.010 A 
ATOM     12  C   UNL A   1      41.893  26.377  28.551  1.00  0.00    -0.014 A 
BRANCH  12  13
ATOM     13  C   UNL A   1      41.642  27.464  29.499  1.00  0.00     0.031 A 
ATOM     14  C   UNL A   1      42.530  27.558  30.682  1.00  0.00     0.074 A 
ATOM     15  C   UNL A   1      40.659  28.349  29.244  1.00  0.00     0.049 A 
ATOM     16  N   UNL A   1      42.345  28.202  31.795  1.00  0.00    -0.248 NA
ATOM     17  C   UNL A   1      43.786  26.791  30.613  1.00  0.00     0.031 C 
ATOM     18  C   UNL A   1      39.848  28.403  28.017  1.00  0.00     0.029 A 
ATOM     19  N   UNL A   1      40.174  29.381  29.996  1.00  0.00    -0.354 N 
ATOM     20  C   UNL A   1      43.417  27.848  32.599  1.00  0.00     0.074 A 
ATOM     21  C   UNL A   1      44.254  26.946  31.840  1.00  0.00     0.031 C 
ATOM     22  C   UNL A   1      38.985  29.423  28.097  1.00  0.00     0.029 A 
ATOM     23  C   UNL A   1      39.088  30.000  29.425  1.00  0.00     0.049 A 
ATOM     24  H   UNL A   1      40.564  29.654  30.858  1.00  0.00     0.167 HD
ATOM     25  C   UNL A   1      43.635  28.235  33.874  1.00  0.00     0.037 A 
ATOM     26  C   UNL A   1      38.220  30.873  29.963  1.00  0.00     0.037 A 
ATOM     27  C   UNL A   1      42.755  29.146  34.552  1.00  0.00     0.049 A 
ATOM     28  C   UNL A   1      38.438  31.237  31.401  1.00  0.00     0.074 A 
ATOM     29  C   UNL A   1      42.805  29.602  35.853  1.00  0.00     0.029 A 
ATOM     30  N   UNL A   1      41.647  29.748  33.954  1.00  0.00    -0.354 N 
ATOM     31  N   UNL A   1      39.383  30.827  32.218  1.00  0.00    -0.248 NA
ATOM     32  C   UNL A   1      37.471  32.155  32.005  1.00  0.00     0.031 C 
ATOM     33  C   UNL A   1      41.702  30.439  36.055  1.00  0.00     0.029 A 
ATOM     34  C   UNL A   1      41.000  30.562  34.861  1.00  0.00     0.049 A 
ATOM     35  H   UNL A   1      41.368  29.610  33.020  1.00  0.00     0.167 HD
ATOM     36  C   UNL A   1      39.147  31.457  33.427  1.00  0.00     0.074 A 
ATOM     37  C   UNL A   1      37.963  32.280  33.231  1.00  0.00     0.031 C 
ATOM     38  C   UNL A   1      39.835  31.373  34.592  1.00  0.00     0.037 A 
BRANCH  25  39
ATOM     39  C   UNL A   1      44.780  27.584  34.588  1.00  0.00     0.057 A 
ATOM     40  C   UNL A   1      46.079  28.112  34.572  1.00  0.00     0.134 A 
ATOM     41  C   UNL A   1      44.600  26.344  35.214  1.00  0.00     0.134 A 
ATOM     42  F   UNL A   1      46.333  29.278  33.957  1.00  0.00    -0.206 F 
ATOM     43  C   UNL A   1      47.161  27.408  35.108  1.00  0.00     0.040 A 
ATOM     44  C   UNL A   1      45.667  25.648  35.782  1.00  0.00     0.040 A 
ATOM     45  F   UNL A   1      43.388  25.772  35.256  1.00  0.00    -0.206 F 
ATOM     46  C   UNL A   1      46.956  26.172  35.715  1.00  0.00     0.006 A 
ENDBRANCH  25  39
BRANCH  26  47
ATOM     47  C   UNL A   1      37.068  31.372  29.169  1.00  0.00     0.057 A 
ATOM     48  C   UNL A   1      35.943  30.573  28.949  1.00  0.00     0.134 A 
ATOM     49  C   UNL A   1      37.039  32.675  28.650  1.00  0.00     0.134 A 
ATOM     50  F   UNL A   1      35.908  29.314  29.412  1.00  0.00    -0.206 F 
ATOM     51  C   UNL A   1      34.836  31.044  28.237  1.00  0.00     0.040 A 
ATOM     52  C   UNL A   1      35.929  33.169  27.962  1.00  0.00     0.040 A 
ATOM     53  F   UNL A   1      38.078  33.503  28.835  1.00  0.00    -0.206 F 
ATOM     54  C   UNL A   1      34.824  32.349  27.748  1.00  0.00     0.006 A 
ENDBRANCH  26  47
BRANCH  38  55
ATOM     55  C   UNL A   1      39.365  32.249  35.708  1.00  0.00     0.057 A 
ATOM     56  C   UNL A   1      39.804  33.569  35.852  1.00  0.00     0.134 A 
ATOM     57  C   UNL A   1      38.391  31.778  36.598  1.00  0.00     0.134 A 
ATOM     58  F   UNL A   1      40.747  34.066  35.039  1.00  0.00    -0.206 F 
ATOM     59  C   UNL A   1      39.292  34.394  36.853  1.00  0.00     0.040 A 
ATOM     60  C   UNL A   1      37.851  32.602  37.582  1.00  0.00     0.040 A 
ATOM     61  F   UNL A   1      37.928  30.523  36.500  1.00  0.00    -0.206 F 
ATOM     62  C   UNL A   1      38.303  33.914  37.712  1.00  0.00     0.006 A 
ENDBRANCH  38  55
ENDBRANCH  12  13
ENDBRANCH   5   7
ENDBRANCH   4   5
ENDBRANCH   3   4
ENDBRANCH   2   3
ENDBRANCH   1   2
BRANCH   1  63
ATOM     63  C   UNL A   1      38.617  22.562  26.136  1.00  0.00     0.202 C 
BRANCH  63  64
ATOM     64  C   UNL A   1      37.359  22.494  25.280  1.00  0.00     0.261 C 
BRANCH  64  65
ATOM     65  O   UNL A   1      36.453  21.550  25.872  1.00  0.00    -0.463 OA
BRANCH  65  66
ATOM     66  C   UNL A   1      36.158  20.390  25.190  1.00  0.00     0.315 C 
ATOM     67  O   UNL A   1      36.950  19.608  24.709  1.00  0.00    -0.252 OA
BRANCH  66  68
ATOM     68  C   UNL A   1      34.648  20.299  25.147  1.00  0.00     0.166 C 
ATOM     69  C   UNL A   1      34.163  21.497  24.356  1.00  0.00     0.278 C 
ATOM     70  C   UNL A   1      33.789  19.077  24.690  1.00  0.00     0.038 C 
ATOM     71  N   UNL A   1      32.752  21.236  24.132  1.00  0.00    -0.330 N 
ATOM     72  C   UNL A   1      32.637  19.790  23.913  1.00  0.00     0.270 C 
ATOM     73  C   UNL A   1      34.461  18.012  23.791  1.00  0.00     0.014 C 
ATOM     74  C   UNL A   1      33.248  18.338  25.949  1.00  0.00     0.014 C 
ATOM     75  H   UNL A   1      32.416  21.715  23.297  1.00  0.00     0.348 HD
ATOM     76  C   UNL A   1      33.601  16.754  23.552  1.00  0.00     0.001 C 
ATOM     77  C   UNL A   1      32.319  17.170  25.666  1.00  0.00     0.001 C 
ATOM     78  C   UNL A   1      33.051  16.135  24.836  1.00  0.00     0.000 C 
BRANCH  71  79
ATOM     79  C   UNL A   1      31.813  21.886  25.057  1.00  0.00     0.299 C 
BRANCH  79  80
ATOM     80  C   UNL A   1      31.267  23.257  24.708  1.00  0.00     0.008 A 
ATOM     81  C   UNL A   1      30.803  23.563  23.417  1.00  0.00     0.011 A 
ATOM     82  C   UNL A   1      31.274  24.282  25.671  1.00  0.00     0.031 A 
ATOM     83  C   UNL A   1      30.506  24.883  23.057  1.00  0.00     0.022 A 
ATOM     84  C   UNL A   1      30.946  25.600  25.323  1.00  0.00     0.060 A 
ATOM     85  C   UNL A   1      30.599  25.907  24.004  1.00  0.00     0.059 A 
ATOM     86  Cl  UNL A   1      31.086  26.810  26.548  1.00  0.00    -0.083 Cl
ATOM     87  Cl  UNL A   1      30.338  27.528  23.464  1.00  0.00    -0.083 Cl
ENDBRANCH  79  80
ENDBRANCH  71  79
ENDBRANCH  66  68
ENDBRANCH  65  66
ENDBRANCH  64  65
ENDBRANCH  63  64
ENDBRANCH   1  63
TORSDOF 16
ENDMDL
MODEL 2
REMARK VINA RESULT:     -11.8      1.561      2.427
REMARK SMILES O=C(OCCOCCOC(=O)[C@H]1C[N@H+](Cc2ccc(Cl)c(Cl)c2)CC12CCCCC2)c1ccc(-c2c3nc(c(-c4c(F)cccc4F)c4ccc([nH]4)c(-c4c(F)cccc4F)c4nc(c(-c5c(F)cccc5F)c5ccc2[nH]5)C=C4)C=C3)cc1
REMARK SMILES IDX 6 1 5 2 4 3 3 4 2 5 1 6 31 7 32 8 84 9 33 10 83 11 34 12
REMARK SMILES IDX 35 13 36 14 77 15 37 16 82 17 76 18 78 19 38 20 81 21 75 22
REMARK SMILES IDX 74 23 39 25 65 26 48 27 64 28 49 29 52 30 63 31 79 32 50 33
REMARK SMILES IDX 51 34 62 36 80 37 53 38 40 39 41 40 46 41 42 42 43 43 45 44
REMARK SMILES IDX 47 45 44 46 66 47 67 48 72 49 68 50 69 51 71 52 73 53 70 54
REMARK SMILES IDX 54 55 55 56 60 57 56 58 57 59 59 60 61 61 58 62 7 63 8 64
REMARK SMILES IDX 9 65 10 66 11 67 12 68 13 69 25 70 14 71 24 72 26 73 30 74
REMARK SMILES IDX 27 76 29 77 28 78 15 79 16 80 17 81 23 82 18 83 21 84 19 85
REMARK SMILES IDX 22 86 20 87
REMARK H PARENT 78 24 52 35 14 75
REMARK Flexibility Score: inf
ROOT
ATOM      1  O   UNL A   1      39.144  22.202  25.723  1.00  0.00    -0.374 OA
ENDROOT
BRANCH   1   2
ATOM      2  C   UNL A   1      40.001  21.508  26.601  1.00  0.00     0.202 C 
BRANCH   2   3
ATOM      3  C   UNL A   1      41.307  21.032  25.983  1.00  0.00     0.261 C 
BRANCH   3   4
ATOM      4  O   UNL A   1      42.404  21.822  26.460  1.00  0.00    -0.460 OA
BRANCH   4   5
ATOM      5  C   UNL A   1      42.661  23.080  26.008  1.00  0.00     0.338 C 
ATOM      6  O   UNL A   1      43.017  23.280  24.853  1.00  0.00    -0.246 OA
BRANCH   5   7
ATOM      7  C   UNL A   1      42.375  24.232  26.894  1.00  0.00     0.060 A 
ATOM      8  C   UNL A   1      41.595  24.110  28.040  1.00  0.00     0.016 A 
ATOM      9  C   UNL A   1      42.946  25.466  26.600  1.00  0.00     0.016 A 
ATOM     10  C   UNL A   1      41.181  25.197  28.760  1.00  0.00     0.010 A 
ATOM     11  C   UNL A   1      42.724  26.534  27.468  1.00  0.00     0.010 A 
ATOM     12  C   UNL A   1      41.836  26.390  28.550  1.00  0.00    -0.014 A 
BRANCH  12  13
ATOM     13  C   UNL A   1      41.578  27.465  29.511  1.00  0.00     0.031 A 
ATOM     14  C   UNL A   1      42.452  27.539  30.706  1.00  0.00     0.074 A 
ATOM     15  C   UNL A   1      40.604  28.359  29.255  1.00  0.00     0.049 A 
ATOM     16  N   UNL A   1      42.256  28.168  31.825  1.00  0.00    -0.248 NA
ATOM     17  C   UNL A   1      43.704  26.766  30.642  1.00  0.00     0.031 C 
ATOM     18  C   UNL A   1      39.809  28.433  28.019  1.00  0.00     0.029 A 
ATOM     19  N   UNL A   1      40.114  29.383  30.015  1.00  0.00    -0.354 N 
ATOM     20  C   UNL A   1      43.317  27.797  32.637  1.00  0.00     0.074 A 
ATOM     21  C   UNL A   1      44.158  26.902  31.876  1.00  0.00     0.031 C 
ATOM     22  C   UNL A   1      38.950  29.457  28.102  1.00  0.00     0.029 A 
ATOM     23  C   UNL A   1      39.039  30.016  29.439  1.00  0.00     0.049 A 
ATOM     24  H   UNL A   1      40.494  29.642  30.886  1.00  0.00     0.167 HD
ATOM     25  C   UNL A   1      43.520  28.167  33.920  1.00  0.00     0.037 A 
ATOM     26  C   UNL A   1      38.168  30.885  29.978  1.00  0.00     0.037 A 
ATOM     27  C   UNL A   1      42.636  29.073  34.600  1.00  0.00     0.049 A 
ATOM     28  C   UNL A   1      38.370  31.229  31.424  1.00  0.00     0.074 A 
ATOM     29  C   UNL A   1      42.672  29.510  35.907  1.00  0.00     0.029 A 
ATOM     30  N   UNL A   1      41.539  29.688  33.996  1.00  0.00    -0.354 N 
ATOM     31  N   UNL A   1      39.303  30.803  32.246  1.00  0.00    -0.248 NA
ATOM     32  C   UNL A   1      37.400  32.143  32.028  1.00  0.00     0.031 C 
ATOM     33  C   UNL A   1      41.571  30.351  36.107  1.00  0.00     0.029 A 
ATOM     34  C   UNL A   1      40.885  30.493  34.906  1.00  0.00     0.049 A 
ATOM     35  H   UNL A   1      41.271  29.565  33.056  1.00  0.00     0.167 HD
ATOM     36  C   UNL A   1      39.054  31.418  33.460  1.00  0.00     0.074 A 
ATOM     37  C   UNL A   1      37.877  32.249  33.261  1.00  0.00     0.031 C 
ATOM     38  C   UNL A   1      39.728  31.314  34.633  1.00  0.00     0.037 A 
BRANCH  25  39
ATOM     39  C   UNL A   1      44.653  27.500  34.639  1.00  0.00     0.057 A 
ATOM     40  C   UNL A   1      44.485  26.329  35.392  1.00  0.00     0.134 A 
ATOM     41  C   UNL A   1      45.917  28.103  34.666  1.00  0.00     0.134 A 
ATOM     42  F   UNL A   1      43.291  25.718  35.444  1.00  0.00    -0.206 F 
ATOM     43  C   UNL A   1      45.516  25.813  36.183  1.00  0.00     0.040 A 
ATOM     44  C   UNL A   1      46.964  27.579  35.425  1.00  0.00     0.040 A 
ATOM     45  F   UNL A   1      46.147  29.233  33.980  1.00  0.00    -0.206 F 
ATOM     46  C   UNL A   1      46.760  26.440  36.200  1.00  0.00     0.006 A 
ENDBRANCH  25  39
BRANCH  26  47
ATOM     47  C   UNL A   1      37.029  31.401  29.176  1.00  0.00     0.057 A 
ATOM     48  C   UNL A   1      35.913  30.603  28.910  1.00  0.00     0.134 A 
ATOM     49  C   UNL A   1      37.002  32.719  28.696  1.00  0.00     0.134 A 
ATOM     50  F   UNL A   1      35.878  29.330  29.334  1.00  0.00    -0.206 F 
ATOM     51  C   UNL A   1      34.817  31.088  28.191  1.00  0.00     0.040 A 
ATOM     52  C   UNL A   1      35.902  33.227  28.001  1.00  0.00     0.040 A 
ATOM     53  F   UNL A   1      38.032  33.547  28.926  1.00  0.00    -0.206 F 
ATOM     54  C   UNL A   1      34.807  32.407  27.741  1.00  0.00     0.006 A 
ENDBRANCH  26  47
BRANCH  38  55
ATOM     55  C   UNL A   1      39.247  32.177  35.755  1.00  0.00     0.057 A 
ATOM     56  C   UNL A   1      39.687  33.495  35.919  1.00  0.00     0.134 A 
ATOM     57  C   UNL A   1      38.263  31.698  36.629  1.00  0.00     0.134 A 
ATOM     58  F   UNL A   1      40.640  33.999  35.122  1.00  0.00    -0.206 F 
ATOM     59  C   UNL A   1      39.167  34.308  36.925  1.00  0.00     0.040 A 
ATOM     60  C   UNL A   1      37.715  32.510  37.618  1.00  0.00     0.040 A 
ATOM     61  F   UNL A   1      37.800  30.444  36.512  1.00  0.00    -0.206 F 
ATOM     62  C   UNL A   1      38.169  33.819  37.769  1.00  0.00     0.006 A 
ENDBRANCH  38  55
ENDBRANCH  12  13
ENDBRANCH   5   7
ENDBRANCH   4   5
ENDBRANCH   3   4
ENDBRANCH   2   3
ENDBRANCH   1   2
BRANCH   1  63
ATOM     63  C   UNL A   1      37.763  21.914  25.747  1.00  0.00     0.202 C 
BRANCH  63  64
ATOM     64  C   UNL A   1      37.306  21.751  24.303  1.00  0.00     0.261 C 
BRANCH  64  65
ATOM     65  O   UNL A   1      36.127  22.547  24.102  1.00  0.00    -0.463 OA
BRANCH  65  66
ATOM     66  C   UNL A   1      34.891  21.966  24.285  1.00  0.00     0.315 C 
ATOM     67  O   UNL A   1      34.668  20.826  24.630  1.00  0.00    -0.252 OA
BRANCH  66  68
ATOM     68  C   UNL A   1      33.872  23.033  23.950  1.00  0.00     0.166 C 
ATOM     69  C   UNL A   1      33.737  23.047  22.440  1.00  0.00     0.278 C 
ATOM     70  C   UNL A   1      32.431  23.177  24.534  1.00  0.00     0.038 C 
ATOM     71  N   UNL A   1      32.587  23.896  22.187  1.00  0.00    -0.330 N 
ATOM     72  C   UNL A   1      31.632  23.617  23.267  1.00  0.00     0.270 C 
ATOM     73  C   UNL A   1      31.777  21.928  25.171  1.00  0.00     0.014 C 
ATOM     74  C   UNL A   1      32.432  24.295  25.617  1.00  0.00     0.014 C 
ATOM     75  H   UNL A   1      32.144  23.663  21.299  1.00  0.00     0.348 HD
ATOM     76  C   UNL A   1      30.442  22.210  25.890  1.00  0.00     0.001 C 
ATOM     77  C   UNL A   1      31.075  24.614  26.221  1.00  0.00     0.001 C 
ATOM     78  C   UNL A   1      30.514  23.371  26.882  1.00  0.00     0.000 C 
BRANCH  71  79
ATOM     79  C   UNL A   1      32.871  25.295  21.842  1.00  0.00     0.299 C 
BRANCH  79  80
ATOM     80  C   UNL A   1      32.380  26.395  22.764  1.00  0.00     0.008 A 
ATOM     81  C   UNL A   1      31.112  26.979  22.609  1.00  0.00     0.011 A 
ATOM     82  C   UNL A   1      33.226  26.899  23.768  1.00  0.00     0.031 A 
ATOM     83  C   UNL A   1      30.761  28.130  23.326  1.00  0.00     0.022 A 
ATOM     84  C   UNL A   1      32.865  28.033  24.511  1.00  0.00     0.060 A 
ATOM     85  C   UNL A   1      31.647  28.672  24.261  1.00  0.00     0.059 A 
ATOM     86  Cl  UNL A   1      34.014  28.642  25.648  1.00  0.00    -0.083 Cl
ATOM     87  Cl  UNL A   1      31.205  30.160  25.020  1.00  0.00    -0.083 Cl
ENDBRANCH  79  80
ENDBRANCH  71  79
ENDBRANCH  66  68
ENDBRANCH  65  66
ENDBRANCH  64  65
ENDBRANCH  63  64
ENDBRANCH   1  63
TORSDOF 16
ENDMDL
MODEL 3
REMARK VINA RESULT:     -11.7      3.704      8.403
REMARK SMILES O=C(OCCOCCOC(=O)[C@H]1C[N@H+](Cc2ccc(Cl)c(Cl)c2)CC12CCCCC2)c1ccc(-c2c3nc(c(-c4c(F)cccc4F)c4ccc([nH]4)c(-c4c(F)cccc4F)c4nc(c(-c5c(F)cccc5F)c5ccc2[nH]5)C=C4)C=C3)cc1
REMARK SMILES IDX 6 1 5 2 4 3 3 4 2 5 1 6 31 7 32 8 84 9 33 10 83 11 34 12
REMARK SMILES IDX 35 13 36 14 77 15 37 16 82 17 76 18 78 19 38 20 81 21 75 22
REMARK SMILES IDX 74 23 39 25 65 26 48 27 64 28 49 29 52 30 63 31 79 32 50 33
REMARK SMILES IDX 51 34 62 36 80 37 53 38 40 39 41 40 46 41 42 42 43 43 45 44
REMARK SMILES IDX 47 45 44 46 66 47 67 48 72 49 68 50 69 51 71 52 73 53 70 54
REMARK SMILES IDX 54 55 55 56 60 57 56 58 57 59 59 60 61 61 58 62 7 63 8 64
REMARK SMILES IDX 9 65 10 66 11 67 12 68 13 69 25 70 14 71 24 72 26 73 30 74
REMARK SMILES IDX 27 76 29 77 28 78 15 79 16 80 17 81 23 82 18 83 21 84 19 85
REMARK SMILES IDX 22 86 20 87
REMARK H PARENT 78 24 52 35 14 75
REMARK Flexibility Score: inf
ROOT
ATOM      1  O   UNL A   1      33.664  31.072  26.920  1.00  0.00    -0.374 OA
ENDROOT
BRANCH   1   2
ATOM      2  C   UNL A   1      32.263  31.219  26.860  1.00  0.00     0.202 C 
BRANCH   2   3
ATOM      3  C   UNL A   1      31.744  32.594  27.251  1.00  0.00     0.261 C 
BRANCH   3   4
ATOM      4  O   UNL A   1      32.826  33.532  27.337  1.00  0.00    -0.460 OA
BRANCH   4   5
ATOM      5  C   UNL A   1      33.163  34.167  28.492  1.00  0.00     0.338 C 
ATOM      6  O   UNL A   1      32.402  34.967  29.023  1.00  0.00    -0.246 OA
BRANCH   5   7
ATOM      7  C   UNL A   1      34.415  33.782  29.183  1.00  0.00     0.060 A 
ATOM      8  C   UNL A   1      34.456  32.759  30.127  1.00  0.00     0.016 A 
ATOM      9  C   UNL A   1      35.599  34.427  28.842  1.00  0.00     0.016 A 
ATOM     10  C   UNL A   1      35.562  32.519  30.895  1.00  0.00     0.010 A 
ATOM     11  C   UNL A   1      36.786  34.021  29.451  1.00  0.00     0.010 A 
ATOM     12  C   UNL A   1      36.758  33.063  30.481  1.00  0.00    -0.014 A 
BRANCH  12  13
ATOM     13  C   UNL A   1      37.970  32.578  31.144  1.00  0.00     0.031 A 
ATOM     14  C   UNL A   1      38.703  31.462  30.499  1.00  0.00     0.074 A 
ATOM     15  C   UNL A   1      38.393  33.181  32.271  1.00  0.00     0.049 A 
ATOM     16  N   UNL A   1      39.591  30.663  31.008  1.00  0.00    -0.248 NA
ATOM     17  C   UNL A   1      38.360  31.190  29.092  1.00  0.00     0.031 C 
ATOM     18  C   UNL A   1      37.802  34.386  32.874  1.00  0.00     0.029 A 
ATOM     19  N   UNL A   1      39.424  32.872  33.113  1.00  0.00    -0.354 N 
ATOM     20  C   UNL A   1      39.851  29.732  30.014  1.00  0.00     0.074 A 
ATOM     21  C   UNL A   1      39.038  30.076  28.869  1.00  0.00     0.031 C 
ATOM     22  C   UNL A   1      38.491  34.720  33.973  1.00  0.00     0.029 A 
ATOM     23  C   UNL A   1      39.474  33.681  34.223  1.00  0.00     0.049 A 
ATOM     24  H   UNL A   1      40.065  32.145  32.941  1.00  0.00     0.167 HD
ATOM     25  C   UNL A   1      40.680  28.670  30.098  1.00  0.00     0.037 A 
ATOM     26  C   UNL A   1      40.178  33.534  35.357  1.00  0.00     0.037 A 
ATOM     27  C   UNL A   1      41.461  28.406  31.275  1.00  0.00     0.049 A 
ATOM     28  C   UNL A   1      41.040  32.311  35.459  1.00  0.00     0.074 A 
ATOM     29  C   UNL A   1      42.310  27.352  31.540  1.00  0.00     0.029 A 
ATOM     30  N   UNL A   1      41.480  29.235  32.397  1.00  0.00    -0.354 N 
ATOM     31  N   UNL A   1      41.217  31.356  34.574  1.00  0.00    -0.248 NA
ATOM     32  C   UNL A   1      41.778  32.124  36.709  1.00  0.00     0.031 C 
ATOM     33  C   UNL A   1      42.805  27.519  32.839  1.00  0.00     0.029 A 
ATOM     34  C   UNL A   1      42.318  28.712  33.360  1.00  0.00     0.049 A 
ATOM     35  H   UNL A   1      40.969  30.072  32.488  1.00  0.00     0.167 HD
ATOM     36  C   UNL A   1      42.109  30.464  35.144  1.00  0.00     0.074 A 
ATOM     37  C   UNL A   1      42.435  31.000  36.456  1.00  0.00     0.031 C 
ATOM     38  C   UNL A   1      42.616  29.312  34.641  1.00  0.00     0.037 A 
BRANCH  25  39
ATOM     39  C   UNL A   1      40.665  27.713  28.945  1.00  0.00     0.057 A 
ATOM     40  C   UNL A   1      41.475  27.882  27.812  1.00  0.00     0.134 A 
ATOM     41  C   UNL A   1      39.741  26.660  28.921  1.00  0.00     0.134 A 
ATOM     42  F   UNL A   1      42.355  28.893  27.749  1.00  0.00    -0.206 F 
ATOM     43  C   UNL A   1      41.331  27.071  26.683  1.00  0.00     0.040 A 
ATOM     44  C   UNL A   1      39.611  25.824  27.812  1.00  0.00     0.040 A 
ATOM     45  F   UNL A   1      38.924  26.447  29.963  1.00  0.00    -0.206 F 
ATOM     46  C   UNL A   1      40.396  26.039  26.681  1.00  0.00     0.006 A 
ENDBRANCH  25  39
BRANCH  26  47
ATOM     47  C   UNL A   1      40.029  34.512  36.465  1.00  0.00     0.057 A 
ATOM     48  C   UNL A   1      39.153  34.271  37.528  1.00  0.00     0.134 A 
ATOM     49  C   UNL A   1      40.790  35.689  36.519  1.00  0.00     0.134 A 
ATOM     50  F   UNL A   1      38.389  33.167  37.535  1.00  0.00    -0.206 F 
ATOM     51  C   UNL A   1      39.031  35.163  38.597  1.00  0.00     0.040 A 
ATOM     52  C   UNL A   1      40.701  36.576  37.594  1.00  0.00     0.040 A 
ATOM     53  F   UNL A   1      41.662  35.979  35.541  1.00  0.00    -0.206 F 
ATOM     54  C   UNL A   1      39.813  36.316  38.636  1.00  0.00     0.006 A 
ENDBRANCH  26  47
BRANCH  38  55
ATOM     55  C   UNL A   1      43.630  28.607  35.484  1.00  0.00     0.057 A 
ATOM     56  C   UNL A   1      44.997  28.888  35.392  1.00  0.00     0.134 A 
ATOM     57  C   UNL A   1      43.209  27.694  36.460  1.00  0.00     0.134 A 
ATOM     58  F   UNL A   1      45.457  29.740  34.464  1.00  0.00    -0.206 F 
ATOM     59  C   UNL A   1      45.917  28.276  36.242  1.00  0.00     0.040 A 
ATOM     60  C   UNL A   1      44.115  27.101  37.334  1.00  0.00     0.040 A 
ATOM     61  F   UNL A   1      41.909  27.394  36.597  1.00  0.00    -0.206 F 
ATOM     62  C   UNL A   1      45.474  27.390  37.225  1.00  0.00     0.006 A 
ENDBRANCH  38  55
ENDBRANCH  12  13
ENDBRANCH   5   7
ENDBRANCH   4   5
ENDBRANCH   3   4
ENDBRANCH   2   3
ENDBRANCH   1   2
BRANCH   1  63
ATOM     63  C   UNL A   1      34.207  29.956  27.591  1.00  0.00     0.202 C 
BRANCH  63  64
ATOM     64  C   UNL A   1      33.963  28.734  26.714  1.00  0.00     0.261 C 
BRANCH  64  65
ATOM     65  O   UNL A   1      33.228  27.763  27.476  1.00  0.00    -0.463 OA
BRANCH  65  66
ATOM     66  C   UNL A   1      31.877  27.619  27.247  1.00  0.00     0.315 C 
ATOM     67  O   UNL A   1      30.975  28.111  27.891  1.00  0.00    -0.252 OA
BRANCH  66  68
ATOM     68  C   UNL A   1      31.748  26.711  26.044  1.00  0.00     0.166 C 
ATOM     69  C   UNL A   1      30.621  25.745  26.347  1.00  0.00     0.278 C 
ATOM     70  C   UNL A   1      31.586  27.141  24.551  1.00  0.00     0.038 C 
ATOM     71  N   UNL A   1      30.374  25.069  25.086  1.00  0.00    -0.330 N 
ATOM     72  C   UNL A   1      30.558  26.082  24.040  1.00  0.00     0.270 C 
ATOM     73  C   UNL A   1      31.072  28.570  24.258  1.00  0.00     0.014 C 
ATOM     74  C   UNL A   1      32.957  26.990  23.829  1.00  0.00     0.014 C 
ATOM     75  H   UNL A   1      29.416  24.724  25.034  1.00  0.00     0.348 HD
ATOM     76  C   UNL A   1      31.129  28.969  22.769  1.00  0.00     0.001 C 
ATOM     77  C   UNL A   1      32.941  27.290  22.340  1.00  0.00     0.001 C 
ATOM     78  C   UNL A   1      32.490  28.720  22.120  1.00  0.00     0.000 C 
BRANCH  71  79
ATOM     79  C   UNL A   1      31.008  23.755  24.914  1.00  0.00     0.299 C 
BRANCH  79  80
ATOM     80  C   UNL A   1      32.434  23.688  24.403  1.00  0.00     0.008 A 
ATOM     81  C   UNL A   1      32.725  23.458  23.048  1.00  0.00     0.011 A 
ATOM     82  C   UNL A   1      33.509  23.795  25.304  1.00  0.00     0.031 A 
ATOM     83  C   UNL A   1      34.034  23.186  22.633  1.00  0.00     0.022 A 
ATOM     84  C   UNL A   1      34.826  23.556  24.886  1.00  0.00     0.060 A 
ATOM     85  C   UNL A   1      35.084  23.212  23.555  1.00  0.00     0.059 A 
ATOM     86  Cl  UNL A   1      36.068  23.607  26.085  1.00  0.00    -0.083 Cl
ATOM     87  Cl  UNL A   1      36.653  22.748  23.003  1.00  0.00    -0.083 Cl
ENDBRANCH  79  80
ENDBRANCH  71  79
ENDBRANCH  66  68
ENDBRANCH  65  66
ENDBRANCH  64  65
ENDBRANCH  63  64
ENDBRANCH   1  63
TORSDOF 16
ENDMDL
