MODEL 1
REMARK VINA RESULT:     -11.8      0.000      0.000
REMARK SMILES Cc1ccc(-c2c(C)sc(NC(=O)[C@H]3CC=CC[C@H]3C(=O)OCCOCCOC(=O)c3ccc(-c4c5nc(c(-c6c(F)cccc6F)c6ccc([nH]6)c(-c6c(F)cccc6F)c6nc(c(-c7c(F)cccc7F)c7ccc4[nH]7)C=C6)C=C5)cc3)c2C(N)=O)cc1
REMARK SMILES IDX 24 1 23 2 22 3 20 4 21 5 19 6 14 7 15 8 16 9 18 10 17 11
REMARK SMILES IDX 12 12 11 13 13 15 10 16 6 17 7 18 85 19 8 20 9 21 5 22 1 23
REMARK SMILES IDX 2 24 3 25 90 26 4 27 89 28 86 29 87 30 88 31 25 34 26 35
REMARK SMILES IDX 27 36 28 37 29 38 30 39 31 40 32 41 84 42 33 43 83 44 34 45
REMARK SMILES IDX 35 46 36 47 77 48 37 49 82 50 76 51 78 52 38 53 81 54 75 55
REMARK SMILES IDX 74 56 39 58 65 59 48 60 64 61 49 62 52 63 63 64 79 65 50 66
REMARK SMILES IDX 51 67 62 69 80 70 53 71 40 72 41 73 46 74 42 75 43 76 45 77
REMARK SMILES IDX 47 78 44 79 66 80 67 81 72 82 68 83 69 84 71 85 73 86 70 87
REMARK SMILES IDX 54 88 55 89 60 90 56 91 57 92 59 93 61 94 58 95
REMARK H PARENT 11 14 87 32 87 33 78 57 52 68
REMARK Flexibility Score: inf
ROOT
ATOM      1  C   UNL A   1      35.974  19.014  24.628  1.00  0.00     0.202 C 
ENDROOT
BRANCH   1   2
ATOM      2  C   UNL A   1      34.535  18.748  24.952  1.00  0.00     0.261 C 
BRANCH   2   3
ATOM      3  O   UNL A   1      33.634  19.476  24.110  1.00  0.00    -0.463 OA
BRANCH   3   4
ATOM      4  C   UNL A   1      32.941  20.487  24.698  1.00  0.00     0.310 C 
ATOM      5  O   UNL A   1      31.815  20.423  25.142  1.00  0.00    -0.252 OA
BRANCH   4   6
ATOM      6  C   UNL A   1      33.791  21.715  24.783  1.00  0.00     0.116 C 
ATOM      7  C   UNL A   1      33.910  22.515  23.468  1.00  0.00     0.097 C 
ATOM      8  C   UNL A   1      35.041  23.542  23.609  1.00  0.00     0.041 C 
ATOM      9  C   UNL A   1      35.243  24.064  25.016  1.00  0.00    -0.030 C 
ATOM     10  C   UNL A   1      33.496  22.569  26.002  1.00  0.00     0.043 C 
ATOM     11  C   UNL A   1      34.532  23.655  26.081  1.00  0.00    -0.030 C 
BRANCH   7  12
ATOM     12  C   UNL A   1      32.614  22.906  22.666  1.00  0.00     0.229 C 
ATOM     13  N   UNL A   1      31.713  23.879  23.009  1.00  0.00    -0.317 N 
ATOM     14  H   UNL A   1      30.773  23.589  23.058  1.00  0.00     0.170 HD
ATOM     15  O   UNL A   1      32.259  22.171  21.729  1.00  0.00    -0.274 OA
BRANCH  13  16
ATOM     16  C   UNL A   1      31.941  25.204  23.294  1.00  0.00     0.109 A 
ATOM     17  C   UNL A   1      32.576  27.205  24.250  1.00  0.00     0.010 A 
ATOM     18  C   UNL A   1      33.046  27.297  22.946  1.00  0.00     0.012 A 
ATOM     19  C   UNL A   1      31.849  25.953  24.466  1.00  0.00     0.082 A 
ATOM     20  C   UNL A   1      34.053  28.186  22.302  1.00  0.00     0.057 C 
ATOM     21  S   UNL A   1      32.087  26.277  21.993  1.00  0.00    -0.122 S 
BRANCH  17  22
ATOM     22  C   UNL A   1      32.757  28.349  25.130  1.00  0.00    -0.016 A 
ATOM     23  C   UNL A   1      33.490  31.583  27.863  1.00  0.00     0.044 C 
ATOM     24  C   UNL A   1      33.215  30.442  26.934  1.00  0.00    -0.051 A 
ATOM     25  C   UNL A   1      32.080  30.446  26.109  1.00  0.00     0.004 A 
ATOM     26  C   UNL A   1      34.123  29.387  26.849  1.00  0.00     0.004 A 
ATOM     27  C   UNL A   1      31.840  29.393  25.218  1.00  0.00     0.009 A 
ATOM     28  C   UNL A   1      33.904  28.363  25.938  1.00  0.00     0.009 A 
ENDBRANCH  17  22
BRANCH  19  29
ATOM     29  C   UNL A   1      31.198  25.566  25.720  1.00  0.00     0.252 C 
ATOM     30  N   UNL A   1      29.860  25.281  25.666  1.00  0.00    -0.365 N 
ATOM     31  O   UNL A   1      31.751  25.545  26.812  1.00  0.00    -0.269 OA
ATOM     32  H   UNL A   1      29.390  25.291  24.802  1.00  0.00     0.159 HD
ATOM     33  H   UNL A   1      29.369  25.067  26.492  1.00  0.00     0.159 HD
ENDBRANCH  19  29
ENDBRANCH  13  16
ENDBRANCH   7  12
ENDBRANCH   4   6
ENDBRANCH   3   4
ENDBRANCH   2   3
ENDBRANCH   1   2
BRANCH   1  34
ATOM     34  O   UNL A   1      36.335  20.223  25.281  1.00  0.00    -0.374 OA
BRANCH  34  35
ATOM     35  C   UNL A   1      37.477  20.872  24.746  1.00  0.00     0.202 C 
BRANCH  35  36
ATOM     36  C   UNL A   1      38.597  21.098  25.775  1.00  0.00     0.261 C 
BRANCH  36  37
ATOM     37  O   UNL A   1      39.048  22.472  25.712  1.00  0.00    -0.460 OA
BRANCH  37  38
ATOM     38  C   UNL A   1      39.818  22.911  26.748  1.00  0.00     0.338 C 
ATOM     39  O   UNL A   1      40.391  22.198  27.556  1.00  0.00    -0.246 OA
BRANCH  38  40
ATOM     40  C   UNL A   1      39.611  24.379  26.943  1.00  0.00     0.060 A 
ATOM     41  C   UNL A   1      40.415  25.307  26.253  1.00  0.00     0.016 A 
ATOM     42  C   UNL A   1      38.880  24.791  28.053  1.00  0.00     0.016 A 
ATOM     43  C   UNL A   1      40.616  26.596  26.777  1.00  0.00     0.010 A 
ATOM     44  C   UNL A   1      39.182  26.007  28.627  1.00  0.00     0.010 A 
ATOM     45  C   UNL A   1      40.076  26.908  28.019  1.00  0.00    -0.014 A 
BRANCH  45  46
ATOM     46  C   UNL A   1      40.393  28.078  28.848  1.00  0.00     0.031 A 
ATOM     47  C   UNL A   1      39.426  29.196  28.823  1.00  0.00     0.074 A 
ATOM     48  C   UNL A   1      41.346  28.045  29.814  1.00  0.00     0.049 A 
ATOM     49  N   UNL A   1      39.602  30.318  29.422  1.00  0.00    -0.248 NA
ATOM     50  C   UNL A   1      38.177  29.157  28.070  1.00  0.00     0.031 C 
ATOM     51  C   UNL A   1      41.437  28.852  31.038  1.00  0.00     0.029 A 
ATOM     52  N   UNL A   1      42.492  27.247  29.903  1.00  0.00    -0.354 N 
ATOM     53  C   UNL A   1      38.407  30.996  29.420  1.00  0.00     0.074 A 
ATOM     54  C   UNL A   1      37.594  30.289  28.468  1.00  0.00     0.031 C 
ATOM     55  C   UNL A   1      42.674  28.745  31.558  1.00  0.00     0.029 A 
ATOM     56  C   UNL A   1      43.460  27.973  30.615  1.00  0.00     0.049 A 
ATOM     57  H   UNL A   1      42.600  26.341  29.533  1.00  0.00     0.167 HD
ATOM     58  C   UNL A   1      38.250  31.999  30.331  1.00  0.00     0.037 A 
ATOM     59  C   UNL A   1      44.635  28.310  30.021  1.00  0.00     0.037 A 
ATOM     60  C   UNL A   1      39.535  32.259  31.009  1.00  0.00     0.049 A 
ATOM     61  C   UNL A   1      44.714  29.808  29.965  1.00  0.00     0.074 A 
ATOM     62  C   UNL A   1      40.030  31.960  32.268  1.00  0.00     0.029 A 
ATOM     63  N   UNL A   1      40.642  32.615  30.235  1.00  0.00    -0.354 N 
ATOM     64  N   UNL A   1      43.649  30.565  29.985  1.00  0.00    -0.248 NA
ATOM     65  C   UNL A   1      45.951  30.574  30.016  1.00  0.00     0.031 C 
ATOM     66  C   UNL A   1      41.452  32.076  32.218  1.00  0.00     0.029 A 
ATOM     67  C   UNL A   1      41.821  32.474  30.941  1.00  0.00     0.049 A 
ATOM     68  H   UNL A   1      40.589  32.929  29.303  1.00  0.00     0.167 HD
ATOM     69  C   UNL A   1      44.017  31.862  30.159  1.00  0.00     0.074 A 
ATOM     70  C   UNL A   1      45.471  31.827  30.127  1.00  0.00     0.031 C 
ATOM     71  C   UNL A   1      43.100  32.857  30.342  1.00  0.00     0.037 A 
BRANCH  58  72
ATOM     72  C   UNL A   1      36.929  32.622  30.759  1.00  0.00     0.057 A 
ATOM     73  C   UNL A   1      36.295  32.195  31.944  1.00  0.00     0.134 A 
ATOM     74  C   UNL A   1      36.187  33.590  30.050  1.00  0.00     0.134 A 
ATOM     75  F   UNL A   1      36.862  31.296  32.760  1.00  0.00    -0.206 F 
ATOM     76  C   UNL A   1      35.036  32.663  32.361  1.00  0.00     0.040 A 
ATOM     77  C   UNL A   1      34.930  34.067  30.454  1.00  0.00     0.040 A 
ATOM     78  F   UNL A   1      36.616  34.156  28.924  1.00  0.00    -0.206 F 
ATOM     79  C   UNL A   1      34.344  33.599  31.612  1.00  0.00     0.006 A 
ENDBRANCH  58  72
BRANCH  59  80
ATOM     80  C   UNL A   1      45.042  27.284  29.012  1.00  0.00     0.057 A 
ATOM     81  C   UNL A   1      45.589  26.080  29.511  1.00  0.00     0.134 A 
ATOM     82  C   UNL A   1      44.467  27.218  27.739  1.00  0.00     0.134 A 
ATOM     83  F   UNL A   1      46.106  26.046  30.749  1.00  0.00    -0.206 F 
ATOM     84  C   UNL A   1      45.450  24.853  28.850  1.00  0.00     0.040 A 
ATOM     85  C   UNL A   1      44.321  25.991  27.067  1.00  0.00     0.040 A 
ATOM     86  F   UNL A   1      43.901  28.301  27.191  1.00  0.00    -0.206 F 
ATOM     87  C   UNL A   1      44.766  24.801  27.643  1.00  0.00     0.006 A 
ENDBRANCH  59  80
BRANCH  71  88
ATOM     88  C   UNL A   1      43.349  34.303  30.005  1.00  0.00     0.057 A 
ATOM     89  C   UNL A   1      43.552  35.303  30.967  1.00  0.00     0.134 A 
ATOM     90  C   UNL A   1      43.612  34.693  28.672  1.00  0.00     0.134 A 
ATOM     91  F   UNL A   1      43.455  35.057  32.281  1.00  0.00    -0.206 F 
ATOM     92  C   UNL A   1      43.939  36.603  30.629  1.00  0.00     0.040 A 
ATOM     93  C   UNL A   1      44.072  35.966  28.333  1.00  0.00     0.040 A 
ATOM     94  F   UNL A   1      43.478  33.848  27.640  1.00  0.00    -0.206 F 
ATOM     95  C   UNL A   1      44.223  36.932  29.313  1.00  0.00     0.006 A 
ENDBRANCH  71  88
ENDBRANCH  45  46
ENDBRANCH  38  40
ENDBRANCH  37  38
ENDBRANCH  36  37
ENDBRANCH  35  36
ENDBRANCH  34  35
ENDBRANCH   1  34
TORSDOF 18
ENDMDL
MODEL 2
REMARK VINA RESULT:     -11.7      3.057      8.622
REMARK SMILES Cc1ccc(-c2c(C)sc(NC(=O)[C@H]3CC=CC[C@H]3C(=O)OCCOCCOC(=O)c3ccc(-c4c5nc(c(-c6c(F)cccc6F)c6ccc([nH]6)c(-c6c(F)cccc6F)c6nc(c(-c7c(F)cccc7F)c7ccc4[nH]7)C=C6)C=C5)cc3)c2C(N)=O)cc1
REMARK SMILES IDX 24 1 23 2 22 3 20 4 21 5 19 6 14 7 15 8 16 9 18 10 17 11
REMARK SMILES IDX 12 12 11 13 13 15 10 16 6 17 7 18 85 19 8 20 9 21 5 22 1 23
REMARK SMILES IDX 2 24 3 25 90 26 4 27 89 28 86 29 87 30 88 31 25 34 26 35
REMARK SMILES IDX 27 36 28 37 29 38 30 39 31 40 32 41 84 42 33 43 83 44 34 45
REMARK SMILES IDX 35 46 36 47 77 48 37 49 82 50 76 51 78 52 38 53 81 54 75 55
REMARK SMILES IDX 74 56 39 58 65 59 48 60 64 61 49 62 52 63 63 64 79 65 50 66
REMARK SMILES IDX 51 67 62 69 80 70 53 71 40 72 41 73 46 74 42 75 43 76 45 77
REMARK SMILES IDX 47 78 44 79 66 80 67 81 72 82 68 83 69 84 71 85 73 86 70 87
REMARK SMILES IDX 54 88 55 89 60 90 56 91 57 92 59 93 61 94 58 95
REMARK H PARENT 11 14 87 32 87 33 78 57 52 68
REMARK Flexibility Score: inf
ROOT
ATOM      1  C   UNL A   1      34.136  28.963  26.879  1.00  0.00     0.202 C 
ENDROOT
BRANCH   1   2
ATOM      2  C   UNL A   1      34.323  28.293  25.551  1.00  0.00     0.261 C 
BRANCH   2   3
ATOM      3  O   UNL A   1      33.698  27.007  25.486  1.00  0.00    -0.463 OA
BRANCH   3   4
ATOM      4  C   UNL A   1      32.347  26.983  25.633  1.00  0.00     0.310 C 
ATOM      5  O   UNL A   1      31.734  26.484  26.550  1.00  0.00    -0.252 OA
BRANCH   4   6
ATOM      6  C   UNL A   1      31.693  27.725  24.511  1.00  0.00     0.116 C 
ATOM      7  C   UNL A   1      31.051  26.830  23.428  1.00  0.00     0.097 C 
ATOM      8  C   UNL A   1      30.709  27.693  22.207  1.00  0.00     0.041 C 
ATOM      9  C   UNL A   1      30.354  29.129  22.532  1.00  0.00    -0.030 C 
ATOM     10  C   UNL A   1      30.805  28.863  24.979  1.00  0.00     0.043 C 
ATOM     11  C   UNL A   1      30.365  29.646  23.774  1.00  0.00    -0.030 C 
BRANCH   7  12
ATOM     12  C   UNL A   1      30.075  25.669  23.845  1.00  0.00     0.229 C 
ATOM     13  N   UNL A   1      30.354  24.329  23.820  1.00  0.00    -0.317 N 
ATOM     14  H   UNL A   1      29.715  23.770  23.322  1.00  0.00     0.170 HD
ATOM     15  O   UNL A   1      28.882  25.951  24.052  1.00  0.00    -0.274 OA
BRANCH  13  16
ATOM     16  C   UNL A   1      31.405  23.657  24.398  1.00  0.00     0.109 A 
ATOM     17  C   UNL A   1      33.461  23.014  25.224  1.00  0.00     0.010 A 
ATOM     18  C   UNL A   1      32.590  22.767  26.277  1.00  0.00     0.012 A 
ATOM     19  C   UNL A   1      32.747  23.508  24.046  1.00  0.00     0.082 A 
ATOM     20  C   UNL A   1      32.811  22.542  27.732  1.00  0.00     0.057 C 
ATOM     21  S   UNL A   1      31.051  22.529  25.609  1.00  0.00    -0.122 S 
BRANCH  17  22
ATOM     22  C   UNL A   1      34.861  22.655  25.389  1.00  0.00    -0.016 A 
ATOM     23  C   UNL A   1      39.057  21.869  25.883  1.00  0.00     0.044 C 
ATOM     24  C   UNL A   1      37.600  22.147  25.679  1.00  0.00    -0.051 A 
ATOM     25  C   UNL A   1      36.717  21.117  25.320  1.00  0.00     0.004 A 
ATOM     26  C   UNL A   1      37.105  23.432  25.896  1.00  0.00     0.004 A 
ATOM     27  C   UNL A   1      35.350  21.372  25.159  1.00  0.00     0.009 A 
ATOM     28  C   UNL A   1      35.745  23.676  25.774  1.00  0.00     0.009 A 
ENDBRANCH  17  22
BRANCH  19  29
ATOM     29  C   UNL A   1      33.369  23.829  22.759  1.00  0.00     0.252 C 
ATOM     30  N   UNL A   1      33.049  23.030  21.695  1.00  0.00    -0.365 N 
ATOM     31  O   UNL A   1      34.198  24.714  22.591  1.00  0.00    -0.269 OA
ATOM     32  H   UNL A   1      32.387  22.310  21.802  1.00  0.00     0.159 HD
ATOM     33  H   UNL A   1      33.482  23.175  20.823  1.00  0.00     0.159 HD
ENDBRANCH  19  29
ENDBRANCH  13  16
ENDBRANCH   7  12
ENDBRANCH   4   6
ENDBRANCH   3   4
ENDBRANCH   2   3
ENDBRANCH   1   2
BRANCH   1  34
ATOM     34  O   UNL A   1      34.146  30.365  26.647  1.00  0.00    -0.374 OA
BRANCH  34  35
ATOM     35  C   UNL A   1      33.342  31.123  27.536  1.00  0.00     0.202 C 
BRANCH  35  36
ATOM     36  C   UNL A   1      34.151  32.023  28.484  1.00  0.00     0.261 C 
BRANCH  36  37
ATOM     37  O   UNL A   1      35.205  31.253  29.110  1.00  0.00    -0.460 OA
BRANCH  37  38
ATOM     38  C   UNL A   1      36.467  31.442  28.631  1.00  0.00     0.338 C 
ATOM     39  O   UNL A   1      36.851  32.421  28.012  1.00  0.00    -0.246 OA
BRANCH  38  40
ATOM     40  C   UNL A   1      37.227  30.156  28.696  1.00  0.00     0.060 A 
ATOM     41  C   UNL A   1      37.174  29.357  29.856  1.00  0.00     0.016 A 
ATOM     42  C   UNL A   1      38.241  29.951  27.765  1.00  0.00     0.016 A 
ATOM     43  C   UNL A   1      38.227  28.477  30.158  1.00  0.00     0.010 A 
ATOM     44  C   UNL A   1      39.328  29.185  28.129  1.00  0.00     0.010 A 
ATOM     45  C   UNL A   1      39.352  28.469  29.340  1.00  0.00    -0.014 A 
BRANCH  45  46
ATOM     46  C   UNL A   1      40.646  27.838  29.631  1.00  0.00     0.031 A 
ATOM     47  C   UNL A   1      40.840  26.457  29.142  1.00  0.00     0.074 A 
ATOM     48  C   UNL A   1      41.721  28.552  30.051  1.00  0.00     0.049 A 
ATOM     49  N   UNL A   1      41.877  25.742  29.389  1.00  0.00    -0.248 NA
ATOM     50  C   UNL A   1      39.842  25.737  28.357  1.00  0.00     0.031 C 
ATOM     51  C   UNL A   1      43.147  28.247  29.877  1.00  0.00     0.029 A 
ATOM     52  N   UNL A   1      41.764  29.755  30.765  1.00  0.00    -0.354 N 
ATOM     53  C   UNL A   1      41.848  24.645  28.561  1.00  0.00     0.074 A 
ATOM     54  C   UNL A   1      40.511  24.630  28.033  1.00  0.00     0.031 C 
ATOM     55  C   UNL A   1      43.879  29.020  30.702  1.00  0.00     0.029 A 
ATOM     56  C   UNL A   1      42.941  29.753  31.530  1.00  0.00     0.049 A 
ATOM     57  H   UNL A   1      41.090  30.472  30.735  1.00  0.00     0.167 HD
ATOM     58  C   UNL A   1      43.019  23.976  28.359  1.00  0.00     0.037 A 
ATOM     59  C   UNL A   1      42.874  29.803  32.887  1.00  0.00     0.037 A 
ATOM     60  C   UNL A   1      44.054  24.500  29.271  1.00  0.00     0.049 A 
ATOM     61  C   UNL A   1      43.474  28.538  33.428  1.00  0.00     0.074 A 
ATOM     62  C   UNL A   1      45.152  25.327  29.099  1.00  0.00     0.029 A 
ATOM     63  N   UNL A   1      43.820  24.453  30.648  1.00  0.00    -0.354 N 
ATOM     64  N   UNL A   1      43.530  27.436  32.728  1.00  0.00    -0.248 NA
ATOM     65  C   UNL A   1      44.163  28.430  34.706  1.00  0.00     0.031 C 
ATOM     66  C   UNL A   1      45.530  25.826  30.382  1.00  0.00     0.029 A 
ATOM     67  C   UNL A   1      44.684  25.283  31.338  1.00  0.00     0.049 A 
ATOM     68  H   UNL A   1      43.127  23.897  31.074  1.00  0.00     0.167 HD
ATOM     69  C   UNL A   1      44.322  26.533  33.366  1.00  0.00     0.074 A 
ATOM     70  C   UNL A   1      44.660  27.181  34.623  1.00  0.00     0.031 C 
ATOM     71  C   UNL A   1      44.658  25.337  32.800  1.00  0.00     0.037 A 
BRANCH  58  72
ATOM     72  C   UNL A   1      43.306  22.994  27.232  1.00  0.00     0.057 A 
ATOM     73  C   UNL A   1      42.645  21.748  27.193  1.00  0.00     0.134 A 
ATOM     74  C   UNL A   1      44.243  23.158  26.191  1.00  0.00     0.134 A 
ATOM     75  F   UNL A   1      41.704  21.423  28.089  1.00  0.00    -0.206 F 
ATOM     76  C   UNL A   1      42.917  20.757  26.233  1.00  0.00     0.040 A 
ATOM     77  C   UNL A   1      44.524  22.178  25.226  1.00  0.00     0.040 A 
ATOM     78  F   UNL A   1      44.951  24.272  26.018  1.00  0.00    -0.206 F 
ATOM     79  C   UNL A   1      43.865  20.967  25.246  1.00  0.00     0.006 A 
ENDBRANCH  58  72
BRANCH  59  80
ATOM     80  C   UNL A   1      41.672  30.571  33.339  1.00  0.00     0.057 A 
ATOM     81  C   UNL A   1      41.751  31.980  33.262  1.00  0.00     0.134 A 
ATOM     82  C   UNL A   1      40.386  30.024  33.323  1.00  0.00     0.134 A 
ATOM     83  F   UNL A   1      42.951  32.579  33.211  1.00  0.00    -0.206 F 
ATOM     84  C   UNL A   1      40.630  32.790  33.041  1.00  0.00     0.040 A 
ATOM     85  C   UNL A   1      39.253  30.828  33.101  1.00  0.00     0.040 A 
ATOM     86  F   UNL A   1      40.210  28.696  33.368  1.00  0.00    -0.206 F 
ATOM     87  C   UNL A   1      39.378  32.204  32.909  1.00  0.00     0.006 A 
ENDBRANCH  59  80
BRANCH  71  88
ATOM     88  C   UNL A   1      45.037  24.110  33.586  1.00  0.00     0.057 A 
ATOM     89  C   UNL A   1      44.157  23.048  33.845  1.00  0.00     0.134 A 
ATOM     90  C   UNL A   1      46.387  23.863  33.921  1.00  0.00     0.134 A 
ATOM     91  F   UNL A   1      42.869  23.086  33.478  1.00  0.00    -0.206 F 
ATOM     92  C   UNL A   1      44.576  21.854  34.435  1.00  0.00     0.040 A 
ATOM     93  C   UNL A   1      46.827  22.646  34.440  1.00  0.00     0.040 A 
ATOM     94  F   UNL A   1      47.351  24.773  33.722  1.00  0.00    -0.206 F 
ATOM     95  C   UNL A   1      45.917  21.639  34.714  1.00  0.00     0.006 A 
ENDBRANCH  71  88
ENDBRANCH  45  46
ENDBRANCH  38  40
ENDBRANCH  37  38
ENDBRANCH  36  37
ENDBRANCH  35  36
ENDBRANCH  34  35
ENDBRANCH   1  34
TORSDOF 18
ENDMDL
MODEL 3
REMARK VINA RESULT:     -11.6      1.613      2.410
REMARK SMILES Cc1ccc(-c2c(C)sc(NC(=O)[C@H]3CC=CC[C@H]3C(=O)OCCOCCOC(=O)c3ccc(-c4c5nc(c(-c6c(F)cccc6F)c6ccc([nH]6)c(-c6c(F)cccc6F)c6nc(c(-c7c(F)cccc7F)c7ccc4[nH]7)C=C6)C=C5)cc3)c2C(N)=O)cc1
REMARK SMILES IDX 24 1 23 2 22 3 20 4 21 5 19 6 14 7 15 8 16 9 18 10 17 11
REMARK SMILES IDX 12 12 11 13 13 15 10 16 6 17 7 18 85 19 8 20 9 21 5 22 1 23
REMARK SMILES IDX 2 24 3 25 90 26 4 27 89 28 86 29 87 30 88 31 25 34 26 35
REMARK SMILES IDX 27 36 28 37 29 38 30 39 31 40 32 41 84 42 33 43 83 44 34 45
REMARK SMILES IDX 35 46 36 47 77 48 37 49 82 50 76 51 78 52 38 53 81 54 75 55
REMARK SMILES IDX 74 56 39 58 65 59 48 60 64 61 49 62 52 63 63 64 79 65 50 66
REMARK SMILES IDX 51 67 62 69 80 70 53 71 40 72 41 73 46 74 42 75 43 76 45 77
REMARK SMILES IDX 47 78 44 79 66 80 67 81 72 82 68 83 69 84 71 85 73 86 70 87
REMARK SMILES IDX 54 88 55 89 60 90 56 91 57 92 59 93 61 94 58 95
REMARK H PARENT 11 14 87 32 87 33 78 57 52 68
REMARK Flexibility Score: inf
ROOT
ATOM      1  C   UNL A   1      35.811  19.764  24.507  1.00  0.00     0.202 C 
ENDROOT
BRANCH   1   2
ATOM      2  C   UNL A   1      34.401  19.817  25.014  1.00  0.00     0.261 C 
BRANCH   2   3
ATOM      3  O   UNL A   1      33.472  20.265  24.021  1.00  0.00    -0.463 OA
BRANCH   3   4
ATOM      4  C   UNL A   1      33.293  21.609  23.925  1.00  0.00     0.310 C 
ATOM      5  O   UNL A   1      33.512  22.294  22.950  1.00  0.00    -0.252 OA
BRANCH   4   6
ATOM      6  C   UNL A   1      32.720  22.147  25.198  1.00  0.00     0.116 C 
ATOM      7  C   UNL A   1      33.761  22.680  26.205  1.00  0.00     0.097 C 
ATOM      8  C   UNL A   1      33.078  22.896  27.561  1.00  0.00     0.041 C 
ATOM      9  C   UNL A   1      31.615  23.276  27.474  1.00  0.00    -0.030 C 
ATOM     10  C   UNL A   1      31.537  23.072  24.982  1.00  0.00     0.043 C 
ATOM     11  C   UNL A   1      30.932  23.387  26.321  1.00  0.00    -0.030 C 
BRANCH   7  12
ATOM     12  C   UNL A   1      34.864  23.697  25.731  1.00  0.00     0.229 C 
ATOM     13  N   UNL A   1      34.699  24.702  24.815  1.00  0.00    -0.317 N 
ATOM     14  H   UNL A   1      35.340  24.705  24.068  1.00  0.00     0.170 HD
ATOM     15  O   UNL A   1      36.041  23.486  26.070  1.00  0.00    -0.274 OA
BRANCH  13  16
ATOM     16  C   UNL A   1      33.760  25.705  24.796  1.00  0.00     0.109 A 
ATOM     17  C   UNL A   1      31.866  26.986  24.490  1.00  0.00     0.010 A 
ATOM     18  C   UNL A   1      32.151  27.137  25.840  1.00  0.00     0.012 A 
ATOM     19  C   UNL A   1      32.870  26.157  23.822  1.00  0.00     0.082 A 
ATOM     20  C   UNL A   1      31.337  27.615  26.992  1.00  0.00     0.057 C 
ATOM     21  S   UNL A   1      33.810  26.857  26.037  1.00  0.00    -0.122 S 
BRANCH  17  22
ATOM     22  C   UNL A   1      30.743  27.726  23.936  1.00  0.00    -0.016 A 
ATOM     23  C   UNL A   1      27.559  30.150  22.368  1.00  0.00     0.044 C 
ATOM     24  C   UNL A   1      28.655  29.309  22.944  1.00  0.00    -0.051 A 
ATOM     25  C   UNL A   1      28.476  27.931  23.141  1.00  0.00     0.004 A 
ATOM     26  C   UNL A   1      29.887  29.891  23.243  1.00  0.00     0.004 A 
ATOM     27  C   UNL A   1      29.512  27.141  23.651  1.00  0.00     0.009 A 
ATOM     28  C   UNL A   1      30.926  29.100  23.713  1.00  0.00     0.009 A 
ENDBRANCH  17  22
BRANCH  19  29
ATOM     29  C   UNL A   1      32.880  25.836  22.393  1.00  0.00     0.252 C 
ATOM     30  N   UNL A   1      32.061  24.822  21.975  1.00  0.00    -0.365 N 
ATOM     31  O   UNL A   1      33.614  26.365  21.568  1.00  0.00    -0.269 OA
ATOM     32  H   UNL A   1      31.461  24.379  22.617  1.00  0.00     0.159 HD
ATOM     33  H   UNL A   1      32.072  24.536  21.033  1.00  0.00     0.159 HD
ENDBRANCH  19  29
ENDBRANCH  13  16
ENDBRANCH   7  12
ENDBRANCH   4   6
ENDBRANCH   3   4
ENDBRANCH   2   3
ENDBRANCH   1   2
BRANCH   1  34
ATOM     34  O   UNL A   1      36.618  20.470  25.440  1.00  0.00    -0.374 OA
BRANCH  34  35
ATOM     35  C   UNL A   1      37.934  20.754  24.995  1.00  0.00     0.202 C 
BRANCH  35  36
ATOM     36  C   UNL A   1      38.893  21.164  26.125  1.00  0.00     0.261 C 
BRANCH  36  37
ATOM     37  O   UNL A   1      39.324  22.531  25.930  1.00  0.00    -0.460 OA
BRANCH  37  38
ATOM     38  C   UNL A   1      40.135  23.060  26.888  1.00  0.00     0.338 C 
ATOM     39  O   UNL A   1      40.811  22.420  27.678  1.00  0.00    -0.246 OA
BRANCH  38  40
ATOM     40  C   UNL A   1      39.844  24.519  27.045  1.00  0.00     0.060 A 
ATOM     41  C   UNL A   1      40.469  25.462  26.206  1.00  0.00     0.016 A 
ATOM     42  C   UNL A   1      39.247  24.940  28.230  1.00  0.00     0.016 A 
ATOM     43  C   UNL A   1      40.641  26.788  26.636  1.00  0.00     0.010 A 
ATOM     44  C   UNL A   1      39.531  26.204  28.699  1.00  0.00     0.010 A 
ATOM     45  C   UNL A   1      40.258  27.131  27.929  1.00  0.00    -0.014 A 
BRANCH  45  46
ATOM     46  C   UNL A   1      40.598  28.365  28.649  1.00  0.00     0.031 A 
ATOM     47  C   UNL A   1      39.533  29.384  28.765  1.00  0.00     0.074 A 
ATOM     48  C   UNL A   1      41.704  28.468  29.428  1.00  0.00     0.049 A 
ATOM     49  N   UNL A   1      39.698  30.545  29.287  1.00  0.00    -0.248 NA
ATOM     50  C   UNL A   1      38.181  29.192  28.252  1.00  0.00     0.031 C 
ATOM     51  C   UNL A   1      41.928  29.338  30.589  1.00  0.00     0.029 A 
ATOM     52  N   UNL A   1      42.922  27.786  29.333  1.00  0.00    -0.354 N 
ATOM     53  C   UNL A   1      38.459  31.107  29.481  1.00  0.00     0.074 A 
ATOM     54  C   UNL A   1      37.566  30.282  28.713  1.00  0.00     0.031 C 
ATOM     55  C   UNL A   1      43.243  29.373  30.881  1.00  0.00     0.029 A 
ATOM     56  C   UNL A   1      43.923  28.633  29.836  1.00  0.00     0.049 A 
ATOM     57  H   UNL A   1      43.054  26.878  28.978  1.00  0.00     0.167 HD
ATOM     58  C   UNL A   1      38.365  32.134  30.373  1.00  0.00     0.037 A 
ATOM     59  C   UNL A   1      44.935  29.050  29.029  1.00  0.00     0.037 A 
ATOM     60  C   UNL A   1      39.717  32.547  30.799  1.00  0.00     0.049 A 
ATOM     61  C   UNL A   1      44.851  30.544  28.913  1.00  0.00     0.074 A 
ATOM     62  C   UNL A   1      40.455  32.357  31.956  1.00  0.00     0.029 A 
ATOM     63  N   UNL A   1      40.628  32.967  29.827  1.00  0.00    -0.354 N 
ATOM     64  N   UNL A   1      43.735  31.198  29.101  1.00  0.00    -0.248 NA
ATOM     65  C   UNL A   1      45.993  31.425  28.715  1.00  0.00     0.031 C 
ATOM     66  C   UNL A   1      41.826  32.604  31.646  1.00  0.00     0.029 A 
ATOM     67  C   UNL A   1      41.922  32.972  30.312  1.00  0.00     0.049 A 
ATOM     68  H   UNL A   1      40.379  33.228  28.910  1.00  0.00     0.167 HD
ATOM     69  C   UNL A   1      43.995  32.531  29.166  1.00  0.00     0.074 A 
ATOM     70  C   UNL A   1      45.416  32.631  28.872  1.00  0.00     0.031 C 
ATOM     71  C   UNL A   1      43.029  33.443  29.480  1.00  0.00     0.037 A 
BRANCH  58  72
ATOM     72  C   UNL A   1      37.084  32.651  31.013  1.00  0.00     0.057 A 
ATOM     73  C   UNL A   1      36.692  32.189  32.286  1.00  0.00     0.134 A 
ATOM     74  C   UNL A   1      36.158  33.544  30.437  1.00  0.00     0.134 A 
ATOM     75  F   UNL A   1      37.459  31.350  32.997  1.00  0.00    -0.206 F 
ATOM     76  C   UNL A   1      35.484  32.555  32.905  1.00  0.00     0.040 A 
ATOM     77  C   UNL A   1      34.948  33.920  31.043  1.00  0.00     0.040 A 
ATOM     78  F   UNL A   1      36.347  34.129  29.256  1.00  0.00    -0.206 F 
ATOM     79  C   UNL A   1      34.602  33.421  32.281  1.00  0.00     0.006 A 
ENDBRANCH  58  72
BRANCH  59  80
ATOM     80  C   UNL A   1      45.258  28.018  27.995  1.00  0.00     0.057 A 
ATOM     81  C   UNL A   1      46.031  26.912  28.417  1.00  0.00     0.134 A 
ATOM     82  C   UNL A   1      44.461  27.817  26.865  1.00  0.00     0.134 A 
ATOM     83  F   UNL A   1      46.777  27.006  29.529  1.00  0.00    -0.206 F 
ATOM     84  C   UNL A   1      45.913  25.642  27.840  1.00  0.00     0.040 A 
ATOM     85  C   UNL A   1      44.334  26.545  26.278  1.00  0.00     0.040 A 
ATOM     86  F   UNL A   1      43.674  28.799  26.402  1.00  0.00    -0.206 F 
ATOM     87  C   UNL A   1      45.020  25.446  26.795  1.00  0.00     0.006 A 
ENDBRANCH  59  80
BRANCH  71  88
ATOM     88  C   UNL A   1      43.067  34.888  29.058  1.00  0.00     0.057 A 
ATOM     89  C   UNL A   1      43.224  35.956  29.954  1.00  0.00     0.134 A 
ATOM     90  C   UNL A   1      43.167  35.233  27.692  1.00  0.00     0.134 A 
ATOM     91  F   UNL A   1      43.268  35.773  31.281  1.00  0.00    -0.206 F 
ATOM     92  C   UNL A   1      43.417  37.272  29.526  1.00  0.00     0.040 A 
ATOM     93  C   UNL A   1      43.436  36.531  27.258  1.00  0.00     0.040 A 
ATOM     94  F   UNL A   1      43.053  34.323  26.714  1.00  0.00    -0.206 F 
ATOM     95  C   UNL A   1      43.546  37.561  28.176  1.00  0.00     0.006 A 
ENDBRANCH  71  88
ENDBRANCH  45  46
ENDBRANCH  38  40
ENDBRANCH  37  38
ENDBRANCH  36  37
ENDBRANCH  35  36
ENDBRANCH  34  35
ENDBRANCH   1  34
TORSDOF 18
ENDMDL
