MODEL 1
REMARK VINA RESULT:     -10.6      0.000      0.000
REMARK SMILES CCC[C@H]1CC[C@H](C(=O)OCCOCCOC(=O)c2ccc(-c3c4nc(c(-c5c(F)cccc5F)c5ccc([nH]5)c(-c5c(F)cccc5F)c5nc(c(-c6c(F)cccc6F)c6ccc3[nH]6)C=C5)C=C4)cc2)[C@H](Sc2ccncc2)C1
REMARK SMILES IDX 13 1 12 2 11 3 10 4 8 5 9 6 7 7 4 8 5 9 81 10 6 11 73 12
REMARK SMILES IDX 3 13 2 14 1 15 74 16 75 17 76 18 80 19 77 20 79 21 78 22
REMARK SMILES IDX 14 23 15 24 16 25 17 26 18 27 19 28 20 29 72 30 21 31 71 32
REMARK SMILES IDX 22 33 23 34 24 35 65 36 25 37 70 38 64 39 66 40 26 41 69 42
REMARK SMILES IDX 63 43 62 44 27 46 53 47 36 48 52 49 37 50 40 51 51 52 67 53
REMARK SMILES IDX 38 54 39 55 50 57 68 58 41 59 28 60 29 61 34 62 30 63 31 64
REMARK SMILES IDX 33 65 35 66 32 67 54 68 55 69 60 70 56 71 57 72 59 73 61 74
REMARK SMILES IDX 58 75 42 76 43 77 48 78 44 79 45 80 47 81 49 82 46 83
REMARK H PARENT 66 45 40 56
REMARK Flexibility Score: inf
ROOT
ATOM      1  O   UNL A   1      34.806  21.611  24.681  1.00  0.00    -0.374 OA
ENDROOT
BRANCH   1   2
ATOM      2  C   UNL A   1      33.659  22.285  25.176  1.00  0.00     0.202 C 
BRANCH   2   3
ATOM      3  C   UNL A   1      32.743  23.042  24.205  1.00  0.00     0.261 C 
BRANCH   3   4
ATOM      4  O   UNL A   1      32.087  24.219  24.683  1.00  0.00    -0.463 OA
BRANCH   4   5
ATOM      5  C   UNL A   1      32.750  25.384  24.455  1.00  0.00     0.310 C 
ATOM      6  O   UNL A   1      33.770  25.489  23.784  1.00  0.00    -0.252 OA
BRANCH   5   7
ATOM      7  C   UNL A   1      32.082  26.576  25.105  1.00  0.00     0.112 C 
ATOM      8  C   UNL A   1      33.733  29.080  25.460  1.00  0.00    -0.010 C 
ATOM      9  C   UNL A   1      33.967  27.843  26.347  1.00  0.00     0.004 C 
ATOM     10  C   UNL A   1      33.222  28.630  24.076  1.00  0.00     0.019 C 
ATOM     11  C   UNL A   1      32.734  26.939  26.455  1.00  0.00     0.017 C 
ATOM     12  C   UNL A   1      31.939  27.800  24.184  1.00  0.00     0.066 C 
BRANCH   8  13
ATOM     13  C   UNL A   1      32.842  30.092  26.222  1.00  0.00     0.003 C 
BRANCH  13  14
ATOM     14  C   UNL A   1      33.383  30.626  27.550  1.00  0.00    -0.003 C 
ATOM     15  C   UNL A   1      34.847  31.041  27.491  1.00  0.00     0.004 C 
ENDBRANCH  13  14
ENDBRANCH   8  13
BRANCH  12  16
ATOM     16  S   UNL A   1      31.038  27.576  22.576  1.00  0.00    -0.122 SA
BRANCH  16  17
ATOM     17  C   UNL A   1      29.570  28.577  22.692  1.00  0.00     0.011 A 
ATOM     18  C   UNL A   1      29.598  29.889  22.217  1.00  0.00     0.035 A 
ATOM     19  C   UNL A   1      28.356  28.053  23.124  1.00  0.00     0.035 A 
ATOM     20  C   UNL A   1      28.444  30.650  22.286  1.00  0.00     0.112 A 
ATOM     21  C   UNL A   1      27.244  28.882  23.127  1.00  0.00     0.112 A 
ATOM     22  N   UNL A   1      27.266  30.177  22.743  1.00  0.00    -0.265 NA
ENDBRANCH  16  17
ENDBRANCH  12  16
ENDBRANCH   5   7
ENDBRANCH   4   5
ENDBRANCH   3   4
ENDBRANCH   2   3
ENDBRANCH   1   2
BRANCH   1  23
ATOM     23  C   UNL A   1      35.844  21.259  25.592  1.00  0.00     0.202 C 
BRANCH  23  24
ATOM     24  C   UNL A   1      37.136  20.686  25.011  1.00  0.00     0.261 C 
BRANCH  24  25
ATOM     25  O   UNL A   1      38.206  21.651  25.028  1.00  0.00    -0.460 OA
BRANCH  25  26
ATOM     26  C   UNL A   1      39.222  21.332  25.859  1.00  0.00     0.338 C 
ATOM     27  O   UNL A   1      39.917  20.324  25.827  1.00  0.00    -0.246 OA
BRANCH  26  28
ATOM     28  C   UNL A   1      39.533  22.445  26.769  1.00  0.00     0.060 A 
ATOM     29  C   UNL A   1      38.856  23.651  26.552  1.00  0.00     0.016 A 
ATOM     30  C   UNL A   1      40.590  22.369  27.679  1.00  0.00     0.016 A 
ATOM     31  C   UNL A   1      39.308  24.816  27.157  1.00  0.00     0.010 A 
ATOM     32  C   UNL A   1      41.045  23.544  28.288  1.00  0.00     0.010 A 
ATOM     33  C   UNL A   1      40.450  24.777  27.969  1.00  0.00    -0.014 A 
BRANCH  33  34
ATOM     34  C   UNL A   1      41.133  26.060  28.267  1.00  0.00     0.031 A 
ATOM     35  C   UNL A   1      42.529  26.270  27.742  1.00  0.00     0.074 A 
ATOM     36  C   UNL A   1      40.483  27.056  28.891  1.00  0.00     0.049 A 
ATOM     37  N   UNL A   1      43.286  27.336  27.797  1.00  0.00    -0.248 NA
ATOM     38  C   UNL A   1      43.153  25.127  27.053  1.00  0.00     0.031 C 
ATOM     39  C   UNL A   1      39.115  26.984  29.399  1.00  0.00     0.029 A 
ATOM     40  N   UNL A   1      40.887  28.334  29.182  1.00  0.00    -0.354 N 
ATOM     41  C   UNL A   1      44.467  26.994  27.149  1.00  0.00     0.074 A 
ATOM     42  C   UNL A   1      44.346  25.612  26.744  1.00  0.00     0.031 C 
ATOM     43  C   UNL A   1      38.788  28.173  29.935  1.00  0.00     0.029 A 
ATOM     44  C   UNL A   1      39.929  29.080  29.821  1.00  0.00     0.049 A 
ATOM     45  H   UNL A   1      41.779  28.681  28.955  1.00  0.00     0.167 HD
ATOM     46  C   UNL A   1      45.550  27.767  26.898  1.00  0.00     0.037 A 
ATOM     47  C   UNL A   1      39.973  30.350  30.262  1.00  0.00     0.037 A 
ATOM     48  C   UNL A   1      45.669  29.145  27.295  1.00  0.00     0.049 A 
ATOM     49  C   UNL A   1      41.213  31.171  30.026  1.00  0.00     0.074 A 
ATOM     50  C   UNL A   1      46.721  30.018  27.082  1.00  0.00     0.029 A 
ATOM     51  N   UNL A   1      44.698  29.847  27.991  1.00  0.00    -0.354 N 
ATOM     52  N   UNL A   1      42.315  30.843  29.396  1.00  0.00    -0.248 NA
ATOM     53  C   UNL A   1      41.209  32.541  30.556  1.00  0.00     0.031 C 
ATOM     54  C   UNL A   1      46.402  31.239  27.687  1.00  0.00     0.029 A 
ATOM     55  C   UNL A   1      45.134  31.138  28.237  1.00  0.00     0.049 A 
ATOM     56  H   UNL A   1      43.825  29.483  28.268  1.00  0.00     0.167 HD
ATOM     57  C   UNL A   1      43.126  31.970  29.434  1.00  0.00     0.074 A 
ATOM     58  C   UNL A   1      42.380  32.996  30.134  1.00  0.00     0.031 C 
ATOM     59  C   UNL A   1      44.376  32.142  28.937  1.00  0.00     0.037 A 
BRANCH  46  60
ATOM     60  C   UNL A   1      46.699  27.129  26.174  1.00  0.00     0.057 A 
ATOM     61  C   UNL A   1      46.861  27.254  24.787  1.00  0.00     0.134 A 
ATOM     62  C   UNL A   1      47.664  26.395  26.874  1.00  0.00     0.134 A 
ATOM     63  F   UNL A   1      45.961  27.929  24.056  1.00  0.00    -0.206 F 
ATOM     64  C   UNL A   1      47.932  26.654  24.121  1.00  0.00     0.040 A 
ATOM     65  C   UNL A   1      48.752  25.810  26.222  1.00  0.00     0.040 A 
ATOM     66  F   UNL A   1      47.569  26.238  28.203  1.00  0.00    -0.206 F 
ATOM     67  C   UNL A   1      48.884  25.934  24.840  1.00  0.00     0.006 A 
ENDBRANCH  46  60
BRANCH  47  68
ATOM     68  C   UNL A   1      38.806  30.928  30.973  1.00  0.00     0.057 A 
ATOM     69  C   UNL A   1      38.663  30.805  32.360  1.00  0.00     0.134 A 
ATOM     70  C   UNL A   1      37.795  31.602  30.276  1.00  0.00     0.134 A 
ATOM     71  F   UNL A   1      39.586  30.151  33.078  1.00  0.00    -0.206 F 
ATOM     72  C   UNL A   1      37.548  31.317  33.026  1.00  0.00     0.040 A 
ATOM     73  C   UNL A   1      36.687  32.139  30.933  1.00  0.00     0.040 A 
ATOM     74  F   UNL A   1      37.876  31.754  28.947  1.00  0.00    -0.206 F 
ATOM     75  C   UNL A   1      36.559  31.991  32.313  1.00  0.00     0.006 A 
ENDBRANCH  47  68
BRANCH  59  76
ATOM     76  C   UNL A   1      45.002  33.494  29.118  1.00  0.00     0.057 A 
ATOM     77  C   UNL A   1      44.755  34.543  28.225  1.00  0.00     0.134 A 
ATOM     78  C   UNL A   1      45.837  33.755  30.210  1.00  0.00     0.134 A 
ATOM     79  F   UNL A   1      43.973  34.353  27.151  1.00  0.00    -0.206 F 
ATOM     80  C   UNL A   1      45.338  35.800  28.398  1.00  0.00     0.040 A 
ATOM     81  C   UNL A   1      46.406  35.013  30.408  1.00  0.00     0.040 A 
ATOM     82  F   UNL A   1      46.106  32.795  31.108  1.00  0.00    -0.206 F 
ATOM     83  C   UNL A   1      46.162  36.039  29.496  1.00  0.00     0.006 A 
ENDBRANCH  59  76
ENDBRANCH  33  34
ENDBRANCH  26  28
ENDBRANCH  25  26
ENDBRANCH  24  25
ENDBRANCH  23  24
ENDBRANCH   1  23
TORSDOF 18
ENDMDL
MODEL 2
REMARK VINA RESULT:     -10.5      1.340      6.648
REMARK SMILES CCC[C@H]1CC[C@H](C(=O)OCCOCCOC(=O)c2ccc(-c3c4nc(c(-c5c(F)cccc5F)c5ccc([nH]5)c(-c5c(F)cccc5F)c5nc(c(-c6c(F)cccc6F)c6ccc3[nH]6)C=C5)C=C4)cc2)[C@H](Sc2ccncc2)C1
REMARK SMILES IDX 13 1 12 2 11 3 10 4 8 5 9 6 7 7 4 8 5 9 81 10 6 11 73 12
REMARK SMILES IDX 3 13 2 14 1 15 74 16 75 17 76 18 80 19 77 20 79 21 78 22
REMARK SMILES IDX 14 23 15 24 16 25 17 26 18 27 19 28 20 29 72 30 21 31 71 32
REMARK SMILES IDX 22 33 23 34 24 35 65 36 25 37 70 38 64 39 66 40 26 41 69 42
REMARK SMILES IDX 63 43 62 44 27 46 53 47 36 48 52 49 37 50 40 51 51 52 67 53
REMARK SMILES IDX 38 54 39 55 50 57 68 58 41 59 28 60 29 61 34 62 30 63 31 64
REMARK SMILES IDX 33 65 35 66 32 67 54 68 55 69 60 70 56 71 57 72 59 73 61 74
REMARK SMILES IDX 58 75 42 76 43 77 48 78 44 79 45 80 47 81 49 82 46 83
REMARK H PARENT 66 45 40 56
REMARK Flexibility Score: inf
ROOT
ATOM      1  O   UNL A   1      34.749  20.850  24.877  1.00  0.00    -0.374 OA
ENDROOT
BRANCH   1   2
ATOM      2  C   UNL A   1      33.953  21.940  24.442  1.00  0.00     0.202 C 
BRANCH   2   3
ATOM      3  C   UNL A   1      34.084  23.303  25.135  1.00  0.00     0.261 C 
BRANCH   3   4
ATOM      4  O   UNL A   1      33.915  24.479  24.339  1.00  0.00    -0.463 OA
BRANCH   4   5
ATOM      5  C   UNL A   1      32.737  25.134  24.518  1.00  0.00     0.310 C 
ATOM      6  O   UNL A   1      31.723  24.634  24.990  1.00  0.00    -0.252 OA
BRANCH   5   7
ATOM      7  C   UNL A   1      32.799  26.583  24.087  1.00  0.00     0.112 C 
ATOM      8  C   UNL A   1      30.341  27.764  22.792  1.00  0.00    -0.010 C 
ATOM      9  C   UNL A   1      31.239  26.772  22.030  1.00  0.00     0.004 C 
ATOM     10  C   UNL A   1      30.397  27.455  24.302  1.00  0.00     0.019 C 
ATOM     11  C   UNL A   1      32.679  26.738  22.557  1.00  0.00     0.017 C 
ATOM     12  C   UNL A   1      31.830  27.509  24.842  1.00  0.00     0.066 C 
BRANCH   8  13
ATOM     13  C   UNL A   1      30.711  29.209  22.376  1.00  0.00     0.003 C 
BRANCH  13  14
ATOM     14  C   UNL A   1      29.552  30.146  22.027  1.00  0.00    -0.003 C 
ATOM     15  C   UNL A   1      28.767  30.626  23.240  1.00  0.00     0.004 C 
ENDBRANCH  13  14
ENDBRANCH   8  13
BRANCH  12  16
ATOM     16  S   UNL A   1      31.945  27.563  26.694  1.00  0.00    -0.122 SA
BRANCH  16  17
ATOM     17  C   UNL A   1      33.011  28.936  27.080  1.00  0.00     0.011 A 
ATOM     18  C   UNL A   1      34.390  28.733  27.147  1.00  0.00     0.035 A 
ATOM     19  C   UNL A   1      32.525  30.235  27.190  1.00  0.00     0.035 A 
ATOM     20  C   UNL A   1      35.213  29.811  27.420  1.00  0.00     0.112 A 
ATOM     21  C   UNL A   1      33.430  31.258  27.431  1.00  0.00     0.112 A 
ATOM     22  N   UNL A   1      34.760  31.073  27.575  1.00  0.00    -0.265 NA
ENDBRANCH  16  17
ENDBRANCH  12  16
ENDBRANCH   5   7
ENDBRANCH   4   5
ENDBRANCH   3   4
ENDBRANCH   2   3
ENDBRANCH   1   2
BRANCH   1  23
ATOM     23  C   UNL A   1      35.989  21.117  25.527  1.00  0.00     0.202 C 
BRANCH  23  24
ATOM     24  C   UNL A   1      37.232  20.392  25.015  1.00  0.00     0.261 C 
BRANCH  24  25
ATOM     25  O   UNL A   1      38.382  21.259  24.979  1.00  0.00    -0.460 OA
BRANCH  25  26
ATOM     26  C   UNL A   1      39.300  20.998  25.936  1.00  0.00     0.338 C 
ATOM     27  O   UNL A   1      39.903  19.948  26.116  1.00  0.00    -0.246 OA
BRANCH  26  28
ATOM     28  C   UNL A   1      39.639  22.212  26.693  1.00  0.00     0.060 A 
ATOM     29  C   UNL A   1      38.977  23.391  26.332  1.00  0.00     0.016 A 
ATOM     30  C   UNL A   1      40.706  22.236  27.594  1.00  0.00     0.016 A 
ATOM     31  C   UNL A   1      39.453  24.616  26.780  1.00  0.00     0.010 A 
ATOM     32  C   UNL A   1      41.186  23.471  28.043  1.00  0.00     0.010 A 
ATOM     33  C   UNL A   1      40.604  24.663  27.578  1.00  0.00    -0.014 A 
BRANCH  33  34
ATOM     34  C   UNL A   1      41.309  25.962  27.703  1.00  0.00     0.031 A 
ATOM     35  C   UNL A   1      40.632  27.078  28.456  1.00  0.00     0.074 A 
ATOM     36  C   UNL A   1      42.568  26.107  27.258  1.00  0.00     0.049 A 
ATOM     37  N   UNL A   1      41.087  28.264  28.771  1.00  0.00    -0.248 NA
ATOM     38  C   UNL A   1      39.259  26.819  28.924  1.00  0.00     0.031 C 
ATOM     39  C   UNL A   1      43.340  25.082  26.560  1.00  0.00     0.029 A 
ATOM     40  N   UNL A   1      43.424  27.175  27.350  1.00  0.00    -0.354 N 
ATOM     41  C   UNL A   1      40.063  28.886  29.475  1.00  0.00     0.074 A 
ATOM     42  C   UNL A   1      38.948  27.966  29.508  1.00  0.00     0.031 C 
ATOM     43  C   UNL A   1      44.564  25.568  26.292  1.00  0.00     0.029 A 
ATOM     44  C   UNL A   1      44.652  26.942  26.784  1.00  0.00     0.049 A 
ATOM     45  H   UNL A   1      43.180  28.026  27.778  1.00  0.00     0.167 HD
ATOM     46  C   UNL A   1      40.057  30.108  30.058  1.00  0.00     0.037 A 
ATOM     47  C   UNL A   1      45.723  27.749  26.679  1.00  0.00     0.037 A 
ATOM     48  C   UNL A   1      41.168  31.021  30.033  1.00  0.00     0.049 A 
ATOM     49  C   UNL A   1      45.671  29.127  27.282  1.00  0.00     0.074 A 
ATOM     50  C   UNL A   1      41.266  32.279  30.599  1.00  0.00     0.029 A 
ATOM     51  N   UNL A   1      42.376  30.769  29.401  1.00  0.00    -0.354 N 
ATOM     52  N   UNL A   1      44.704  29.697  27.962  1.00  0.00    -0.248 NA
ATOM     53  C   UNL A   1      46.862  29.971  27.110  1.00  0.00     0.031 C 
ATOM     54  C   UNL A   1      42.522  32.806  30.274  1.00  0.00     0.029 A 
ATOM     55  C   UNL A   1      43.219  31.858  29.543  1.00  0.00     0.049 A 
ATOM     56  H   UNL A   1      42.602  29.938  28.922  1.00  0.00     0.167 HD
ATOM     57  C   UNL A   1      45.177  30.955  28.316  1.00  0.00     0.074 A 
ATOM     58  C   UNL A   1      46.524  31.056  27.791  1.00  0.00     0.031 C 
ATOM     59  C   UNL A   1      44.555  31.939  29.011  1.00  0.00     0.037 A 
BRANCH  46  60
ATOM     60  C   UNL A   1      38.799  30.531  30.758  1.00  0.00     0.057 A 
ATOM     61  C   UNL A   1      37.777  31.222  30.092  1.00  0.00     0.134 A 
ATOM     62  C   UNL A   1      38.598  30.228  32.110  1.00  0.00     0.134 A 
ATOM     63  F   UNL A   1      37.915  31.558  28.800  1.00  0.00    -0.206 F 
ATOM     64  C   UNL A   1      36.611  31.614  30.751  1.00  0.00     0.040 A 
ATOM     65  C   UNL A   1      37.426  30.595  32.775  1.00  0.00     0.040 A 
ATOM     66  F   UNL A   1      39.536  29.568  32.806  1.00  0.00    -0.206 F 
ATOM     67  C   UNL A   1      36.431  31.295  32.096  1.00  0.00     0.006 A 
ENDBRANCH  46  60
BRANCH  47  68
ATOM     68  C   UNL A   1      46.941  27.277  25.975  1.00  0.00     0.057 A 
ATOM     69  C   UNL A   1      47.980  26.639  26.664  1.00  0.00     0.134 A 
ATOM     70  C   UNL A   1      47.103  27.472  24.598  1.00  0.00     0.134 A 
ATOM     71  F   UNL A   1      47.893  26.444  27.987  1.00  0.00    -0.206 F 
ATOM     72  C   UNL A   1      49.142  26.226  26.010  1.00  0.00     0.040 A 
ATOM     73  C   UNL A   1      48.250  27.042  23.928  1.00  0.00     0.040 A 
ATOM     74  F   UNL A   1      46.143  28.075  23.883  1.00  0.00    -0.206 F 
ATOM     75  C   UNL A   1      49.277  26.423  24.638  1.00  0.00     0.006 A 
ENDBRANCH  47  68
BRANCH  59  76
ATOM     76  C   UNL A   1      45.333  33.197  29.258  1.00  0.00     0.057 A 
ATOM     77  C   UNL A   1      45.264  34.288  28.383  1.00  0.00     0.134 A 
ATOM     78  C   UNL A   1      46.137  33.329  30.397  1.00  0.00     0.134 A 
ATOM     79  F   UNL A   1      44.522  34.220  27.268  1.00  0.00    -0.206 F 
ATOM     80  C   UNL A   1      45.989  35.458  28.619  1.00  0.00     0.040 A 
ATOM     81  C   UNL A   1      46.847  34.501  30.657  1.00  0.00     0.040 A 
ATOM     82  F   UNL A   1      46.238  32.323  31.280  1.00  0.00    -0.206 F 
ATOM     83  C   UNL A   1      46.779  35.568  29.762  1.00  0.00     0.006 A 
ENDBRANCH  59  76
ENDBRANCH  33  34
ENDBRANCH  26  28
ENDBRANCH  25  26
ENDBRANCH  24  25
ENDBRANCH  23  24
ENDBRANCH   1  23
TORSDOF 18
ENDMDL
MODEL 3
REMARK VINA RESULT:     -10.5      4.202      9.384
REMARK SMILES CCC[C@H]1CC[C@H](C(=O)OCCOCCOC(=O)c2ccc(-c3c4nc(c(-c5c(F)cccc5F)c5ccc([nH]5)c(-c5c(F)cccc5F)c5nc(c(-c6c(F)cccc6F)c6ccc3[nH]6)C=C5)C=C4)cc2)[C@H](Sc2ccncc2)C1
REMARK SMILES IDX 13 1 12 2 11 3 10 4 8 5 9 6 7 7 4 8 5 9 81 10 6 11 73 12
REMARK SMILES IDX 3 13 2 14 1 15 74 16 75 17 76 18 80 19 77 20 79 21 78 22
REMARK SMILES IDX 14 23 15 24 16 25 17 26 18 27 19 28 20 29 72 30 21 31 71 32
REMARK SMILES IDX 22 33 23 34 24 35 65 36 25 37 70 38 64 39 66 40 26 41 69 42
REMARK SMILES IDX 63 43 62 44 27 46 53 47 36 48 52 49 37 50 40 51 51 52 67 53
REMARK SMILES IDX 38 54 39 55 50 57 68 58 41 59 28 60 29 61 34 62 30 63 31 64
REMARK SMILES IDX 33 65 35 66 32 67 54 68 55 69 60 70 56 71 57 72 59 73 61 74
REMARK SMILES IDX 58 75 42 76 43 77 48 78 44 79 45 80 47 81 49 82 46 83
REMARK H PARENT 66 45 40 56
REMARK Flexibility Score: inf
ROOT
ATOM      1  O   UNL A   1      31.416  28.416  25.220  1.00  0.00    -0.374 OA
ENDROOT
BRANCH   1   2
ATOM      2  C   UNL A   1      32.240  27.263  25.158  1.00  0.00     0.202 C 
BRANCH   2   3
ATOM      3  C   UNL A   1      32.173  26.218  26.280  1.00  0.00     0.261 C 
BRANCH   3   4
ATOM      4  O   UNL A   1      32.909  25.004  26.110  1.00  0.00    -0.463 OA
BRANCH   4   5
ATOM      5  C   UNL A   1      32.381  24.127  25.215  1.00  0.00     0.310 C 
ATOM      6  O   UNL A   1      31.183  23.927  25.055  1.00  0.00    -0.252 OA
BRANCH   5   7
ATOM      7  C   UNL A   1      33.436  23.418  24.396  1.00  0.00     0.112 C 
ATOM      8  C   UNL A   1      36.045  22.743  25.759  1.00  0.00    -0.010 C 
ATOM      9  C   UNL A   1      35.711  24.192  25.360  1.00  0.00     0.004 C 
ATOM     10  C   UNL A   1      34.741  21.983  26.074  1.00  0.00     0.019 C 
ATOM     11  C   UNL A   1      34.701  24.281  24.209  1.00  0.00     0.017 C 
ATOM     12  C   UNL A   1      33.771  21.999  24.888  1.00  0.00     0.066 C 
BRANCH   8  13
ATOM     13  C   UNL A   1      36.959  22.115  24.679  1.00  0.00     0.003 C 
BRANCH  13  14
ATOM     14  C   UNL A   1      37.093  20.590  24.688  1.00  0.00    -0.003 C 
ATOM     15  C   UNL A   1      38.437  20.098  25.207  1.00  0.00     0.004 C 
ENDBRANCH  13  14
ENDBRANCH   8  13
BRANCH  12  16
ATOM     16  S   UNL A   1      32.380  20.776  25.024  1.00  0.00    -0.122 SA
BRANCH  16  17
ATOM     17  C   UNL A   1      32.909  19.330  24.130  1.00  0.00     0.011 A 
ATOM     18  C   UNL A   1      33.962  18.563  24.631  1.00  0.00     0.035 A 
ATOM     19  C   UNL A   1      32.223  18.865  23.012  1.00  0.00     0.035 A 
ATOM     20  C   UNL A   1      34.348  17.426  23.945  1.00  0.00     0.112 A 
ATOM     21  C   UNL A   1      32.663  17.697  22.408  1.00  0.00     0.112 A 
ATOM     22  N   UNL A   1      33.726  16.980  22.833  1.00  0.00    -0.265 NA
ENDBRANCH  16  17
ENDBRANCH  12  16
ENDBRANCH   5   7
ENDBRANCH   4   5
ENDBRANCH   3   4
ENDBRANCH   2   3
ENDBRANCH   1   2
BRANCH   1  23
ATOM     23  C   UNL A   1      32.032  29.702  25.235  1.00  0.00     0.202 C 
BRANCH  23  24
ATOM     24  C   UNL A   1      31.801  30.587  26.460  1.00  0.00     0.261 C 
BRANCH  24  25
ATOM     25  O   UNL A   1      32.859  30.447  27.428  1.00  0.00    -0.460 OA
BRANCH  25  26
ATOM     26  C   UNL A   1      33.593  31.567  27.608  1.00  0.00     0.338 C 
ATOM     27  O   UNL A   1      33.177  32.708  27.763  1.00  0.00    -0.246 OA
BRANCH  26  28
ATOM     28  C   UNL A   1      35.020  31.248  27.760  1.00  0.00     0.060 A 
ATOM     29  C   UNL A   1      35.363  29.893  27.835  1.00  0.00     0.016 A 
ATOM     30  C   UNL A   1      35.967  32.243  28.014  1.00  0.00     0.016 A 
ATOM     31  C   UNL A   1      36.626  29.523  28.279  1.00  0.00     0.010 A 
ATOM     32  C   UNL A   1      37.238  31.869  28.464  1.00  0.00     0.010 A 
ATOM     33  C   UNL A   1      37.542  30.511  28.665  1.00  0.00    -0.014 A 
BRANCH  33  34
ATOM     34  C   UNL A   1      38.699  30.097  29.495  1.00  0.00     0.031 A 
ATOM     35  C   UNL A   1      38.792  30.613  30.908  1.00  0.00     0.074 A 
ATOM     36  C   UNL A   1      39.584  29.194  29.041  1.00  0.00     0.049 A 
ATOM     37  N   UNL A   1      39.657  30.319  31.845  1.00  0.00    -0.248 NA
ATOM     38  C   UNL A   1      37.766  31.584  31.323  1.00  0.00     0.031 C 
ATOM     39  C   UNL A   1      39.566  28.590  27.710  1.00  0.00     0.029 A 
ATOM     40  N   UNL A   1      40.658  28.614  29.664  1.00  0.00    -0.354 N 
ATOM     41  C   UNL A   1      39.277  31.062  32.956  1.00  0.00     0.074 A 
ATOM     42  C   UNL A   1      38.129  31.851  32.568  1.00  0.00     0.031 C 
ATOM     43  C   UNL A   1      40.581  27.714  27.618  1.00  0.00     0.029 A 
ATOM     44  C   UNL A   1      41.326  27.710  28.876  1.00  0.00     0.049 A 
ATOM     45  H   UNL A   1      40.925  28.825  30.587  1.00  0.00     0.167 HD
ATOM     46  C   UNL A   1      39.824  31.074  34.194  1.00  0.00     0.037 A 
ATOM     47  C   UNL A   1      42.416  26.968  29.144  1.00  0.00     0.037 A 
ATOM     48  C   UNL A   1      40.962  30.284  34.583  1.00  0.00     0.049 A 
ATOM     49  C   UNL A   1      43.043  27.044  30.510  1.00  0.00     0.074 A 
ATOM     50  C   UNL A   1      41.588  30.218  35.815  1.00  0.00     0.029 A 
ATOM     51  N   UNL A   1      41.644  29.423  33.738  1.00  0.00    -0.354 N 
ATOM     52  N   UNL A   1      42.664  27.736  31.557  1.00  0.00    -0.248 NA
ATOM     53  C   UNL A   1      44.246  26.230  30.731  1.00  0.00     0.031 C 
ATOM     54  C   UNL A   1      42.677  29.346  35.703  1.00  0.00     0.029 A 
ATOM     55  C   UNL A   1      42.701  28.837  34.414  1.00  0.00     0.049 A 
ATOM     56  H   UNL A   1      41.412  29.252  32.796  1.00  0.00     0.167 HD
ATOM     57  C   UNL A   1      43.566  27.425  32.566  1.00  0.00     0.074 A 
ATOM     58  C   UNL A   1      44.501  26.468  32.010  1.00  0.00     0.031 C 
ATOM     59  C   UNL A   1      43.620  27.889  33.840  1.00  0.00     0.037 A 
BRANCH  46  60
ATOM     60  C   UNL A   1      39.205  31.986  35.212  1.00  0.00     0.057 A 
ATOM     61  C   UNL A   1      39.481  33.360  35.240  1.00  0.00     0.134 A 
ATOM     62  C   UNL A   1      38.307  31.488  36.164  1.00  0.00     0.134 A 
ATOM     63  F   UNL A   1      40.346  33.897  34.366  1.00  0.00    -0.206 F 
ATOM     64  C   UNL A   1      38.902  34.201  36.192  1.00  0.00     0.040 A 
ATOM     65  C   UNL A   1      37.705  32.324  37.107  1.00  0.00     0.040 A 
ATOM     66  F   UNL A   1      37.999  30.183  36.192  1.00  0.00    -0.206 F 
ATOM     67  C   UNL A   1      38.007  33.684  37.126  1.00  0.00     0.006 A 
ENDBRANCH  46  60
BRANCH  47  68
ATOM     68  C   UNL A   1      42.985  26.083  28.097  1.00  0.00     0.057 A 
ATOM     69  C   UNL A   1      43.966  26.541  27.210  1.00  0.00     0.134 A 
ATOM     70  C   UNL A   1      42.545  24.761  27.948  1.00  0.00     0.134 A 
ATOM     71  F   UNL A   1      44.411  27.803  27.289  1.00  0.00    -0.206 F 
ATOM     72  C   UNL A   1      44.478  25.722  26.202  1.00  0.00     0.040 A 
ATOM     73  C   UNL A   1      43.065  23.925  26.960  1.00  0.00     0.040 A 
ATOM     74  F   UNL A   1      41.609  24.264  28.768  1.00  0.00    -0.206 F 
ATOM     75  C   UNL A   1      44.030  24.408  26.078  1.00  0.00     0.006 A 
ENDBRANCH  47  68
BRANCH  59  76
ATOM     76  C   UNL A   1      44.712  27.352  34.717  1.00  0.00     0.057 A 
ATOM     77  C   UNL A   1      45.962  27.975  34.800  1.00  0.00     0.134 A 
ATOM     78  C   UNL A   1      44.500  26.215  35.507  1.00  0.00     0.134 A 
ATOM     79  F   UNL A   1      46.232  29.060  34.059  1.00  0.00    -0.206 F 
ATOM     80  C   UNL A   1      46.974  27.472  35.620  1.00  0.00     0.040 A 
ATOM     81  C   UNL A   1      45.495  25.717  36.349  1.00  0.00     0.040 A 
ATOM     82  F   UNL A   1      43.320  25.576  35.480  1.00  0.00    -0.206 F 
ATOM     83  C   UNL A   1      46.739  26.342  36.401  1.00  0.00     0.006 A 
ENDBRANCH  59  76
ENDBRANCH  33  34
ENDBRANCH  26  28
ENDBRANCH  25  26
ENDBRANCH  24  25
ENDBRANCH  23  24
ENDBRANCH   1  23
TORSDOF 18
ENDMDL
