MODEL 1
REMARK VINA RESULT:      -9.6      0.000      0.000
REMARK SMILES Cc1cc2c(c(C)c1Cl)C=C(C(=O)OCCOCCOC(=O)c1ccc(-c3c4nc(c(-c5c(F)cccc5F)c5ccc([nH]5)c(-c5c(F)cccc5F)c5nc(c(-c6c(F)cccc6F)c6ccc3[nH]6)C=C5)C=C4)cc1)[C@@H](C(F)(F)F)O2
REMARK SMILES IDX 18 1 17 2 16 3 15 4 14 5 12 6 13 7 11 8 1 9 2 10 3 11 8 12
REMARK SMILES IDX 4 13 6 14 9 15 5 16 82 17 7 18 10 19 77 20 78 21 79 22 80 23
REMARK SMILES IDX 81 24 19 25 20 26 21 27 22 28 23 29 24 30 76 31 25 32 75 33
REMARK SMILES IDX 26 34 27 35 28 36 69 37 29 38 74 39 68 40 70 41 30 42 73 43
REMARK SMILES IDX 67 44 66 45 31 47 57 48 40 49 56 50 41 51 44 52 55 53 71 54
REMARK SMILES IDX 42 55 43 56 54 58 72 59 45 60 32 61 33 62 38 63 34 64 35 65
REMARK SMILES IDX 37 66 39 67 36 68 58 69 59 70 64 71 60 72 61 73 63 74 65 75
REMARK SMILES IDX 62 76 46 77 47 78 52 79 48 80 49 81 51 82 53 83 50 84
REMARK H PARENT 70 46 44 57
REMARK Flexibility Score: inf
ROOT
ATOM      1  C   UNL A   1      33.266  37.264  31.807  1.00  0.00     0.202 C 
ENDROOT
BRANCH   1   2
ATOM      2  O   UNL A   1      33.555  36.389  32.899  1.00  0.00    -0.374 OA
BRANCH   2   3
ATOM      3  C   UNL A   1      34.873  35.848  32.982  1.00  0.00     0.202 C 
BRANCH   3   4
ATOM      4  C   UNL A   1      35.069  34.707  33.982  1.00  0.00     0.261 C 
BRANCH   4   5
ATOM      5  O   UNL A   1      36.389  34.734  34.547  1.00  0.00    -0.460 OA
BRANCH   5   6
ATOM      6  C   UNL A   1      36.631  33.767  35.461  1.00  0.00     0.338 C 
ATOM      7  O   UNL A   1      35.964  33.512  36.454  1.00  0.00    -0.246 OA
BRANCH   6   8
ATOM      8  C   UNL A   1      37.776  32.944  35.030  1.00  0.00     0.087 C 
ATOM      9  C   UNL A   1      41.648  28.031  33.405  1.00  0.00     0.046 C 
ATOM     10  C   UNL A   1      40.563  29.072  33.473  1.00  0.00    -0.028 A 
ATOM     11  C   UNL A   1      40.817  30.262  34.169  1.00  0.00     0.052 A 
ATOM     12  C   UNL A   1      39.284  28.866  32.917  1.00  0.00     0.047 A 
ATOM     13  C   UNL A   1      39.811  31.207  34.359  1.00  0.00     0.128 A 
ATOM     14  C   UNL A   1      38.263  29.831  33.067  1.00  0.00    -0.021 A 
ATOM     15  Cl  UNL A   1      38.974  27.377  32.075  1.00  0.00    -0.084 Cl
ATOM     16  C   UNL A   1      38.528  30.985  33.845  1.00  0.00     0.022 A 
ATOM     17  O   UNL A   1      40.179  32.317  35.066  1.00  0.00    -0.475 OA
ATOM     18  C   UNL A   1      36.899  29.651  32.439  1.00  0.00     0.047 C 
ATOM     19  C   UNL A   1      37.479  31.932  34.206  1.00  0.00     0.027 C 
ATOM     20  C   UNL A   1      39.157  33.238  35.532  1.00  0.00     0.316 C 
BRANCH  20  21
ATOM     21  C   UNL A   1      39.233  33.307  37.064  1.00  0.00     0.430 C 
ATOM     22  F   UNL A   1      40.512  33.189  37.497  1.00  0.00    -0.167 F 
ATOM     23  F   UNL A   1      38.775  34.490  37.539  1.00  0.00    -0.167 F 
ATOM     24  F   UNL A   1      38.512  32.327  37.655  1.00  0.00    -0.167 F 
ENDBRANCH  20  21
ENDBRANCH   6   8
ENDBRANCH   5   6
ENDBRANCH   4   5
ENDBRANCH   3   4
ENDBRANCH   2   3
ENDBRANCH   1   2
BRANCH   1  25
ATOM     25  C   UNL A   1      32.896  36.601  30.474  1.00  0.00     0.261 C 
BRANCH  25  26
ATOM     26  O   UNL A   1      33.030  35.169  30.530  1.00  0.00    -0.460 OA
BRANCH  26  27
ATOM     27  C   UNL A   1      33.262  34.571  29.339  1.00  0.00     0.338 C 
ATOM     28  O   UNL A   1      32.643  34.731  28.295  1.00  0.00    -0.246 OA
BRANCH  27  29
ATOM     29  C   UNL A   1      34.513  33.797  29.396  1.00  0.00     0.060 A 
ATOM     30  C   UNL A   1      34.747  33.026  30.542  1.00  0.00     0.016 A 
ATOM     31  C   UNL A   1      35.479  33.890  28.391  1.00  0.00     0.016 A 
ATOM     32  C   UNL A   1      35.971  32.382  30.711  1.00  0.00     0.010 A 
ATOM     33  C   UNL A   1      36.712  33.253  28.568  1.00  0.00     0.010 A 
ATOM     34  C   UNL A   1      36.974  32.525  29.744  1.00  0.00    -0.014 A 
BRANCH  34  35
ATOM     35  C   UNL A   1      38.341  32.031  30.033  1.00  0.00     0.031 A 
ATOM     36  C   UNL A   1      38.762  30.693  29.492  1.00  0.00     0.074 A 
ATOM     37  C   UNL A   1      39.210  32.783  30.732  1.00  0.00     0.049 A 
ATOM     38  N   UNL A   1      39.898  30.059  29.641  1.00  0.00    -0.248 NA
ATOM     39  C   UNL A   1      37.777  29.976  28.666  1.00  0.00     0.031 C 
ATOM     40  C   UNL A   1      38.935  34.117  31.262  1.00  0.00     0.029 A 
ATOM     41  N   UNL A   1      40.503  32.527  31.113  1.00  0.00    -0.354 N 
ATOM     42  C   UNL A   1      39.765  28.875  28.927  1.00  0.00     0.074 A 
ATOM     43  C   UNL A   1      38.431  28.862  28.368  1.00  0.00     0.031 C 
ATOM     44  C   UNL A   1      40.028  34.562  31.905  1.00  0.00     0.029 A 
ATOM     45  C   UNL A   1      41.067  33.534  31.857  1.00  0.00     0.049 A 
ATOM     46  H   UNL A   1      40.981  31.700  30.875  1.00  0.00     0.167 HD
ATOM     47  C   UNL A   1      40.678  27.893  28.746  1.00  0.00     0.037 A 
ATOM     48  C   UNL A   1      42.277  33.609  32.444  1.00  0.00     0.037 A 
ATOM     49  C   UNL A   1      42.004  27.904  29.303  1.00  0.00     0.049 A 
ATOM     50  C   UNL A   1      43.243  32.463  32.297  1.00  0.00     0.074 A 
ATOM     51  C   UNL A   1      42.998  26.950  29.178  1.00  0.00     0.029 A 
ATOM     52  N   UNL A   1      42.520  28.921  30.092  1.00  0.00    -0.354 N 
ATOM     53  N   UNL A   1      43.107  31.349  31.621  1.00  0.00    -0.248 NA
ATOM     54  C   UNL A   1      44.531  32.586  32.996  1.00  0.00     0.031 C 
ATOM     55  C   UNL A   1      44.103  27.371  29.923  1.00  0.00     0.029 A 
ATOM     56  C   UNL A   1      43.813  28.608  30.474  1.00  0.00     0.049 A 
ATOM     57  H   UNL A   1      42.039  29.743  30.341  1.00  0.00     0.167 HD
ATOM     58  C   UNL A   1      44.297  30.652  31.791  1.00  0.00     0.074 A 
ATOM     59  C   UNL A   1      45.148  31.472  32.627  1.00  0.00     0.031 C 
ATOM     60  C   UNL A   1      44.652  29.441  31.296  1.00  0.00     0.037 A 
BRANCH  47  61
ATOM     61  C   UNL A   1      40.278  26.713  27.913  1.00  0.00     0.057 A 
ATOM     62  C   UNL A   1      40.749  26.545  26.605  1.00  0.00     0.134 A 
ATOM     63  C   UNL A   1      39.474  25.699  28.448  1.00  0.00     0.134 A 
ATOM     64  F   UNL A   1      41.513  27.487  26.032  1.00  0.00    -0.206 F 
ATOM     65  C   UNL A   1      40.432  25.410  25.858  1.00  0.00     0.040 A 
ATOM     66  C   UNL A   1      39.166  24.551  27.718  1.00  0.00     0.040 A 
ATOM     67  F   UNL A   1      38.992  25.800  29.697  1.00  0.00    -0.206 F 
ATOM     68  C   UNL A   1      39.647  24.404  26.418  1.00  0.00     0.006 A 
ENDBRANCH  47  61
BRANCH  48  69
ATOM     69  C   UNL A   1      42.646  34.811  33.231  1.00  0.00     0.057 A 
ATOM     70  C   UNL A   1      43.017  36.004  32.601  1.00  0.00     0.134 A 
ATOM     71  C   UNL A   1      42.649  34.793  34.631  1.00  0.00     0.134 A 
ATOM     72  F   UNL A   1      43.058  36.075  31.262  1.00  0.00    -0.206 F 
ATOM     73  C   UNL A   1      43.389  37.132  33.333  1.00  0.00     0.040 A 
ATOM     74  C   UNL A   1      42.995  35.921  35.376  1.00  0.00     0.040 A 
ATOM     75  F   UNL A   1      42.303  33.679  35.295  1.00  0.00    -0.206 F 
ATOM     76  C   UNL A   1      43.372  37.094  34.726  1.00  0.00     0.006 A 
ENDBRANCH  48  69
BRANCH  60  77
ATOM     77  C   UNL A   1      46.028  28.935  31.615  1.00  0.00     0.057 A 
ATOM     78  C   UNL A   1      46.274  28.120  32.726  1.00  0.00     0.134 A 
ATOM     79  C   UNL A   1      47.103  29.205  30.757  1.00  0.00     0.134 A 
ATOM     80  F   UNL A   1      45.288  27.833  33.590  1.00  0.00    -0.206 F 
ATOM     81  C   UNL A   1      47.544  27.600  32.979  1.00  0.00     0.040 A 
ATOM     82  C   UNL A   1      48.370  28.671  30.987  1.00  0.00     0.040 A 
ATOM     83  F   UNL A   1      46.929  29.970  29.668  1.00  0.00    -0.206 F 
ATOM     84  C   UNL A   1      48.595  27.868  32.103  1.00  0.00     0.006 A 
ENDBRANCH  60  77
ENDBRANCH  34  35
ENDBRANCH  27  29
ENDBRANCH  26  27
ENDBRANCH  25  26
ENDBRANCH   1  25
TORSDOF 15
ENDMDL
MODEL 2
REMARK VINA RESULT:      -8.9      4.167      7.489
REMARK SMILES Cc1cc2c(c(C)c1Cl)C=C(C(=O)OCCOCCOC(=O)c1ccc(-c3c4nc(c(-c5c(F)cccc5F)c5ccc([nH]5)c(-c5c(F)cccc5F)c5nc(c(-c6c(F)cccc6F)c6ccc3[nH]6)C=C5)C=C4)cc1)[C@@H](C(F)(F)F)O2
REMARK SMILES IDX 18 1 17 2 16 3 15 4 14 5 12 6 13 7 11 8 1 9 2 10 3 11 8 12
REMARK SMILES IDX 4 13 6 14 9 15 5 16 82 17 7 18 10 19 77 20 78 21 79 22 80 23
REMARK SMILES IDX 81 24 19 25 20 26 21 27 22 28 23 29 24 30 76 31 25 32 75 33
REMARK SMILES IDX 26 34 27 35 28 36 69 37 29 38 74 39 68 40 70 41 30 42 73 43
REMARK SMILES IDX 67 44 66 45 31 47 57 48 40 49 56 50 41 51 44 52 55 53 71 54
REMARK SMILES IDX 42 55 43 56 54 58 72 59 45 60 32 61 33 62 38 63 34 64 35 65
REMARK SMILES IDX 37 66 39 67 36 68 58 69 59 70 64 71 60 72 61 73 63 74 65 75
REMARK SMILES IDX 62 76 46 77 47 78 52 79 48 80 49 81 51 82 53 83 50 84
REMARK H PARENT 70 46 44 57
REMARK Flexibility Score: inf
ROOT
ATOM      1  C   UNL A   1      31.310  32.295  26.499  1.00  0.00     0.202 C 
ENDROOT
BRANCH   1   2
ATOM      2  O   UNL A   1      31.639  30.974  26.063  1.00  0.00    -0.374 OA
BRANCH   2   3
ATOM      3  C   UNL A   1      32.241  30.095  27.013  1.00  0.00     0.202 C 
BRANCH   3   4
ATOM      4  C   UNL A   1      33.656  29.616  26.681  1.00  0.00     0.261 C 
BRANCH   4   5
ATOM      5  O   UNL A   1      33.754  28.185  26.777  1.00  0.00    -0.460 OA
BRANCH   5   6
ATOM      6  C   UNL A   1      33.713  27.537  25.591  1.00  0.00     0.338 C 
ATOM      7  O   UNL A   1      34.005  27.994  24.494  1.00  0.00    -0.246 OA
BRANCH   6   8
ATOM      8  C   UNL A   1      33.375  26.119  25.806  1.00  0.00     0.087 C 
ATOM      9  C   UNL A   1      32.965  19.683  25.368  1.00  0.00     0.046 C 
ATOM     10  C   UNL A   1      33.414  21.106  25.567  1.00  0.00    -0.028 A 
ATOM     11  C   UNL A   1      32.452  22.078  25.873  1.00  0.00     0.052 A 
ATOM     12  C   UNL A   1      34.756  21.504  25.394  1.00  0.00     0.047 A 
ATOM     13  C   UNL A   1      32.798  23.425  25.953  1.00  0.00     0.128 A 
ATOM     14  C   UNL A   1      35.131  22.861  25.511  1.00  0.00    -0.021 A 
ATOM     15  Cl  UNL A   1      35.937  20.293  24.994  1.00  0.00    -0.084 Cl
ATOM     16  C   UNL A   1      34.121  23.828  25.740  1.00  0.00     0.022 A 
ATOM     17  O   UNL A   1      31.768  24.275  26.244  1.00  0.00    -0.475 OA
ATOM     18  C   UNL A   1      36.571  23.304  25.376  1.00  0.00     0.047 C 
ATOM     19  C   UNL A   1      34.394  25.260  25.684  1.00  0.00     0.027 C 
ATOM     20  C   UNL A   1      31.965  25.708  26.105  1.00  0.00     0.316 C 
BRANCH  20  21
ATOM     21  C   UNL A   1      30.957  26.236  25.074  1.00  0.00     0.430 C 
ATOM     22  F   UNL A   1      31.463  26.172  23.818  1.00  0.00    -0.167 F 
ATOM     23  F   UNL A   1      29.816  25.507  25.065  1.00  0.00    -0.167 F 
ATOM     24  F   UNL A   1      30.615  27.523  25.308  1.00  0.00    -0.167 F 
ENDBRANCH  20  21
ENDBRANCH   6   8
ENDBRANCH   5   6
ENDBRANCH   4   5
ENDBRANCH   3   4
ENDBRANCH   2   3
ENDBRANCH   1   2
BRANCH   1  25
ATOM     25  C   UNL A   1      32.483  33.199  26.898  1.00  0.00     0.261 C 
BRANCH  25  26
ATOM     26  O   UNL A   1      32.191  33.970  28.078  1.00  0.00    -0.460 OA
BRANCH  26  27
ATOM     27  C   UNL A   1      33.209  34.746  28.517  1.00  0.00     0.338 C 
ATOM     28  O   UNL A   1      33.182  35.949  28.744  1.00  0.00    -0.246 OA
BRANCH  27  29
ATOM     29  C   UNL A   1      34.366  33.908  28.875  1.00  0.00     0.060 A 
ATOM     30  C   UNL A   1      34.118  32.735  29.600  1.00  0.00     0.016 A 
ATOM     31  C   UNL A   1      35.674  34.304  28.587  1.00  0.00     0.016 A 
ATOM     32  C   UNL A   1      35.181  31.975  30.081  1.00  0.00     0.010 A 
ATOM     33  C   UNL A   1      36.741  33.546  29.083  1.00  0.00     0.010 A 
ATOM     34  C   UNL A   1      36.498  32.398  29.860  1.00  0.00    -0.014 A 
BRANCH  34  35
ATOM     35  C   UNL A   1      37.611  31.717  30.564  1.00  0.00     0.031 A 
ATOM     36  C   UNL A   1      38.423  30.693  29.822  1.00  0.00     0.074 A 
ATOM     37  C   UNL A   1      37.921  32.039  31.832  1.00  0.00     0.049 A 
ATOM     38  N   UNL A   1      39.422  29.962  30.247  1.00  0.00    -0.248 NA
ATOM     39  C   UNL A   1      38.069  30.465  28.411  1.00  0.00     0.031 C 
ATOM     40  C   UNL A   1      37.241  33.052  32.636  1.00  0.00     0.029 A 
ATOM     41  N   UNL A   1      38.892  31.542  32.664  1.00  0.00    -0.354 N 
ATOM     42  C   UNL A   1      39.817  29.194  29.159  1.00  0.00     0.074 A 
ATOM     43  C   UNL A   1      38.933  29.524  28.062  1.00  0.00     0.031 C 
ATOM     44  C   UNL A   1      37.814  33.100  33.850  1.00  0.00     0.029 A 
ATOM     45  C   UNL A   1      38.880  32.102  33.918  1.00  0.00     0.049 A 
ATOM     46  H   UNL A   1      39.536  30.850  32.388  1.00  0.00     0.167 HD
ATOM     47  C   UNL A   1      40.832  28.303  29.080  1.00  0.00     0.037 A 
ATOM     48  C   UNL A   1      39.634  31.826  35.000  1.00  0.00     0.037 A 
ATOM     49  C   UNL A   1      41.709  27.972  30.171  1.00  0.00     0.049 A 
ATOM     50  C   UNL A   1      40.701  30.768  34.909  1.00  0.00     0.074 A 
ATOM     51  C   UNL A   1      42.763  27.076  30.187  1.00  0.00     0.029 A 
ATOM     52  N   UNL A   1      41.633  28.526  31.440  1.00  0.00    -0.354 N 
ATOM     53  N   UNL A   1      41.065  30.048  33.877  1.00  0.00    -0.248 NA
ATOM     54  C   UNL A   1      41.462  30.483  36.136  1.00  0.00     0.031 C 
ATOM     55  C   UNL A   1      43.302  27.058  31.477  1.00  0.00     0.029 A 
ATOM     56  C   UNL A   1      42.612  27.977  32.250  1.00  0.00     0.049 A 
ATOM     57  H   UNL A   1      40.982  29.208  31.721  1.00  0.00     0.167 HD
ATOM     58  C   UNL A   1      42.111  29.246  34.319  1.00  0.00     0.074 A 
ATOM     59  C   UNL A   1      42.330  29.574  35.712  1.00  0.00     0.031 C 
ATOM     60  C   UNL A   1      42.825  28.322  33.632  1.00  0.00     0.037 A 
BRANCH  47  61
ATOM     61  C   UNL A   1      41.052  27.609  27.769  1.00  0.00     0.057 A 
ATOM     62  C   UNL A   1      41.887  28.151  26.785  1.00  0.00     0.134 A 
ATOM     63  C   UNL A   1      40.482  26.354  27.519  1.00  0.00     0.134 A 
ATOM     64  F   UNL A   1      42.452  29.355  26.960  1.00  0.00    -0.206 F 
ATOM     65  C   UNL A   1      42.146  27.469  25.595  1.00  0.00     0.040 A 
ATOM     66  C   UNL A   1      40.749  25.655  26.342  1.00  0.00     0.040 A 
ATOM     67  F   UNL A   1      39.674  25.781  28.424  1.00  0.00    -0.206 F 
ATOM     68  C   UNL A   1      41.584  26.212  25.375  1.00  0.00     0.006 A 
ENDBRANCH  47  61
BRANCH  48  69
ATOM     69  C   UNL A   1      39.406  32.561  36.269  1.00  0.00     0.057 A 
ATOM     70  C   UNL A   1      38.459  32.120  37.201  1.00  0.00     0.134 A 
ATOM     71  C   UNL A   1      40.117  33.727  36.574  1.00  0.00     0.134 A 
ATOM     72  F   UNL A   1      37.728  31.023  36.952  1.00  0.00    -0.206 F 
ATOM     73  C   UNL A   1      38.220  32.818  38.385  1.00  0.00     0.040 A 
ATOM     74  C   UNL A   1      39.906  34.422  37.766  1.00  0.00     0.040 A 
ATOM     75  F   UNL A   1      41.038  34.202  35.721  1.00  0.00    -0.206 F 
ATOM     76  C   UNL A   1      38.950  33.969  38.673  1.00  0.00     0.006 A 
ENDBRANCH  48  69
BRANCH  60  77
ATOM     77  C   UNL A   1      43.933  27.618  34.358  1.00  0.00     0.057 A 
ATOM     78  C   UNL A   1      43.738  26.375  34.970  1.00  0.00     0.134 A 
ATOM     79  C   UNL A   1      45.227  28.156  34.377  1.00  0.00     0.134 A 
ATOM     80  F   UNL A   1      42.521  25.812  34.994  1.00  0.00    -0.206 F 
ATOM     81  C   UNL A   1      44.790  25.696  35.587  1.00  0.00     0.040 A 
ATOM     82  C   UNL A   1      46.290  27.475  34.969  1.00  0.00     0.040 A 
ATOM     83  F   UNL A   1      45.482  29.339  33.797  1.00  0.00    -0.206 F 
ATOM     84  C   UNL A   1      46.072  26.241  35.580  1.00  0.00     0.006 A 
ENDBRANCH  60  77
ENDBRANCH  34  35
ENDBRANCH  27  29
ENDBRANCH  26  27
ENDBRANCH  25  26
ENDBRANCH   1  25
TORSDOF 15
ENDMDL
MODEL 3
REMARK VINA RESULT:      -8.9      4.303      9.499
REMARK SMILES Cc1cc2c(c(C)c1Cl)C=C(C(=O)OCCOCCOC(=O)c1ccc(-c3c4nc(c(-c5c(F)cccc5F)c5ccc([nH]5)c(-c5c(F)cccc5F)c5nc(c(-c6c(F)cccc6F)c6ccc3[nH]6)C=C5)C=C4)cc1)[C@@H](C(F)(F)F)O2
REMARK SMILES IDX 18 1 17 2 16 3 15 4 14 5 12 6 13 7 11 8 1 9 2 10 3 11 8 12
REMARK SMILES IDX 4 13 6 14 9 15 5 16 82 17 7 18 10 19 77 20 78 21 79 22 80 23
REMARK SMILES IDX 81 24 19 25 20 26 21 27 22 28 23 29 24 30 76 31 25 32 75 33
REMARK SMILES IDX 26 34 27 35 28 36 69 37 29 38 74 39 68 40 70 41 30 42 73 43
REMARK SMILES IDX 67 44 66 45 31 47 57 48 40 49 56 50 41 51 44 52 55 53 71 54
REMARK SMILES IDX 42 55 43 56 54 58 72 59 45 60 32 61 33 62 38 63 34 64 35 65
REMARK SMILES IDX 37 66 39 67 36 68 58 69 59 70 64 71 60 72 61 73 63 74 65 75
REMARK SMILES IDX 62 76 46 77 47 78 52 79 48 80 49 81 51 82 53 83 50 84
REMARK H PARENT 70 46 44 57
REMARK Flexibility Score: inf
ROOT
ATOM      1  C   UNL A   1      31.715  31.897  26.881  1.00  0.00     0.202 C 
ENDROOT
BRANCH   1   2
ATOM      2  O   UNL A   1      32.664  30.829  26.819  1.00  0.00    -0.374 OA
BRANCH   2   3
ATOM      3  C   UNL A   1      32.191  29.509  27.080  1.00  0.00     0.202 C 
BRANCH   3   4
ATOM      4  C   UNL A   1      33.211  28.383  26.897  1.00  0.00     0.261 C 
BRANCH   4   5
ATOM      5  O   UNL A   1      32.577  27.179  26.436  1.00  0.00    -0.460 OA
BRANCH   5   6
ATOM      6  C   UNL A   1      33.098  26.667  25.299  1.00  0.00     0.338 C 
ATOM      7  O   UNL A   1      33.610  27.292  24.380  1.00  0.00    -0.246 OA
BRANCH   6   8
ATOM      8  C   UNL A   1      33.084  25.195  25.357  1.00  0.00     0.087 C 
ATOM      9  C   UNL A   1      34.406  18.920  24.547  1.00  0.00     0.046 C 
ATOM     10  C   UNL A   1      34.426  20.379  24.916  1.00  0.00    -0.028 A 
ATOM     11  C   UNL A   1      33.208  21.066  25.009  1.00  0.00     0.052 A 
ATOM     12  C   UNL A   1      35.627  21.091  25.109  1.00  0.00     0.047 A 
ATOM     13  C   UNL A   1      33.178  22.441  25.234  1.00  0.00     0.128 A 
ATOM     14  C   UNL A   1      35.615  22.479  25.377  1.00  0.00    -0.021 A 
ATOM     15  Cl  UNL A   1      37.133  20.234  24.970  1.00  0.00    -0.084 Cl
ATOM     16  C   UNL A   1      34.370  23.158  25.383  1.00  0.00     0.022 A 
ATOM     17  O   UNL A   1      31.930  22.995  25.289  1.00  0.00    -0.475 OA
ATOM     18  C   UNL A   1      36.888  23.252  25.634  1.00  0.00     0.047 C 
ATOM     19  C   UNL A   1      34.283  24.612  25.462  1.00  0.00     0.027 C 
ATOM     20  C   UNL A   1      31.791  24.441  25.268  1.00  0.00     0.316 C 
BRANCH  20  21
ATOM     21  C   UNL A   1      30.958  24.829  24.038  1.00  0.00     0.430 C 
ATOM     22  F   UNL A   1      30.304  23.755  23.532  1.00  0.00    -0.167 F 
ATOM     23  F   UNL A   1      30.010  25.747  24.341  1.00  0.00    -0.167 F 
ATOM     24  F   UNL A   1      31.720  25.344  23.048  1.00  0.00    -0.167 F 
ENDBRANCH  20  21
ENDBRANCH   6   8
ENDBRANCH   5   6
ENDBRANCH   4   5
ENDBRANCH   3   4
ENDBRANCH   2   3
ENDBRANCH   1   2
BRANCH   1  25
ATOM     25  C   UNL A   1      32.284  33.321  26.901  1.00  0.00     0.261 C 
BRANCH  25  26
ATOM     26  O   UNL A   1      32.242  33.899  28.219  1.00  0.00    -0.460 OA
BRANCH  26  27
ATOM     27  C   UNL A   1      33.318  34.652  28.545  1.00  0.00     0.338 C 
ATOM     28  O   UNL A   1      33.347  35.859  28.745  1.00  0.00    -0.246 OA
BRANCH  27  29
ATOM     29  C   UNL A   1      34.478  33.786  28.816  1.00  0.00     0.060 A 
ATOM     30  C   UNL A   1      34.242  32.574  29.479  1.00  0.00     0.016 A 
ATOM     31  C   UNL A   1      35.780  34.188  28.509  1.00  0.00     0.016 A 
ATOM     32  C   UNL A   1      35.314  31.780  29.880  1.00  0.00     0.010 A 
ATOM     33  C   UNL A   1      36.855  33.395  28.925  1.00  0.00     0.010 A 
ATOM     34  C   UNL A   1      36.627  32.205  29.641  1.00  0.00    -0.014 A 
BRANCH  34  35
ATOM     35  C   UNL A   1      37.755  31.476  30.267  1.00  0.00     0.031 A 
ATOM     36  C   UNL A   1      38.085  31.745  31.709  1.00  0.00     0.074 A 
ATOM     37  C   UNL A   1      38.448  30.556  29.574  1.00  0.00     0.049 A 
ATOM     38  N   UNL A   1      39.040  31.240  32.448  1.00  0.00    -0.248 NA
ATOM     39  C   UNL A   1      37.221  32.705  32.416  1.00  0.00     0.031 C 
ATOM     40  C   UNL A   1      38.188  30.171  28.188  1.00  0.00     0.029 A 
ATOM     41  N   UNL A   1      39.514  29.777  29.947  1.00  0.00    -0.354 N 
ATOM     42  C   UNL A   1      38.889  31.816  33.704  1.00  0.00     0.074 A 
ATOM     43  C   UNL A   1      37.771  32.729  33.621  1.00  0.00     0.031 C 
ATOM     44  C   UNL A   1      39.075  29.230  27.825  1.00  0.00     0.029 A 
ATOM     45  C   UNL A   1      39.982  28.968  28.941  1.00  0.00     0.049 A 
ATOM     46  H   UNL A   1      39.906  29.797  30.850  1.00  0.00     0.167 HD
ATOM     47  C   UNL A   1      39.611  31.592  34.826  1.00  0.00     0.037 A 
ATOM     48  C   UNL A   1      41.033  28.125  28.921  1.00  0.00     0.037 A 
ATOM     49  C   UNL A   1      40.725  30.685  34.908  1.00  0.00     0.049 A 
ATOM     50  C   UNL A   1      41.873  27.960  30.160  1.00  0.00     0.074 A 
ATOM     51  C   UNL A   1      41.523  30.398  36.001  1.00  0.00     0.029 A 
ATOM     52  N   UNL A   1      41.198  29.920  33.853  1.00  0.00    -0.354 N 
ATOM     53  N   UNL A   1      41.722  28.509  31.341  1.00  0.00    -0.248 NA
ATOM     54  C   UNL A   1      43.031  27.058  30.063  1.00  0.00     0.031 C 
ATOM     55  C   UNL A   1      42.503  29.487  35.599  1.00  0.00     0.029 A 
ATOM     56  C   UNL A   1      42.288  29.173  34.267  1.00  0.00     0.049 A 
ATOM     57  H   UNL A   1      40.816  29.909  32.946  1.00  0.00     0.167 HD
ATOM     58  C   UNL A   1      42.746  28.001  32.132  1.00  0.00     0.074 A 
ATOM     59  C   UNL A   1      43.507  27.093  31.300  1.00  0.00     0.031 C 
ATOM     60  C   UNL A   1      43.028  28.264  33.431  1.00  0.00     0.037 A 
BRANCH  47  61
ATOM     61  C   UNL A   1      39.229  32.346  36.064  1.00  0.00     0.057 A 
ATOM     62  C   UNL A   1      39.740  33.621  36.332  1.00  0.00     0.134 A 
ATOM     63  C   UNL A   1      38.287  31.822  36.958  1.00  0.00     0.134 A 
ATOM     64  F   UNL A   1      40.655  34.172  35.521  1.00  0.00    -0.206 F 
ATOM     65  C   UNL A   1      39.328  34.349  37.450  1.00  0.00     0.040 A 
ATOM     66  C   UNL A   1      37.853  32.548  38.067  1.00  0.00     0.040 A 
ATOM     67  F   UNL A   1      37.759  30.605  36.755  1.00  0.00    -0.206 F 
ATOM     68  C   UNL A   1      38.374  33.817  38.315  1.00  0.00     0.006 A 
ENDBRANCH  47  61
BRANCH  48  69
ATOM     69  C   UNL A   1      41.356  27.372  27.684  1.00  0.00     0.057 A 
ATOM     70  C   UNL A   1      42.179  27.923  26.695  1.00  0.00     0.134 A 
ATOM     71  C   UNL A   1      40.840  26.091  27.454  1.00  0.00     0.134 A 
ATOM     72  F   UNL A   1      42.683  29.157  26.848  1.00  0.00    -0.206 F 
ATOM     73  C   UNL A   1      42.469  27.233  25.518  1.00  0.00     0.040 A 
ATOM     74  C   UNL A   1      41.141  25.380  26.292  1.00  0.00     0.040 A 
ATOM     75  F   UNL A   1      40.044  25.509  28.363  1.00  0.00    -0.206 F 
ATOM     76  C   UNL A   1      41.954  25.954  25.317  1.00  0.00     0.006 A 
ENDBRANCH  48  69
BRANCH  60  77
ATOM     77  C   UNL A   1      44.188  27.542  34.051  1.00  0.00     0.057 A 
ATOM     78  C   UNL A   1      44.050  26.259  34.593  1.00  0.00     0.134 A 
ATOM     79  C   UNL A   1      45.470  28.107  34.034  1.00  0.00     0.134 A 
ATOM     80  F   UNL A   1      42.847  25.668  34.646  1.00  0.00    -0.206 F 
ATOM     81  C   UNL A   1      45.147  25.566  35.108  1.00  0.00     0.040 A 
ATOM     82  C   UNL A   1      46.577  27.414  34.525  1.00  0.00     0.040 A 
ATOM     83  F   UNL A   1      45.670  29.328  33.517  1.00  0.00    -0.206 F 
ATOM     84  C   UNL A   1      46.416  26.140  35.067  1.00  0.00     0.006 A 
ENDBRANCH  60  77
ENDBRANCH  34  35
ENDBRANCH  27  29
ENDBRANCH  26  27
ENDBRANCH  25  26
ENDBRANCH   1  25
TORSDOF 15
ENDMDL
