MODEL 1
REMARK VINA RESULT:     -11.3      0.000      0.000
REMARK SMILES C[C@@]1(C(=O)c2ccccc2N)[C@H](C(=O)OCCOCCOC(=O)c2ccc(-c3c4nc(c(-c5c(F)cccc5F)c5ccc([nH]5)c(-c5c(F)cccc5F)c5nc(c(-c6c(F)cccc6F)c6ccc3[nH]6)C=C5)C=C4)cc2)[C@@H]1C(=O)N1CCOCC1
REMARK SMILES IDX 17 1 16 2 15 3 13 4 14 5 12 6 1 7 2 8 78 9 3 10 4 11 5 12
REMARK SMILES IDX 6 13 10 14 7 15 9 16 8 17 11 18 79 21 80 22 81 23 82 24
REMARK SMILES IDX 86 25 83 26 85 27 84 28 18 29 19 30 20 31 21 32 22 33 23 34
REMARK SMILES IDX 24 35 25 36 77 37 26 38 76 39 27 40 28 41 29 42 70 43 30 44
REMARK SMILES IDX 75 45 69 46 71 47 31 48 74 49 68 50 67 51 32 53 58 54 41 55
REMARK SMILES IDX 57 56 42 57 45 58 56 59 72 60 43 61 44 62 55 64 73 65 46 66
REMARK SMILES IDX 33 67 34 68 39 69 35 70 36 71 38 72 40 73 37 74 59 75 60 76
REMARK SMILES IDX 65 77 61 78 62 79 64 80 66 81 63 82 47 83 48 84 53 85 49 86
REMARK SMILES IDX 50 87 52 88 54 89 51 90
REMARK H PARENT 11 19 11 20 71 52 45 63
REMARK Flexibility Score: inf
ROOT
ATOM      1  C   UNL A   1      33.289  22.308  26.907  1.00  0.00     0.202 C 
ENDROOT
BRANCH   1   2
ATOM      2  C   UNL A   1      31.906  22.911  27.148  1.00  0.00     0.261 C 
BRANCH   2   3
ATOM      3  O   UNL A   1      31.491  23.733  26.042  1.00  0.00    -0.463 OA
BRANCH   3   4
ATOM      4  C   UNL A   1      30.650  24.731  26.405  1.00  0.00     0.310 C 
ATOM      5  O   UNL A   1      29.530  24.576  26.873  1.00  0.00    -0.252 OA
BRANCH   4   6
ATOM      6  C   UNL A   1      31.266  26.063  26.455  1.00  0.00     0.127 C 
ATOM      7  C   UNL A   1      33.128  27.780  26.463  1.00  0.00     0.022 C 
ATOM      8  C   UNL A   1      32.287  26.806  25.632  1.00  0.00     0.057 C 
ATOM      9  C   UNL A   1      30.777  27.143  25.526  1.00  0.00     0.108 C 
BRANCH   8  10
ATOM     10  C   UNL A   1      32.916  26.523  24.297  1.00  0.00     0.172 C 
ATOM     11  O   UNL A   1      33.149  27.479  23.557  1.00  0.00    -0.293 OA
BRANCH  10  12
ATOM     12  C   UNL A   1      33.451  25.230  23.866  1.00  0.00     0.041 A 
ATOM     13  C   UNL A   1      34.627  24.792  24.484  1.00  0.00     0.014 A 
ATOM     14  C   UNL A   1      33.034  24.675  22.639  1.00  0.00     0.042 A 
ATOM     15  C   UNL A   1      35.366  23.769  23.894  1.00  0.00     0.001 A 
ATOM     16  C   UNL A   1      33.716  23.560  22.147  1.00  0.00     0.026 A 
ATOM     17  C   UNL A   1      34.899  23.136  22.745  1.00  0.00     0.002 A 
BRANCH  14  18
ATOM     18  N   UNL A   1      31.918  25.121  21.939  1.00  0.00    -0.398 N 
ATOM     19  H   UNL A   1      31.844  24.956  20.971  1.00  0.00     0.156 HD
ATOM     20  H   UNL A   1      31.200  25.602  22.412  1.00  0.00     0.156 HD
ENDBRANCH  14  18
ENDBRANCH  10  12
ENDBRANCH   8  10
BRANCH   9  21
ATOM     21  C   UNL A   1      30.025  26.856  24.265  1.00  0.00     0.227 C 
ATOM     22  O   UNL A   1      29.937  25.714  23.831  1.00  0.00    -0.275 OA
ATOM     23  N   UNL A   1      29.541  27.952  23.580  1.00  0.00    -0.338 N 
ATOM     24  C   UNL A   1      30.274  28.316  22.376  1.00  0.00     0.148 C 
ATOM     25  C   UNL A   1      28.090  28.065  23.404  1.00  0.00     0.148 C 
ATOM     26  C   UNL A   1      29.825  29.680  21.849  1.00  0.00     0.181 C 
ATOM     27  C   UNL A   1      27.700  29.434  22.839  1.00  0.00     0.181 C 
ATOM     28  O   UNL A   1      28.406  29.703  21.617  1.00  0.00    -0.378 OA
ENDBRANCH   9  21
ENDBRANCH   4   6
ENDBRANCH   3   4
ENDBRANCH   2   3
ENDBRANCH   1   2
BRANCH   1  29
ATOM     29  O   UNL A   1      33.490  21.717  25.625  1.00  0.00    -0.374 OA
BRANCH  29  30
ATOM     30  C   UNL A   1      34.159  20.455  25.595  1.00  0.00     0.202 C 
BRANCH  30  31
ATOM     31  C   UNL A   1      35.593  20.460  25.044  1.00  0.00     0.261 C 
BRANCH  31  32
ATOM     32  O   UNL A   1      36.485  21.274  25.828  1.00  0.00    -0.460 OA
BRANCH  32  33
ATOM     33  C   UNL A   1      37.812  21.057  25.624  1.00  0.00     0.338 C 
ATOM     34  O   UNL A   1      38.328  20.143  25.008  1.00  0.00    -0.246 OA
BRANCH  33  35
ATOM     35  C   UNL A   1      38.573  22.219  26.126  1.00  0.00     0.060 A 
ATOM     36  C   UNL A   1      38.054  23.506  25.941  1.00  0.00     0.016 A 
ATOM     37  C   UNL A   1      39.802  22.047  26.753  1.00  0.00     0.016 A 
ATOM     38  C   UNL A   1      38.768  24.623  26.390  1.00  0.00     0.010 A 
ATOM     39  C   UNL A   1      40.498  23.162  27.230  1.00  0.00     0.010 A 
ATOM     40  C   UNL A   1      40.002  24.465  27.036  1.00  0.00    -0.014 A 
BRANCH  40  41
ATOM     41  C   UNL A   1      40.849  25.642  27.386  1.00  0.00     0.031 A 
ATOM     42  C   UNL A   1      40.264  26.730  28.254  1.00  0.00     0.074 A 
ATOM     43  C   UNL A   1      42.113  25.771  26.933  1.00  0.00     0.049 A 
ATOM     44  N   UNL A   1      40.775  27.883  28.602  1.00  0.00    -0.248 NA
ATOM     45  C   UNL A   1      38.904  26.502  28.768  1.00  0.00     0.031 C 
ATOM     46  C   UNL A   1      42.814  24.822  26.067  1.00  0.00     0.029 A 
ATOM     47  N   UNL A   1      43.037  26.767  27.145  1.00  0.00    -0.354 N 
ATOM     48  C   UNL A   1      39.780  28.536  29.320  1.00  0.00     0.074 A 
ATOM     49  C   UNL A   1      38.626  27.666  29.331  1.00  0.00     0.031 C 
ATOM     50  C   UNL A   1      44.064  25.268  25.848  1.00  0.00     0.029 A 
ATOM     51  C   UNL A   1      44.246  26.547  26.531  1.00  0.00     0.049 A 
ATOM     52  H   UNL A   1      42.849  27.567  27.689  1.00  0.00     0.167 HD
ATOM     53  C   UNL A   1      39.823  29.738  29.940  1.00  0.00     0.037 A 
ATOM     54  C   UNL A   1      45.370  27.292  26.520  1.00  0.00     0.037 A 
ATOM     55  C   UNL A   1      40.994  30.566  30.030  1.00  0.00     0.049 A 
ATOM     56  C   UNL A   1      45.413  28.600  27.269  1.00  0.00     0.074 A 
ATOM     57  C   UNL A   1      41.157  31.754  30.722  1.00  0.00     0.029 A 
ATOM     58  N   UNL A   1      42.208  30.280  29.430  1.00  0.00    -0.354 N 
ATOM     59  N   UNL A   1      44.479  29.175  27.985  1.00  0.00    -0.248 NA
ATOM     60  C   UNL A   1      46.672  29.361  27.207  1.00  0.00     0.031 C 
ATOM     61  C   UNL A   1      42.468  32.198  30.525  1.00  0.00     0.029 A 
ATOM     62  C   UNL A   1      43.125  31.271  29.733  1.00  0.00     0.049 A 
ATOM     63  H   UNL A   1      42.392  29.490  28.872  1.00  0.00     0.167 HD
ATOM     64  C   UNL A   1      45.047  30.342  28.485  1.00  0.00     0.074 A 
ATOM     65  C   UNL A   1      46.409  30.391  27.999  1.00  0.00     0.031 C 
ATOM     66  C   UNL A   1      44.488  31.289  29.275  1.00  0.00     0.037 A 
BRANCH  53  67
ATOM     67  C   UNL A   1      38.563  30.228  30.587  1.00  0.00     0.057 A 
ATOM     68  C   UNL A   1      37.648  31.039  29.905  1.00  0.00     0.134 A 
ATOM     69  C   UNL A   1      38.248  29.854  31.899  1.00  0.00     0.134 A 
ATOM     70  F   UNL A   1      37.901  31.443  28.651  1.00  0.00    -0.206 F 
ATOM     71  C   UNL A   1      36.476  31.486  30.515  1.00  0.00     0.040 A 
ATOM     72  C   UNL A   1      37.067  30.274  32.512  1.00  0.00     0.040 A 
ATOM     73  F   UNL A   1      39.080  29.073  32.603  1.00  0.00    -0.206 F 
ATOM     74  C   UNL A   1      36.180  31.097  31.821  1.00  0.00     0.006 A 
ENDBRANCH  53  67
BRANCH  54  75
ATOM     75  C   UNL A   1      46.582  26.825  25.796  1.00  0.00     0.057 A 
ATOM     76  C   UNL A   1      47.489  25.950  26.407  1.00  0.00     0.134 A 
ATOM     77  C   UNL A   1      46.899  27.293  24.517  1.00  0.00     0.134 A 
ATOM     78  F   UNL A   1      47.253  25.490  27.645  1.00  0.00    -0.206 F 
ATOM     79  C   UNL A   1      48.683  25.580  25.785  1.00  0.00     0.040 A 
ATOM     80  C   UNL A   1      48.079  26.914  23.874  1.00  0.00     0.040 A 
ATOM     81  F   UNL A   1      46.071  28.133  23.879  1.00  0.00    -0.206 F 
ATOM     82  C   UNL A   1      48.980  26.063  24.512  1.00  0.00     0.006 A 
ENDBRANCH  54  75
BRANCH  66  83
ATOM     83  C   UNL A   1      45.356  32.430  29.715  1.00  0.00     0.057 A 
ATOM     84  C   UNL A   1      45.418  33.629  28.996  1.00  0.00     0.134 A 
ATOM     85  C   UNL A   1      46.088  32.347  30.906  1.00  0.00     0.134 A 
ATOM     86  F   UNL A   1      44.748  33.766  27.843  1.00  0.00    -0.206 F 
ATOM     87  C   UNL A   1      46.192  34.704  29.440  1.00  0.00     0.040 A 
ATOM     88  C   UNL A   1      46.849  33.422  31.370  1.00  0.00     0.040 A 
ATOM     89  F   UNL A   1      46.063  31.228  31.645  1.00  0.00    -0.206 F 
ATOM     90  C   UNL A   1      46.904  34.603  30.634  1.00  0.00     0.006 A 
ENDBRANCH  66  83
ENDBRANCH  40  41
ENDBRANCH  33  35
ENDBRANCH  32  33
ENDBRANCH  31  32
ENDBRANCH  30  31
ENDBRANCH  29  30
ENDBRANCH   1  29
TORSDOF 18
ENDMDL
MODEL 2
REMARK VINA RESULT:     -11.0      3.271      8.603
REMARK SMILES C[C@@]1(C(=O)c2ccccc2N)[C@H](C(=O)OCCOCCOC(=O)c2ccc(-c3c4nc(c(-c5c(F)cccc5F)c5ccc([nH]5)c(-c5c(F)cccc5F)c5nc(c(-c6c(F)cccc6F)c6ccc3[nH]6)C=C5)C=C4)cc2)[C@@H]1C(=O)N1CCOCC1
REMARK SMILES IDX 17 1 16 2 15 3 13 4 14 5 12 6 1 7 2 8 78 9 3 10 4 11 5 12
REMARK SMILES IDX 6 13 10 14 7 15 9 16 8 17 11 18 79 21 80 22 81 23 82 24
REMARK SMILES IDX 86 25 83 26 85 27 84 28 18 29 19 30 20 31 21 32 22 33 23 34
REMARK SMILES IDX 24 35 25 36 77 37 26 38 76 39 27 40 28 41 29 42 70 43 30 44
REMARK SMILES IDX 75 45 69 46 71 47 31 48 74 49 68 50 67 51 32 53 58 54 41 55
REMARK SMILES IDX 57 56 42 57 45 58 56 59 72 60 43 61 44 62 55 64 73 65 46 66
REMARK SMILES IDX 33 67 34 68 39 69 35 70 36 71 38 72 40 73 37 74 59 75 60 76
REMARK SMILES IDX 65 77 61 78 62 79 64 80 66 81 63 82 47 83 48 84 53 85 49 86
REMARK SMILES IDX 50 87 52 88 54 89 51 90
REMARK H PARENT 11 19 11 20 71 52 45 63
REMARK Flexibility Score: inf
ROOT
ATOM      1  C   UNL A   1      32.973  27.389  22.361  1.00  0.00     0.202 C 
ENDROOT
BRANCH   1   2
ATOM      2  C   UNL A   1      33.260  25.958  21.909  1.00  0.00     0.261 C 
BRANCH   2   3
ATOM      3  O   UNL A   1      33.296  25.051  23.025  1.00  0.00    -0.463 OA
BRANCH   3   4
ATOM      4  C   UNL A   1      33.821  23.841  22.714  1.00  0.00     0.310 C 
ATOM      5  O   UNL A   1      33.814  23.333  21.600  1.00  0.00    -0.252 OA
BRANCH   4   6
ATOM      6  C   UNL A   1      34.666  23.252  23.761  1.00  0.00     0.127 C 
ATOM      7  C   UNL A   1      35.849  23.089  25.994  1.00  0.00     0.022 C 
ATOM      8  C   UNL A   1      34.520  22.992  25.238  1.00  0.00     0.057 C 
ATOM      9  C   UNL A   1      34.414  21.837  24.210  1.00  0.00     0.108 C 
BRANCH   8  10
ATOM     10  C   UNL A   1      33.343  23.054  26.170  1.00  0.00     0.172 C 
ATOM     11  O   UNL A   1      33.368  22.346  27.176  1.00  0.00    -0.293 OA
BRANCH  10  12
ATOM     12  C   UNL A   1      32.244  24.018  26.088  1.00  0.00     0.041 A 
ATOM     13  C   UNL A   1      32.580  25.373  26.184  1.00  0.00     0.014 A 
ATOM     14  C   UNL A   1      30.919  23.591  26.311  1.00  0.00     0.042 A 
ATOM     15  C   UNL A   1      31.584  26.305  26.462  1.00  0.00     0.001 A 
ATOM     16  C   UNL A   1      29.921  24.558  26.446  1.00  0.00     0.026 A 
ATOM     17  C   UNL A   1      30.254  25.903  26.565  1.00  0.00     0.002 A 
BRANCH  14  18
ATOM     18  N   UNL A   1      30.538  22.252  26.306  1.00  0.00    -0.398 N 
ATOM     19  H   UNL A   1      29.645  21.995  25.983  1.00  0.00     0.156 HD
ATOM     20  H   UNL A   1      31.163  21.561  26.626  1.00  0.00     0.156 HD
ENDBRANCH  14  18
ENDBRANCH  10  12
ENDBRANCH   8  10
BRANCH   9  21
ATOM     21  C   UNL A   1      33.112  21.133  23.996  1.00  0.00     0.227 C 
ATOM     22  O   UNL A   1      32.092  21.760  23.736  1.00  0.00    -0.275 OA
ATOM     23  N   UNL A   1      33.112  19.770  24.213  1.00  0.00    -0.338 N 
ATOM     24  C   UNL A   1      32.484  19.329  25.451  1.00  0.00     0.148 C 
ATOM     25  C   UNL A   1      32.788  18.894  23.083  1.00  0.00     0.148 C 
ATOM     26  C   UNL A   1      32.771  17.851  25.719  1.00  0.00     0.181 C 
ATOM     27  C   UNL A   1      33.058  17.425  23.418  1.00  0.00     0.181 C 
ATOM     28  O   UNL A   1      32.356  17.035  24.610  1.00  0.00    -0.378 OA
ENDBRANCH   9  21
ENDBRANCH   4   6
ENDBRANCH   3   4
ENDBRANCH   2   3
ENDBRANCH   1   2
BRANCH   1  29
ATOM     29  O   UNL A   1      33.096  27.630  23.761  1.00  0.00    -0.374 OA
BRANCH  29  30
ATOM     30  C   UNL A   1      33.244  28.991  24.170  1.00  0.00     0.202 C 
BRANCH  30  31
ATOM     31  C   UNL A   1      32.028  29.629  24.858  1.00  0.00     0.261 C 
BRANCH  31  32
ATOM     32  O   UNL A   1      32.171  29.693  26.290  1.00  0.00    -0.460 OA
BRANCH  32  33
ATOM     33  C   UNL A   1      32.521  30.907  26.791  1.00  0.00     0.338 C 
ATOM     34  O   UNL A   1      31.839  31.914  26.843  1.00  0.00    -0.246 OA
BRANCH  33  35
ATOM     35  C   UNL A   1      33.839  30.795  27.449  1.00  0.00     0.060 A 
ATOM     36  C   UNL A   1      34.385  29.525  27.671  1.00  0.00     0.016 A 
ATOM     37  C   UNL A   1      34.524  31.931  27.868  1.00  0.00     0.016 A 
ATOM     38  C   UNL A   1      35.622  29.393  28.311  1.00  0.00     0.010 A 
ATOM     39  C   UNL A   1      35.775  31.798  28.477  1.00  0.00     0.010 A 
ATOM     40  C   UNL A   1      36.331  30.529  28.727  1.00  0.00    -0.014 A 
BRANCH  40  41
ATOM     41  C   UNL A   1      37.575  30.410  29.543  1.00  0.00     0.031 A 
ATOM     42  C   UNL A   1      38.784  29.740  28.936  1.00  0.00     0.074 A 
ATOM     43  C   UNL A   1      37.642  30.865  30.811  1.00  0.00     0.049 A 
ATOM     44  N   UNL A   1      39.932  29.437  29.487  1.00  0.00    -0.248 NA
ATOM     45  C   UNL A   1      38.669  29.322  27.529  1.00  0.00     0.031 C 
ATOM     46  C   UNL A   1      36.555  31.512  31.547  1.00  0.00     0.029 A 
ATOM     47  N   UNL A   1      38.684  30.847  31.708  1.00  0.00    -0.354 N 
ATOM     48  C   UNL A   1      40.645  28.744  28.516  1.00  0.00     0.074 A 
ATOM     49  C   UNL A   1      39.790  28.643  27.354  1.00  0.00     0.031 C 
ATOM     50  C   UNL A   1      36.998  31.855  32.771  1.00  0.00     0.029 A 
ATOM     51  C   UNL A   1      38.387  31.427  32.918  1.00  0.00     0.049 A 
ATOM     52  H   UNL A   1      39.563  30.455  31.502  1.00  0.00     0.167 HD
ATOM     53  C   UNL A   1      41.906  28.256  28.567  1.00  0.00     0.037 A 
ATOM     54  C   UNL A   1      39.149  31.593  34.019  1.00  0.00     0.037 A 
ATOM     55  C   UNL A   1      42.805  28.441  29.672  1.00  0.00     0.049 A 
ATOM     56  C   UNL A   1      40.572  31.093  34.030  1.00  0.00     0.074 A 
ATOM     57  C   UNL A   1      44.135  28.066  29.772  1.00  0.00     0.029 A 
ATOM     58  N   UNL A   1      42.476  29.074  30.858  1.00  0.00    -0.354 N 
ATOM     59  N   UNL A   1      41.245  30.487  33.084  1.00  0.00    -0.248 NA
ATOM     60  C   UNL A   1      41.341  31.305  35.268  1.00  0.00     0.031 C 
ATOM     61  C   UNL A   1      44.605  28.457  31.029  1.00  0.00     0.029 A 
ATOM     62  C   UNL A   1      43.575  29.097  31.698  1.00  0.00     0.049 A 
ATOM     63  H   UNL A   1      41.592  29.451  31.072  1.00  0.00     0.167 HD
ATOM     64  C   UNL A   1      42.521  30.279  33.597  1.00  0.00     0.074 A 
ATOM     65  C   UNL A   1      42.533  30.829  34.935  1.00  0.00     0.031 C 
ATOM     66  C   UNL A   1      43.586  29.682  33.012  1.00  0.00     0.037 A 
BRANCH  53  67
ATOM     67  C   UNL A   1      42.397  27.482  27.381  1.00  0.00     0.057 A 
ATOM     68  C   UNL A   1      42.960  28.113  26.266  1.00  0.00     0.134 A 
ATOM     69  C   UNL A   1      42.332  26.083  27.371  1.00  0.00     0.134 A 
ATOM     70  F   UNL A   1      43.036  29.452  26.209  1.00  0.00    -0.206 F 
ATOM     71  C   UNL A   1      43.417  27.382  25.169  1.00  0.00     0.040 A 
ATOM     72  C   UNL A   1      42.808  25.340  26.291  1.00  0.00     0.040 A 
ATOM     73  F   UNL A   1      41.809  25.418  28.413  1.00  0.00    -0.206 F 
ATOM     74  C   UNL A   1      43.347  25.990  25.183  1.00  0.00     0.006 A 
ENDBRANCH  53  67
BRANCH  54  75
ATOM     75  C   UNL A   1      38.609  32.287  35.217  1.00  0.00     0.057 A 
ATOM     76  C   UNL A   1      38.613  33.686  35.297  1.00  0.00     0.134 A 
ATOM     77  C   UNL A   1      38.148  31.579  36.331  1.00  0.00     0.134 A 
ATOM     78  F   UNL A   1      39.070  34.419  34.270  1.00  0.00    -0.206 F 
ATOM     79  C   UNL A   1      38.206  34.355  36.452  1.00  0.00     0.040 A 
ATOM     80  C   UNL A   1      37.717  32.235  37.485  1.00  0.00     0.040 A 
ATOM     81  F   UNL A   1      38.120  30.238  36.316  1.00  0.00    -0.206 F 
ATOM     82  C   UNL A   1      37.755  33.627  37.552  1.00  0.00     0.006 A 
ENDBRANCH  54  75
BRANCH  66  83
ATOM     83  C   UNL A   1      44.871  29.640  33.783  1.00  0.00     0.057 A 
ATOM     84  C   UNL A   1      45.200  28.560  34.609  1.00  0.00     0.134 A 
ATOM     85  C   UNL A   1      45.816  30.665  33.645  1.00  0.00     0.134 A 
ATOM     86  F   UNL A   1      44.333  27.553  34.790  1.00  0.00    -0.206 F 
ATOM     87  C   UNL A   1      46.422  28.508  35.286  1.00  0.00     0.040 A 
ATOM     88  C   UNL A   1      47.048  30.614  34.299  1.00  0.00     0.040 A 
ATOM     89  F   UNL A   1      45.563  31.723  32.860  1.00  0.00    -0.206 F 
ATOM     90  C   UNL A   1      47.351  29.533  35.125  1.00  0.00     0.006 A 
ENDBRANCH  66  83
ENDBRANCH  40  41
ENDBRANCH  33  35
ENDBRANCH  32  33
ENDBRANCH  31  32
ENDBRANCH  30  31
ENDBRANCH  29  30
ENDBRANCH   1  29
TORSDOF 18
ENDMDL
MODEL 3
REMARK VINA RESULT:     -10.8      4.075      7.797
REMARK SMILES C[C@@]1(C(=O)c2ccccc2N)[C@H](C(=O)OCCOCCOC(=O)c2ccc(-c3c4nc(c(-c5c(F)cccc5F)c5ccc([nH]5)c(-c5c(F)cccc5F)c5nc(c(-c6c(F)cccc6F)c6ccc3[nH]6)C=C5)C=C4)cc2)[C@@H]1C(=O)N1CCOCC1
REMARK SMILES IDX 17 1 16 2 15 3 13 4 14 5 12 6 1 7 2 8 78 9 3 10 4 11 5 12
REMARK SMILES IDX 6 13 10 14 7 15 9 16 8 17 11 18 79 21 80 22 81 23 82 24
REMARK SMILES IDX 86 25 83 26 85 27 84 28 18 29 19 30 20 31 21 32 22 33 23 34
REMARK SMILES IDX 24 35 25 36 77 37 26 38 76 39 27 40 28 41 29 42 70 43 30 44
REMARK SMILES IDX 75 45 69 46 71 47 31 48 74 49 68 50 67 51 32 53 58 54 41 55
REMARK SMILES IDX 57 56 42 57 45 58 56 59 72 60 43 61 44 62 55 64 73 65 46 66
REMARK SMILES IDX 33 67 34 68 39 69 35 70 36 71 38 72 40 73 37 74 59 75 60 76
REMARK SMILES IDX 65 77 61 78 62 79 64 80 66 81 63 82 47 83 48 84 53 85 49 86
REMARK SMILES IDX 50 87 52 88 54 89 51 90
REMARK H PARENT 11 19 11 20 71 52 45 63
REMARK Flexibility Score: inf
ROOT
ATOM      1  C   UNL A   1      34.683  30.183  27.840  1.00  0.00     0.202 C 
ENDROOT
BRANCH   1   2
ATOM      2  C   UNL A   1      34.378  29.015  26.904  1.00  0.00     0.261 C 
BRANCH   2   3
ATOM      3  O   UNL A   1      33.250  28.250  27.366  1.00  0.00    -0.463 OA
BRANCH   3   4
ATOM      4  C   UNL A   1      32.179  28.324  26.540  1.00  0.00     0.310 C 
ATOM      5  O   UNL A   1      31.944  29.245  25.769  1.00  0.00    -0.252 OA
BRANCH   4   6
ATOM      6  C   UNL A   1      31.413  27.078  26.417  1.00  0.00     0.127 C 
ATOM      7  C   UNL A   1      29.419  25.598  25.920  1.00  0.00     0.022 C 
ATOM      8  C   UNL A   1      30.564  26.440  25.348  1.00  0.00     0.057 C 
ATOM      9  C   UNL A   1      31.994  25.921  25.647  1.00  0.00     0.108 C 
BRANCH   8  10
ATOM     10  C   UNL A   1      30.350  26.758  23.896  1.00  0.00     0.172 C 
ATOM     11  O   UNL A   1      30.534  25.858  23.076  1.00  0.00    -0.293 OA
BRANCH  10  12
ATOM     12  C   UNL A   1      29.763  27.994  23.374  1.00  0.00     0.041 A 
ATOM     13  C   UNL A   1      28.368  28.096  23.405  1.00  0.00     0.014 A 
ATOM     14  C   UNL A   1      30.525  28.830  22.533  1.00  0.00     0.042 A 
ATOM     15  C   UNL A   1      27.737  29.063  22.626  1.00  0.00     0.001 A 
ATOM     16  C   UNL A   1      29.879  29.879  21.874  1.00  0.00     0.026 A 
ATOM     17  C   UNL A   1      28.491  29.969  21.884  1.00  0.00     0.002 A 
BRANCH  14  18
ATOM     18  N   UNL A   1      31.906  28.725  22.400  1.00  0.00    -0.398 N 
ATOM     19  H   UNL A   1      32.455  28.439  23.165  1.00  0.00     0.156 HD
ATOM     20  H   UNL A   1      32.335  28.936  21.539  1.00  0.00     0.156 HD
ENDBRANCH  14  18
ENDBRANCH  10  12
ENDBRANCH   8  10
BRANCH   9  21
ATOM     21  C   UNL A   1      33.082  26.081  24.633  1.00  0.00     0.227 C 
ATOM     22  O   UNL A   1      33.385  27.188  24.204  1.00  0.00    -0.275 OA
ATOM     23  N   UNL A   1      33.638  24.916  24.144  1.00  0.00    -0.338 N 
ATOM     24  C   UNL A   1      33.231  24.542  22.797  1.00  0.00     0.148 C 
ATOM     25  C   UNL A   1      35.066  24.684  24.379  1.00  0.00     0.148 C 
ATOM     26  C   UNL A   1      33.685  23.122  22.459  1.00  0.00     0.181 C 
ATOM     27  C   UNL A   1      35.473  23.261  23.988  1.00  0.00     0.181 C 
ATOM     28  O   UNL A   1      35.105  22.979  22.628  1.00  0.00    -0.378 OA
ENDBRANCH   9  21
ENDBRANCH   4   6
ENDBRANCH   3   4
ENDBRANCH   2   3
ENDBRANCH   1   2
BRANCH   1  29
ATOM     29  O   UNL A   1      34.306  31.472  27.362  1.00  0.00    -0.374 OA
BRANCH  29  30
ATOM     30  C   UNL A   1      32.956  31.878  27.599  1.00  0.00     0.202 C 
BRANCH  30  31
ATOM     31  C   UNL A   1      32.654  33.372  27.409  1.00  0.00     0.261 C 
BRANCH  31  32
ATOM     32  O   UNL A   1      32.447  34.059  28.658  1.00  0.00    -0.460 OA
BRANCH  32  33
ATOM     33  C   UNL A   1      33.395  34.975  28.989  1.00  0.00     0.338 C 
ATOM     34  O   UNL A   1      33.288  36.188  28.987  1.00  0.00    -0.246 OA
BRANCH  33  35
ATOM     35  C   UNL A   1      34.574  34.273  29.537  1.00  0.00     0.060 A 
ATOM     36  C   UNL A   1      35.833  34.510  28.974  1.00  0.00     0.016 A 
ATOM     37  C   UNL A   1      34.437  33.366  30.583  1.00  0.00     0.016 A 
ATOM     38  C   UNL A   1      36.960  33.841  29.464  1.00  0.00     0.010 A 
ATOM     39  C   UNL A   1      35.569  32.723  31.093  1.00  0.00     0.010 A 
ATOM     40  C   UNL A   1      36.841  32.934  30.527  1.00  0.00    -0.014 A 
BRANCH  40  41
ATOM     41  C   UNL A   1      37.997  32.098  30.964  1.00  0.00     0.031 A 
ATOM     42  C   UNL A   1      38.611  32.354  32.319  1.00  0.00     0.074 A 
ATOM     43  C   UNL A   1      38.520  31.136  30.176  1.00  0.00     0.049 A 
ATOM     44  N   UNL A   1      39.676  31.824  32.864  1.00  0.00    -0.248 NA
ATOM     45  C   UNL A   1      37.957  33.372  33.157  1.00  0.00     0.031 C 
ATOM     46  C   UNL A   1      38.057  30.784  28.833  1.00  0.00     0.029 A 
ATOM     47  N   UNL A   1      39.568  30.274  30.400  1.00  0.00    -0.354 N 
ATOM     48  C   UNL A   1      39.850  32.485  34.074  1.00  0.00     0.074 A 
ATOM     49  C   UNL A   1      38.802  33.476  34.169  1.00  0.00     0.031 C 
ATOM     50  C   UNL A   1      38.798  29.761  28.368  1.00  0.00     0.029 A 
ATOM     51  C   UNL A   1      39.806  29.405  29.363  1.00  0.00     0.049 A 
ATOM     52  H   UNL A   1      40.099  30.279  31.229  1.00  0.00     0.167 HD
ATOM     53  C   UNL A   1      40.778  32.275  35.037  1.00  0.00     0.037 A 
ATOM     54  C   UNL A   1      40.732  28.433  29.232  1.00  0.00     0.037 A 
ATOM     55  C   UNL A   1      41.759  31.226  35.007  1.00  0.00     0.049 A 
ATOM     56  C   UNL A   1      41.718  28.179  30.345  1.00  0.00     0.074 A 
ATOM     57  C   UNL A   1      42.676  30.877  35.983  1.00  0.00     0.029 A 
ATOM     58  N   UNL A   1      41.933  30.342  33.956  1.00  0.00    -0.354 N 
ATOM     59  N   UNL A   1      41.833  28.780  31.503  1.00  0.00    -0.248 NA
ATOM     60  C   UNL A   1      42.703  27.106  30.129  1.00  0.00     0.031 C 
ATOM     61  C   UNL A   1      43.420  29.790  35.515  1.00  0.00     0.029 A 
ATOM     62  C   UNL A   1      42.947  29.449  34.259  1.00  0.00     0.049 A 
ATOM     63  H   UNL A   1      41.415  30.347  33.119  1.00  0.00     0.167 HD
ATOM     64  C   UNL A   1      42.874  28.138  32.164  1.00  0.00     0.074 A 
ATOM     65  C   UNL A   1      43.354  27.095  31.283  1.00  0.00     0.031 C 
ATOM     66  C   UNL A   1      43.389  28.391  33.391  1.00  0.00     0.037 A 
BRANCH  53  67
ATOM     67  C   UNL A   1      40.768  33.197  36.219  1.00  0.00     0.057 A 
ATOM     68  C   UNL A   1      39.892  33.011  37.295  1.00  0.00     0.134 A 
ATOM     69  C   UNL A   1      41.670  34.266  36.292  1.00  0.00     0.134 A 
ATOM     70  F   UNL A   1      38.994  32.014  37.276  1.00  0.00    -0.206 F 
ATOM     71  C   UNL A   1      39.894  33.873  38.392  1.00  0.00     0.040 A 
ATOM     72  C   UNL A   1      41.699  35.120  37.395  1.00  0.00     0.040 A 
ATOM     73  F   UNL A   1      42.539  34.493  35.296  1.00  0.00    -0.206 F 
ATOM     74  C   UNL A   1      40.805  34.928  38.446  1.00  0.00     0.006 A 
ENDBRANCH  53  67
BRANCH  54  75
ATOM     75  C   UNL A   1      40.778  27.589  28.010  1.00  0.00     0.057 A 
ATOM     76  C   UNL A   1      40.112  26.357  27.964  1.00  0.00     0.134 A 
ATOM     77  C   UNL A   1      41.538  27.953  26.894  1.00  0.00     0.134 A 
ATOM     78  F   UNL A   1      39.390  25.942  29.016  1.00  0.00    -0.206 F 
ATOM     79  C   UNL A   1      40.225  25.504  26.866  1.00  0.00     0.040 A 
ATOM     80  C   UNL A   1      41.643  27.119  25.779  1.00  0.00     0.040 A 
ATOM     81  F   UNL A   1      42.199  29.120  26.876  1.00  0.00    -0.206 F 
ATOM     82  C   UNL A   1      40.993  25.886  25.767  1.00  0.00     0.006 A 
ENDBRANCH  54  75
BRANCH  66  83
ATOM     83  C   UNL A   1      44.487  27.498  33.884  1.00  0.00     0.057 A 
ATOM     84  C   UNL A   1      44.220  26.287  34.531  1.00  0.00     0.134 A 
ATOM     85  C   UNL A   1      45.829  27.828  33.650  1.00  0.00     0.134 A 
ATOM     86  F   UNL A   1      42.956  25.921  34.792  1.00  0.00    -0.206 F 
ATOM     87  C   UNL A   1      45.250  25.439  34.943  1.00  0.00     0.040 A 
ATOM     88  C   UNL A   1      46.866  26.979  34.039  1.00  0.00     0.040 A 
ATOM     89  F   UNL A   1      46.151  28.971  33.027  1.00  0.00    -0.206 F 
ATOM     90  C   UNL A   1      46.577  25.782  34.690  1.00  0.00     0.006 A 
ENDBRANCH  66  83
ENDBRANCH  40  41
ENDBRANCH  33  35
ENDBRANCH  32  33
ENDBRANCH  31  32
ENDBRANCH  30  31
ENDBRANCH  29  30
ENDBRANCH   1  29
TORSDOF 18
ENDMDL
