MODEL 1
REMARK VINA RESULT:     -11.1      0.000      0.000
REMARK SMILES COc1ccc2c(c1)c(CC(=O)OCCOCCOC(=O)c1ccc(-c3c4nc(c(-c5c(F)cccc5F)c5ccc([nH]5)c(-c5c(F)cccc5F)c5nc(c(-c6c(F)cccc6F)c6ccc3[nH]6)C=C5)C=C4)cc1)c(C)n2Cc1ccc(Br)cc1
REMARK SMILES IDX 15 1 14 2 13 3 11 4 12 5 10 6 9 7 3 8 4 9 8 10 5 11 7 12
REMARK SMILES IDX 6 13 78 14 76 15 77 16 2 17 1 18 79 19 80 20 81 21 86 22
REMARK SMILES IDX 82 23 85 24 83 25 84 26 16 27 17 28 18 29 19 30 20 31 21 32
REMARK SMILES IDX 22 33 23 34 75 35 24 36 74 37 25 38 26 39 27 40 68 41 28 42
REMARK SMILES IDX 73 43 67 44 69 45 29 46 72 47 66 48 65 49 30 51 56 52 39 53
REMARK SMILES IDX 55 54 40 55 43 56 54 57 70 58 41 59 42 60 53 62 71 63 44 64
REMARK SMILES IDX 31 65 32 66 37 67 33 68 34 69 36 70 38 71 35 72 57 73 58 74
REMARK SMILES IDX 63 75 59 76 60 77 62 78 64 79 61 80 45 81 46 82 51 83 47 84
REMARK SMILES IDX 48 85 50 86 52 87 49 88
REMARK H PARENT 69 50 43 61
REMARK Flexibility Score: inf
ROOT
ATOM      1  C   UNL A   1      41.285  21.304  27.551  1.00  0.00     0.202 C 
ENDROOT
BRANCH   1   2
ATOM      2  C   UNL A   1      40.215  22.051  26.736  1.00  0.00     0.261 C 
BRANCH   2   3
ATOM      3  O   UNL A   1      39.117  21.225  26.315  1.00  0.00    -0.463 OA
BRANCH   3   4
ATOM      4  C   UNL A   1      38.082  21.901  25.751  1.00  0.00     0.310 C 
ATOM      5  O   UNL A   1      37.763  23.048  26.062  1.00  0.00    -0.252 OA
BRANCH   4   6
ATOM      6  C   UNL A   1      37.338  21.175  24.649  1.00  0.00     0.160 C 
BRANCH   6   7
ATOM      7  C   UNL A   1      35.878  21.466  24.436  1.00  0.00    -0.008 A 
ATOM      8  C   UNL A   1      33.527  18.483  24.945  1.00  0.00     0.119 A 
ATOM      9  C   UNL A   1      32.346  19.196  24.785  1.00  0.00     0.048 A 
ATOM     10  C   UNL A   1      34.747  19.145  24.773  1.00  0.00     0.057 A 
ATOM     11  C   UNL A   1      32.364  20.568  24.458  1.00  0.00     0.031 A 
ATOM     12  C   UNL A   1      34.800  20.535  24.530  1.00  0.00     0.007 A 
ATOM     13  C   UNL A   1      33.605  21.228  24.326  1.00  0.00     0.049 A 
ATOM     14  N   UNL A   1      33.949  22.534  23.970  1.00  0.00    -0.340 N 
ATOM     15  C   UNL A   1      35.335  22.615  23.879  1.00  0.00     0.020 A 
ATOM     16  C   UNL A   1      36.099  23.721  23.237  1.00  0.00     0.065 C 
BRANCH   8  17
ATOM     17  O   UNL A   1      33.676  17.196  25.376  1.00  0.00    -0.497 OA
ATOM     18  C   UNL A   1      32.531  16.405  25.651  1.00  0.00     0.278 C 
ENDBRANCH   8  17
BRANCH  14  19
ATOM     19  C   UNL A   1      32.987  23.541  23.487  1.00  0.00     0.157 C 
BRANCH  19  20
ATOM     20  C   UNL A   1      32.668  24.675  24.447  1.00  0.00    -0.028 A 
ATOM     21  C   UNL A   1      31.610  24.600  25.366  1.00  0.00     0.007 A 
ATOM     22  C   UNL A   1      33.501  25.804  24.523  1.00  0.00     0.007 A 
ATOM     23  C   UNL A   1      31.341  25.624  26.278  1.00  0.00     0.016 A 
ATOM     24  C   UNL A   1      33.254  26.825  25.453  1.00  0.00     0.016 A 
ATOM     25  C   UNL A   1      32.164  26.737  26.314  1.00  0.00     0.017 A 
ATOM     26  Br  UNL A   1      31.805  28.118  27.553  1.00  0.00    -0.051 Br
ENDBRANCH  19  20
ENDBRANCH  14  19
ENDBRANCH   6   7
ENDBRANCH   4   6
ENDBRANCH   3   4
ENDBRANCH   2   3
ENDBRANCH   1   2
BRANCH   1  27
ATOM     27  O   UNL A   1      42.502  20.908  26.945  1.00  0.00    -0.374 OA
BRANCH  27  28
ATOM     28  C   UNL A   1      42.474  19.699  26.196  1.00  0.00     0.202 C 
BRANCH  28  29
ATOM     29  C   UNL A   1      43.720  19.290  25.389  1.00  0.00     0.261 C 
BRANCH  29  30
ATOM     30  O   UNL A   1      44.759  20.267  25.419  1.00  0.00    -0.460 OA
BRANCH  30  31
ATOM     31  C   UNL A   1      44.866  21.007  24.278  1.00  0.00     0.338 C 
ATOM     32  O   UNL A   1      44.581  20.695  23.148  1.00  0.00    -0.246 OA
BRANCH  31  33
ATOM     33  C   UNL A   1      44.944  22.385  24.795  1.00  0.00     0.060 A 
ATOM     34  C   UNL A   1      45.792  22.678  25.867  1.00  0.00     0.016 A 
ATOM     35  C   UNL A   1      43.836  23.187  24.481  1.00  0.00     0.016 A 
ATOM     36  C   UNL A   1      45.451  23.722  26.713  1.00  0.00     0.010 A 
ATOM     37  C   UNL A   1      43.472  24.194  25.359  1.00  0.00     0.010 A 
ATOM     38  C   UNL A   1      44.254  24.424  26.498  1.00  0.00    -0.014 A 
BRANCH  38  39
ATOM     39  C   UNL A   1      43.984  25.604  27.317  1.00  0.00     0.031 A 
ATOM     40  C   UNL A   1      45.023  26.642  27.080  1.00  0.00     0.074 A 
ATOM     41  C   UNL A   1      42.863  25.824  28.034  1.00  0.00     0.049 A 
ATOM     42  N   UNL A   1      45.894  27.105  27.914  1.00  0.00    -0.248 NA
ATOM     43  C   UNL A   1      45.266  27.040  25.678  1.00  0.00     0.031 C 
ATOM     44  C   UNL A   1      41.670  24.994  28.141  1.00  0.00     0.029 A 
ATOM     45  N   UNL A   1      42.504  26.931  28.749  1.00  0.00    -0.354 N 
ATOM     46  C   UNL A   1      46.646  28.018  27.177  1.00  0.00     0.074 A 
ATOM     47  C   UNL A   1      46.394  27.734  25.796  1.00  0.00     0.031 C 
ATOM     48  C   UNL A   1      40.642  25.706  28.650  1.00  0.00     0.029 A 
ATOM     49  C   UNL A   1      41.134  27.014  29.022  1.00  0.00     0.049 A 
ATOM     50  H   UNL A   1      43.150  27.612  29.046  1.00  0.00     0.167 HD
ATOM     51  C   UNL A   1      47.139  29.146  27.755  1.00  0.00     0.037 A 
ATOM     52  C   UNL A   1      40.464  28.120  29.437  1.00  0.00     0.037 A 
ATOM     53  C   UNL A   1      47.242  28.987  29.185  1.00  0.00     0.049 A 
ATOM     54  C   UNL A   1      41.477  29.065  29.972  1.00  0.00     0.074 A 
ATOM     55  C   UNL A   1      47.884  28.091  30.019  1.00  0.00     0.029 A 
ATOM     56  N   UNL A   1      46.299  29.606  29.971  1.00  0.00    -0.354 N 
ATOM     57  N   UNL A   1      42.146  28.852  31.071  1.00  0.00    -0.248 NA
ATOM     58  C   UNL A   1      42.107  29.963  29.013  1.00  0.00     0.031 C 
ATOM     59  C   UNL A   1      46.970  27.861  31.090  1.00  0.00     0.029 A 
ATOM     60  C   UNL A   1      45.865  28.685  30.888  1.00  0.00     0.049 A 
ATOM     61  H   UNL A   1      45.994  30.539  29.889  1.00  0.00     0.167 HD
ATOM     62  C   UNL A   1      43.448  29.223  30.765  1.00  0.00     0.074 A 
ATOM     63  C   UNL A   1      43.355  29.940  29.493  1.00  0.00     0.031 C 
ATOM     64  C   UNL A   1      44.518  28.663  31.403  1.00  0.00     0.037 A 
BRANCH  51  65
ATOM     65  C   UNL A   1      47.071  30.507  27.088  1.00  0.00     0.057 A 
ATOM     66  C   UNL A   1      45.885  31.168  26.693  1.00  0.00     0.134 A 
ATOM     67  C   UNL A   1      48.211  31.327  27.134  1.00  0.00     0.134 A 
ATOM     68  F   UNL A   1      44.697  30.565  26.606  1.00  0.00    -0.206 F 
ATOM     69  C   UNL A   1      45.823  32.541  26.447  1.00  0.00     0.040 A 
ATOM     70  C   UNL A   1      48.149  32.712  26.935  1.00  0.00     0.040 A 
ATOM     71  F   UNL A   1      49.408  30.824  27.471  1.00  0.00    -0.206 F 
ATOM     72  C   UNL A   1      46.947  33.327  26.611  1.00  0.00     0.006 A 
ENDBRANCH  51  65
BRANCH  52  73
ATOM     73  C   UNL A   1      39.085  28.545  29.089  1.00  0.00     0.057 A 
ATOM     74  C   UNL A   1      38.783  29.123  27.842  1.00  0.00     0.134 A 
ATOM     75  C   UNL A   1      38.081  28.642  30.064  1.00  0.00     0.134 A 
ATOM     76  F   UNL A   1      39.693  29.166  26.859  1.00  0.00    -0.206 F 
ATOM     77  C   UNL A   1      37.565  29.762  27.582  1.00  0.00     0.040 A 
ATOM     78  C   UNL A   1      36.860  29.288  29.820  1.00  0.00     0.040 A 
ATOM     79  F   UNL A   1      38.286  28.166  31.301  1.00  0.00    -0.206 F 
ATOM     80  C   UNL A   1      36.602  29.859  28.577  1.00  0.00     0.006 A 
ENDBRANCH  52  73
BRANCH  64  81
ATOM     81  C   UNL A   1      44.257  27.784  32.592  1.00  0.00     0.057 A 
ATOM     82  C   UNL A   1      44.326  28.350  33.868  1.00  0.00     0.134 A 
ATOM     83  C   UNL A   1      44.099  26.390  32.522  1.00  0.00     0.134 A 
ATOM     84  F   UNL A   1      44.536  29.667  34.013  1.00  0.00    -0.206 F 
ATOM     85  C   UNL A   1      44.231  27.575  35.025  1.00  0.00     0.040 A 
ATOM     86  C   UNL A   1      43.969  25.606  33.674  1.00  0.00     0.040 A 
ATOM     87  F   UNL A   1      44.130  25.748  31.348  1.00  0.00    -0.206 F 
ATOM     88  C   UNL A   1      44.041  26.199  34.930  1.00  0.00     0.006 A 
ENDBRANCH  64  81
ENDBRANCH  38  39
ENDBRANCH  31  33
ENDBRANCH  30  31
ENDBRANCH  29  30
ENDBRANCH  28  29
ENDBRANCH  27  28
ENDBRANCH   1  27
TORSDOF 18
ENDMDL
MODEL 2
REMARK VINA RESULT:     -11.0      4.670      9.699
REMARK SMILES COc1ccc2c(c1)c(CC(=O)OCCOCCOC(=O)c1ccc(-c3c4nc(c(-c5c(F)cccc5F)c5ccc([nH]5)c(-c5c(F)cccc5F)c5nc(c(-c6c(F)cccc6F)c6ccc3[nH]6)C=C5)C=C4)cc1)c(C)n2Cc1ccc(Br)cc1
REMARK SMILES IDX 15 1 14 2 13 3 11 4 12 5 10 6 9 7 3 8 4 9 8 10 5 11 7 12
REMARK SMILES IDX 6 13 78 14 76 15 77 16 2 17 1 18 79 19 80 20 81 21 86 22
REMARK SMILES IDX 82 23 85 24 83 25 84 26 16 27 17 28 18 29 19 30 20 31 21 32
REMARK SMILES IDX 22 33 23 34 75 35 24 36 74 37 25 38 26 39 27 40 68 41 28 42
REMARK SMILES IDX 73 43 67 44 69 45 29 46 72 47 66 48 65 49 30 51 56 52 39 53
REMARK SMILES IDX 55 54 40 55 43 56 54 57 70 58 41 59 42 60 53 62 71 63 44 64
REMARK SMILES IDX 31 65 32 66 37 67 33 68 34 69 36 70 38 71 35 72 57 73 58 74
REMARK SMILES IDX 63 75 59 76 60 77 62 78 64 79 61 80 45 81 46 82 51 83 47 84
REMARK SMILES IDX 48 85 50 86 52 87 49 88
REMARK H PARENT 69 50 43 61
REMARK Flexibility Score: inf
ROOT
ATOM      1  C   UNL A   1      35.432  33.280  28.622  1.00  0.00     0.202 C 
ENDROOT
BRANCH   1   2
ATOM      2  C   UNL A   1      34.409  32.134  28.705  1.00  0.00     0.261 C 
BRANCH   2   3
ATOM      3  O   UNL A   1      33.486  32.093  27.604  1.00  0.00    -0.463 OA
BRANCH   3   4
ATOM      4  C   UNL A   1      33.350  30.871  27.024  1.00  0.00     0.310 C 
ATOM      5  O   UNL A   1      34.273  30.069  26.892  1.00  0.00    -0.252 OA
BRANCH   4   6
ATOM      6  C   UNL A   1      31.952  30.505  26.570  1.00  0.00     0.160 C 
BRANCH   6   7
ATOM      7  C   UNL A   1      31.697  29.131  26.014  1.00  0.00    -0.008 A 
ATOM      8  C   UNL A   1      30.217  29.046  22.481  1.00  0.00     0.119 A 
ATOM      9  C   UNL A   1      30.269  27.667  22.331  1.00  0.00     0.048 A 
ATOM     10  C   UNL A   1      30.604  29.611  23.701  1.00  0.00     0.057 A 
ATOM     11  C   UNL A   1      30.707  26.838  23.385  1.00  0.00     0.031 A 
ATOM     12  C   UNL A   1      31.128  28.817  24.744  1.00  0.00     0.007 A 
ATOM     13  C   UNL A   1      31.130  27.428  24.596  1.00  0.00     0.049 A 
ATOM     14  N   UNL A   1      31.561  26.891  25.811  1.00  0.00    -0.340 N 
ATOM     15  C   UNL A   1      31.741  27.934  26.714  1.00  0.00     0.020 A 
ATOM     16  C   UNL A   1      31.892  27.788  28.188  1.00  0.00     0.065 C 
BRANCH   8  17
ATOM     17  O   UNL A   1      29.935  29.982  21.527  1.00  0.00    -0.497 OA
ATOM     18  C   UNL A   1      28.617  30.491  21.403  1.00  0.00     0.278 C 
ENDBRANCH   8  17
BRANCH  14  19
ATOM     19  C   UNL A   1      31.527  25.454  26.139  1.00  0.00     0.157 C 
BRANCH  19  20
ATOM     20  C   UNL A   1      32.841  24.704  25.988  1.00  0.00    -0.028 A 
ATOM     21  C   UNL A   1      33.955  25.269  25.349  1.00  0.00     0.007 A 
ATOM     22  C   UNL A   1      33.019  23.447  26.591  1.00  0.00     0.007 A 
ATOM     23  C   UNL A   1      35.175  24.597  25.247  1.00  0.00     0.016 A 
ATOM     24  C   UNL A   1      34.250  22.777  26.515  1.00  0.00     0.016 A 
ATOM     25  C   UNL A   1      35.317  23.348  25.828  1.00  0.00     0.017 A 
ATOM     26  Br  UNL A   1      36.970  22.444  25.697  1.00  0.00    -0.051 Br
ENDBRANCH  19  20
ENDBRANCH  14  19
ENDBRANCH   6   7
ENDBRANCH   4   6
ENDBRANCH   3   4
ENDBRANCH   2   3
ENDBRANCH   1   2
BRANCH   1  27
ATOM     27  O   UNL A   1      35.181  34.516  29.266  1.00  0.00    -0.374 OA
BRANCH  27  28
ATOM     28  C   UNL A   1      33.816  34.841  29.502  1.00  0.00     0.202 C 
BRANCH  28  29
ATOM     29  C   UNL A   1      33.421  35.477  30.848  1.00  0.00     0.261 C 
BRANCH  29  30
ATOM     30  O   UNL A   1      34.383  35.263  31.879  1.00  0.00    -0.460 OA
BRANCH  30  31
ATOM     31  C   UNL A   1      34.026  34.314  32.791  1.00  0.00     0.338 C 
ATOM     32  O   UNL A   1      32.921  33.933  33.088  1.00  0.00    -0.246 OA
BRANCH  31  33
ATOM     33  C   UNL A   1      35.274  33.550  32.966  1.00  0.00     0.060 A 
ATOM     34  C   UNL A   1      36.497  34.225  33.037  1.00  0.00     0.016 A 
ATOM     35  C   UNL A   1      35.188  32.202  32.590  1.00  0.00     0.016 A 
ATOM     36  C   UNL A   1      37.639  33.570  32.602  1.00  0.00     0.010 A 
ATOM     37  C   UNL A   1      36.323  31.572  32.106  1.00  0.00     0.010 A 
ATOM     38  C   UNL A   1      37.533  32.275  32.069  1.00  0.00    -0.014 A 
BRANCH  38  39
ATOM     39  C   UNL A   1      38.762  31.554  31.745  1.00  0.00     0.031 A 
ATOM     40  C   UNL A   1      39.526  31.257  32.987  1.00  0.00     0.074 A 
ATOM     41  C   UNL A   1      39.082  31.047  30.536  1.00  0.00     0.049 A 
ATOM     42  N   UNL A   1      40.687  31.702  33.336  1.00  0.00    -0.248 NA
ATOM     43  C   UNL A   1      38.800  30.564  34.070  1.00  0.00     0.031 C 
ATOM     44  C   UNL A   1      38.299  31.056  29.307  1.00  0.00     0.029 A 
ATOM     45  N   UNL A   1      40.163  30.293  30.179  1.00  0.00    -0.354 N 
ATOM     46  C   UNL A   1      40.918  31.153  34.595  1.00  0.00     0.074 A 
ATOM     47  C   UNL A   1      39.648  30.707  35.085  1.00  0.00     0.031 C 
ATOM     48  C   UNL A   1      38.787  30.154  28.429  1.00  0.00     0.029 A 
ATOM     49  C   UNL A   1      39.995  29.586  28.984  1.00  0.00     0.049 A 
ATOM     50  H   UNL A   1      40.988  30.251  30.715  1.00  0.00     0.167 HD
ATOM     51  C   UNL A   1      42.171  30.797  34.985  1.00  0.00     0.037 A 
ATOM     52  C   UNL A   1      40.758  28.549  28.552  1.00  0.00     0.037 A 
ATOM     53  C   UNL A   1      43.167  31.512  34.224  1.00  0.00     0.049 A 
ATOM     54  C   UNL A   1      42.030  28.598  29.318  1.00  0.00     0.074 A 
ATOM     55  C   UNL A   1      43.446  32.847  34.002  1.00  0.00     0.029 A 
ATOM     56  N   UNL A   1      43.830  30.830  33.232  1.00  0.00    -0.354 N 
ATOM     57  N   UNL A   1      42.922  29.538  29.166  1.00  0.00    -0.248 NA
ATOM     58  C   UNL A   1      42.050  27.910  30.601  1.00  0.00     0.031 C 
ATOM     59  C   UNL A   1      43.821  32.924  32.628  1.00  0.00     0.029 A 
ATOM     60  C   UNL A   1      43.826  31.627  32.117  1.00  0.00     0.049 A 
ATOM     61  H   UNL A   1      44.234  29.935  33.309  1.00  0.00     0.167 HD
ATOM     62  C   UNL A   1      43.316  29.857  30.458  1.00  0.00     0.074 A 
ATOM     63  C   UNL A   1      42.774  28.791  31.299  1.00  0.00     0.031 C 
ATOM     64  C   UNL A   1      43.782  31.101  30.775  1.00  0.00     0.037 A 
BRANCH  51  65
ATOM     65  C   UNL A   1      42.470  29.491  35.697  1.00  0.00     0.057 A 
ATOM     66  C   UNL A   1      42.106  28.205  35.236  1.00  0.00     0.134 A 
ATOM     67  C   UNL A   1      43.436  29.496  36.717  1.00  0.00     0.134 A 
ATOM     68  F   UNL A   1      41.219  27.993  34.260  1.00  0.00    -0.206 F 
ATOM     69  C   UNL A   1      42.712  27.032  35.692  1.00  0.00     0.040 A 
ATOM     70  C   UNL A   1      44.082  28.331  37.146  1.00  0.00     0.040 A 
ATOM     71  F   UNL A   1      43.856  30.648  37.262  1.00  0.00    -0.206 F 
ATOM     72  C   UNL A   1      43.735  27.094  36.618  1.00  0.00     0.006 A 
ENDBRANCH  51  65
BRANCH  52  73
ATOM     73  C   UNL A   1      40.332  27.346  27.793  1.00  0.00     0.057 A 
ATOM     74  C   UNL A   1      39.569  26.327  28.393  1.00  0.00     0.134 A 
ATOM     75  C   UNL A   1      40.885  27.036  26.542  1.00  0.00     0.134 A 
ATOM     76  F   UNL A   1      39.060  26.475  29.624  1.00  0.00    -0.206 F 
ATOM     77  C   UNL A   1      39.373  25.078  27.792  1.00  0.00     0.040 A 
ATOM     78  C   UNL A   1      40.704  25.785  25.932  1.00  0.00     0.040 A 
ATOM     79  F   UNL A   1      41.669  27.920  25.906  1.00  0.00    -0.206 F 
ATOM     80  C   UNL A   1      39.952  24.798  26.562  1.00  0.00     0.006 A 
ENDBRANCH  52  73
BRANCH  64  81
ATOM     81  C   UNL A   1      44.056  32.064  29.656  1.00  0.00     0.057 A 
ATOM     82  C   UNL A   1      45.364  32.172  29.175  1.00  0.00     0.134 A 
ATOM     83  C   UNL A   1      43.118  32.984  29.159  1.00  0.00     0.134 A 
ATOM     84  F   UNL A   1      46.327  31.367  29.649  1.00  0.00    -0.206 F 
ATOM     85  C   UNL A   1      45.728  33.137  28.234  1.00  0.00     0.040 A 
ATOM     86  C   UNL A   1      43.461  33.934  28.190  1.00  0.00     0.040 A 
ATOM     87  F   UNL A   1      41.869  33.026  29.639  1.00  0.00    -0.206 F 
ATOM     88  C   UNL A   1      44.772  34.015  27.730  1.00  0.00     0.006 A 
ENDBRANCH  64  81
ENDBRANCH  38  39
ENDBRANCH  31  33
ENDBRANCH  30  31
ENDBRANCH  29  30
ENDBRANCH  28  29
ENDBRANCH  27  28
ENDBRANCH   1  27
TORSDOF 18
ENDMDL
MODEL 3
REMARK VINA RESULT:     -10.7      3.052      7.928
REMARK SMILES COc1ccc2c(c1)c(CC(=O)OCCOCCOC(=O)c1ccc(-c3c4nc(c(-c5c(F)cccc5F)c5ccc([nH]5)c(-c5c(F)cccc5F)c5nc(c(-c6c(F)cccc6F)c6ccc3[nH]6)C=C5)C=C4)cc1)c(C)n2Cc1ccc(Br)cc1
REMARK SMILES IDX 15 1 14 2 13 3 11 4 12 5 10 6 9 7 3 8 4 9 8 10 5 11 7 12
REMARK SMILES IDX 6 13 78 14 76 15 77 16 2 17 1 18 79 19 80 20 81 21 86 22
REMARK SMILES IDX 82 23 85 24 83 25 84 26 16 27 17 28 18 29 19 30 20 31 21 32
REMARK SMILES IDX 22 33 23 34 75 35 24 36 74 37 25 38 26 39 27 40 68 41 28 42
REMARK SMILES IDX 73 43 67 44 69 45 29 46 72 47 66 48 65 49 30 51 56 52 39 53
REMARK SMILES IDX 55 54 40 55 43 56 54 57 70 58 41 59 42 60 53 62 71 63 44 64
REMARK SMILES IDX 31 65 32 66 37 67 33 68 34 69 36 70 38 71 35 72 57 73 58 74
REMARK SMILES IDX 63 75 59 76 60 77 62 78 64 79 61 80 45 81 46 82 51 83 47 84
REMARK SMILES IDX 48 85 50 86 52 87 49 88
REMARK H PARENT 69 50 43 61
REMARK Flexibility Score: inf
ROOT
ATOM      1  C   UNL A   1      32.058  29.697  25.977  1.00  0.00     0.202 C 
ENDROOT
BRANCH   1   2
ATOM      2  C   UNL A   1      32.522  28.801  24.816  1.00  0.00     0.261 C 
BRANCH   2   3
ATOM      3  O   UNL A   1      32.126  27.425  24.944  1.00  0.00    -0.463 OA
BRANCH   3   4
ATOM      4  C   UNL A   1      33.129  26.527  24.758  1.00  0.00     0.310 C 
ATOM      5  O   UNL A   1      34.013  26.653  23.911  1.00  0.00    -0.252 OA
BRANCH   4   6
ATOM      6  C   UNL A   1      33.141  25.341  25.701  1.00  0.00     0.160 C 
BRANCH   6   7
ATOM      7  C   UNL A   1      33.366  23.963  25.143  1.00  0.00    -0.008 A 
ATOM      8  C   UNL A   1      36.945  22.634  25.469  1.00  0.00     0.119 A 
ATOM      9  C   UNL A   1      36.677  21.364  24.976  1.00  0.00     0.048 A 
ATOM     10  C   UNL A   1      35.918  23.583  25.491  1.00  0.00     0.057 A 
ATOM     11  C   UNL A   1      35.392  21.023  24.504  1.00  0.00     0.031 A 
ATOM     12  C   UNL A   1      34.601  23.249  25.108  1.00  0.00     0.007 A 
ATOM     13  C   UNL A   1      34.358  21.982  24.570  1.00  0.00     0.049 A 
ATOM     14  N   UNL A   1      33.026  21.969  24.151  1.00  0.00    -0.340 N 
ATOM     15  C   UNL A   1      32.487  23.235  24.354  1.00  0.00     0.020 A 
ATOM     16  C   UNL A   1      31.213  23.739  23.771  1.00  0.00     0.065 C 
BRANCH   8  17
ATOM     17  O   UNL A   1      38.091  23.076  26.067  1.00  0.00    -0.497 OA
ATOM     18  C   UNL A   1      38.078  24.280  26.817  1.00  0.00     0.278 C 
ENDBRANCH   8  17
BRANCH  14  19
ATOM     19  C   UNL A   1      32.420  20.884  23.357  1.00  0.00     0.157 C 
BRANCH  19  20
ATOM     20  C   UNL A   1      32.608  19.476  23.898  1.00  0.00    -0.028 A 
ATOM     21  C   UNL A   1      32.466  19.174  25.260  1.00  0.00     0.007 A 
ATOM     22  C   UNL A   1      32.822  18.397  23.023  1.00  0.00     0.007 A 
ATOM     23  C   UNL A   1      32.597  17.874  25.753  1.00  0.00     0.016 A 
ATOM     24  C   UNL A   1      32.929  17.084  23.507  1.00  0.00     0.016 A 
ATOM     25  C   UNL A   1      32.833  16.831  24.872  1.00  0.00     0.017 A 
ATOM     26  Br  UNL A   1      33.002  15.072  25.537  1.00  0.00    -0.051 Br
ENDBRANCH  19  20
ENDBRANCH  14  19
ENDBRANCH   6   7
ENDBRANCH   4   6
ENDBRANCH   3   4
ENDBRANCH   2   3
ENDBRANCH   1   2
BRANCH   1  27
ATOM     27  O   UNL A   1      32.527  29.467  27.293  1.00  0.00    -0.374 OA
BRANCH  27  28
ATOM     28  C   UNL A   1      33.881  29.050  27.420  1.00  0.00     0.202 C 
BRANCH  28  29
ATOM     29  C   UNL A   1      34.991  30.117  27.466  1.00  0.00     0.261 C 
BRANCH  29  30
ATOM     30  O   UNL A   1      36.218  29.636  28.009  1.00  0.00    -0.460 OA
BRANCH  30  31
ATOM     31  C   UNL A   1      37.106  30.615  28.346  1.00  0.00     0.338 C 
ATOM     32  O   UNL A   1      36.893  31.784  28.557  1.00  0.00    -0.246 OA
BRANCH  31  33
ATOM     33  C   UNL A   1      38.257  29.847  28.853  1.00  0.00     0.060 A 
ATOM     34  C   UNL A   1      39.517  30.450  28.922  1.00  0.00     0.016 A 
ATOM     35  C   UNL A   1      38.099  28.455  28.791  1.00  0.00     0.016 A 
ATOM     36  C   UNL A   1      40.640  29.647  28.802  1.00  0.00     0.010 A 
ATOM     37  C   UNL A   1      39.223  27.665  28.618  1.00  0.00     0.010 A 
ATOM     38  C   UNL A   1      40.485  28.270  28.575  1.00  0.00    -0.014 A 
BRANCH  38  39
ATOM     39  C   UNL A   1      41.677  27.425  28.587  1.00  0.00     0.031 A 
ATOM     40  C   UNL A   1      42.466  27.669  29.826  1.00  0.00     0.074 A 
ATOM     41  C   UNL A   1      41.943  26.424  27.722  1.00  0.00     0.049 A 
ATOM     42  N   UNL A   1      43.652  28.169  29.930  1.00  0.00    -0.248 NA
ATOM     43  C   UNL A   1      41.747  27.555  31.111  1.00  0.00     0.031 C 
ATOM     44  C   UNL A   1      41.125  25.928  26.622  1.00  0.00     0.029 A 
ATOM     45  N   UNL A   1      42.985  25.542  27.721  1.00  0.00    -0.354 N 
ATOM     46  C   UNL A   1      43.900  28.218  31.301  1.00  0.00     0.074 A 
ATOM     47  C   UNL A   1      42.630  28.090  31.950  1.00  0.00     0.031 C 
ATOM     48  C   UNL A   1      41.554  24.711  26.226  1.00  0.00     0.029 A 
ATOM     49  C   UNL A   1      42.756  24.390  26.962  1.00  0.00     0.049 A 
ATOM     50  H   UNL A   1      43.824  25.702  28.213  1.00  0.00     0.167 HD
ATOM     51  C   UNL A   1      45.151  28.013  31.795  1.00  0.00     0.037 A 
ATOM     52  C   UNL A   1      43.469  23.236  27.021  1.00  0.00     0.037 A 
ATOM     53  C   UNL A   1      46.149  28.275  30.786  1.00  0.00     0.049 A 
ATOM     54  C   UNL A   1      44.764  23.558  27.674  1.00  0.00     0.074 A 
ATOM     55  C   UNL A   1      46.469  29.363  29.996  1.00  0.00     0.029 A 
ATOM     56  N   UNL A   1      46.757  27.197  30.188  1.00  0.00    -0.354 N 
ATOM     57  N   UNL A   1      45.684  24.294  27.115  1.00  0.00    -0.248 NA
ATOM     58  C   UNL A   1      44.797  23.503  29.129  1.00  0.00     0.031 C 
ATOM     59  C   UNL A   1      46.807  28.811  28.725  1.00  0.00     0.029 A 
ATOM     60  C   UNL A   1      46.749  27.423  28.837  1.00  0.00     0.049 A 
ATOM     61  H   UNL A   1      47.130  26.410  30.647  1.00  0.00     0.167 HD
ATOM     62  C   UNL A   1      46.127  25.130  28.131  1.00  0.00     0.074 A 
ATOM     63  C   UNL A   1      45.572  24.567  29.361  1.00  0.00     0.031 C 
ATOM     64  C   UNL A   1      46.646  26.364  27.863  1.00  0.00     0.037 A 
BRANCH  51  65
ATOM     65  C   UNL A   1      45.423  27.140  33.005  1.00  0.00     0.057 A 
ATOM     66  C   UNL A   1      45.095  25.769  33.117  1.00  0.00     0.134 A 
ATOM     67  C   UNL A   1      46.334  27.605  33.968  1.00  0.00     0.134 A 
ATOM     68  F   UNL A   1      44.261  25.138  32.286  1.00  0.00    -0.206 F 
ATOM     69  C   UNL A   1      45.686  24.917  34.053  1.00  0.00     0.040 A 
ATOM     70  C   UNL A   1      46.967  26.750  34.878  1.00  0.00     0.040 A 
ATOM     71  F   UNL A   1      46.715  28.891  33.991  1.00  0.00    -0.206 F 
ATOM     72  C   UNL A   1      46.658  25.396  34.909  1.00  0.00     0.006 A 
ENDBRANCH  51  65
BRANCH  52  73
ATOM     73  C   UNL A   1      42.977  21.842  26.874  1.00  0.00     0.057 A 
ATOM     74  C   UNL A   1      43.416  21.012  25.826  1.00  0.00     0.134 A 
ATOM     75  C   UNL A   1      41.868  21.377  27.596  1.00  0.00     0.134 A 
ATOM     76  F   UNL A   1      44.413  21.389  25.013  1.00  0.00    -0.206 F 
ATOM     77  C   UNL A   1      42.790  19.801  25.510  1.00  0.00     0.040 A 
ATOM     78  C   UNL A   1      41.226  20.169  27.285  1.00  0.00     0.040 A 
ATOM     79  F   UNL A   1      41.342  22.115  28.584  1.00  0.00    -0.206 F 
ATOM     80  C   UNL A   1      41.681  19.381  26.232  1.00  0.00     0.006 A 
ENDBRANCH  52  73
BRANCH  64  81
ATOM     81  C   UNL A   1      46.923  26.725  26.432  1.00  0.00     0.057 A 
ATOM     82  C   UNL A   1      48.215  26.535  25.933  1.00  0.00     0.134 A 
ATOM     83  C   UNL A   1      46.010  27.389  25.595  1.00  0.00     0.134 A 
ATOM     84  F   UNL A   1      49.157  25.962  26.699  1.00  0.00    -0.206 F 
ATOM     85  C   UNL A   1      48.587  26.970  24.660  1.00  0.00     0.040 A 
ATOM     86  C   UNL A   1      46.360  27.799  24.304  1.00  0.00     0.040 A 
ATOM     87  F   UNL A   1      44.784  27.710  26.026  1.00  0.00    -0.206 F 
ATOM     88  C   UNL A   1      47.654  27.595  23.836  1.00  0.00     0.006 A 
ENDBRANCH  64  81
ENDBRANCH  38  39
ENDBRANCH  31  33
ENDBRANCH  30  31
ENDBRANCH  29  30
ENDBRANCH  28  29
ENDBRANCH  27  28
ENDBRANCH   1  27
TORSDOF 18
ENDMDL
