MODEL 1
REMARK VINA RESULT:     -11.3      0.000      0.000
REMARK SMILES Cc1ccc(Cl)c(Nc2ccccc2C(=O)NCC(=O)OCCOCCOC(=O)c2ccc(-c3c4nc(c(-c5c(F)cccc5F)c5ccc([nH]5)c(-c5c(F)cccc5F)c5nc(c(-c6c(F)cccc6F)c6ccc3[nH]6)C=C5)C=C4)cc2)c1Cl
REMARK SMILES IDX 23 1 22 2 21 3 19 4 20 5 18 6 17 7 15 8 16 9 14 11 9 12
REMARK SMILES IDX 10 13 11 14 13 15 12 16 8 17 7 19 1 20 2 21 3 22 84 23 4 24
REMARK SMILES IDX 85 25 5 26 6 27 24 28 25 29 26 30 27 31 28 32 29 33 30 34
REMARK SMILES IDX 31 35 83 36 32 37 82 38 33 39 34 40 35 41 76 42 36 43 81 44
REMARK SMILES IDX 75 45 77 46 37 47 80 48 74 49 73 50 38 52 64 53 47 54 63 55
REMARK SMILES IDX 48 56 51 57 62 58 78 59 49 60 50 61 61 63 79 64 52 65 39 66
REMARK SMILES IDX 40 67 45 68 41 69 42 70 44 71 46 72 43 73 65 74 66 75 71 76
REMARK SMILES IDX 67 77 68 78 70 79 72 80 69 81 53 82 54 83 59 84 55 85 56 86
REMARK SMILES IDX 58 87 60 88 57 89
REMARK H PARENT 17 10 8 18 77 51 51 62
REMARK Flexibility Score: inf
ROOT
ATOM      1  C   UNL A   1      41.453  21.217  27.165  1.00  0.00     0.202 C 
ENDROOT
BRANCH   1   2
ATOM      2  C   UNL A   1      40.540  21.794  26.070  1.00  0.00     0.261 C 
BRANCH   2   3
ATOM      3  O   UNL A   1      39.163  21.677  26.454  1.00  0.00    -0.462 OA
BRANCH   3   4
ATOM      4  C   UNL A   1      38.369  22.748  26.178  1.00  0.00     0.325 C 
ATOM      5  O   UNL A   1      38.747  23.910  26.113  1.00  0.00    -0.250 OA
BRANCH   4   6
ATOM      6  C   UNL A   1      36.981  22.261  25.799  1.00  0.00     0.239 C 
BRANCH   6   7
ATOM      7  N   UNL A   1      36.671  21.973  24.427  1.00  0.00    -0.341 N 
ATOM      8  C   UNL A   1      35.643  22.582  23.751  1.00  0.00     0.253 C 
ATOM      9  O   UNL A   1      35.911  23.175  22.706  1.00  0.00    -0.269 OA
ATOM     10  H   UNL A   1      37.220  21.308  23.950  1.00  0.00     0.164 HD
BRANCH   8  11
ATOM     11  C   UNL A   1      34.240  22.205  24.062  1.00  0.00     0.063 A 
ATOM     12  C   UNL A   1      33.062  22.962  23.914  1.00  0.00     0.051 A 
ATOM     13  C   UNL A   1      31.870  22.396  24.432  1.00  0.00     0.027 A 
ATOM     14  C   UNL A   1      31.828  21.124  25.010  1.00  0.00     0.002 A 
ATOM     15  C   UNL A   1      34.177  20.908  24.626  1.00  0.00     0.016 A 
ATOM     16  C   UNL A   1      32.983  20.367  25.087  1.00  0.00     0.001 A 
BRANCH  12  17
ATOM     17  N   UNL A   1      32.872  24.180  23.228  1.00  0.00    -0.352 N 
ATOM     18  H   UNL A   1      32.317  24.066  22.423  1.00  0.00     0.167 HD
BRANCH  17  19
ATOM     19  C   UNL A   1      33.277  25.527  23.406  1.00  0.00     0.077 A 
ATOM     20  C   UNL A   1      33.971  28.160  26.116  1.00  0.00     0.046 C 
ATOM     21  C   UNL A   1      33.688  27.515  24.785  1.00  0.00    -0.030 A 
ATOM     22  C   UNL A   1      33.457  28.339  23.674  1.00  0.00     0.006 A 
ATOM     23  C   UNL A   1      33.641  26.110  24.636  1.00  0.00     0.069 A 
ATOM     24  C   UNL A   1      33.241  27.781  22.421  1.00  0.00     0.023 A 
ATOM     25  Cl  UNL A   1      34.183  25.120  25.957  1.00  0.00    -0.082 Cl
ATOM     26  C   UNL A   1      33.169  26.395  22.289  1.00  0.00     0.066 A 
ATOM     27  Cl  UNL A   1      32.902  25.763  20.696  1.00  0.00    -0.082 Cl
ENDBRANCH  17  19
ENDBRANCH  12  17
ENDBRANCH   8  11
ENDBRANCH   6   7
ENDBRANCH   4   6
ENDBRANCH   3   4
ENDBRANCH   2   3
ENDBRANCH   1   2
BRANCH   1  28
ATOM     28  O   UNL A   1      42.862  21.378  27.003  1.00  0.00    -0.374 OA
BRANCH  28  29
ATOM     29  C   UNL A   1      43.447  21.056  25.744  1.00  0.00     0.202 C 
BRANCH  29  30
ATOM     30  C   UNL A   1      44.329  22.119  25.056  1.00  0.00     0.261 C 
BRANCH  30  31
ATOM     31  O   UNL A   1      43.615  23.329  24.731  1.00  0.00    -0.460 OA
BRANCH  31  32
ATOM     32  C   UNL A   1      44.251  24.478  25.056  1.00  0.00     0.338 C 
ATOM     33  O   UNL A   1      45.327  24.875  24.627  1.00  0.00    -0.246 OA
BRANCH  32  34
ATOM     34  C   UNL A   1      43.388  25.334  25.889  1.00  0.00     0.060 A 
ATOM     35  C   UNL A   1      43.860  26.613  26.209  1.00  0.00     0.016 A 
ATOM     36  C   UNL A   1      42.220  24.842  26.477  1.00  0.00     0.016 A 
ATOM     37  C   UNL A   1      43.186  27.394  27.143  1.00  0.00     0.010 A 
ATOM     38  C   UNL A   1      41.554  25.622  27.433  1.00  0.00     0.010 A 
ATOM     39  C   UNL A   1      42.057  26.885  27.797  1.00  0.00    -0.014 A 
BRANCH  39  40
ATOM     40  C   UNL A   1      41.540  27.619  28.977  1.00  0.00     0.031 A 
ATOM     41  C   UNL A   1      42.265  27.493  30.290  1.00  0.00     0.074 A 
ATOM     42  C   UNL A   1      40.500  28.463  28.861  1.00  0.00     0.049 A 
ATOM     43  N   UNL A   1      42.042  28.107  31.425  1.00  0.00    -0.248 NA
ATOM     44  C   UNL A   1      43.396  26.555  30.324  1.00  0.00     0.031 C 
ATOM     45  C   UNL A   1      39.742  28.702  27.636  1.00  0.00     0.029 A 
ATOM     46  N   UNL A   1      39.913  29.283  29.790  1.00  0.00    -0.354 N 
ATOM     47  C   UNL A   1      43.011  27.639  32.302  1.00  0.00     0.074 A 
ATOM     48  C   UNL A   1      43.798  26.662  31.581  1.00  0.00     0.031 C 
ATOM     49  C   UNL A   1      38.782  29.608  27.889  1.00  0.00     0.029 A 
ATOM     50  C   UNL A   1      38.852  30.000  29.296  1.00  0.00     0.049 A 
ATOM     51  H   UNL A   1      40.222  29.351  30.722  1.00  0.00     0.167 HD
ATOM     52  C   UNL A   1      43.236  27.999  33.590  1.00  0.00     0.037 A 
ATOM     53  C   UNL A   1      38.028  30.868  29.912  1.00  0.00     0.037 A 
ATOM     54  C   UNL A   1      42.443  28.956  34.315  1.00  0.00     0.049 A 
ATOM     55  C   UNL A   1      38.257  31.210  31.359  1.00  0.00     0.074 A 
ATOM     56  C   UNL A   1      42.583  29.382  35.624  1.00  0.00     0.029 A 
ATOM     57  N   UNL A   1      41.350  29.632  33.791  1.00  0.00    -0.354 N 
ATOM     58  N   UNL A   1      39.189  30.777  32.174  1.00  0.00    -0.248 NA
ATOM     59  C   UNL A   1      37.328  32.171  31.969  1.00  0.00     0.031 C 
ATOM     60  C   UNL A   1      41.551  30.284  35.906  1.00  0.00     0.029 A 
ATOM     61  C   UNL A   1      40.795  30.457  34.757  1.00  0.00     0.049 A 
ATOM     62  H   UNL A   1      41.017  29.538  32.869  1.00  0.00     0.167 HD
ATOM     63  C   UNL A   1      38.970  31.424  33.384  1.00  0.00     0.074 A 
ATOM     64  C   UNL A   1      37.829  32.295  33.190  1.00  0.00     0.031 C 
ATOM     65  C   UNL A   1      39.652  31.310  34.551  1.00  0.00     0.037 A 
BRANCH  52  66
ATOM     66  C   UNL A   1      44.375  27.325  34.296  1.00  0.00     0.057 A 
ATOM     67  C   UNL A   1      45.647  27.910  34.371  1.00  0.00     0.134 A 
ATOM     68  C   UNL A   1      44.202  26.076  34.905  1.00  0.00     0.134 A 
ATOM     69  F   UNL A   1      45.885  29.097  33.792  1.00  0.00    -0.206 F 
ATOM     70  C   UNL A   1      46.712  27.262  35.000  1.00  0.00     0.040 A 
ATOM     71  C   UNL A   1      45.252  25.432  35.559  1.00  0.00     0.040 A 
ATOM     72  F   UNL A   1      43.009  25.463  34.873  1.00  0.00    -0.206 F 
ATOM     73  C   UNL A   1      46.515  26.021  35.601  1.00  0.00     0.006 A 
ENDBRANCH  52  66
BRANCH  53  74
ATOM     74  C   UNL A   1      36.903  31.475  29.158  1.00  0.00     0.057 A 
ATOM     75  C   UNL A   1      36.958  32.797  28.702  1.00  0.00     0.134 A 
ATOM     76  C   UNL A   1      35.743  30.742  28.878  1.00  0.00     0.134 A 
ATOM     77  F   UNL A   1      38.032  33.556  28.959  1.00  0.00    -0.206 F 
ATOM     78  C   UNL A   1      35.895  33.371  28.002  1.00  0.00     0.040 A 
ATOM     79  C   UNL A   1      34.683  31.296  28.160  1.00  0.00     0.040 A 
ATOM     80  F   UNL A   1      35.631  29.470  29.289  1.00  0.00    -0.206 F 
ATOM     81  C   UNL A   1      34.756  32.618  27.724  1.00  0.00     0.006 A 
ENDBRANCH  53  74
BRANCH  65  82
ATOM     82  C   UNL A   1      39.191  32.161  35.698  1.00  0.00     0.057 A 
ATOM     83  C   UNL A   1      39.649  33.474  35.875  1.00  0.00     0.134 A 
ATOM     84  C   UNL A   1      38.265  31.670  36.625  1.00  0.00     0.134 A 
ATOM     85  F   UNL A   1      40.547  34.001  35.028  1.00  0.00    -0.206 F 
ATOM     86  C   UNL A   1      39.225  34.255  36.951  1.00  0.00     0.040 A 
ATOM     87  C   UNL A   1      37.814  32.450  37.691  1.00  0.00     0.040 A 
ATOM     88  F   UNL A   1      37.778  30.425  36.509  1.00  0.00    -0.206 F 
ATOM     89  C   UNL A   1      38.301  33.744  37.861  1.00  0.00     0.006 A 
ENDBRANCH  65  82
ENDBRANCH  39  40
ENDBRANCH  32  34
ENDBRANCH  31  32
ENDBRANCH  30  31
ENDBRANCH  29  30
ENDBRANCH  28  29
ENDBRANCH   1  28
TORSDOF 18
ENDMDL
MODEL 2
REMARK VINA RESULT:     -11.2      0.908      1.609
REMARK SMILES Cc1ccc(Cl)c(Nc2ccccc2C(=O)NCC(=O)OCCOCCOC(=O)c2ccc(-c3c4nc(c(-c5c(F)cccc5F)c5ccc([nH]5)c(-c5c(F)cccc5F)c5nc(c(-c6c(F)cccc6F)c6ccc3[nH]6)C=C5)C=C4)cc2)c1Cl
REMARK SMILES IDX 23 1 22 2 21 3 19 4 20 5 18 6 17 7 15 8 16 9 14 11 9 12
REMARK SMILES IDX 10 13 11 14 13 15 12 16 8 17 7 19 1 20 2 21 3 22 84 23 4 24
REMARK SMILES IDX 85 25 5 26 6 27 24 28 25 29 26 30 27 31 28 32 29 33 30 34
REMARK SMILES IDX 31 35 83 36 32 37 82 38 33 39 34 40 35 41 76 42 36 43 81 44
REMARK SMILES IDX 75 45 77 46 37 47 80 48 74 49 73 50 38 52 64 53 47 54 63 55
REMARK SMILES IDX 48 56 51 57 62 58 78 59 49 60 50 61 61 63 79 64 52 65 39 66
REMARK SMILES IDX 40 67 45 68 41 69 42 70 44 71 46 72 43 73 65 74 66 75 71 76
REMARK SMILES IDX 67 77 68 78 70 79 72 80 69 81 53 82 54 83 59 84 55 85 56 86
REMARK SMILES IDX 58 87 60 88 57 89
REMARK H PARENT 17 10 8 18 77 51 51 62
REMARK Flexibility Score: inf
ROOT
ATOM      1  C   UNL A   1      40.920  21.408  26.394  1.00  0.00     0.202 C 
ENDROOT
BRANCH   1   2
ATOM      2  C   UNL A   1      39.725  22.360  26.227  1.00  0.00     0.261 C 
BRANCH   2   3
ATOM      3  O   UNL A   1      38.492  21.628  26.269  1.00  0.00    -0.462 OA
BRANCH   3   4
ATOM      4  C   UNL A   1      37.941  21.310  25.066  1.00  0.00     0.325 C 
ATOM      5  O   UNL A   1      37.800  20.176  24.630  1.00  0.00    -0.250 OA
BRANCH   4   6
ATOM      6  C   UNL A   1      37.377  22.566  24.423  1.00  0.00     0.239 C 
BRANCH   6   7
ATOM      7  N   UNL A   1      36.311  23.284  25.064  1.00  0.00    -0.341 N 
ATOM      8  C   UNL A   1      35.159  22.676  25.498  1.00  0.00     0.253 C 
ATOM      9  O   UNL A   1      34.850  22.804  26.683  1.00  0.00    -0.269 OA
ATOM     10  H   UNL A   1      36.411  24.254  25.197  1.00  0.00     0.164 HD
BRANCH   8  11
ATOM     11  C   UNL A   1      34.150  22.228  24.504  1.00  0.00     0.063 A 
ATOM     12  C   UNL A   1      33.453  22.983  23.541  1.00  0.00     0.051 A 
ATOM     13  C   UNL A   1      32.435  22.314  22.818  1.00  0.00     0.027 A 
ATOM     14  C   UNL A   1      32.157  20.955  22.989  1.00  0.00     0.002 A 
ATOM     15  C   UNL A   1      33.875  20.847  24.648  1.00  0.00     0.016 A 
ATOM     16  C   UNL A   1      32.896  20.212  23.893  1.00  0.00     0.001 A 
BRANCH  12  17
ATOM     17  N   UNL A   1      33.689  24.308  23.114  1.00  0.00    -0.352 N 
ATOM     18  H   UNL A   1      34.535  24.389  22.616  1.00  0.00     0.167 HD
BRANCH  17  19
ATOM     19  C   UNL A   1      33.016  25.550  23.220  1.00  0.00     0.077 A 
ATOM     20  C   UNL A   1      31.598  28.030  25.789  1.00  0.00     0.046 C 
ATOM     21  C   UNL A   1      31.874  27.309  24.497  1.00  0.00    -0.030 A 
ATOM     22  C   UNL A   1      31.141  27.668  23.356  1.00  0.00     0.006 A 
ATOM     23  C   UNL A   1      32.841  26.281  24.412  1.00  0.00     0.069 A 
ATOM     24  C   UNL A   1      31.402  27.059  22.135  1.00  0.00     0.023 A 
ATOM     25  Cl  UNL A   1      33.908  26.037  25.762  1.00  0.00    -0.082 Cl
ATOM     26  C   UNL A   1      32.338  26.027  22.068  1.00  0.00     0.066 A 
ATOM     27  Cl  UNL A   1      32.620  25.313  20.513  1.00  0.00    -0.082 Cl
ENDBRANCH  17  19
ENDBRANCH  12  17
ENDBRANCH   8  11
ENDBRANCH   6   7
ENDBRANCH   4   6
ENDBRANCH   3   4
ENDBRANCH   2   3
ENDBRANCH   1   2
BRANCH   1  28
ATOM     28  O   UNL A   1      41.949  21.458  25.405  1.00  0.00    -0.374 OA
BRANCH  28  29
ATOM     29  C   UNL A   1      43.307  21.348  25.825  1.00  0.00     0.202 C 
BRANCH  29  30
ATOM     30  C   UNL A   1      44.353  22.267  25.161  1.00  0.00     0.261 C 
BRANCH  30  31
ATOM     31  O   UNL A   1      43.787  23.481  24.625  1.00  0.00    -0.460 OA
BRANCH  31  32
ATOM     32  C   UNL A   1      44.402  24.622  25.010  1.00  0.00     0.338 C 
ATOM     33  O   UNL A   1      45.484  25.046  24.623  1.00  0.00    -0.246 OA
BRANCH  32  34
ATOM     34  C   UNL A   1      43.511  25.436  25.855  1.00  0.00     0.060 A 
ATOM     35  C   UNL A   1      43.909  26.748  26.140  1.00  0.00     0.016 A 
ATOM     36  C   UNL A   1      42.395  24.882  26.486  1.00  0.00     0.016 A 
ATOM     37  C   UNL A   1      43.215  27.501  27.082  1.00  0.00     0.010 A 
ATOM     38  C   UNL A   1      41.709  25.635  27.450  1.00  0.00     0.010 A 
ATOM     39  C   UNL A   1      42.140  26.933  27.778  1.00  0.00    -0.014 A 
BRANCH  39  40
ATOM     40  C   UNL A   1      41.612  27.654  28.961  1.00  0.00     0.031 A 
ATOM     41  C   UNL A   1      42.335  27.530  30.275  1.00  0.00     0.074 A 
ATOM     42  C   UNL A   1      40.562  28.486  28.848  1.00  0.00     0.049 A 
ATOM     43  N   UNL A   1      42.103  28.134  31.412  1.00  0.00    -0.248 NA
ATOM     44  C   UNL A   1      43.479  26.606  30.306  1.00  0.00     0.031 C 
ATOM     45  C   UNL A   1      39.802  28.722  27.623  1.00  0.00     0.029 A 
ATOM     46  N   UNL A   1      39.962  29.293  29.781  1.00  0.00    -0.354 N 
ATOM     47  C   UNL A   1      43.076  27.673  32.289  1.00  0.00     0.074 A 
ATOM     48  C   UNL A   1      43.877  26.711  31.564  1.00  0.00     0.031 C 
ATOM     49  C   UNL A   1      38.831  29.615  27.880  1.00  0.00     0.029 A 
ATOM     50  C   UNL A   1      38.893  30.000  29.289  1.00  0.00     0.049 A 
ATOM     51  H   UNL A   1      40.269  29.360  30.713  1.00  0.00     0.167 HD
ATOM     52  C   UNL A   1      43.294  28.028  33.579  1.00  0.00     0.037 A 
ATOM     53  C   UNL A   1      38.057  30.854  29.908  1.00  0.00     0.037 A 
ATOM     54  C   UNL A   1      42.488  28.971  34.308  1.00  0.00     0.049 A 
ATOM     55  C   UNL A   1      38.280  31.190  31.358  1.00  0.00     0.074 A 
ATOM     56  C   UNL A   1      42.620  29.391  35.621  1.00  0.00     0.029 A 
ATOM     57  N   UNL A   1      41.387  29.636  33.787  1.00  0.00    -0.354 N 
ATOM     58  N   UNL A   1      39.215  30.764  32.172  1.00  0.00    -0.248 NA
ATOM     59  C   UNL A   1      37.337  32.136  31.971  1.00  0.00     0.031 C 
ATOM     60  C   UNL A   1      41.576  30.279  35.905  1.00  0.00     0.029 A 
ATOM     61  C   UNL A   1      40.820  30.449  34.756  1.00  0.00     0.049 A 
ATOM     62  H   UNL A   1      41.058  29.544  32.864  1.00  0.00     0.167 HD
ATOM     63  C   UNL A   1      38.986  31.401  33.385  1.00  0.00     0.074 A 
ATOM     64  C   UNL A   1      37.835  32.259  33.194  1.00  0.00     0.031 C 
ATOM     65  C   UNL A   1      39.668  31.289  34.553  1.00  0.00     0.037 A 
BRANCH  52  66
ATOM     66  C   UNL A   1      44.440  27.364  34.284  1.00  0.00     0.057 A 
ATOM     67  C   UNL A   1      44.271  26.179  35.013  1.00  0.00     0.134 A 
ATOM     68  C   UNL A   1      45.726  27.916  34.237  1.00  0.00     0.134 A 
ATOM     69  F   UNL A   1      43.061  25.608  35.112  1.00  0.00    -0.206 F 
ATOM     70  C   UNL A   1      45.335  25.583  35.694  1.00  0.00     0.040 A 
ATOM     71  C   UNL A   1      46.801  27.316  34.893  1.00  0.00     0.040 A 
ATOM     72  F   UNL A   1      45.957  29.047  33.555  1.00  0.00    -0.206 F 
ATOM     73  C   UNL A   1      46.605  26.150  35.632  1.00  0.00     0.006 A 
ENDBRANCH  52  66
BRANCH  53  74
ATOM     74  C   UNL A   1      36.926  31.451  29.156  1.00  0.00     0.057 A 
ATOM     75  C   UNL A   1      36.969  32.774  28.701  1.00  0.00     0.134 A 
ATOM     76  C   UNL A   1      35.774  30.708  28.876  1.00  0.00     0.134 A 
ATOM     77  F   UNL A   1      38.036  33.542  28.959  1.00  0.00    -0.206 F 
ATOM     78  C   UNL A   1      35.900  33.339  28.002  1.00  0.00     0.040 A 
ATOM     79  C   UNL A   1      34.708  31.253  28.159  1.00  0.00     0.040 A 
ATOM     80  F   UNL A   1      35.674  29.434  29.285  1.00  0.00    -0.206 F 
ATOM     81  C   UNL A   1      34.768  32.575  27.725  1.00  0.00     0.006 A 
ENDBRANCH  53  74
BRANCH  65  82
ATOM     82  C   UNL A   1      39.194  32.128  35.703  1.00  0.00     0.057 A 
ATOM     83  C   UNL A   1      38.270  31.644  36.640  1.00  0.00     0.134 A 
ATOM     84  C   UNL A   1      39.680  33.428  35.888  1.00  0.00     0.134 A 
ATOM     85  F   UNL A   1      37.757  30.410  36.513  1.00  0.00    -0.206 F 
ATOM     86  C   UNL A   1      37.824  32.435  37.700  1.00  0.00     0.040 A 
ATOM     87  C   UNL A   1      39.261  34.220  36.958  1.00  0.00     0.040 A 
ATOM     88  F   UNL A   1      40.573  33.950  35.033  1.00  0.00    -0.206 F 
ATOM     89  C   UNL A   1      38.324  33.726  37.864  1.00  0.00     0.006 A 
ENDBRANCH  65  82
ENDBRANCH  39  40
ENDBRANCH  32  34
ENDBRANCH  31  32
ENDBRANCH  30  31
ENDBRANCH  29  30
ENDBRANCH  28  29
ENDBRANCH   1  28
TORSDOF 18
ENDMDL
MODEL 3
REMARK VINA RESULT:     -11.1      3.202      7.865
REMARK SMILES Cc1ccc(Cl)c(Nc2ccccc2C(=O)NCC(=O)OCCOCCOC(=O)c2ccc(-c3c4nc(c(-c5c(F)cccc5F)c5ccc([nH]5)c(-c5c(F)cccc5F)c5nc(c(-c6c(F)cccc6F)c6ccc3[nH]6)C=C5)C=C4)cc2)c1Cl
REMARK SMILES IDX 23 1 22 2 21 3 19 4 20 5 18 6 17 7 15 8 16 9 14 11 9 12
REMARK SMILES IDX 10 13 11 14 13 15 12 16 8 17 7 19 1 20 2 21 3 22 84 23 4 24
REMARK SMILES IDX 85 25 5 26 6 27 24 28 25 29 26 30 27 31 28 32 29 33 30 34
REMARK SMILES IDX 31 35 83 36 32 37 82 38 33 39 34 40 35 41 76 42 36 43 81 44
REMARK SMILES IDX 75 45 77 46 37 47 80 48 74 49 73 50 38 52 64 53 47 54 63 55
REMARK SMILES IDX 48 56 51 57 62 58 78 59 49 60 50 61 61 63 79 64 52 65 39 66
REMARK SMILES IDX 40 67 45 68 41 69 42 70 44 71 46 72 43 73 65 74 66 75 71 76
REMARK SMILES IDX 67 77 68 78 70 79 72 80 69 81 53 82 54 83 59 84 55 85 56 86
REMARK SMILES IDX 58 87 60 88 57 89
REMARK H PARENT 17 10 8 18 77 51 51 62
REMARK Flexibility Score: inf
ROOT
ATOM      1  C   UNL A   1      33.307  29.713  25.570  1.00  0.00     0.202 C 
ENDROOT
BRANCH   1   2
ATOM      2  C   UNL A   1      33.538  28.654  26.661  1.00  0.00     0.261 C 
BRANCH   2   3
ATOM      3  O   UNL A   1      33.108  27.364  26.205  1.00  0.00    -0.462 OA
BRANCH   3   4
ATOM      4  C   UNL A   1      31.989  26.860  26.796  1.00  0.00     0.325 C 
ATOM      5  O   UNL A   1      31.074  27.526  27.262  1.00  0.00    -0.250 OA
BRANCH   4   6
ATOM      6  C   UNL A   1      31.973  25.350  26.637  1.00  0.00     0.239 C 
BRANCH   6   7
ATOM      7  N   UNL A   1      30.757  24.678  26.275  1.00  0.00    -0.341 N 
ATOM      8  C   UNL A   1      30.661  23.312  26.172  1.00  0.00     0.253 C 
ATOM      9  O   UNL A   1      29.806  22.741  26.848  1.00  0.00    -0.269 OA
ATOM     10  H   UNL A   1      29.956  25.222  26.091  1.00  0.00     0.164 HD
BRANCH   8  11
ATOM     11  C   UNL A   1      31.291  22.621  25.018  1.00  0.00     0.063 A 
ATOM     12  C   UNL A   1      31.284  22.977  23.656  1.00  0.00     0.051 A 
ATOM     13  C   UNL A   1      31.848  22.046  22.749  1.00  0.00     0.027 A 
ATOM     14  C   UNL A   1      32.444  20.853  23.166  1.00  0.00     0.002 A 
ATOM     15  C   UNL A   1      31.921  21.421  25.428  1.00  0.00     0.016 A 
ATOM     16  C   UNL A   1      32.500  20.549  24.514  1.00  0.00     0.001 A 
BRANCH  12  17
ATOM     17  N   UNL A   1      30.878  24.190  23.060  1.00  0.00    -0.352 N 
ATOM     18  H   UNL A   1      30.135  24.059  22.427  1.00  0.00     0.167 HD
BRANCH  17  19
ATOM     19  C   UNL A   1      31.269  25.550  23.143  1.00  0.00     0.077 A 
ATOM     20  C   UNL A   1      29.866  29.126  23.074  1.00  0.00     0.046 C 
ATOM     21  C   UNL A   1      30.816  27.960  23.018  1.00  0.00    -0.030 A 
ATOM     22  C   UNL A   1      32.154  28.198  22.672  1.00  0.00     0.006 A 
ATOM     23  C   UNL A   1      30.390  26.641  23.296  1.00  0.00     0.069 A 
ATOM     24  C   UNL A   1      33.071  27.154  22.658  1.00  0.00     0.023 A 
ATOM     25  Cl  UNL A   1      28.805  26.410  23.970  1.00  0.00    -0.082 Cl
ATOM     26  C   UNL A   1      32.635  25.854  22.906  1.00  0.00     0.066 A 
ATOM     27  Cl  UNL A   1      33.831  24.598  22.878  1.00  0.00    -0.082 Cl
ENDBRANCH  17  19
ENDBRANCH  12  17
ENDBRANCH   8  11
ENDBRANCH   6   7
ENDBRANCH   4   6
ENDBRANCH   3   4
ENDBRANCH   2   3
ENDBRANCH   1   2
BRANCH   1  28
ATOM     28  O   UNL A   1      32.073  30.430  25.595  1.00  0.00    -0.374 OA
BRANCH  28  29
ATOM     29  C   UNL A   1      31.632  30.990  26.830  1.00  0.00     0.202 C 
BRANCH  29  30
ATOM     30  C   UNL A   1      31.452  32.519  26.916  1.00  0.00     0.261 C 
BRANCH  30  31
ATOM     31  O   UNL A   1      32.697  33.245  26.840  1.00  0.00    -0.460 OA
BRANCH  31  32
ATOM     32  C   UNL A   1      33.238  33.586  28.032  1.00  0.00     0.338 C 
ATOM     33  O   UNL A   1      32.711  34.239  28.924  1.00  0.00    -0.246 OA
BRANCH  32  34
ATOM     34  C   UNL A   1      34.529  32.905  28.232  1.00  0.00     0.060 A 
ATOM     35  C   UNL A   1      34.500  31.585  28.697  1.00  0.00     0.016 A 
ATOM     36  C   UNL A   1      35.741  33.591  28.125  1.00  0.00     0.016 A 
ATOM     37  C   UNL A   1      35.677  30.954  29.089  1.00  0.00     0.010 A 
ATOM     38  C   UNL A   1      36.923  32.961  28.538  1.00  0.00     0.010 A 
ATOM     39  C   UNL A   1      36.889  31.654  29.058  1.00  0.00    -0.014 A 
BRANCH  39  40
ATOM     40  C   UNL A   1      38.061  31.056  29.742  1.00  0.00     0.031 A 
ATOM     41  C   UNL A   1      38.312  31.392  31.187  1.00  0.00     0.074 A 
ATOM     42  C   UNL A   1      38.835  30.152  29.117  1.00  0.00     0.049 A 
ATOM     43  N   UNL A   1      39.221  30.923  32.004  1.00  0.00    -0.248 NA
ATOM     44  C   UNL A   1      37.411  32.383  31.794  1.00  0.00     0.031 C 
ATOM     45  C   UNL A   1      38.671  29.715  27.733  1.00  0.00     0.029 A 
ATOM     46  N   UNL A   1      39.910  29.434  29.576  1.00  0.00    -0.354 N 
ATOM     47  C   UNL A   1      38.994  31.552  33.221  1.00  0.00     0.074 A 
ATOM     48  C   UNL A   1      37.888  32.464  33.026  1.00  0.00     0.031 C 
ATOM     49  C   UNL A   1      39.617  28.802  27.452  1.00  0.00     0.029 A 
ATOM     50  C   UNL A   1      40.459  28.604  28.631  1.00  0.00     0.049 A 
ATOM     51  H   UNL A   1      40.254  29.505  30.496  1.00  0.00     0.167 HD
ATOM     52  C   UNL A   1      39.639  31.378  34.401  1.00  0.00     0.037 A 
ATOM     53  C   UNL A   1      41.523  27.783  28.707  1.00  0.00     0.037 A 
ATOM     54  C   UNL A   1      40.752  30.486  34.592  1.00  0.00     0.049 A 
ATOM     55  C   UNL A   1      42.264  27.648  30.010  1.00  0.00     0.074 A 
ATOM     56  C   UNL A   1      41.479  30.244  35.746  1.00  0.00     0.029 A 
ATOM     57  N   UNL A   1      41.306  29.691  33.599  1.00  0.00    -0.354 N 
ATOM     58  N   UNL A   1      42.028  28.232  31.161  1.00  0.00    -0.248 NA
ATOM     59  C   UNL A   1      43.410  26.729  30.029  1.00  0.00     0.031 C 
ATOM     60  C   UNL A   1      42.498  29.335  35.439  1.00  0.00     0.029 A 
ATOM     61  C   UNL A   1      42.377  28.974  34.107  1.00  0.00     0.049 A 
ATOM     62  H   UNL A   1      40.984  29.645  32.669  1.00  0.00     0.167 HD
ATOM     63  C   UNL A   1      42.983  27.741  32.042  1.00  0.00     0.074 A 
ATOM     64  C   UNL A   1      43.788  26.794  31.298  1.00  0.00     0.031 C 
ATOM     65  C   UNL A   1      43.175  28.043  33.350  1.00  0.00     0.037 A 
BRANCH  52  66
ATOM     66  C   UNL A   1      39.164  32.197  35.564  1.00  0.00     0.057 A 
ATOM     67  C   UNL A   1      39.586  33.520  35.757  1.00  0.00     0.134 A 
ATOM     68  C   UNL A   1      38.277  31.659  36.505  1.00  0.00     0.134 A 
ATOM     69  F   UNL A   1      40.449  34.090  34.902  1.00  0.00    -0.206 F 
ATOM     70  C   UNL A   1      39.167  34.267  36.860  1.00  0.00     0.040 A 
ATOM     71  C   UNL A   1      37.832  32.404  37.597  1.00  0.00     0.040 A 
ATOM     72  F   UNL A   1      37.832  30.400  36.378  1.00  0.00    -0.206 F 
ATOM     73  C   UNL A   1      38.283  33.710  37.782  1.00  0.00     0.006 A 
ENDBRANCH  52  66
BRANCH  53  74
ATOM     74  C   UNL A   1      41.955  27.025  27.507  1.00  0.00     0.057 A 
ATOM     75  C   UNL A   1      41.533  25.710  27.283  1.00  0.00     0.134 A 
ATOM     76  C   UNL A   1      42.803  27.603  26.555  1.00  0.00     0.134 A 
ATOM     77  F   UNL A   1      40.739  25.095  28.171  1.00  0.00    -0.206 F 
ATOM     78  C   UNL A   1      41.948  24.993  26.159  1.00  0.00     0.040 A 
ATOM     79  C   UNL A   1      43.208  26.906  25.416  1.00  0.00     0.040 A 
ATOM     80  F   UNL A   1      43.241  28.861  26.715  1.00  0.00    -0.206 F 
ATOM     81  C   UNL A   1      42.783  25.594  25.219  1.00  0.00     0.006 A 
ENDBRANCH  53  74
BRANCH  65  82
ATOM     82  C   UNL A   1      44.288  27.328  34.060  1.00  0.00     0.057 A 
ATOM     83  C   UNL A   1      45.576  27.873  34.153  1.00  0.00     0.134 A 
ATOM     84  C   UNL A   1      44.066  26.089  34.672  1.00  0.00     0.134 A 
ATOM     85  F   UNL A   1      45.858  29.052  33.577  1.00  0.00    -0.206 F 
ATOM     86  C   UNL A   1      46.609  27.196  34.803  1.00  0.00     0.040 A 
ATOM     87  C   UNL A   1      45.084  25.414  35.347  1.00  0.00     0.040 A 
ATOM     88  F   UNL A   1      42.854  25.515  34.629  1.00  0.00    -0.206 F 
ATOM     89  C   UNL A   1      46.363  25.964  35.407  1.00  0.00     0.006 A 
ENDBRANCH  65  82
ENDBRANCH  39  40
ENDBRANCH  32  34
ENDBRANCH  31  32
ENDBRANCH  30  31
ENDBRANCH  29  30
ENDBRANCH  28  29
ENDBRANCH   1  28
TORSDOF 18
ENDMDL
