MODEL 1
REMARK VINA RESULT:     -12.5      0.000      0.000
REMARK SMILES O=C(OCCOCCOC(=O)c1ccc(-c2c3nc(c(-c4c(F)cccc4F)c4ccc([nH]4)c(-c4c(F)cccc4F)c4nc(c(-c5c(F)cccc5F)c5ccc2[nH]5)C=C4)C=C3)cc1)C1=Cc2ccc(Cl)c(Cl)c2O[C@@H]1C(F)(F)F
REMARK SMILES IDX 7 1 6 2 5 3 4 4 3 5 2 6 1 7 66 8 67 9 77 10 68 11 76 12
REMARK SMILES IDX 69 13 75 14 70 15 73 16 71 17 74 18 72 19 78 20 79 21 80 22
REMARK SMILES IDX 81 23 8 24 9 25 10 26 11 27 12 28 13 29 65 30 14 31 64 32
REMARK SMILES IDX 15 33 16 34 17 35 58 36 18 37 63 38 57 39 59 40 19 41 62 42
REMARK SMILES IDX 56 43 55 44 20 46 46 47 29 48 45 49 30 50 33 51 44 52 60 53
REMARK SMILES IDX 31 54 32 55 43 57 61 58 34 59 21 60 22 61 27 62 23 63 24 64
REMARK SMILES IDX 26 65 28 66 25 67 47 68 48 69 53 70 49 71 50 72 52 73 54 74
REMARK SMILES IDX 51 75 35 76 36 77 41 78 37 79 38 80 40 81 42 82 39 83
REMARK H PARENT 59 45 33 56
REMARK Flexibility Score: inf
ROOT
ATOM      1  C   UNL A   1      43.263  21.486  25.915  1.00  0.00     0.202 C 
ENDROOT
BRANCH   1   2
ATOM      2  O   UNL A   1      41.897  21.215  25.556  1.00  0.00    -0.374 OA
BRANCH   2   3
ATOM      3  C   UNL A   1      40.489  21.578  26.253  1.00  0.00     0.202 C 
BRANCH   3   4
ATOM      4  C   UNL A   1      38.459  21.517  25.487  1.00  0.00     0.261 C 
BRANCH   4   5
ATOM      5  O   UNL A   1      37.369  22.583  25.687  1.00  0.00    -0.460 OA
BRANCH   5   6
ATOM      6  C   UNL A   1      36.636  22.785  24.590  1.00  0.00     0.338 C 
ATOM      7  O   UNL A   1      36.986  23.083  23.477  1.00  0.00    -0.246 OA
BRANCH   6   8
ATOM      8  C   UNL A   1      35.370  22.902  25.278  1.00  0.00     0.087 C 
ATOM      9  C   UNL A   1      35.163  24.261  25.825  1.00  0.00     0.027 C 
ATOM     10  C   UNL A   1      34.304  22.099  23.878  1.00  0.00     0.316 C 
ATOM     11  C   UNL A   1      34.021  25.466  25.103  1.00  0.00     0.019 A 
ATOM     12  O   UNL A   1      33.142  23.391  23.036  1.00  0.00    -0.474 OA
ATOM     13  C   UNL A   1      34.025  26.741  25.594  1.00  0.00     0.013 A 
ATOM     14  C   UNL A   1      33.093  25.107  23.675  1.00  0.00     0.148 A 
ATOM     15  C   UNL A   1      33.317  27.666  24.820  1.00  0.00     0.023 A 
ATOM     16  C   UNL A   1      32.597  26.120  22.895  1.00  0.00     0.102 A 
ATOM     17  C   UNL A   1      32.697  27.393  23.529  1.00  0.00     0.063 A 
ATOM     18  Cl  UNL A   1      32.294  25.907  21.228  1.00  0.00    -0.079 Cl
ATOM     19  Cl  UNL A   1      32.150  28.847  22.759  1.00  0.00    -0.083 Cl
BRANCH  10  20
ATOM     20  C   UNL A   1      33.999  20.727  24.632  1.00  0.00     0.430 C 
ATOM     21  F   UNL A   1      33.447  20.840  25.853  1.00  0.00    -0.167 F 
ATOM     22  F   UNL A   1      33.064  20.060  23.890  1.00  0.00    -0.167 F 
ATOM     23  F   UNL A   1      35.045  19.873  24.707  1.00  0.00    -0.167 F 
ENDBRANCH  10  20
ENDBRANCH   6   8
ENDBRANCH   5   6
ENDBRANCH   4   5
ENDBRANCH   3   4
ENDBRANCH   2   3
ENDBRANCH   1   2
BRANCH   1  24
ATOM     24  C   UNL A   1      44.063  22.296  24.902  1.00  0.00     0.261 C 
BRANCH  24  25
ATOM     25  O   UNL A   1      43.473  23.557  24.633  1.00  0.00    -0.460 OA
BRANCH  25  26
ATOM     26  C   UNL A   1      44.238  24.600  25.023  1.00  0.00     0.338 C 
ATOM     27  O   UNL A   1      45.343  24.914  24.616  1.00  0.00    -0.246 OA
BRANCH  26  28
ATOM     28  C   UNL A   1      43.520  25.332  26.073  1.00  0.00     0.060 A 
ATOM     29  C   UNL A   1      44.066  26.544  26.501  1.00  0.00     0.016 A 
ATOM     30  C   UNL A   1      42.319  24.846  26.613  1.00  0.00     0.016 A 
ATOM     31  C   UNL A   1      43.399  27.280  27.468  1.00  0.00     0.010 A 
ATOM     32  C   UNL A   1      41.644  25.593  27.570  1.00  0.00     0.010 A 
ATOM     33  C   UNL A   1      42.193  26.805  28.005  1.00  0.00    -0.014 A 
BRANCH  33  34
ATOM     34  C   UNL A   1      41.616  27.512  29.160  1.00  0.00     0.031 A 
ATOM     35  C   UNL A   1      42.321  27.387  30.468  1.00  0.00     0.074 A 
ATOM     36  C   UNL A   1      40.547  28.310  29.010  1.00  0.00     0.049 A 
ATOM     37  N   UNL A   1      42.092  28.017  31.587  1.00  0.00    -0.248 NA
ATOM     38  C   UNL A   1      43.428  26.417  30.526  1.00  0.00     0.031 C 
ATOM     39  C   UNL A   1      39.777  28.455  27.782  1.00  0.00     0.029 A 
ATOM     40  N   UNL A   1      39.940  29.166  29.889  1.00  0.00    -0.354 N 
ATOM     41  C   UNL A   1      43.044  27.542  32.475  1.00  0.00     0.074 A 
ATOM     42  C   UNL A   1      43.812  26.528  31.788  1.00  0.00     0.031 C 
ATOM     43  C   UNL A   1      38.844  29.403  27.953  1.00  0.00     0.029 A 
ATOM     44  C   UNL A   1      38.900  29.871  29.334  1.00  0.00     0.049 A 
ATOM     45  H   UNL A   1      40.221  29.266  30.827  1.00  0.00     0.167 HD
ATOM     46  C   UNL A   1      43.264  27.940  33.746  1.00  0.00     0.037 A 
ATOM     47  C   UNL A   1      38.078  30.777  29.892  1.00  0.00     0.037 A 
ATOM     48  C   UNL A   1      42.457  28.917  34.423  1.00  0.00     0.049 A 
ATOM     49  C   UNL A   1      38.300  31.139  31.336  1.00  0.00     0.074 A 
ATOM     50  C   UNL A   1      42.572  29.376  35.722  1.00  0.00     0.029 A 
ATOM     51  N   UNL A   1      41.372  29.574  33.857  1.00  0.00    -0.354 N 
ATOM     52  N   UNL A   1      39.231  30.721  32.162  1.00  0.00    -0.248 NA
ATOM     53  C   UNL A   1      37.360  32.099  31.926  1.00  0.00     0.031 C 
ATOM     54  C   UNL A   1      41.520  30.265  35.961  1.00  0.00     0.029 A 
ATOM     55  C   UNL A   1      40.793  30.418  34.790  1.00  0.00     0.049 A 
ATOM     56  H   UNL A   1      41.063  29.457  32.931  1.00  0.00     0.167 HD
ATOM     57  C   UNL A   1      39.002  31.384  33.361  1.00  0.00     0.074 A 
ATOM     58  C   UNL A   1      37.868  32.259  33.138  1.00  0.00     0.031 C 
ATOM     59  C   UNL A   1      39.660  31.275  34.542  1.00  0.00     0.037 A 
BRANCH  46  60
ATOM     60  C   UNL A   1      44.403  27.293  34.471  1.00  0.00     0.057 A 
ATOM     61  C   UNL A   1      44.236  26.101  35.191  1.00  0.00     0.134 A 
ATOM     62  C   UNL A   1      45.680  27.862  34.447  1.00  0.00     0.134 A 
ATOM     63  F   UNL A   1      43.029  25.521  35.278  1.00  0.00    -0.206 F 
ATOM     64  C   UNL A   1      45.298  25.509  35.877  1.00  0.00     0.040 A 
ATOM     65  C   UNL A   1      46.756  27.262  35.103  1.00  0.00     0.040 A 
ATOM     66  F   UNL A   1      45.905  29.007  33.786  1.00  0.00    -0.206 F 
ATOM     67  C   UNL A   1      46.564  26.086  35.825  1.00  0.00     0.006 A 
ENDBRANCH  46  60
BRANCH  47  68
ATOM     68  C   UNL A   1      36.955  31.368  29.117  1.00  0.00     0.057 A 
ATOM     69  C   UNL A   1      36.998  32.685  28.643  1.00  0.00     0.134 A 
ATOM     70  C   UNL A   1      35.779  30.643  28.880  1.00  0.00     0.134 A 
ATOM     71  F   UNL A   1      38.085  33.443  28.850  1.00  0.00    -0.206 F 
ATOM     72  C   UNL A   1      35.903  33.272  28.005  1.00  0.00     0.040 A 
ATOM     73  C   UNL A   1      34.691  31.203  28.210  1.00  0.00     0.040 A 
ATOM     74  F   UNL A   1      35.669  29.374  29.300  1.00  0.00    -0.206 F 
ATOM     75  C   UNL A   1      34.744  32.528  27.784  1.00  0.00     0.006 A 
ENDBRANCH  47  68
BRANCH  59  76
ATOM     76  C   UNL A   1      39.183  32.154  35.665  1.00  0.00     0.057 A 
ATOM     77  C   UNL A   1      38.271  31.705  36.628  1.00  0.00     0.134 A 
ATOM     78  C   UNL A   1      39.647  33.471  35.780  1.00  0.00     0.134 A 
ATOM     79  F   UNL A   1      37.779  30.457  36.572  1.00  0.00    -0.206 F 
ATOM     80  C   UNL A   1      37.795  32.550  37.632  1.00  0.00     0.040 A 
ATOM     81  C   UNL A   1      39.213  34.311  36.805  1.00  0.00     0.040 A 
ATOM     82  F   UNL A   1      40.536  33.963  34.904  1.00  0.00    -0.206 F 
ATOM     83  C   UNL A   1      38.271  33.855  37.724  1.00  0.00     0.006 A 
ENDBRANCH  59  76
ENDBRANCH  33  34
ENDBRANCH  26  28
ENDBRANCH  25  26
ENDBRANCH  24  25
ENDBRANCH   1  24
TORSDOF 15
ENDMDL
MODEL 2
REMARK VINA RESULT:     -12.2      3.949      6.536
REMARK SMILES O=C(OCCOCCOC(=O)c1ccc(-c2c3nc(c(-c4c(F)cccc4F)c4ccc([nH]4)c(-c4c(F)cccc4F)c4nc(c(-c5c(F)cccc5F)c5ccc2[nH]5)C=C4)C=C3)cc1)C1=Cc2ccc(Cl)c(Cl)c2O[C@@H]1C(F)(F)F
REMARK SMILES IDX 7 1 6 2 5 3 4 4 3 5 2 6 1 7 66 8 67 9 77 10 68 11 76 12
REMARK SMILES IDX 69 13 75 14 70 15 73 16 71 17 74 18 72 19 78 20 79 21 80 22
REMARK SMILES IDX 81 23 8 24 9 25 10 26 11 27 12 28 13 29 65 30 14 31 64 32
REMARK SMILES IDX 15 33 16 34 17 35 58 36 18 37 63 38 57 39 59 40 19 41 62 42
REMARK SMILES IDX 56 43 55 44 20 46 46 47 29 48 45 49 30 50 33 51 44 52 60 53
REMARK SMILES IDX 31 54 32 55 43 57 61 58 34 59 21 60 22 61 27 62 23 63 24 64
REMARK SMILES IDX 26 65 28 66 25 67 47 68 48 69 53 70 49 71 50 72 52 73 54 74
REMARK SMILES IDX 51 75 35 76 36 77 41 78 37 79 38 80 40 81 42 82 39 83
REMARK H PARENT 59 45 33 56
REMARK Flexibility Score: inf
ROOT
ATOM      1  C   UNL A   1      35.785  20.451  24.999  1.00  0.00     0.202 C 
ENDROOT
BRANCH   1   2
ATOM      2  O   UNL A   1      35.206  21.768  25.012  1.00  0.00    -0.374 OA
BRANCH   2   3
ATOM      3  C   UNL A   1      34.155  22.511  24.042  1.00  0.00     0.202 C 
BRANCH   3   4
ATOM      4  C   UNL A   1      34.143  24.522  23.225  1.00  0.00     0.261 C 
BRANCH   4   5
ATOM      5  O   UNL A   1      32.917  25.432  23.039  1.00  0.00    -0.460 OA
BRANCH   5   6
ATOM      6  C   UNL A   1      33.148  26.692  23.414  1.00  0.00     0.338 C 
ATOM      7  O   UNL A   1      33.665  27.593  22.805  1.00  0.00    -0.246 OA
BRANCH   6   8
ATOM      8  C   UNL A   1      32.936  26.465  24.827  1.00  0.00     0.087 C 
ATOM      9  C   UNL A   1      34.056  26.984  25.642  1.00  0.00     0.027 C 
ATOM     10  C   UNL A   1      31.127  27.147  24.873  1.00  0.00     0.316 C 
ATOM     11  C   UNL A   1      33.953  28.491  26.641  1.00  0.00     0.019 A 
ATOM     12  O   UNL A   1      31.012  28.802  25.860  1.00  0.00    -0.474 OA
ATOM     13  C   UNL A   1      35.093  28.961  27.229  1.00  0.00     0.013 A 
ATOM     14  C   UNL A   1      32.508  29.460  26.687  1.00  0.00     0.148 A 
ATOM     15  C   UNL A   1      34.987  30.252  27.755  1.00  0.00     0.023 A 
ATOM     16  C   UNL A   1      32.567  30.779  27.057  1.00  0.00     0.102 A 
ATOM     17  C   UNL A   1      33.827  31.128  27.626  1.00  0.00     0.063 A 
ATOM     18  Cl  UNL A   1      31.421  31.921  26.511  1.00  0.00    -0.079 Cl
ATOM     19  Cl  UNL A   1      34.174  32.737  28.172  1.00  0.00    -0.083 Cl
BRANCH  10  20
ATOM     20  C   UNL A   1      30.397  25.741  25.065  1.00  0.00     0.430 C 
ATOM     21  F   UNL A   1      29.235  25.772  25.741  1.00  0.00    -0.167 F 
ATOM     22  F   UNL A   1      30.061  25.289  23.819  1.00  0.00    -0.167 F 
ATOM     23  F   UNL A   1      31.173  24.762  25.583  1.00  0.00    -0.167 F 
ENDBRANCH  10  20
ENDBRANCH   6   8
ENDBRANCH   5   6
ENDBRANCH   4   5
ENDBRANCH   3   4
ENDBRANCH   2   3
ENDBRANCH   1   2
BRANCH   1  24
ATOM     24  C   UNL A   1      37.308  20.400  24.990  1.00  0.00     0.261 C 
BRANCH  24  25
ATOM     25  O   UNL A   1      37.887  21.460  25.732  1.00  0.00    -0.460 OA
BRANCH  25  26
ATOM     26  C   UNL A   1      39.161  21.215  26.109  1.00  0.00     0.338 C 
ATOM     27  O   UNL A   1      39.775  20.165  26.041  1.00  0.00    -0.246 OA
BRANCH  26  28
ATOM     28  C   UNL A   1      39.728  22.454  26.657  1.00  0.00     0.060 A 
ATOM     29  C   UNL A   1      39.220  23.662  26.174  1.00  0.00     0.016 A 
ATOM     30  C   UNL A   1      40.726  22.428  27.643  1.00  0.00     0.016 A 
ATOM     31  C   UNL A   1      39.708  24.853  26.691  1.00  0.00     0.010 A 
ATOM     32  C   UNL A   1      41.201  23.622  28.172  1.00  0.00     0.010 A 
ATOM     33  C   UNL A   1      40.699  24.834  27.684  1.00  0.00    -0.014 A 
BRANCH  33  34
ATOM     34  C   UNL A   1      41.326  26.108  28.069  1.00  0.00     0.031 A 
ATOM     35  C   UNL A   1      42.720  26.360  27.602  1.00  0.00     0.074 A 
ATOM     36  C   UNL A   1      40.629  27.040  28.739  1.00  0.00     0.049 A 
ATOM     37  N   UNL A   1      43.430  27.450  27.692  1.00  0.00    -0.248 NA
ATOM     38  C   UNL A   1      43.408  25.231  26.952  1.00  0.00     0.031 C 
ATOM     39  C   UNL A   1      39.283  26.860  29.266  1.00  0.00     0.029 A 
ATOM     40  N   UNL A   1      40.947  28.330  29.066  1.00  0.00    -0.354 N 
ATOM     41  C   UNL A   1      44.639  27.148  27.085  1.00  0.00     0.074 A 
ATOM     42  C   UNL A   1      44.592  25.759  26.687  1.00  0.00     0.031 C 
ATOM     43  C   UNL A   1      38.853  28.018  29.788  1.00  0.00     0.029 A 
ATOM     44  C   UNL A   1      39.929  28.999  29.702  1.00  0.00     0.049 A 
ATOM     45  H   UNL A   1      41.820  28.739  28.867  1.00  0.00     0.167 HD
ATOM     46  C   UNL A   1      45.685  27.973  26.864  1.00  0.00     0.037 A 
ATOM     47  C   UNL A   1      39.888  30.257  30.177  1.00  0.00     0.037 A 
ATOM     48  C   UNL A   1      45.728  29.338  27.309  1.00  0.00     0.049 A 
ATOM     49  C   UNL A   1      41.102  31.125  29.985  1.00  0.00     0.074 A 
ATOM     50  C   UNL A   1      46.749  30.258  27.166  1.00  0.00     0.029 A 
ATOM     51  N   UNL A   1      44.707  29.974  28.003  1.00  0.00    -0.354 N 
ATOM     52  N   UNL A   1      42.229  30.851  29.370  1.00  0.00    -0.248 NA
ATOM     53  C   UNL A   1      41.040  32.478  30.551  1.00  0.00     0.031 C 
ATOM     54  C   UNL A   1      46.371  31.431  27.825  1.00  0.00     0.029 A 
ATOM     55  C   UNL A   1      45.084  31.270  28.316  1.00  0.00     0.049 A 
ATOM     56  H   UNL A   1      43.844  29.565  28.237  1.00  0.00     0.167 HD
ATOM     57  C   UNL A   1      43.000  32.003  29.455  1.00  0.00     0.074 A 
ATOM     58  C   UNL A   1      42.193  32.988  30.148  1.00  0.00     0.031 C 
ATOM     59  C   UNL A   1      44.263  32.227  29.012  1.00  0.00     0.037 A 
BRANCH  46  60
ATOM     60  C   UNL A   1      46.859  27.398  26.133  1.00  0.00     0.057 A 
ATOM     61  C   UNL A   1      47.904  26.753  26.809  1.00  0.00     0.134 A 
ATOM     62  C   UNL A   1      46.944  27.485  24.739  1.00  0.00     0.134 A 
ATOM     63  F   UNL A   1      47.897  26.663  28.147  1.00  0.00    -0.206 F 
ATOM     64  C   UNL A   1      49.002  26.231  26.124  1.00  0.00     0.040 A 
ATOM     65  C   UNL A   1      48.023  26.939  24.042  1.00  0.00     0.040 A 
ATOM     66  F   UNL A   1      45.983  28.098  24.033  1.00  0.00    -0.206 F 
ATOM     67  C   UNL A   1      49.058  26.316  24.735  1.00  0.00     0.006 A 
ENDBRANCH  46  60
BRANCH  47  68
ATOM     68  C   UNL A   1      38.694  30.757  30.909  1.00  0.00     0.057 A 
ATOM     69  C   UNL A   1      38.525  30.538  32.281  1.00  0.00     0.134 A 
ATOM     70  C   UNL A   1      37.658  31.420  30.235  1.00  0.00     0.134 A 
ATOM     71  F   UNL A   1      39.468  29.893  32.984  1.00  0.00    -0.206 F 
ATOM     72  C   UNL A   1      37.356  30.916  32.946  1.00  0.00     0.040 A 
ATOM     73  C   UNL A   1      36.503  31.839  30.894  1.00  0.00     0.040 A 
ATOM     74  F   UNL A   1      37.754  31.670  28.921  1.00  0.00    -0.206 F 
ATOM     75  C   UNL A   1      36.341  31.573  32.252  1.00  0.00     0.006 A 
ENDBRANCH  47  68
BRANCH  59  76
ATOM     76  C   UNL A   1      44.822  33.605  29.237  1.00  0.00     0.057 A 
ATOM     77  C   UNL A   1      45.518  33.945  30.403  1.00  0.00     0.134 A 
ATOM     78  C   UNL A   1      44.660  34.603  28.267  1.00  0.00     0.134 A 
ATOM     79  F   UNL A   1      45.702  33.039  31.377  1.00  0.00    -0.206 F 
ATOM     80  C   UNL A   1      45.985  35.243  30.622  1.00  0.00     0.040 A 
ATOM     81  C   UNL A   1      45.161  35.892  28.455  1.00  0.00     0.040 A 
ATOM     82  F   UNL A   1      44.020  34.343  27.117  1.00  0.00    -0.206 F 
ATOM     83  C   UNL A   1      45.810  36.218  29.643  1.00  0.00     0.006 A 
ENDBRANCH  59  76
ENDBRANCH  33  34
ENDBRANCH  26  28
ENDBRANCH  25  26
ENDBRANCH  24  25
ENDBRANCH   1  24
TORSDOF 15
ENDMDL
MODEL 3
REMARK VINA RESULT:     -12.1      2.839      8.042
REMARK SMILES O=C(OCCOCCOC(=O)c1ccc(-c2c3nc(c(-c4c(F)cccc4F)c4ccc([nH]4)c(-c4c(F)cccc4F)c4nc(c(-c5c(F)cccc5F)c5ccc2[nH]5)C=C4)C=C3)cc1)C1=Cc2ccc(Cl)c(Cl)c2O[C@@H]1C(F)(F)F
REMARK SMILES IDX 7 1 6 2 5 3 4 4 3 5 2 6 1 7 66 8 67 9 77 10 68 11 76 12
REMARK SMILES IDX 69 13 75 14 70 15 73 16 71 17 74 18 72 19 78 20 79 21 80 22
REMARK SMILES IDX 81 23 8 24 9 25 10 26 11 27 12 28 13 29 65 30 14 31 64 32
REMARK SMILES IDX 15 33 16 34 17 35 58 36 18 37 63 38 57 39 59 40 19 41 62 42
REMARK SMILES IDX 56 43 55 44 20 46 46 47 29 48 45 49 30 50 33 51 44 52 60 53
REMARK SMILES IDX 31 54 32 55 43 57 61 58 34 59 21 60 22 61 27 62 23 63 24 64
REMARK SMILES IDX 26 65 28 66 25 67 47 68 48 69 53 70 49 71 50 72 52 73 54 74
REMARK SMILES IDX 51 75 35 76 36 77 41 78 37 79 38 80 40 81 42 82 39 83
REMARK H PARENT 59 45 33 56
REMARK Flexibility Score: inf
ROOT
ATOM      1  C   UNL A   1      31.415  29.418  25.907  1.00  0.00     0.202 C 
ENDROOT
BRANCH   1   2
ATOM      2  O   UNL A   1      31.050  29.387  24.516  1.00  0.00    -0.374 OA
BRANCH   2   3
ATOM      3  C   UNL A   1      30.485  28.220  23.558  1.00  0.00     0.202 C 
BRANCH   3   4
ATOM      4  C   UNL A   1      31.481  26.970  22.089  1.00  0.00     0.261 C 
BRANCH   4   5
ATOM      5  O   UNL A   1      31.486  25.433  22.043  1.00  0.00    -0.460 OA
BRANCH   5   6
ATOM      6  C   UNL A   1      32.692  24.913  22.281  1.00  0.00     0.338 C 
ATOM      7  O   UNL A   1      33.559  24.595  21.508  1.00  0.00    -0.246 OA
BRANCH   6   8
ATOM      8  C   UNL A   1      32.421  24.535  23.651  1.00  0.00     0.087 C 
ATOM      9  C   UNL A   1      31.871  23.165  23.745  1.00  0.00     0.027 C 
ATOM     10  C   UNL A   1      34.134  25.090  24.357  1.00  0.00     0.316 C 
ATOM     11  C   UNL A   1      32.823  21.744  24.338  1.00  0.00     0.019 A 
ATOM     12  O   UNL A   1      35.200  23.580  24.914  1.00  0.00    -0.474 OA
ATOM     13  C   UNL A   1      32.266  20.500  24.237  1.00  0.00     0.013 A 
ATOM     14  C   UNL A   1      34.488  21.895  24.820  1.00  0.00     0.148 A 
ATOM     15  C   UNL A   1      33.154  19.444  24.467  1.00  0.00     0.023 A 
ATOM     16  C   UNL A   1      35.311  20.798  24.834  1.00  0.00     0.102 A 
ATOM     17  C   UNL A   1      34.590  19.576  24.689  1.00  0.00     0.063 A 
ATOM     18  Cl  UNL A   1      37.001  20.936  24.632  1.00  0.00    -0.079 Cl
ATOM     19  Cl  UNL A   1      35.387  18.037  24.665  1.00  0.00    -0.083 Cl
BRANCH  10  20
ATOM     20  C   UNL A   1      33.607  26.371  25.150  1.00  0.00     0.430 C 
ATOM     21  F   UNL A   1      32.391  26.253  25.711  1.00  0.00    -0.167 F 
ATOM     22  F   UNL A   1      34.457  26.568  26.204  1.00  0.00    -0.167 F 
ATOM     23  F   UNL A   1      33.654  27.530  24.456  1.00  0.00    -0.167 F 
ENDBRANCH  10  20
ENDBRANCH   6   8
ENDBRANCH   5   6
ENDBRANCH   4   5
ENDBRANCH   3   4
ENDBRANCH   2   3
ENDBRANCH   1   2
BRANCH   1  24
ATOM     24  C   UNL A   1      31.876  30.770  26.438  1.00  0.00     0.261 C 
BRANCH  24  25
ATOM     25  O   UNL A   1      33.282  30.831  26.610  1.00  0.00    -0.460 OA
BRANCH  25  26
ATOM     26  C   UNL A   1      33.677  31.815  27.446  1.00  0.00     0.338 C 
ATOM     27  O   UNL A   1      33.096  32.854  27.710  1.00  0.00    -0.246 OA
BRANCH  26  28
ATOM     28  C   UNL A   1      34.980  31.445  28.013  1.00  0.00     0.060 A 
ATOM     29  C   UNL A   1      35.173  30.108  28.364  1.00  0.00     0.016 A 
ATOM     30  C   UNL A   1      36.001  32.394  28.177  1.00  0.00     0.016 A 
ATOM     31  C   UNL A   1      36.402  29.714  28.872  1.00  0.00     0.010 A 
ATOM     32  C   UNL A   1      37.237  31.995  28.670  1.00  0.00     0.010 A 
ATOM     33  C   UNL A   1      37.431  30.656  29.029  1.00  0.00    -0.014 A 
BRANCH  33  34
ATOM     34  C   UNL A   1      38.649  30.245  29.746  1.00  0.00     0.031 A 
ATOM     35  C   UNL A   1      38.827  30.739  31.142  1.00  0.00     0.074 A 
ATOM     36  C   UNL A   1      39.516  29.386  29.187  1.00  0.00     0.049 A 
ATOM     37  N   UNL A   1      39.736  30.411  32.018  1.00  0.00    -0.248 NA
ATOM     38  C   UNL A   1      37.856  31.743  31.612  1.00  0.00     0.031 C 
ATOM     39  C   UNL A   1      39.438  28.890  27.820  1.00  0.00     0.029 A 
ATOM     40  N   UNL A   1      40.615  28.759  29.709  1.00  0.00    -0.354 N 
ATOM     41  C   UNL A   1      39.430  31.145  33.153  1.00  0.00     0.074 A 
ATOM     42  C   UNL A   1      38.294  31.981  32.837  1.00  0.00     0.031 C 
ATOM     43  C   UNL A   1      40.401  27.976  27.624  1.00  0.00     0.029 A 
ATOM     44  C   UNL A   1      41.212  27.885  28.833  1.00  0.00     0.049 A 
ATOM     45  H   UNL A   1      40.946  28.919  30.622  1.00  0.00     0.167 HD
ATOM     46  C   UNL A   1      40.038  31.101  34.358  1.00  0.00     0.037 A 
ATOM     47  C   UNL A   1      42.304  27.117  28.992  1.00  0.00     0.037 A 
ATOM     48  C   UNL A   1      41.195  30.295  34.635  1.00  0.00     0.049 A 
ATOM     49  C   UNL A   1      43.007  27.153  30.322  1.00  0.00     0.074 A 
ATOM     50  C   UNL A   1      41.912  30.195  35.812  1.00  0.00     0.029 A 
ATOM     51  N   UNL A   1      41.816  29.464  33.712  1.00  0.00    -0.354 N 
ATOM     52  N   UNL A   1      42.689  27.815  31.411  1.00  0.00    -0.248 NA
ATOM     53  C   UNL A   1      44.219  26.335  30.450  1.00  0.00     0.031 C 
ATOM     54  C   UNL A   1      43.001  29.350  35.585  1.00  0.00     0.029 A 
ATOM     55  C   UNL A   1      42.924  28.863  34.289  1.00  0.00     0.049 A 
ATOM     56  H   UNL A   1      41.514  29.321  32.787  1.00  0.00     0.167 HD
ATOM     57  C   UNL A   1      43.647  27.476  32.357  1.00  0.00     0.074 A 
ATOM     58  C   UNL A   1      44.533  26.520  31.722  1.00  0.00     0.031 C 
ATOM     59  C   UNL A   1      43.791  27.919  33.631  1.00  0.00     0.037 A 
BRANCH  46  60
ATOM     60  C   UNL A   1      39.468  31.968  35.437  1.00  0.00     0.057 A 
ATOM     61  C   UNL A   1      38.511  31.486  36.341  1.00  0.00     0.134 A 
ATOM     62  C   UNL A   1      39.882  33.297  35.578  1.00  0.00     0.134 A 
ATOM     63  F   UNL A   1      38.050  30.230  36.240  1.00  0.00    -0.206 F 
ATOM     64  C   UNL A   1      37.972  32.302  37.337  1.00  0.00     0.040 A 
ATOM     65  C   UNL A   1      39.373  34.113  36.590  1.00  0.00     0.040 A 
ATOM     66  F   UNL A   1      40.786  33.823  34.740  1.00  0.00    -0.206 F 
ATOM     67  C   UNL A   1      38.411  33.617  37.468  1.00  0.00     0.006 A 
ENDBRANCH  46  60
BRANCH  47  68
ATOM     68  C   UNL A   1      42.826  26.292  27.870  1.00  0.00     0.057 A 
ATOM     69  C   UNL A   1      43.738  26.804  26.940  1.00  0.00     0.134 A 
ATOM     70  C   UNL A   1      42.376  24.980  27.667  1.00  0.00     0.134 A 
ATOM     71  F   UNL A   1      44.197  28.059  27.063  1.00  0.00    -0.206 F 
ATOM     72  C   UNL A   1      44.148  26.064  25.829  1.00  0.00     0.040 A 
ATOM     73  C   UNL A   1      42.807  24.214  26.584  1.00  0.00     0.040 A 
ATOM     74  F   UNL A   1      41.507  24.421  28.522  1.00  0.00    -0.206 F 
ATOM     75  C   UNL A   1      43.684  24.761  25.650  1.00  0.00     0.006 A 
ENDBRANCH  47  68
BRANCH  59  76
ATOM     76  C   UNL A   1      44.931  27.339  34.423  1.00  0.00     0.057 A 
ATOM     77  C   UNL A   1      44.798  26.159  35.165  1.00  0.00     0.134 A 
ATOM     78  C   UNL A   1      46.179  27.975  34.441  1.00  0.00     0.134 A 
ATOM     79  F   UNL A   1      43.627  25.503  35.199  1.00  0.00    -0.206 F 
ATOM     80  C   UNL A   1      45.847  25.661  35.939  1.00  0.00     0.040 A 
ATOM     81  C   UNL A   1      47.249  27.464  35.175  1.00  0.00     0.040 A 
ATOM     82  F   UNL A   1      46.383  29.100  33.739  1.00  0.00    -0.206 F 
ATOM     83  C   UNL A   1      47.078  26.313  35.941  1.00  0.00     0.006 A 
ENDBRANCH  59  76
ENDBRANCH  33  34
ENDBRANCH  26  28
ENDBRANCH  25  26
ENDBRANCH  24  25
ENDBRANCH   1  24
TORSDOF 15
ENDMDL
