MODEL 1
REMARK VINA RESULT:     -11.5      0.000      0.000
REMARK SMILES O=C(C[C@@H]([NH2+]Cc1ccccc1)C(=O)/N=c1/[nH]c(-c2ccccc2)cs1)OCCOCCOC(=O)c1ccc(-c2c3nc(c(-c4c(F)cccc4F)c4ccc([nH]4)c(-c4c(F)cccc4F)c4nc(c(-c5c(F)cccc5F)c5ccc2[nH]5)C=C4)C=C3)cc1
REMARK SMILES IDX 29 1 28 2 27 3 2 4 1 5 3 6 4 7 5 8 6 11 7 12 8 13 12 14 9 15
REMARK SMILES IDX 11 16 10 17 13 18 14 19 15 20 16 21 17 22 26 23 18 24 25 26
REMARK SMILES IDX 19 27 20 28 24 29 21 30 23 31 22 32 30 33 31 34 32 35 33 36
REMARK SMILES IDX 34 37 35 38 36 39 37 40 89 41 38 42 88 43 39 44 40 45 41 46
REMARK SMILES IDX 82 47 42 48 87 49 81 50 83 51 43 52 86 53 80 54 79 55 44 57
REMARK SMILES IDX 70 58 53 59 69 60 54 61 57 62 68 63 84 64 55 65 56 66 67 68
REMARK SMILES IDX 85 69 58 70 45 71 46 72 51 73 47 74 48 75 50 76 52 77 49 78
REMARK SMILES IDX 71 79 72 80 77 81 73 82 74 83 76 84 78 85 75 86 59 87 60 88
REMARK SMILES IDX 65 89 61 90 62 91 64 92 66 93 63 94
REMARK H PARENT 5 9 5 10 17 25 83 56 57 67
REMARK Flexibility Score: inf
ROOT
ATOM      1  C   UNL A   1      32.981  30.705  26.971  1.00  0.00     0.202 C 
ENDROOT
BRANCH   1   2
ATOM      2  C   UNL A   1      33.251  29.273  26.492  1.00  0.00     0.261 C 
BRANCH   2   3
ATOM      3  O   UNL A   1      32.073  28.637  25.963  1.00  0.00    -0.463 OA
BRANCH   3   4
ATOM      4  C   UNL A   1      31.587  27.598  26.680  1.00  0.00     0.312 C 
ATOM      5  O   UNL A   1      31.234  27.713  27.849  1.00  0.00    -0.252 OA
BRANCH   4   6
ATOM      6  C   UNL A   1      31.629  26.274  25.949  1.00  0.00     0.198 C 
BRANCH   6   7
ATOM      7  C   UNL A   1      32.050  26.203  24.465  1.00  0.00     0.286 C 
BRANCH   7   8
ATOM      8  N   UNL A   1      33.480  25.897  24.187  1.00  0.00    -0.332 N 
ATOM      9  H   UNL A   1      33.907  26.723  23.766  1.00  0.00     0.347 HD
ATOM     10  H   UNL A   1      33.486  25.085  23.568  1.00  0.00     0.347 HD
BRANCH   8  11
ATOM     11  C   UNL A   1      34.266  25.526  25.362  1.00  0.00     0.297 C 
BRANCH  11  12
ATOM     12  C   UNL A   1      34.990  24.211  25.176  1.00  0.00     0.006 A 
ATOM     13  C   UNL A   1      35.555  23.851  23.940  1.00  0.00     0.009 A 
ATOM     14  C   UNL A   1      35.001  23.283  26.224  1.00  0.00     0.009 A 
ATOM     15  C   UNL A   1      36.044  22.561  23.736  1.00  0.00     0.001 A 
ATOM     16  C   UNL A   1      35.508  22.001  26.023  1.00  0.00     0.001 A 
ATOM     17  C   UNL A   1      36.012  21.635  24.776  1.00  0.00     0.000 A 
ENDBRANCH  11  12
ENDBRANCH   8  11
ENDBRANCH   7   8
BRANCH   7  18
ATOM     18  C   UNL A   1      31.123  25.173  23.754  1.00  0.00     0.307 C 
ATOM     19  O   UNL A   1      29.908  25.362  23.710  1.00  0.00    -0.265 OA
BRANCH  18  20
ATOM     20  N   UNL A   1      31.731  24.074  23.187  1.00  0.00    -0.180 NA
ATOM     21  C   UNL A   1      31.777  22.979  23.868  1.00  0.00     0.190 A 
ATOM     22  N   UNL A   1      32.336  21.799  23.442  1.00  0.00    -0.330 N 
ATOM     23  S   UNL A   1      31.178  22.703  25.529  1.00  0.00    -0.105 S 
ATOM     24  C   UNL A   1      32.412  20.768  24.365  1.00  0.00     0.058 A 
ATOM     25  H   UNL A   1      32.668  21.690  22.522  1.00  0.00     0.169 HD
ATOM     26  C   UNL A   1      31.899  21.112  25.562  1.00  0.00     0.095 A 
BRANCH  24  27
ATOM     27  C   UNL A   1      32.942  19.432  24.026  1.00  0.00    -0.001 A 
ATOM     28  C   UNL A   1      34.062  18.883  24.670  1.00  0.00     0.010 A 
ATOM     29  C   UNL A   1      32.377  18.692  22.968  1.00  0.00     0.010 A 
ATOM     30  C   UNL A   1      34.614  17.667  24.247  1.00  0.00     0.001 A 
ATOM     31  C   UNL A   1      32.918  17.473  22.554  1.00  0.00     0.001 A 
ATOM     32  C   UNL A   1      34.046  16.967  23.185  1.00  0.00     0.000 A 
ENDBRANCH  24  27
ENDBRANCH  18  20
ENDBRANCH   7  18
ENDBRANCH   6   7
ENDBRANCH   4   6
ENDBRANCH   3   4
ENDBRANCH   2   3
ENDBRANCH   1   2
BRANCH   1  33
ATOM     33  O   UNL A   1      31.817  31.333  26.451  1.00  0.00    -0.374 OA
BRANCH  33  34
ATOM     34  C   UNL A   1      31.555  32.692  26.790  1.00  0.00     0.202 C 
BRANCH  34  35
ATOM     35  C   UNL A   1      32.753  33.405  27.407  1.00  0.00     0.261 C 
BRANCH  35  36
ATOM     36  O   UNL A   1      32.287  34.334  28.393  1.00  0.00    -0.460 OA
BRANCH  36  37
ATOM     37  C   UNL A   1      33.167  35.271  28.811  1.00  0.00     0.338 C 
ATOM     38  O   UNL A   1      32.978  36.465  28.963  1.00  0.00    -0.246 OA
BRANCH  37  39
ATOM     39  C   UNL A   1      34.356  34.546  29.301  1.00  0.00     0.060 A 
ATOM     40  C   UNL A   1      34.236  33.719  30.429  1.00  0.00     0.016 A 
ATOM     41  C   UNL A   1      35.569  34.648  28.617  1.00  0.00     0.016 A 
ATOM     42  C   UNL A   1      35.344  33.016  30.898  1.00  0.00     0.010 A 
ATOM     43  C   UNL A   1      36.674  33.954  29.085  1.00  0.00     0.010 A 
ATOM     44  C   UNL A   1      36.572  33.168  30.246  1.00  0.00    -0.014 A 
BRANCH  44  45
ATOM     45  C   UNL A   1      37.831  32.717  30.867  1.00  0.00     0.031 A 
ATOM     46  C   UNL A   1      38.501  31.520  30.264  1.00  0.00     0.074 A 
ATOM     47  C   UNL A   1      38.278  33.276  32.001  1.00  0.00     0.049 A 
ATOM     48  N   UNL A   1      39.451  30.767  30.746  1.00  0.00    -0.248 NA
ATOM     49  C   UNL A   1      37.996  31.095  28.948  1.00  0.00     0.031 C 
ATOM     50  C   UNL A   1      37.700  34.449  32.651  1.00  0.00     0.029 A 
ATOM     51  N   UNL A   1      39.296  32.888  32.831  1.00  0.00    -0.354 N 
ATOM     52  C   UNL A   1      39.633  29.757  29.810  1.00  0.00     0.074 A 
ATOM     53  C   UNL A   1      38.678  29.980  28.748  1.00  0.00     0.031 C 
ATOM     54  C   UNL A   1      38.348  34.663  33.809  1.00  0.00     0.029 A 
ATOM     55  C   UNL A   1      39.350  33.615  33.994  1.00  0.00     0.049 A 
ATOM     56  H   UNL A   1      39.926  32.163  32.615  1.00  0.00     0.167 HD
ATOM     57  C   UNL A   1      40.517  28.735  29.843  1.00  0.00     0.037 A 
ATOM     58  C   UNL A   1      40.093  33.417  35.099  1.00  0.00     0.037 A 
ATOM     59  C   UNL A   1      41.449  28.531  30.919  1.00  0.00     0.049 A 
ATOM     60  C   UNL A   1      41.049  32.255  35.137  1.00  0.00     0.074 A 
ATOM     61  C   UNL A   1      42.421  27.558  31.048  1.00  0.00     0.029 A 
ATOM     62  N   UNL A   1      41.508  29.316  32.063  1.00  0.00    -0.354 N 
ATOM     63  N   UNL A   1      41.251  31.322  34.236  1.00  0.00    -0.248 NA
ATOM     64  C   UNL A   1      41.880  32.118  36.340  1.00  0.00     0.031 C 
ATOM     65  C   UNL A   1      43.032  27.720  32.296  1.00  0.00     0.029 A 
ATOM     66  C   UNL A   1      42.483  28.834  32.917  1.00  0.00     0.049 A 
ATOM     67  H   UNL A   1      40.939  30.099  32.241  1.00  0.00     0.167 HD
ATOM     68  C   UNL A   1      42.254  30.507  34.746  1.00  0.00     0.074 A 
ATOM     69  C   UNL A   1      42.617  31.057  36.037  1.00  0.00     0.031 C 
ATOM     70  C   UNL A   1      42.830  29.409  34.193  1.00  0.00     0.037 A 
BRANCH  57  71
ATOM     71  C   UNL A   1      40.470  27.752  28.709  1.00  0.00     0.057 A 
ATOM     72  C   UNL A   1      39.719  26.570  28.775  1.00  0.00     0.134 A 
ATOM     73  C   UNL A   1      41.213  27.977  27.543  1.00  0.00     0.134 A 
ATOM     74  F   UNL A   1      39.002  26.280  29.871  1.00  0.00    -0.206 F 
ATOM     75  C   UNL A   1      39.744  25.629  27.744  1.00  0.00     0.040 A 
ATOM     76  C   UNL A   1      41.219  27.060  26.490  1.00  0.00     0.040 A 
ATOM     77  F   UNL A   1      41.956  29.087  27.411  1.00  0.00    -0.206 F 
ATOM     78  C   UNL A   1      40.493  25.876  26.595  1.00  0.00     0.006 A 
ENDBRANCH  57  71
BRANCH  58  79
ATOM     79  C   UNL A   1      39.947  34.341  36.251  1.00  0.00     0.057 A 
ATOM     80  C   UNL A   1      39.129  34.014  37.337  1.00  0.00     0.134 A 
ATOM     81  C   UNL A   1      40.657  35.546  36.316  1.00  0.00     0.134 A 
ATOM     82  F   UNL A   1      38.412  32.881  37.325  1.00  0.00    -0.206 F 
ATOM     83  C   UNL A   1      39.021  34.852  38.448  1.00  0.00     0.040 A 
ATOM     84  C   UNL A   1      40.576  36.383  37.430  1.00  0.00     0.040 A 
ATOM     85  F   UNL A   1      41.465  35.911  35.309  1.00  0.00    -0.206 F 
ATOM     86  C   UNL A   1      39.754  36.037  38.500  1.00  0.00     0.006 A 
ENDBRANCH  58  79
BRANCH  70  87
ATOM     87  C   UNL A   1      43.950  28.760  34.952  1.00  0.00     0.057 A 
ATOM     88  C   UNL A   1      45.285  29.150  34.790  1.00  0.00     0.134 A 
ATOM     89  C   UNL A   1      43.673  27.783  35.917  1.00  0.00     0.134 A 
ATOM     90  F   UNL A   1      45.617  30.073  33.876  1.00  0.00    -0.206 F 
ATOM     91  C   UNL A   1      46.306  28.583  35.554  1.00  0.00     0.040 A 
ATOM     92  C   UNL A   1      44.681  27.229  36.707  1.00  0.00     0.040 A 
ATOM     93  F   UNL A   1      42.413  27.373  36.129  1.00  0.00    -0.206 F 
ATOM     94  C   UNL A   1      46.003  27.627  36.523  1.00  0.00     0.006 A 
ENDBRANCH  70  87
ENDBRANCH  44  45
ENDBRANCH  37  39
ENDBRANCH  36  37
ENDBRANCH  35  36
ENDBRANCH  34  35
ENDBRANCH  33  34
ENDBRANCH   1  33
TORSDOF 21
ENDMDL
MODEL 2
REMARK VINA RESULT:     -11.3      1.680      3.326
REMARK SMILES O=C(C[C@@H]([NH2+]Cc1ccccc1)C(=O)/N=c1/[nH]c(-c2ccccc2)cs1)OCCOCCOC(=O)c1ccc(-c2c3nc(c(-c4c(F)cccc4F)c4ccc([nH]4)c(-c4c(F)cccc4F)c4nc(c(-c5c(F)cccc5F)c5ccc2[nH]5)C=C4)C=C3)cc1
REMARK SMILES IDX 29 1 28 2 27 3 2 4 1 5 3 6 4 7 5 8 6 11 7 12 8 13 12 14 9 15
REMARK SMILES IDX 11 16 10 17 13 18 14 19 15 20 16 21 17 22 26 23 18 24 25 26
REMARK SMILES IDX 19 27 20 28 24 29 21 30 23 31 22 32 30 33 31 34 32 35 33 36
REMARK SMILES IDX 34 37 35 38 36 39 37 40 89 41 38 42 88 43 39 44 40 45 41 46
REMARK SMILES IDX 82 47 42 48 87 49 81 50 83 51 43 52 86 53 80 54 79 55 44 57
REMARK SMILES IDX 70 58 53 59 69 60 54 61 57 62 68 63 84 64 55 65 56 66 67 68
REMARK SMILES IDX 85 69 58 70 45 71 46 72 51 73 47 74 48 75 50 76 52 77 49 78
REMARK SMILES IDX 71 79 72 80 77 81 73 82 74 83 76 84 78 85 75 86 59 87 60 88
REMARK SMILES IDX 65 89 61 90 62 91 64 92 66 93 63 94
REMARK H PARENT 5 9 5 10 17 25 83 56 57 67
REMARK Flexibility Score: inf
ROOT
ATOM      1  C   UNL A   1      34.152  30.094  27.286  1.00  0.00     0.202 C 
ENDROOT
BRANCH   1   2
ATOM      2  C   UNL A   1      33.926  28.610  26.973  1.00  0.00     0.261 C 
BRANCH   2   3
ATOM      3  O   UNL A   1      32.689  28.376  26.274  1.00  0.00    -0.463 OA
BRANCH   3   4
ATOM      4  C   UNL A   1      31.802  27.562  26.893  1.00  0.00     0.312 C 
ATOM      5  O   UNL A   1      31.360  27.801  28.011  1.00  0.00    -0.252 OA
BRANCH   4   6
ATOM      6  C   UNL A   1      31.502  26.289  26.133  1.00  0.00     0.198 C 
BRANCH   6   7
ATOM      7  C   UNL A   1      31.552  26.259  24.589  1.00  0.00     0.286 C 
BRANCH   7   8
ATOM      8  N   UNL A   1      31.364  27.559  23.886  1.00  0.00    -0.332 N 
ATOM      9  H   UNL A   1      32.235  27.789  23.407  1.00  0.00     0.347 HD
ATOM     10  H   UNL A   1      31.109  28.240  24.602  1.00  0.00     0.347 HD
BRANCH   8  11
ATOM     11  C   UNL A   1      30.285  27.570  22.901  1.00  0.00     0.297 C 
BRANCH  11  12
ATOM     12  C   UNL A   1      29.410  28.798  23.023  1.00  0.00     0.006 A 
ATOM     13  C   UNL A   1      29.935  30.037  23.432  1.00  0.00     0.009 A 
ATOM     14  C   UNL A   1      28.029  28.676  22.835  1.00  0.00     0.009 A 
ATOM     15  C   UNL A   1      29.084  31.102  23.725  1.00  0.00     0.001 A 
ATOM     16  C   UNL A   1      27.183  29.748  23.110  1.00  0.00     0.001 A 
ATOM     17  C   UNL A   1      27.708  30.953  23.572  1.00  0.00     0.000 A 
ENDBRANCH  11  12
ENDBRANCH   8  11
ENDBRANCH   7   8
BRANCH   7  18
ATOM     18  C   UNL A   1      32.899  25.601  24.167  1.00  0.00     0.307 C 
ATOM     19  O   UNL A   1      33.964  26.172  24.395  1.00  0.00    -0.265 OA
BRANCH  18  20
ATOM     20  N   UNL A   1      32.826  24.372  23.549  1.00  0.00    -0.180 NA
ATOM     21  C   UNL A   1      33.128  23.321  24.236  1.00  0.00     0.190 A 
ATOM     22  N   UNL A   1      33.096  22.029  23.770  1.00  0.00    -0.330 N 
ATOM     23  S   UNL A   1      33.693  23.251  25.929  1.00  0.00    -0.105 S 
ATOM     24  C   UNL A   1      33.583  21.043  24.612  1.00  0.00     0.058 A 
ATOM     25  H   UNL A   1      32.743  21.813  22.877  1.00  0.00     0.169 HD
ATOM     26  C   UNL A   1      34.012  21.540  25.788  1.00  0.00     0.095 A 
BRANCH  24  27
ATOM     27  C   UNL A   1      33.561  19.609  24.258  1.00  0.00    -0.001 A 
ATOM     28  C   UNL A   1      34.590  18.729  24.630  1.00  0.00     0.010 A 
ATOM     29  C   UNL A   1      32.528  19.094  23.451  1.00  0.00     0.010 A 
ATOM     30  C   UNL A   1      34.601  17.402  24.180  1.00  0.00     0.001 A 
ATOM     31  C   UNL A   1      32.532  17.768  23.012  1.00  0.00     0.001 A 
ATOM     32  C   UNL A   1      33.577  16.925  23.366  1.00  0.00     0.000 A 
ENDBRANCH  24  27
ENDBRANCH  18  20
ENDBRANCH   7  18
ENDBRANCH   6   7
ENDBRANCH   4   6
ENDBRANCH   3   4
ENDBRANCH   2   3
ENDBRANCH   1   2
BRANCH   1  33
ATOM     33  O   UNL A   1      33.001  30.841  27.655  1.00  0.00    -0.374 OA
BRANCH  33  34
ATOM     34  C   UNL A   1      32.460  31.780  26.728  1.00  0.00     0.202 C 
BRANCH  34  35
ATOM     35  C   UNL A   1      31.945  33.055  27.386  1.00  0.00     0.261 C 
BRANCH  35  36
ATOM     36  O   UNL A   1      33.041  33.958  27.576  1.00  0.00    -0.460 OA
BRANCH  36  37
ATOM     37  C   UNL A   1      33.286  34.361  28.842  1.00  0.00     0.338 C 
ATOM     38  O   UNL A   1      32.556  34.992  29.585  1.00  0.00    -0.246 OA
BRANCH  37  39
ATOM     39  C   UNL A   1      34.522  33.676  29.272  1.00  0.00     0.060 A 
ATOM     40  C   UNL A   1      34.429  32.581  30.145  1.00  0.00     0.016 A 
ATOM     41  C   UNL A   1      35.759  34.088  28.773  1.00  0.00     0.016 A 
ATOM     42  C   UNL A   1      35.583  31.914  30.551  1.00  0.00     0.010 A 
ATOM     43  C   UNL A   1      36.909  33.430  29.180  1.00  0.00     0.010 A 
ATOM     44  C   UNL A   1      36.826  32.368  30.097  1.00  0.00    -0.014 A 
BRANCH  44  45
ATOM     45  C   UNL A   1      38.082  31.921  30.727  1.00  0.00     0.031 A 
ATOM     46  C   UNL A   1      38.853  30.844  30.027  1.00  0.00     0.074 A 
ATOM     47  C   UNL A   1      38.441  32.368  31.939  1.00  0.00     0.049 A 
ATOM     48  N   UNL A   1      39.827  30.097  30.469  1.00  0.00    -0.248 NA
ATOM     49  C   UNL A   1      38.436  30.547  28.647  1.00  0.00     0.031 C 
ATOM     50  C   UNL A   1      37.761  33.422  32.688  1.00  0.00     0.029 A 
ATOM     51  N   UNL A   1      39.443  31.946  32.771  1.00  0.00    -0.354 N 
ATOM     52  C   UNL A   1      40.115  29.216  29.434  1.00  0.00     0.074 A 
ATOM     53  C   UNL A   1      39.197  29.505  28.356  1.00  0.00     0.031 C 
ATOM     54  C   UNL A   1      38.340  33.536  33.895  1.00  0.00     0.029 A 
ATOM     55  C   UNL A   1      39.398  32.533  34.011  1.00  0.00     0.049 A 
ATOM     56  H   UNL A   1      40.127  31.289  32.507  1.00  0.00     0.167 HD
ATOM     57  C   UNL A   1      41.060  28.250  29.396  1.00  0.00     0.037 A 
ATOM     58  C   UNL A   1      40.102  32.251  35.123  1.00  0.00     0.037 A 
ATOM     59  C   UNL A   1      41.954  27.976  30.489  1.00  0.00     0.049 A 
ATOM     60  C   UNL A   1      41.127  31.150  35.079  1.00  0.00     0.074 A 
ATOM     61  C   UNL A   1      42.980  27.053  30.556  1.00  0.00     0.029 A 
ATOM     62  N   UNL A   1      41.911  28.623  31.717  1.00  0.00    -0.354 N 
ATOM     63  N   UNL A   1      41.429  30.343  34.088  1.00  0.00    -0.248 NA
ATOM     64  C   UNL A   1      41.911  30.922  36.299  1.00  0.00     0.031 C 
ATOM     65  C   UNL A   1      43.522  27.102  31.845  1.00  0.00     0.029 A 
ATOM     66  C   UNL A   1      42.876  28.102  32.560  1.00  0.00     0.049 A 
ATOM     67  H   UNL A   1      41.285  29.346  31.954  1.00  0.00     0.167 HD
ATOM     68  C   UNL A   1      42.458  29.533  34.553  1.00  0.00     0.074 A 
ATOM     69  C   UNL A   1      42.727  29.949  35.916  1.00  0.00     0.031 C 
ATOM     70  C   UNL A   1      43.128  28.543  33.910  1.00  0.00     0.037 A 
BRANCH  57  71
ATOM     71  C   UNL A   1      41.128  27.405  28.157  1.00  0.00     0.057 A 
ATOM     72  C   UNL A   1      41.929  27.751  27.059  1.00  0.00     0.134 A 
ATOM     73  C   UNL A   1      40.355  26.242  28.047  1.00  0.00     0.134 A 
ATOM     74  F   UNL A   1      42.677  28.864  27.088  1.00  0.00    -0.206 F 
ATOM     75  C   UNL A   1      41.925  26.997  25.884  1.00  0.00     0.040 A 
ATOM     76  C   UNL A   1      40.369  25.460  26.890  1.00  0.00     0.040 A 
ATOM     77  F   UNL A   1      39.565  25.850  29.058  1.00  0.00    -0.206 F 
ATOM     78  C   UNL A   1      41.145  25.844  25.800  1.00  0.00     0.006 A 
ENDBRANCH  57  71
BRANCH  58  79
ATOM     79  C   UNL A   1      39.845  33.024  36.364  1.00  0.00     0.057 A 
ATOM     80  C   UNL A   1      40.561  34.192  36.645  1.00  0.00     0.134 A 
ATOM     81  C   UNL A   1      38.847  32.643  37.269  1.00  0.00     0.134 A 
ATOM     82  F   UNL A   1      41.539  34.599  35.823  1.00  0.00    -0.206 F 
ATOM     83  C   UNL A   1      40.295  34.954  37.784  1.00  0.00     0.040 A 
ATOM     84  C   UNL A   1      38.556  33.407  38.400  1.00  0.00     0.040 A 
ATOM     85  F   UNL A   1      38.120  31.537  37.050  1.00  0.00    -0.206 F 
ATOM     86  C   UNL A   1      39.283  34.567  38.661  1.00  0.00     0.006 A 
ENDBRANCH  58  79
BRANCH  70  87
ATOM     87  C   UNL A   1      44.252  27.876  34.647  1.00  0.00     0.057 A 
ATOM     88  C   UNL A   1      44.064  26.702  35.387  1.00  0.00     0.134 A 
ATOM     89  C   UNL A   1      45.556  28.377  34.545  1.00  0.00     0.134 A 
ATOM     90  F   UNL A   1      42.838  26.178  35.531  1.00  0.00    -0.206 F 
ATOM     91  C   UNL A   1      45.133  26.057  36.009  1.00  0.00     0.040 A 
ATOM     92  C   UNL A   1      46.637  27.726  35.139  1.00  0.00     0.040 A 
ATOM     93  F   UNL A   1      45.804  29.492  33.841  1.00  0.00    -0.206 F 
ATOM     94  C   UNL A   1      46.426  26.563  35.877  1.00  0.00     0.006 A 
ENDBRANCH  70  87
ENDBRANCH  44  45
ENDBRANCH  37  39
ENDBRANCH  36  37
ENDBRANCH  35  36
ENDBRANCH  34  35
ENDBRANCH  33  34
ENDBRANCH   1  33
TORSDOF 21
ENDMDL
MODEL 3
REMARK VINA RESULT:     -11.3      2.193      3.973
REMARK SMILES O=C(C[C@@H]([NH2+]Cc1ccccc1)C(=O)/N=c1/[nH]c(-c2ccccc2)cs1)OCCOCCOC(=O)c1ccc(-c2c3nc(c(-c4c(F)cccc4F)c4ccc([nH]4)c(-c4c(F)cccc4F)c4nc(c(-c5c(F)cccc5F)c5ccc2[nH]5)C=C4)C=C3)cc1
REMARK SMILES IDX 29 1 28 2 27 3 2 4 1 5 3 6 4 7 5 8 6 11 7 12 8 13 12 14 9 15
REMARK SMILES IDX 11 16 10 17 13 18 14 19 15 20 16 21 17 22 26 23 18 24 25 26
REMARK SMILES IDX 19 27 20 28 24 29 21 30 23 31 22 32 30 33 31 34 32 35 33 36
REMARK SMILES IDX 34 37 35 38 36 39 37 40 89 41 38 42 88 43 39 44 40 45 41 46
REMARK SMILES IDX 82 47 42 48 87 49 81 50 83 51 43 52 86 53 80 54 79 55 44 57
REMARK SMILES IDX 70 58 53 59 69 60 54 61 57 62 68 63 84 64 55 65 56 66 67 68
REMARK SMILES IDX 85 69 58 70 45 71 46 72 51 73 47 74 48 75 50 76 52 77 49 78
REMARK SMILES IDX 71 79 72 80 77 81 73 82 74 83 76 84 78 85 75 86 59 87 60 88
REMARK SMILES IDX 65 89 61 90 62 91 64 92 66 93 63 94
REMARK H PARENT 5 9 5 10 17 25 83 56 57 67
REMARK Flexibility Score: inf
ROOT
ATOM      1  C   UNL A   1      33.567  29.034  23.325  1.00  0.00     0.202 C 
ENDROOT
BRANCH   1   2
ATOM      2  C   UNL A   1      33.540  28.126  22.089  1.00  0.00     0.261 C 
BRANCH   2   3
ATOM      3  O   UNL A   1      33.696  26.734  22.423  1.00  0.00    -0.463 OA
BRANCH   3   4
ATOM      4  C   UNL A   1      32.909  25.868  21.745  1.00  0.00     0.312 C 
ATOM      5  O   UNL A   1      33.096  25.595  20.565  1.00  0.00    -0.252 OA
BRANCH   4   6
ATOM      6  C   UNL A   1      31.723  25.365  22.538  1.00  0.00     0.198 C 
BRANCH   6   7
ATOM      7  C   UNL A   1      31.498  25.819  23.998  1.00  0.00     0.286 C 
BRANCH   7   8
ATOM      8  N   UNL A   1      30.701  27.060  24.199  1.00  0.00    -0.332 N 
ATOM      9  H   UNL A   1      31.328  27.860  24.103  1.00  0.00     0.347 HD
ATOM     10  H   UNL A   1      30.284  26.988  25.128  1.00  0.00     0.347 HD
BRANCH   8  11
ATOM     11  C   UNL A   1      29.593  27.235  23.261  1.00  0.00     0.297 C 
BRANCH  11  12
ATOM     12  C   UNL A   1      29.092  28.661  23.225  1.00  0.00     0.006 A 
ATOM     13  C   UNL A   1      29.915  29.740  23.593  1.00  0.00     0.009 A 
ATOM     14  C   UNL A   1      27.747  28.906  22.926  1.00  0.00     0.009 A 
ATOM     15  C   UNL A   1      29.380  31.019  23.740  1.00  0.00     0.001 A 
ATOM     16  C   UNL A   1      27.219  30.189  23.054  1.00  0.00     0.001 A 
ATOM     17  C   UNL A   1      28.030  31.240  23.478  1.00  0.00     0.000 A 
ENDBRANCH  11  12
ENDBRANCH   8  11
ENDBRANCH   7   8
BRANCH   7  18
ATOM     18  C   UNL A   1      30.860  24.629  24.775  1.00  0.00     0.307 C 
ATOM     19  O   UNL A   1      30.307  24.824  25.857  1.00  0.00    -0.265 OA
BRANCH  18  20
ATOM     20  N   UNL A   1      30.943  23.385  24.190  1.00  0.00    -0.180 NA
ATOM     21  C   UNL A   1      31.834  22.560  24.629  1.00  0.00     0.190 A 
ATOM     22  N   UNL A   1      32.037  21.284  24.161  1.00  0.00    -0.330 N 
ATOM     23  S   UNL A   1      33.048  22.845  25.907  1.00  0.00    -0.105 S 
ATOM     24  C   UNL A   1      33.128  20.595  24.662  1.00  0.00     0.058 A 
ATOM     25  H   UNL A   1      31.433  20.877  23.498  1.00  0.00     0.169 HD
ATOM     26  C   UNL A   1      33.824  21.319  25.561  1.00  0.00     0.095 A 
BRANCH  24  27
ATOM     27  C   UNL A   1      33.434  19.200  24.285  1.00  0.00    -0.001 A 
ATOM     28  C   UNL A   1      34.554  18.516  24.784  1.00  0.00     0.010 A 
ATOM     29  C   UNL A   1      32.641  18.534  23.330  1.00  0.00     0.010 A 
ATOM     30  C   UNL A   1      34.884  17.236  24.318  1.00  0.00     0.001 A 
ATOM     31  C   UNL A   1      32.962  17.254  22.873  1.00  0.00     0.001 A 
ATOM     32  C   UNL A   1      34.093  16.610  23.358  1.00  0.00     0.000 A 
ENDBRANCH  24  27
ENDBRANCH  18  20
ENDBRANCH   7  18
ENDBRANCH   6   7
ENDBRANCH   4   6
ENDBRANCH   3   4
ENDBRANCH   2   3
ENDBRANCH   1   2
BRANCH   1  33
ATOM     33  O   UNL A   1      34.006  28.434  24.536  1.00  0.00    -0.374 OA
BRANCH  33  34
ATOM     34  C   UNL A   1      33.270  28.676  25.733  1.00  0.00     0.202 C 
BRANCH  34  35
ATOM     35  C   UNL A   1      32.768  30.110  25.856  1.00  0.00     0.261 C 
BRANCH  35  36
ATOM     36  O   UNL A   1      32.816  30.505  27.233  1.00  0.00    -0.460 OA
BRANCH  36  37
ATOM     37  C   UNL A   1      33.428  31.678  27.509  1.00  0.00     0.338 C 
ATOM     38  O   UNL A   1      32.936  32.792  27.542  1.00  0.00    -0.246 OA
BRANCH  37  39
ATOM     39  C   UNL A   1      34.773  31.345  28.018  1.00  0.00     0.060 A 
ATOM     40  C   UNL A   1      35.043  30.029  28.427  1.00  0.00     0.016 A 
ATOM     41  C   UNL A   1      35.773  32.319  28.043  1.00  0.00     0.016 A 
ATOM     42  C   UNL A   1      36.310  29.692  28.898  1.00  0.00     0.010 A 
ATOM     43  C   UNL A   1      37.033  31.987  28.516  1.00  0.00     0.010 A 
ATOM     44  C   UNL A   1      37.292  30.685  28.979  1.00  0.00    -0.014 A 
BRANCH  44  45
ATOM     45  C   UNL A   1      38.530  30.478  29.751  1.00  0.00     0.031 A 
ATOM     46  C   UNL A   1      39.533  29.516  29.192  1.00  0.00     0.074 A 
ATOM     47  C   UNL A   1      38.684  31.028  30.965  1.00  0.00     0.049 A 
ATOM     48  N   UNL A   1      40.563  28.958  29.769  1.00  0.00    -0.248 NA
ATOM     49  C   UNL A   1      39.316  29.098  27.798  1.00  0.00     0.031 C 
ATOM     50  C   UNL A   1      37.769  31.985  31.583  1.00  0.00     0.029 A 
ATOM     51  N   UNL A   1      39.648  30.812  31.913  1.00  0.00    -0.354 N 
ATOM     52  C   UNL A   1      41.094  28.095  28.819  1.00  0.00     0.074 A 
ATOM     53  C   UNL A   1      40.260  28.184  27.642  1.00  0.00     0.031 C 
ATOM     54  C   UNL A   1      38.193  32.242  32.832  1.00  0.00     0.029 A 
ATOM     55  C   UNL A   1      39.380  31.434  33.106  1.00  0.00     0.049 A 
ATOM     56  H   UNL A   1      40.453  30.267  31.754  1.00  0.00     0.167 HD
ATOM     57  C   UNL A   1      42.181  27.298  28.928  1.00  0.00     0.037 A 
ATOM     58  C   UNL A   1      40.000  31.317  34.296  1.00  0.00     0.037 A 
ATOM     59  C   UNL A   1      42.988  27.221  30.116  1.00  0.00     0.049 A 
ATOM     60  C   UNL A   1      41.187  30.401  34.414  1.00  0.00     0.074 A 
ATOM     61  C   UNL A   1      44.136  26.484  30.335  1.00  0.00     0.029 A 
ATOM     62  N   UNL A   1      42.714  27.902  31.295  1.00  0.00    -0.354 N 
ATOM     63  N   UNL A   1      41.716  29.614  33.506  1.00  0.00    -0.248 NA
ATOM     64  C   UNL A   1      41.865  30.356  35.716  1.00  0.00     0.031 C 
ATOM     65  C   UNL A   1      44.525  26.675  31.666  1.00  0.00     0.029 A 
ATOM     66  C   UNL A   1      43.656  27.583  32.256  1.00  0.00     0.049 A 
ATOM     67  H   UNL A   1      41.959  28.521  31.428  1.00  0.00     0.167 HD
ATOM     68  C   UNL A   1      42.807  29.006  34.113  1.00  0.00     0.074 A 
ATOM     69  C   UNL A   1      42.862  29.516  35.470  1.00  0.00     0.031 C 
ATOM     70  C   UNL A   1      43.691  28.115  33.596  1.00  0.00     0.037 A 
BRANCH  57  71
ATOM     71  C   UNL A   1      42.512  26.426  27.752  1.00  0.00     0.057 A 
ATOM     72  C   UNL A   1      43.334  26.865  26.704  1.00  0.00     0.134 A 
ATOM     73  C   UNL A   1      41.976  25.136  27.650  1.00  0.00     0.134 A 
ATOM     74  F   UNL A   1      43.864  28.098  26.726  1.00  0.00    -0.206 F 
ATOM     75  C   UNL A   1      43.574  26.072  25.581  1.00  0.00     0.040 A 
ATOM     76  C   UNL A   1      42.236  24.320  26.548  1.00  0.00     0.040 A 
ATOM     77  F   UNL A   1      41.180  24.650  28.616  1.00  0.00    -0.206 F 
ATOM     78  C   UNL A   1      43.026  24.792  25.503  1.00  0.00     0.006 A 
ENDBRANCH  57  71
BRANCH  58  79
ATOM     79  C   UNL A   1      39.494  32.088  35.459  1.00  0.00     0.057 A 
ATOM     80  C   UNL A   1      38.587  31.519  36.360  1.00  0.00     0.134 A 
ATOM     81  C   UNL A   1      39.941  33.387  35.726  1.00  0.00     0.134 A 
ATOM     82  F   UNL A   1      38.111  30.283  36.148  1.00  0.00    -0.206 F 
ATOM     83  C   UNL A   1      38.142  32.216  37.484  1.00  0.00     0.040 A 
ATOM     84  C   UNL A   1      39.521  34.087  36.858  1.00  0.00     0.040 A 
ATOM     85  F   UNL A   1      40.818  33.984  34.904  1.00  0.00    -0.206 F 
ATOM     86  C   UNL A   1      38.617  33.500  37.741  1.00  0.00     0.006 A 
ENDBRANCH  58  79
BRANCH  70  87
ATOM     87  C   UNL A   1      44.824  27.673  34.475  1.00  0.00     0.057 A 
ATOM     88  C   UNL A   1      44.763  26.498  35.235  1.00  0.00     0.134 A 
ATOM     89  C   UNL A   1      46.022  28.398  34.497  1.00  0.00     0.134 A 
ATOM     90  F   UNL A   1      43.640  25.765  35.265  1.00  0.00    -0.206 F 
ATOM     91  C   UNL A   1      45.852  26.066  35.993  1.00  0.00     0.040 A 
ATOM     92  C   UNL A   1      47.127  27.962  35.229  1.00  0.00     0.040 A 
ATOM     93  F   UNL A   1      46.149  29.526  33.782  1.00  0.00    -0.206 F 
ATOM     94  C   UNL A   1      47.041  26.793  35.983  1.00  0.00     0.006 A 
ENDBRANCH  70  87
ENDBRANCH  44  45
ENDBRANCH  37  39
ENDBRANCH  36  37
ENDBRANCH  35  36
ENDBRANCH  34  35
ENDBRANCH  33  34
ENDBRANCH   1  33
TORSDOF 21
ENDMDL
