MODEL 1
REMARK VINA RESULT:     -11.0      0.000      0.000
REMARK SMILES Cc1cc(C)n2ncc(C(=O)N(C)CCCC(=O)OCCOCCOC(=O)c3ccc(-c4c5nc(c(-c6c(F)cccc6F)c6ccc([nH]6)c(-c6c(F)cccc6F)c6nc(c(-c7c(F)cccc7F)c7ccc4[nH]7)C=C6)C=C5)cc3)c2n1
REMARK SMILES IDX 20 1 19 2 17 3 18 4 16 5 15 6 14 7 12 8 13 9 10 10 11 11
REMARK SMILES IDX 9 12 1 13 2 14 3 15 83 16 4 17 82 18 5 19 6 20 7 21 8 22
REMARK SMILES IDX 21 23 22 24 23 25 24 26 25 27 26 28 27 29 28 30 29 31 81 32
REMARK SMILES IDX 30 33 80 34 31 35 32 36 33 37 74 38 34 39 79 40 73 41 75 42
REMARK SMILES IDX 35 43 78 44 72 45 71 46 36 48 62 49 45 50 61 51 46 52 49 53
REMARK SMILES IDX 60 54 76 55 47 56 48 57 59 59 77 60 50 61 37 62 38 63 43 64
REMARK SMILES IDX 39 65 40 66 42 67 44 68 41 69 63 70 64 71 69 72 65 73 66 74
REMARK SMILES IDX 68 75 70 76 67 77 51 78 52 79 57 80 53 81 54 82 56 83 58 84
REMARK SMILES IDX 55 85
REMARK H PARENT 75 47 49 58
REMARK Flexibility Score: inf
ROOT
ATOM      1  C   UNL A   1      39.525  21.818  26.076  1.00  0.00     0.261 C 
ENDROOT
BRANCH   1   2
ATOM      2  O   UNL A   1      38.143  21.608  25.764  1.00  0.00    -0.463 OA
BRANCH   2   3
ATOM      3  C   UNL A   1      37.400  22.721  25.543  1.00  0.00     0.305 C 
ATOM      4  O   UNL A   1      37.465  23.754  26.199  1.00  0.00    -0.252 OA
BRANCH   3   5
ATOM      5  C   UNL A   1      36.517  22.603  24.319  1.00  0.00     0.124 C 
BRANCH   5   6
ATOM      6  C   UNL A   1      35.053  22.187  24.497  1.00  0.00     0.033 C 
BRANCH   6   7
ATOM      7  C   UNL A   1      34.017  23.283  24.785  1.00  0.00     0.120 C 
BRANCH   7   8
ATOM      8  N   UNL A   1      32.923  22.872  25.667  1.00  0.00    -0.342 N 
ATOM      9  C   UNL A   1      33.004  21.500  26.134  1.00  0.00     0.147 C 
BRANCH   8  10
ATOM     10  C   UNL A   1      32.087  23.889  26.157  1.00  0.00     0.259 C 
ATOM     11  O   UNL A   1      31.789  23.883  27.352  1.00  0.00    -0.269 OA
BRANCH  10  12
ATOM     12  C   UNL A   1      31.614  24.987  25.322  1.00  0.00     0.104 A 
ATOM     13  C   UNL A   1      34.159  28.780  27.191  1.00  0.00     0.067 C 
ATOM     14  C   UNL A   1      33.128  28.145  26.291  1.00  0.00     0.042 A 
ATOM     15  C   UNL A   1      32.266  29.070  25.492  1.00  0.00     0.047 A 
ATOM     16  N   UNL A   1      33.032  26.847  26.276  1.00  0.00    -0.233 NA
ATOM     17  C   UNL A   1      31.370  28.492  24.673  1.00  0.00     0.043 A 
ATOM     18  C   UNL A   1      32.066  26.298  25.471  1.00  0.00     0.168 A 
ATOM     19  C   UNL A   1      30.421  29.276  23.822  1.00  0.00     0.067 C 
ATOM     20  N   UNL A   1      31.281  27.094  24.635  1.00  0.00    -0.219 N 
ATOM     21  N   UNL A   1      30.458  26.340  23.868  1.00  0.00    -0.174 NA
ATOM     22  C   UNL A   1      30.641  25.097  24.312  1.00  0.00     0.151 A 
ENDBRANCH  10  12
ENDBRANCH   8  10
ENDBRANCH   7   8
ENDBRANCH   6   7
ENDBRANCH   5   6
ENDBRANCH   3   5
ENDBRANCH   2   3
ENDBRANCH   1   2
BRANCH   1  23
ATOM     23  C   UNL A   1      40.282  20.493  26.069  1.00  0.00     0.202 C 
BRANCH  23  24
ATOM     24  O   UNL A   1      41.676  20.539  26.381  1.00  0.00    -0.374 OA
BRANCH  24  25
ATOM     25  C   UNL A   1      42.340  19.349  26.791  1.00  0.00     0.202 C 
BRANCH  25  26
ATOM     26  C   UNL A   1      43.206  18.636  25.762  1.00  0.00     0.261 C 
BRANCH  26  27
ATOM     27  O   UNL A   1      43.477  19.427  24.610  1.00  0.00    -0.460 OA
BRANCH  27  28
ATOM     28  C   UNL A   1      44.780  19.741  24.461  1.00  0.00     0.338 C 
ATOM     29  O   UNL A   1      45.722  18.956  24.353  1.00  0.00    -0.246 OA
BRANCH  28  30
ATOM     30  C   UNL A   1      44.964  21.179  24.659  1.00  0.00     0.060 A 
ATOM     31  C   UNL A   1      45.727  21.545  25.766  1.00  0.00     0.016 A 
ATOM     32  C   UNL A   1      44.145  22.101  23.988  1.00  0.00     0.016 A 
ATOM     33  C   UNL A   1      45.475  22.763  26.348  1.00  0.00     0.010 A 
ATOM     34  C   UNL A   1      43.906  23.329  24.562  1.00  0.00     0.010 A 
ATOM     35  C   UNL A   1      44.498  23.601  25.788  1.00  0.00    -0.014 A 
BRANCH  35  36
ATOM     36  C   UNL A   1      44.207  24.829  26.494  1.00  0.00     0.031 A 
ATOM     37  C   UNL A   1      45.319  25.795  26.393  1.00  0.00     0.074 A 
ATOM     38  C   UNL A   1      43.072  25.062  27.177  1.00  0.00     0.049 A 
ATOM     39  N   UNL A   1      46.175  26.081  27.313  1.00  0.00    -0.248 NA
ATOM     40  C   UNL A   1      45.644  26.329  25.065  1.00  0.00     0.031 C 
ATOM     41  C   UNL A   1      41.820  24.304  27.190  1.00  0.00     0.029 A 
ATOM     42  N   UNL A   1      42.805  26.106  28.008  1.00  0.00    -0.354 N 
ATOM     43  C   UNL A   1      47.044  26.995  26.737  1.00  0.00     0.074 A 
ATOM     44  C   UNL A   1      46.783  26.973  25.322  1.00  0.00     0.031 C 
ATOM     45  C   UNL A   1      40.864  25.028  27.823  1.00  0.00     0.029 A 
ATOM     46  C   UNL A   1      41.474  26.219  28.389  1.00  0.00     0.049 A 
ATOM     47  H   UNL A   1      43.501  26.732  28.314  1.00  0.00     0.167 HD
ATOM     48  C   UNL A   1      47.725  27.878  27.513  1.00  0.00     0.037 A 
ATOM     49  C   UNL A   1      40.936  27.247  29.096  1.00  0.00     0.037 A 
ATOM     50  C   UNL A   1      47.792  27.426  28.881  1.00  0.00     0.049 A 
ATOM     51  C   UNL A   1      42.050  27.895  29.833  1.00  0.00     0.074 A 
ATOM     52  C   UNL A   1      48.347  26.334  29.520  1.00  0.00     0.029 A 
ATOM     53  N   UNL A   1      46.891  27.960  29.767  1.00  0.00    -0.354 N 
ATOM     54  N   UNL A   1      42.698  27.325  30.810  1.00  0.00    -0.248 NA
ATOM     55  C   UNL A   1      42.741  28.997  29.181  1.00  0.00     0.031 C 
ATOM     56  C   UNL A   1      47.427  26.001  30.557  1.00  0.00     0.029 A 
ATOM     57  C   UNL A   1      46.392  26.938  30.532  1.00  0.00     0.049 A 
ATOM     58  H   UNL A   1      46.646  28.911  29.842  1.00  0.00     0.167 HD
ATOM     59  C   UNL A   1      44.020  27.697  30.620  1.00  0.00     0.074 A 
ATOM     60  C   UNL A   1      43.974  28.790  29.653  1.00  0.00     0.031 C 
ATOM     61  C   UNL A   1      45.043  26.899  31.047  1.00  0.00     0.037 A 
BRANCH  48  62
ATOM     62  C   UNL A   1      47.943  29.315  27.118  1.00  0.00     0.057 A 
ATOM     63  C   UNL A   1      49.239  29.853  27.192  1.00  0.00     0.134 A 
ATOM     64  C   UNL A   1      46.909  30.262  26.961  1.00  0.00     0.134 A 
ATOM     65  F   UNL A   1      50.306  29.057  27.364  1.00  0.00    -0.206 F 
ATOM     66  C   UNL A   1      49.478  31.231  27.185  1.00  0.00     0.040 A 
ATOM     67  C   UNL A   1      47.141  31.637  26.899  1.00  0.00     0.040 A 
ATOM     68  F   UNL A   1      45.613  29.929  26.963  1.00  0.00    -0.206 F 
ATOM     69  C   UNL A   1      48.427  32.129  27.044  1.00  0.00     0.006 A 
ENDBRANCH  48  62
BRANCH  49  70
ATOM     70  C   UNL A   1      39.638  27.932  28.889  1.00  0.00     0.057 A 
ATOM     71  C   UNL A   1      38.696  28.018  29.928  1.00  0.00     0.134 A 
ATOM     72  C   UNL A   1      39.420  28.783  27.792  1.00  0.00     0.134 A 
ATOM     73  F   UNL A   1      38.835  27.276  31.036  1.00  0.00    -0.206 F 
ATOM     74  C   UNL A   1      37.627  28.925  29.896  1.00  0.00     0.040 A 
ATOM     75  C   UNL A   1      38.355  29.691  27.747  1.00  0.00     0.040 A 
ATOM     76  F   UNL A   1      40.287  28.832  26.771  1.00  0.00    -0.206 F 
ATOM     77  C   UNL A   1      37.464  29.777  28.810  1.00  0.00     0.006 A 
ENDBRANCH  49  70
BRANCH  61  78
ATOM     78  C   UNL A   1      44.702  25.736  31.940  1.00  0.00     0.057 A 
ATOM     79  C   UNL A   1      44.422  24.444  31.472  1.00  0.00     0.134 A 
ATOM     80  C   UNL A   1      44.848  25.891  33.322  1.00  0.00     0.134 A 
ATOM     81  F   UNL A   1      44.342  24.183  30.160  1.00  0.00    -0.206 F 
ATOM     82  C   UNL A   1      44.282  23.358  32.344  1.00  0.00     0.040 A 
ATOM     83  C   UNL A   1      44.741  24.810  34.201  1.00  0.00     0.040 A 
ATOM     84  F   UNL A   1      45.162  27.090  33.838  1.00  0.00    -0.206 F 
ATOM     85  C   UNL A   1      44.455  23.538  33.713  1.00  0.00     0.006 A 
ENDBRANCH  61  78
ENDBRANCH  35  36
ENDBRANCH  28  30
ENDBRANCH  27  28
ENDBRANCH  26  27
ENDBRANCH  25  26
ENDBRANCH  24  25
ENDBRANCH  23  24
ENDBRANCH   1  23
TORSDOF 19
ENDMDL
MODEL 2
REMARK VINA RESULT:     -10.7      5.217     10.694
REMARK SMILES Cc1cc(C)n2ncc(C(=O)N(C)CCCC(=O)OCCOCCOC(=O)c3ccc(-c4c5nc(c(-c6c(F)cccc6F)c6ccc([nH]6)c(-c6c(F)cccc6F)c6nc(c(-c7c(F)cccc7F)c7ccc4[nH]7)C=C6)C=C5)cc3)c2n1
REMARK SMILES IDX 20 1 19 2 17 3 18 4 16 5 15 6 14 7 12 8 13 9 10 10 11 11
REMARK SMILES IDX 9 12 1 13 2 14 3 15 83 16 4 17 82 18 5 19 6 20 7 21 8 22
REMARK SMILES IDX 21 23 22 24 23 25 24 26 25 27 26 28 27 29 28 30 29 31 81 32
REMARK SMILES IDX 30 33 80 34 31 35 32 36 33 37 74 38 34 39 79 40 73 41 75 42
REMARK SMILES IDX 35 43 78 44 72 45 71 46 36 48 62 49 45 50 61 51 46 52 49 53
REMARK SMILES IDX 60 54 76 55 47 56 48 57 59 59 77 60 50 61 37 62 38 63 43 64
REMARK SMILES IDX 39 65 40 66 42 67 44 68 41 69 63 70 64 71 69 72 65 73 66 74
REMARK SMILES IDX 68 75 70 76 67 77 51 78 52 79 57 80 53 81 54 82 56 83 58 84
REMARK SMILES IDX 55 85
REMARK H PARENT 75 47 49 58
REMARK Flexibility Score: inf
ROOT
ATOM      1  C   UNL A   1      33.886  31.548  27.906  1.00  0.00     0.261 C 
ENDROOT
BRANCH   1   2
ATOM      2  O   UNL A   1      32.650  31.032  27.398  1.00  0.00    -0.463 OA
BRANCH   2   3
ATOM      3  C   UNL A   1      32.742  30.161  26.363  1.00  0.00     0.305 C 
ATOM      4  O   UNL A   1      31.982  30.123  25.402  1.00  0.00    -0.252 OA
BRANCH   3   5
ATOM      5  C   UNL A   1      33.961  29.268  26.455  1.00  0.00     0.124 C 
BRANCH   5   6
ATOM      6  C   UNL A   1      33.767  27.748  26.480  1.00  0.00     0.033 C 
BRANCH   6   7
ATOM      7  C   UNL A   1      33.475  27.031  25.154  1.00  0.00     0.120 C 
BRANCH   7   8
ATOM      8  N   UNL A   1      32.413  26.027  25.224  1.00  0.00    -0.342 N 
ATOM      9  C   UNL A   1      31.244  26.433  25.983  1.00  0.00     0.147 C 
BRANCH   8  10
ATOM     10  C   UNL A   1      32.526  24.922  24.363  1.00  0.00     0.259 C 
ATOM     11  O   UNL A   1      32.859  25.117  23.194  1.00  0.00    -0.269 OA
BRANCH  10  12
ATOM     12  C   UNL A   1      32.330  23.550  24.817  1.00  0.00     0.104 A 
ATOM     13  C   UNL A   1      36.902  21.740  24.396  1.00  0.00     0.067 C 
ATOM     14  C   UNL A   1      35.421  21.645  24.668  1.00  0.00     0.042 A 
ATOM     15  C   UNL A   1      34.862  20.277  24.898  1.00  0.00     0.047 A 
ATOM     16  N   UNL A   1      34.718  22.740  24.664  1.00  0.00    -0.233 NA
ATOM     17  C   UNL A   1      33.546  20.208  25.166  1.00  0.00     0.043 A 
ATOM     18  C   UNL A   1      33.369  22.622  24.885  1.00  0.00     0.168 A 
ATOM     19  C   UNL A   1      32.830  18.916  25.401  1.00  0.00     0.067 C 
ATOM     20  N   UNL A   1      32.790  21.388  25.189  1.00  0.00    -0.219 N 
ATOM     21  N   UNL A   1      31.469  21.518  25.454  1.00  0.00    -0.174 NA
ATOM     22  C   UNL A   1      31.204  22.797  25.194  1.00  0.00     0.151 A 
ENDBRANCH  10  12
ENDBRANCH   8  10
ENDBRANCH   7   8
ENDBRANCH   6   7
ENDBRANCH   5   6
ENDBRANCH   3   5
ENDBRANCH   2   3
ENDBRANCH   1   2
BRANCH   1  23
ATOM     23  C   UNL A   1      33.855  33.073  27.942  1.00  0.00     0.202 C 
BRANCH  23  24
ATOM     24  O   UNL A   1      33.825  33.693  29.229  1.00  0.00    -0.374 OA
BRANCH  24  25
ATOM     25  C   UNL A   1      33.984  35.104  29.329  1.00  0.00     0.202 C 
BRANCH  25  26
ATOM     26  C   UNL A   1      32.992  35.865  30.197  1.00  0.00     0.261 C 
BRANCH  26  27
ATOM     27  O   UNL A   1      32.601  35.149  31.364  1.00  0.00    -0.460 OA
BRANCH  27  28
ATOM     28  C   UNL A   1      33.114  35.652  32.506  1.00  0.00     0.338 C 
ATOM     29  O   UNL A   1      32.842  36.733  33.025  1.00  0.00    -0.246 OA
BRANCH  28  30
ATOM     30  C   UNL A   1      34.226  34.813  32.954  1.00  0.00     0.060 A 
ATOM     31  C   UNL A   1      35.485  35.412  32.929  1.00  0.00     0.016 A 
ATOM     32  C   UNL A   1      34.071  33.423  33.063  1.00  0.00     0.016 A 
ATOM     33  C   UNL A   1      36.580  34.601  32.757  1.00  0.00     0.010 A 
ATOM     34  C   UNL A   1      35.171  32.609  32.909  1.00  0.00     0.010 A 
ATOM     35  C   UNL A   1      36.396  33.213  32.657  1.00  0.00    -0.014 A 
BRANCH  35  36
ATOM     36  C   UNL A   1      37.571  32.415  32.383  1.00  0.00     0.031 A 
ATOM     37  C   UNL A   1      38.464  32.336  33.557  1.00  0.00     0.074 A 
ATOM     38  C   UNL A   1      37.834  31.831  31.201  1.00  0.00     0.049 A 
ATOM     39  N   UNL A   1      39.573  32.971  33.724  1.00  0.00    -0.248 NA
ATOM     40  C   UNL A   1      37.961  31.655  34.756  1.00  0.00     0.031 C 
ATOM     41  C   UNL A   1      36.964  31.646  30.039  1.00  0.00     0.029 A 
ATOM     42  N   UNL A   1      38.991  31.226  30.816  1.00  0.00    -0.354 N 
ATOM     43  C   UNL A   1      40.017  32.612  34.987  1.00  0.00     0.074 A 
ATOM     44  C   UNL A   1      38.914  31.954  35.638  1.00  0.00     0.031 C 
ATOM     45  C   UNL A   1      37.557  30.794  29.166  1.00  0.00     0.029 A 
ATOM     46  C   UNL A   1      38.902  30.503  29.634  1.00  0.00     0.049 A 
ATOM     47  H   UNL A   1      39.825  31.296  31.334  1.00  0.00     0.167 HD
ATOM     48  C   UNL A   1      41.340  32.660  35.289  1.00  0.00     0.037 A 
ATOM     49  C   UNL A   1      39.872  29.705  29.117  1.00  0.00     0.037 A 
ATOM     50  C   UNL A   1      42.051  33.528  34.382  1.00  0.00     0.049 A 
ATOM     51  C   UNL A   1      41.161  30.163  29.693  1.00  0.00     0.074 A 
ATOM     52  C   UNL A   1      42.001  34.876  34.083  1.00  0.00     0.029 A 
ATOM     53  N   UNL A   1      42.723  32.938  33.341  1.00  0.00    -0.354 N 
ATOM     54  N   UNL A   1      41.708  31.313  29.416  1.00  0.00    -0.248 NA
ATOM     55  C   UNL A   1      41.611  29.536  30.926  1.00  0.00     0.031 C 
ATOM     56  C   UNL A   1      42.231  34.956  32.678  1.00  0.00     0.029 A 
ATOM     57  C   UNL A   1      42.464  33.663  32.206  1.00  0.00     0.049 A 
ATOM     58  H   UNL A   1      43.291  32.136  33.398  1.00  0.00     0.167 HD
ATOM     59  C   UNL A   1      42.234  31.753  30.621  1.00  0.00     0.074 A 
ATOM     60  C   UNL A   1      42.216  30.582  31.495  1.00  0.00     0.031 C 
ATOM     61  C   UNL A   1      42.369  33.086  30.885  1.00  0.00     0.037 A 
BRANCH  48  62
ATOM     62  C   UNL A   1      42.030  31.608  36.117  1.00  0.00     0.057 A 
ATOM     63  C   UNL A   1      42.862  32.010  37.176  1.00  0.00     0.134 A 
ATOM     64  C   UNL A   1      42.151  30.253  35.741  1.00  0.00     0.134 A 
ATOM     65  F   UNL A   1      42.857  33.279  37.612  1.00  0.00    -0.206 F 
ATOM     66  C   UNL A   1      43.795  31.149  37.762  1.00  0.00     0.040 A 
ATOM     67  C   UNL A   1      43.041  29.371  36.355  1.00  0.00     0.040 A 
ATOM     68  F   UNL A   1      41.499  29.729  34.696  1.00  0.00    -0.206 F 
ATOM     69  C   UNL A   1      43.891  29.826  37.348  1.00  0.00     0.006 A 
ENDBRANCH  48  62
BRANCH  49  70
ATOM     70  C   UNL A   1      39.734  28.372  28.483  1.00  0.00     0.057 A 
ATOM     71  C   UNL A   1      40.291  28.114  27.220  1.00  0.00     0.134 A 
ATOM     72  C   UNL A   1      39.338  27.243  29.220  1.00  0.00     0.134 A 
ATOM     73  F   UNL A   1      40.736  29.121  26.453  1.00  0.00    -0.206 F 
ATOM     74  C   UNL A   1      40.483  26.811  26.737  1.00  0.00     0.040 A 
ATOM     75  C   UNL A   1      39.521  25.937  28.749  1.00  0.00     0.040 A 
ATOM     76  F   UNL A   1      38.851  27.363  30.464  1.00  0.00    -0.206 F 
ATOM     77  C   UNL A   1      40.111  25.717  27.510  1.00  0.00     0.006 A 
ENDBRANCH  49  70
BRANCH  61  78
ATOM     78  C   UNL A   1      42.165  34.052  29.748  1.00  0.00     0.057 A 
ATOM     79  C   UNL A   1      40.937  34.661  29.447  1.00  0.00     0.134 A 
ATOM     80  C   UNL A   1      43.289  34.519  29.059  1.00  0.00     0.134 A 
ATOM     81  F   UNL A   1      39.820  34.335  30.110  1.00  0.00    -0.206 F 
ATOM     82  C   UNL A   1      40.835  35.680  28.494  1.00  0.00     0.040 A 
ATOM     83  C   UNL A   1      43.205  35.557  28.127  1.00  0.00     0.040 A 
ATOM     84  F   UNL A   1      44.503  34.014  29.329  1.00  0.00    -0.206 F 
ATOM     85  C   UNL A   1      41.974  36.140  27.840  1.00  0.00     0.006 A 
ENDBRANCH  61  78
ENDBRANCH  35  36
ENDBRANCH  28  30
ENDBRANCH  27  28
ENDBRANCH  26  27
ENDBRANCH  25  26
ENDBRANCH  24  25
ENDBRANCH  23  24
ENDBRANCH   1  23
TORSDOF 19
ENDMDL
MODEL 3
REMARK VINA RESULT:     -10.3      1.234      2.057
REMARK SMILES Cc1cc(C)n2ncc(C(=O)N(C)CCCC(=O)OCCOCCOC(=O)c3ccc(-c4c5nc(c(-c6c(F)cccc6F)c6ccc([nH]6)c(-c6c(F)cccc6F)c6nc(c(-c7c(F)cccc7F)c7ccc4[nH]7)C=C6)C=C5)cc3)c2n1
REMARK SMILES IDX 20 1 19 2 17 3 18 4 16 5 15 6 14 7 12 8 13 9 10 10 11 11
REMARK SMILES IDX 9 12 1 13 2 14 3 15 83 16 4 17 82 18 5 19 6 20 7 21 8 22
REMARK SMILES IDX 21 23 22 24 23 25 24 26 25 27 26 28 27 29 28 30 29 31 81 32
REMARK SMILES IDX 30 33 80 34 31 35 32 36 33 37 74 38 34 39 79 40 73 41 75 42
REMARK SMILES IDX 35 43 78 44 72 45 71 46 36 48 62 49 45 50 61 51 46 52 49 53
REMARK SMILES IDX 60 54 76 55 47 56 48 57 59 59 77 60 50 61 37 62 38 63 43 64
REMARK SMILES IDX 39 65 40 66 42 67 44 68 41 69 63 70 64 71 69 72 65 73 66 74
REMARK SMILES IDX 68 75 70 76 67 77 51 78 52 79 57 80 53 81 54 82 56 83 58 84
REMARK SMILES IDX 55 85
REMARK H PARENT 75 47 49 58
REMARK Flexibility Score: inf
ROOT
ATOM      1  C   UNL A   1      39.995  21.853  26.169  1.00  0.00     0.261 C 
ENDROOT
BRANCH   1   2
ATOM      2  O   UNL A   1      38.606  21.842  25.817  1.00  0.00    -0.463 OA
BRANCH   2   3
ATOM      3  C   UNL A   1      37.969  23.038  25.846  1.00  0.00     0.305 C 
ATOM      4  O   UNL A   1      38.276  23.985  26.563  1.00  0.00    -0.252 OA
BRANCH   3   5
ATOM      5  C   UNL A   1      36.862  23.138  24.818  1.00  0.00     0.124 C 
BRANCH   5   6
ATOM      6  C   UNL A   1      36.110  21.866  24.412  1.00  0.00     0.033 C 
BRANCH   6   7
ATOM      7  C   UNL A   1      34.973  21.373  25.320  1.00  0.00     0.120 C 
BRANCH   7   8
ATOM      8  N   UNL A   1      33.861  20.735  24.613  1.00  0.00    -0.342 N 
ATOM      9  C   UNL A   1      33.853  19.285  24.682  1.00  0.00     0.147 C 
BRANCH   8  10
ATOM     10  C   UNL A   1      32.819  21.571  24.182  1.00  0.00     0.259 C 
ATOM     11  O   UNL A   1      32.254  21.311  23.120  1.00  0.00    -0.269 OA
BRANCH  10  12
ATOM     12  C   UNL A   1      32.336  22.696  24.975  1.00  0.00     0.104 A 
ATOM     13  C   UNL A   1      33.516  26.501  22.061  1.00  0.00     0.067 C 
ATOM     14  C   UNL A   1      32.999  25.867  23.329  1.00  0.00     0.042 A 
ATOM     15  C   UNL A   1      32.675  26.789  24.462  1.00  0.00     0.047 A 
ATOM     16  N   UNL A   1      32.887  24.572  23.375  1.00  0.00    -0.233 NA
ATOM     17  C   UNL A   1      32.190  26.215  25.577  1.00  0.00     0.043 A 
ATOM     18  C   UNL A   1      32.442  24.020  24.550  1.00  0.00     0.168 A 
ATOM     19  C   UNL A   1      31.835  26.994  26.804  1.00  0.00     0.067 C 
ATOM     20  N   UNL A   1      32.042  24.822  25.621  1.00  0.00    -0.219 N 
ATOM     21  N   UNL A   1      31.560  24.075  26.642  1.00  0.00    -0.174 NA
ATOM     22  C   UNL A   1      31.774  22.817  26.259  1.00  0.00     0.151 A 
ENDBRANCH  10  12
ENDBRANCH   8  10
ENDBRANCH   7   8
ENDBRANCH   6   7
ENDBRANCH   5   6
ENDBRANCH   3   5
ENDBRANCH   2   3
ENDBRANCH   1   2
BRANCH   1  23
ATOM     23  C   UNL A   1      40.503  20.431  26.385  1.00  0.00     0.202 C 
BRANCH  23  24
ATOM     24  O   UNL A   1      41.874  20.280  26.758  1.00  0.00    -0.374 OA
BRANCH  24  25
ATOM     25  C   UNL A   1      42.516  19.024  26.565  1.00  0.00     0.202 C 
BRANCH  25  26
ATOM     26  C   UNL A   1      43.407  18.870  25.341  1.00  0.00     0.261 C 
BRANCH  26  27
ATOM     27  O   UNL A   1      43.596  20.087  24.626  1.00  0.00    -0.460 OA
BRANCH  27  28
ATOM     28  C   UNL A   1      44.892  20.431  24.475  1.00  0.00     0.338 C 
ATOM     29  O   UNL A   1      45.845  19.669  24.316  1.00  0.00    -0.246 OA
BRANCH  28  30
ATOM     30  C   UNL A   1      45.053  21.861  24.740  1.00  0.00     0.060 A 
ATOM     31  C   UNL A   1      45.919  22.190  25.781  1.00  0.00     0.016 A 
ATOM     32  C   UNL A   1      44.140  22.789  24.215  1.00  0.00     0.016 A 
ATOM     33  C   UNL A   1      45.695  23.363  26.458  1.00  0.00     0.010 A 
ATOM     34  C   UNL A   1      43.927  23.974  24.884  1.00  0.00     0.010 A 
ATOM     35  C   UNL A   1      44.638  24.196  26.055  1.00  0.00    -0.014 A 
BRANCH  35  36
ATOM     36  C   UNL A   1      44.388  25.371  26.861  1.00  0.00     0.031 A 
ATOM     37  C   UNL A   1      45.552  26.279  26.881  1.00  0.00     0.074 A 
ATOM     38  C   UNL A   1      43.244  25.604  27.528  1.00  0.00     0.049 A 
ATOM     39  N   UNL A   1      46.390  26.434  27.848  1.00  0.00    -0.248 NA
ATOM     40  C   UNL A   1      45.950  26.911  25.617  1.00  0.00     0.031 C 
ATOM     41  C   UNL A   1      41.955  24.919  27.436  1.00  0.00     0.029 A 
ATOM     42  N   UNL A   1      43.004  26.584  28.442  1.00  0.00    -0.354 N 
ATOM     43  C   UNL A   1      47.325  27.347  27.383  1.00  0.00     0.074 A 
ATOM     44  C   UNL A   1      47.112  27.465  25.964  1.00  0.00     0.031 C 
ATOM     45  C   UNL A   1      41.017  25.636  28.104  1.00  0.00     0.029 A 
ATOM     46  C   UNL A   1      41.669  26.736  28.794  1.00  0.00     0.049 A 
ATOM     47  H   UNL A   1      43.721  27.141  28.825  1.00  0.00     0.167 HD
ATOM     48  C   UNL A   1      48.024  28.117  28.256  1.00  0.00     0.037 A 
ATOM     49  C   UNL A   1      41.162  27.724  29.574  1.00  0.00     0.037 A 
ATOM     50  C   UNL A   1      48.021  27.543  29.578  1.00  0.00     0.049 A 
ATOM     51  C   UNL A   1      42.282  28.242  30.400  1.00  0.00     0.074 A 
ATOM     52  C   UNL A   1      48.496  26.369  30.131  1.00  0.00     0.029 A 
ATOM     53  N   UNL A   1      47.119  28.045  30.482  1.00  0.00    -0.354 N 
ATOM     54  N   UNL A   1      42.866  27.553  31.340  1.00  0.00    -0.248 NA
ATOM     55  C   UNL A   1      43.052  29.358  29.871  1.00  0.00     0.031 C 
ATOM     56  C   UNL A   1      47.525  25.997  31.107  1.00  0.00     0.029 A 
ATOM     57  C   UNL A   1      46.542  26.988  31.136  1.00  0.00     0.049 A 
ATOM     58  H   UNL A   1      46.922  28.998  30.635  1.00  0.00     0.167 HD
ATOM     59  C   UNL A   1      44.211  27.866  31.223  1.00  0.00     0.074 A 
ATOM     60  C   UNL A   1      44.255  29.042  30.358  1.00  0.00     0.031 C 
ATOM     61  C   UNL A   1      45.175  26.978  31.605  1.00  0.00     0.037 A 
BRANCH  48  62
ATOM     62  C   UNL A   1      48.331  29.570  27.999  1.00  0.00     0.057 A 
ATOM     63  C   UNL A   1      47.273  30.452  27.719  1.00  0.00     0.134 A 
ATOM     64  C   UNL A   1      49.621  30.073  27.724  1.00  0.00     0.134 A 
ATOM     65  F   UNL A   1      45.999  30.083  27.918  1.00  0.00    -0.206 F 
ATOM     66  C   UNL A   1      47.481  31.707  27.139  1.00  0.00     0.040 A 
ATOM     67  C   UNL A   1      49.841  31.345  27.193  1.00  0.00     0.040 A 
ATOM     68  F   UNL A   1      50.729  29.335  27.847  1.00  0.00    -0.206 F 
ATOM     69  C   UNL A   1      48.768  32.156  26.868  1.00  0.00     0.006 A 
ENDBRANCH  48  62
BRANCH  49  70
ATOM     70  C   UNL A   1      39.909  28.496  29.393  1.00  0.00     0.057 A 
ATOM     71  C   UNL A   1      39.616  29.114  28.165  1.00  0.00     0.134 A 
ATOM     72  C   UNL A   1      38.837  28.384  30.294  1.00  0.00     0.134 A 
ATOM     73  F   UNL A   1      40.560  29.235  27.221  1.00  0.00    -0.206 F 
ATOM     74  C   UNL A   1      38.325  29.554  27.838  1.00  0.00     0.040 A 
ATOM     75  C   UNL A   1      37.544  28.822  29.980  1.00  0.00     0.040 A 
ATOM     76  F   UNL A   1      38.983  27.757  31.470  1.00  0.00    -0.206 F 
ATOM     77  C   UNL A   1      37.281  29.394  28.741  1.00  0.00     0.006 A 
ENDBRANCH  49  70
BRANCH  61  78
ATOM     78  C   UNL A   1      44.744  25.761  32.379  1.00  0.00     0.057 A 
ATOM     79  C   UNL A   1      44.420  24.530  31.788  1.00  0.00     0.134 A 
ATOM     80  C   UNL A   1      44.841  25.787  33.774  1.00  0.00     0.134 A 
ATOM     81  F   UNL A   1      44.381  24.389  30.456  1.00  0.00    -0.206 F 
ATOM     82  C   UNL A   1      44.194  23.382  32.555  1.00  0.00     0.040 A 
ATOM     83  C   UNL A   1      44.648  24.641  34.548  1.00  0.00     0.040 A 
ATOM     84  F   UNL A   1      45.192  26.919  34.405  1.00  0.00    -0.206 F 
ATOM     85  C   UNL A   1      44.320  23.432  33.940  1.00  0.00     0.006 A 
ENDBRANCH  61  78
ENDBRANCH  35  36
ENDBRANCH  28  30
ENDBRANCH  27  28
ENDBRANCH  26  27
ENDBRANCH  25  26
ENDBRANCH  24  25
ENDBRANCH  23  24
ENDBRANCH   1  23
TORSDOF 19
ENDMDL
