MODEL 1
REMARK VINA RESULT:     -11.1      0.000      0.000
REMARK SMILES Cc1ccc(Cl)cc1NC(=O)N[C@@](C)(C(=O)OCCOCCOC(=O)c1ccc(-c2c3nc(c(-c4c(F)cccc4F)c4ccc([nH]4)c(-c4c(F)cccc4F)c4nc(c(-c5c(F)cccc5F)c5ccc2[nH]5)C=C4)C=C3)cc1)C(F)(F)F
REMARK SMILES IDX 20 1 19 2 18 3 17 4 15 5 16 6 13 7 14 8 12 9 9 10 10 11
REMARK SMILES IDX 11 13 8 15 1 16 2 17 3 18 4 19 7 20 5 21 6 22 80 23 81 24
REMARK SMILES IDX 82 25 83 26 21 27 22 28 23 29 24 30 25 31 26 32 27 33 79 34
REMARK SMILES IDX 28 35 78 36 29 37 30 38 31 39 72 40 32 41 77 42 71 43 73 44
REMARK SMILES IDX 33 45 76 46 70 47 69 48 34 50 60 51 43 52 59 53 44 54 47 55
REMARK SMILES IDX 58 56 74 57 45 58 46 59 57 61 75 62 48 63 35 64 36 65 41 66
REMARK SMILES IDX 37 67 38 68 40 69 42 70 39 71 61 72 62 73 67 74 63 75 64 76
REMARK SMILES IDX 66 77 68 78 65 79 49 80 50 81 55 82 51 83 52 84 54 85 56 86
REMARK SMILES IDX 53 87
REMARK H PARENT 9 12 12 14 73 49 47 60
REMARK Flexibility Score: inf
ROOT
ATOM      1  O   UNL A   1      41.789  21.441  27.257  1.00  0.00    -0.374 OA
ENDROOT
BRANCH   1   2
ATOM      2  C   UNL A   1      40.466  21.957  27.209  1.00  0.00     0.202 C 
BRANCH   2   3
ATOM      3  C   UNL A   1      39.535  21.496  26.080  1.00  0.00     0.261 C 
BRANCH   3   4
ATOM      4  O   UNL A   1      38.329  22.283  25.961  1.00  0.00    -0.461 OA
BRANCH   4   5
ATOM      5  C   UNL A   1      37.420  21.675  25.145  1.00  0.00     0.341 C 
ATOM      6  O   UNL A   1      37.648  20.591  24.609  1.00  0.00    -0.249 OA
BRANCH   5   7
ATOM      7  C   UNL A   1      36.006  22.299  25.209  1.00  0.00     0.232 C 
ATOM      8  C   UNL A   1      36.125  23.295  26.381  1.00  0.00     0.058 C 
BRANCH   7   9
ATOM      9  N   UNL A   1      34.875  21.378  25.564  1.00  0.00    -0.314 N 
ATOM     10  N   UNL A   1      32.774  22.578  25.818  1.00  0.00    -0.308 N 
ATOM     11  C   UNL A   1      33.597  21.517  25.951  1.00  0.00     0.320 C 
ATOM     12  H   UNL A   1      31.890  22.396  26.210  1.00  0.00     0.171 HD
ATOM     13  O   UNL A   1      33.082  20.496  26.428  1.00  0.00    -0.248 OA
ATOM     14  H   UNL A   1      35.138  20.432  25.493  1.00  0.00     0.166 HD
BRANCH  10  15
ATOM     15  C   UNL A   1      32.835  23.872  25.270  1.00  0.00     0.047 A 
ATOM     16  C   UNL A   1      31.614  23.118  23.128  1.00  0.00     0.046 C 
ATOM     17  C   UNL A   1      32.422  24.095  23.939  1.00  0.00    -0.027 A 
ATOM     18  C   UNL A   1      32.721  25.329  23.324  1.00  0.00     0.007 A 
ATOM     19  C   UNL A   1      33.299  26.368  24.047  1.00  0.00     0.021 A 
ATOM     20  C   UNL A   1      33.231  24.975  26.022  1.00  0.00     0.047 A 
ATOM     21  C   UNL A   1      33.474  26.211  25.413  1.00  0.00     0.043 A 
ATOM     22  Cl  UNL A   1      34.065  27.526  26.356  1.00  0.00    -0.084 Cl
ENDBRANCH  10  15
ENDBRANCH   7   9
BRANCH   7  23
ATOM     23  C   UNL A   1      35.939  22.893  23.771  1.00  0.00     0.422 C 
ATOM     24  F   UNL A   1      35.739  24.233  23.788  1.00  0.00    -0.168 F 
ATOM     25  F   UNL A   1      37.048  22.631  23.057  1.00  0.00    -0.168 F 
ATOM     26  F   UNL A   1      34.920  22.425  23.011  1.00  0.00    -0.168 F 
ENDBRANCH   7  23
ENDBRANCH   5   7
ENDBRANCH   4   5
ENDBRANCH   3   4
ENDBRANCH   2   3
ENDBRANCH   1   2
BRANCH   1  27
ATOM     27  C   UNL A   1      42.415  21.032  26.043  1.00  0.00     0.202 C 
BRANCH  27  28
ATOM     28  C   UNL A   1      43.524  21.905  25.440  1.00  0.00     0.261 C 
BRANCH  28  29
ATOM     29  O   UNL A   1      43.038  23.114  24.827  1.00  0.00    -0.460 OA
BRANCH  29  30
ATOM     30  C   UNL A   1      43.794  24.211  25.056  1.00  0.00     0.338 C 
ATOM     31  O   UNL A   1      44.872  24.493  24.541  1.00  0.00    -0.246 OA
BRANCH  30  32
ATOM     32  C   UNL A   1      43.052  25.177  25.879  1.00  0.00     0.060 A 
ATOM     33  C   UNL A   1      43.650  26.419  26.131  1.00  0.00     0.016 A 
ATOM     34  C   UNL A   1      41.846  24.829  26.490  1.00  0.00     0.016 A 
ATOM     35  C   UNL A   1      43.068  27.306  27.027  1.00  0.00     0.010 A 
ATOM     36  C   UNL A   1      41.275  25.711  27.412  1.00  0.00     0.010 A 
ATOM     37  C   UNL A   1      41.907  26.932  27.712  1.00  0.00    -0.014 A 
BRANCH  37  38
ATOM     38  C   UNL A   1      41.475  27.745  28.870  1.00  0.00     0.031 A 
ATOM     39  C   UNL A   1      42.245  27.630  30.156  1.00  0.00     0.074 A 
ATOM     40  C   UNL A   1      40.452  28.609  28.755  1.00  0.00     0.049 A 
ATOM     41  N   UNL A   1      42.032  28.214  31.306  1.00  0.00    -0.248 NA
ATOM     42  C   UNL A   1      43.417  26.736  30.144  1.00  0.00     0.031 C 
ATOM     43  C   UNL A   1      39.675  28.840  27.538  1.00  0.00     0.029 A 
ATOM     44  N   UNL A   1      39.891  29.450  29.681  1.00  0.00    -0.354 N 
ATOM     45  C   UNL A   1      43.027  27.749  32.156  1.00  0.00     0.074 A 
ATOM     46  C   UNL A   1      43.835  26.820  31.398  1.00  0.00     0.031 C 
ATOM     47  C   UNL A   1      38.720  29.749  27.799  1.00  0.00     0.029 A 
ATOM     48  C   UNL A   1      38.798  30.133  29.207  1.00  0.00     0.049 A 
ATOM     49  H   UNL A   1      40.237  29.553  30.597  1.00  0.00     0.167 HD
ATOM     50  C   UNL A   1      43.244  28.072  33.452  1.00  0.00     0.037 A 
ATOM     51  C   UNL A   1      37.942  30.950  29.851  1.00  0.00     0.037 A 
ATOM     52  C   UNL A   1      42.441  29.010  34.190  1.00  0.00     0.049 A 
ATOM     53  C   UNL A   1      38.173  31.245  31.310  1.00  0.00     0.074 A 
ATOM     54  C   UNL A   1      42.594  29.432  35.499  1.00  0.00     0.029 A 
ATOM     55  N   UNL A   1      41.329  29.666  33.684  1.00  0.00    -0.354 N 
ATOM     56  N   UNL A   1      39.131  30.820  32.100  1.00  0.00    -0.248 NA
ATOM     57  C   UNL A   1      37.208  32.135  31.968  1.00  0.00     0.031 C 
ATOM     58  C   UNL A   1      41.540  30.297  35.803  1.00  0.00     0.029 A 
ATOM     59  C   UNL A   1      40.767  30.465  34.665  1.00  0.00     0.049 A 
ATOM     60  H   UNL A   1      40.989  29.577  32.764  1.00  0.00     0.167 HD
ATOM     61  C   UNL A   1      38.901  31.416  33.334  1.00  0.00     0.074 A 
ATOM     62  C   UNL A   1      37.722  32.244  33.183  1.00  0.00     0.031 C 
ATOM     63  C   UNL A   1      39.601  31.292  34.488  1.00  0.00     0.037 A 
BRANCH  50  64
ATOM     64  C   UNL A   1      44.369  27.387  34.169  1.00  0.00     0.057 A 
ATOM     65  C   UNL A   1      44.210  26.144  34.793  1.00  0.00     0.134 A 
ATOM     66  C   UNL A   1      45.651  27.955  34.179  1.00  0.00     0.134 A 
ATOM     67  F   UNL A   1      43.006  25.552  34.835  1.00  0.00    -0.206 F 
ATOM     68  C   UNL A   1      45.282  25.494  35.410  1.00  0.00     0.040 A 
ATOM     69  C   UNL A   1      46.735  27.304  34.769  1.00  0.00     0.040 A 
ATOM     70  F   UNL A   1      45.872  29.144  33.598  1.00  0.00    -0.206 F 
ATOM     71  C   UNL A   1      46.551  26.070  35.388  1.00  0.00     0.006 A 
ENDBRANCH  50  64
BRANCH  51  72
ATOM     72  C   UNL A   1      36.768  31.515  29.139  1.00  0.00     0.057 A 
ATOM     73  C   UNL A   1      35.647  30.733  28.838  1.00  0.00     0.134 A 
ATOM     74  C   UNL A   1      36.757  32.848  28.705  1.00  0.00     0.134 A 
ATOM     75  F   UNL A   1      35.603  29.445  29.207  1.00  0.00    -0.206 F 
ATOM     76  C   UNL A   1      34.573  31.245  28.106  1.00  0.00     0.040 A 
ATOM     77  C   UNL A   1      35.677  33.381  28.000  1.00  0.00     0.040 A 
ATOM     78  F   UNL A   1      37.798  33.653  28.964  1.00  0.00    -0.206 F 
ATOM     79  C   UNL A   1      34.585  32.574  27.689  1.00  0.00     0.006 A 
ENDBRANCH  51  72
BRANCH  63  80
ATOM     80  C   UNL A   1      39.141  32.105  35.664  1.00  0.00     0.057 A 
ATOM     81  C   UNL A   1      39.511  33.445  35.834  1.00  0.00     0.134 A 
ATOM     82  C   UNL A   1      38.278  31.546  36.616  1.00  0.00     0.134 A 
ATOM     83  F   UNL A   1      40.344  34.035  34.963  1.00  0.00    -0.206 F 
ATOM     84  C   UNL A   1      39.061  34.192  36.922  1.00  0.00     0.040 A 
ATOM     85  C   UNL A   1      37.796  32.293  37.691  1.00  0.00     0.040 A 
ATOM     86  F   UNL A   1      37.874  30.272  36.507  1.00  0.00    -0.206 F 
ATOM     87  C   UNL A   1      38.194  33.619  37.851  1.00  0.00     0.006 A 
ENDBRANCH  63  80
ENDBRANCH  37  38
ENDBRANCH  30  32
ENDBRANCH  29  30
ENDBRANCH  28  29
ENDBRANCH  27  28
ENDBRANCH   1  27
TORSDOF 17
ENDMDL
MODEL 2
REMARK VINA RESULT:     -11.1      3.442      8.100
REMARK SMILES Cc1ccc(Cl)cc1NC(=O)N[C@@](C)(C(=O)OCCOCCOC(=O)c1ccc(-c2c3nc(c(-c4c(F)cccc4F)c4ccc([nH]4)c(-c4c(F)cccc4F)c4nc(c(-c5c(F)cccc5F)c5ccc2[nH]5)C=C4)C=C3)cc1)C(F)(F)F
REMARK SMILES IDX 20 1 19 2 18 3 17 4 15 5 16 6 13 7 14 8 12 9 9 10 10 11
REMARK SMILES IDX 11 13 8 15 1 16 2 17 3 18 4 19 7 20 5 21 6 22 80 23 81 24
REMARK SMILES IDX 82 25 83 26 21 27 22 28 23 29 24 30 25 31 26 32 27 33 79 34
REMARK SMILES IDX 28 35 78 36 29 37 30 38 31 39 72 40 32 41 77 42 71 43 73 44
REMARK SMILES IDX 33 45 76 46 70 47 69 48 34 50 60 51 43 52 59 53 44 54 47 55
REMARK SMILES IDX 58 56 74 57 45 58 46 59 57 61 75 62 48 63 35 64 36 65 41 66
REMARK SMILES IDX 37 67 38 68 40 69 42 70 39 71 61 72 62 73 67 74 63 75 64 76
REMARK SMILES IDX 66 77 68 78 65 79 49 80 50 81 55 82 51 83 52 84 54 85 56 86
REMARK SMILES IDX 53 87
REMARK H PARENT 9 12 12 14 73 49 47 60
REMARK Flexibility Score: inf
ROOT
ATOM      1  O   UNL A   1      31.396  31.023  25.732  1.00  0.00    -0.374 OA
ENDROOT
BRANCH   1   2
ATOM      2  C   UNL A   1      32.325  29.952  25.635  1.00  0.00     0.202 C 
BRANCH   2   3
ATOM      3  C   UNL A   1      31.994  28.769  24.718  1.00  0.00     0.261 C 
BRANCH   3   4
ATOM      4  O   UNL A   1      30.913  27.940  25.201  1.00  0.00    -0.461 OA
BRANCH   4   5
ATOM      5  C   UNL A   1      31.306  27.188  26.270  1.00  0.00     0.341 C 
ATOM      6  O   UNL A   1      31.250  27.615  27.422  1.00  0.00    -0.249 OA
BRANCH   5   7
ATOM      7  C   UNL A   1      31.522  25.693  25.937  1.00  0.00     0.232 C 
ATOM      8  C   UNL A   1      30.883  25.559  24.539  1.00  0.00     0.058 C 
BRANCH   7   9
ATOM      9  N   UNL A   1      30.816  24.698  26.810  1.00  0.00    -0.314 N 
ATOM     10  N   UNL A   1      31.243  22.409  26.105  1.00  0.00    -0.308 N 
ATOM     11  C   UNL A   1      30.590  23.374  26.785  1.00  0.00     0.320 C 
ATOM     12  H   UNL A   1      30.846  21.524  26.270  1.00  0.00     0.171 HD
ATOM     13  O   UNL A   1      29.705  22.980  27.558  1.00  0.00    -0.248 OA
ATOM     14  H   UNL A   1      30.417  25.123  27.604  1.00  0.00     0.166 HD
BRANCH  10  15
ATOM     15  C   UNL A   1      32.337  22.322  25.225  1.00  0.00     0.047 A 
ATOM     16  C   UNL A   1      33.816  21.228  27.032  1.00  0.00     0.046 C 
ATOM     17  C   UNL A   1      33.597  21.904  25.705  1.00  0.00    -0.027 A 
ATOM     18  C   UNL A   1      34.733  22.062  24.883  1.00  0.00     0.007 A 
ATOM     19  C   UNL A   1      34.610  22.503  23.570  1.00  0.00     0.021 A 
ATOM     20  C   UNL A   1      32.211  22.575  23.862  1.00  0.00     0.047 A 
ATOM     21  C   UNL A   1      33.341  22.678  23.042  1.00  0.00     0.043 A 
ATOM     22  Cl  UNL A   1      33.155  23.095  21.381  1.00  0.00    -0.084 Cl
ENDBRANCH  10  15
ENDBRANCH   7   9
BRANCH   7  23
ATOM     23  C   UNL A   1      33.076  25.649  26.020  1.00  0.00     0.422 C 
ATOM     24  F   UNL A   1      33.592  26.831  26.434  1.00  0.00    -0.168 F 
ATOM     25  F   UNL A   1      33.517  24.676  26.838  1.00  0.00    -0.168 F 
ATOM     26  F   UNL A   1      33.701  25.419  24.840  1.00  0.00    -0.168 F 
ENDBRANCH   7  23
ENDBRANCH   5   7
ENDBRANCH   4   5
ENDBRANCH   3   4
ENDBRANCH   2   3
ENDBRANCH   1   2
BRANCH   1  27
ATOM     27  C   UNL A   1      31.389  31.825  26.910  1.00  0.00     0.202 C 
BRANCH  27  28
ATOM     28  C   UNL A   1      32.150  33.159  26.914  1.00  0.00     0.261 C 
BRANCH  28  29
ATOM     29  O   UNL A   1      32.320  33.722  28.228  1.00  0.00    -0.460 OA
BRANCH  29  30
ATOM     30  C   UNL A   1      33.441  34.462  28.388  1.00  0.00     0.338 C 
ATOM     31  O   UNL A   1      33.517  35.680  28.517  1.00  0.00    -0.246 OA
BRANCH  30  32
ATOM     32  C   UNL A   1      34.601  33.585  28.604  1.00  0.00     0.060 A 
ATOM     33  C   UNL A   1      34.371  32.322  29.166  1.00  0.00     0.016 A 
ATOM     34  C   UNL A   1      35.901  34.036  28.370  1.00  0.00     0.016 A 
ATOM     35  C   UNL A   1      35.441  31.517  29.537  1.00  0.00     0.010 A 
ATOM     36  C   UNL A   1      36.977  33.236  28.768  1.00  0.00     0.010 A 
ATOM     37  C   UNL A   1      36.747  31.995  29.389  1.00  0.00    -0.014 A 
BRANCH  37  38
ATOM     38  C   UNL A   1      37.847  31.268  30.059  1.00  0.00     0.031 A 
ATOM     39  C   UNL A   1      38.111  31.545  31.513  1.00  0.00     0.074 A 
ATOM     40  C   UNL A   1      38.556  30.338  29.396  1.00  0.00     0.049 A 
ATOM     41  N   UNL A   1      39.038  31.057  32.296  1.00  0.00    -0.248 NA
ATOM     42  C   UNL A   1      37.207  32.501  32.176  1.00  0.00     0.031 C 
ATOM     43  C   UNL A   1      38.344  29.951  28.002  1.00  0.00     0.029 A 
ATOM     44  N   UNL A   1      39.601  29.554  29.811  1.00  0.00    -0.354 N 
ATOM     45  C   UNL A   1      38.840  31.656  33.533  1.00  0.00     0.074 A 
ATOM     46  C   UNL A   1      37.718  32.557  33.397  1.00  0.00     0.031 C 
ATOM     47  C   UNL A   1      39.250  29.015  27.669  1.00  0.00     0.029 A 
ATOM     48  C   UNL A   1      40.123  28.767  28.814  1.00  0.00     0.049 A 
ATOM     49  H   UNL A   1      39.944  29.555  30.734  1.00  0.00     0.167 HD
ATOM     50  C   UNL A   1      39.534  31.466  34.679  1.00  0.00     0.037 A 
ATOM     51  C   UNL A   1      41.204  27.964  28.823  1.00  0.00     0.037 A 
ATOM     52  C   UNL A   1      40.639  30.554  34.806  1.00  0.00     0.049 A 
ATOM     53  C   UNL A   1      41.995  27.818  30.097  1.00  0.00     0.074 A 
ATOM     54  C   UNL A   1      41.392  30.264  35.930  1.00  0.00     0.029 A 
ATOM     55  N   UNL A   1      41.154  29.790  33.769  1.00  0.00    -0.354 N 
ATOM     56  N   UNL A   1      41.786  28.369  31.269  1.00  0.00    -0.248 NA
ATOM     57  C   UNL A   1      43.169  26.936  30.051  1.00  0.00     0.031 C 
ATOM     58  C   UNL A   1      42.400  29.370  35.560  1.00  0.00     0.029 A 
ATOM     59  C   UNL A   1      42.236  29.052  34.221  1.00  0.00     0.049 A 
ATOM     60  H   UNL A   1      40.803  29.774  32.850  1.00  0.00     0.167 HD
ATOM     61  C   UNL A   1      42.781  27.875  32.105  1.00  0.00     0.074 A 
ATOM     62  C   UNL A   1      43.582  26.970  31.309  1.00  0.00     0.031 C 
ATOM     63  C   UNL A   1      43.010  28.145  33.414  1.00  0.00     0.037 A 
BRANCH  50  64
ATOM     64  C   UNL A   1      39.148  32.279  35.880  1.00  0.00     0.057 A 
ATOM     65  C   UNL A   1      39.599  33.590  36.070  1.00  0.00     0.134 A 
ATOM     66  C   UNL A   1      38.257  31.758  36.828  1.00  0.00     0.134 A 
ATOM     67  F   UNL A   1      40.466  34.144  35.208  1.00  0.00    -0.206 F 
ATOM     68  C   UNL A   1      39.185  34.353  37.165  1.00  0.00     0.040 A 
ATOM     69  C   UNL A   1      37.816  32.519  37.912  1.00  0.00     0.040 A 
ATOM     70  F   UNL A   1      37.785  30.508  36.705  1.00  0.00    -0.206 F 
ATOM     71  C   UNL A   1      38.283  33.820  38.084  1.00  0.00     0.006 A 
ENDBRANCH  50  64
BRANCH  51  72
ATOM     72  C   UNL A   1      41.629  27.267  27.581  1.00  0.00     0.057 A 
ATOM     73  C   UNL A   1      42.388  27.916  26.601  1.00  0.00     0.134 A 
ATOM     74  C   UNL A   1      41.249  25.942  27.328  1.00  0.00     0.134 A 
ATOM     75  F   UNL A   1      42.767  29.191  26.773  1.00  0.00    -0.206 F 
ATOM     76  C   UNL A   1      42.728  27.284  25.402  1.00  0.00     0.040 A 
ATOM     77  C   UNL A   1      41.608  25.289  26.149  1.00  0.00     0.040 A 
ATOM     78  F   UNL A   1      40.524  25.261  28.229  1.00  0.00    -0.206 F 
ATOM     79  C   UNL A   1      42.340  25.965  25.176  1.00  0.00     0.006 A 
ENDBRANCH  51  72
BRANCH  63  80
ATOM     80  C   UNL A   1      44.144  27.418  34.079  1.00  0.00     0.057 A 
ATOM     81  C   UNL A   1      45.429  27.969  34.170  1.00  0.00     0.134 A 
ATOM     82  C   UNL A   1      43.931  26.169  34.674  1.00  0.00     0.134 A 
ATOM     83  F   UNL A   1      45.700  29.157  33.610  1.00  0.00    -0.206 F 
ATOM     84  C   UNL A   1      46.467  27.289  34.807  1.00  0.00     0.040 A 
ATOM     85  C   UNL A   1      44.954  25.495  35.342  1.00  0.00     0.040 A 
ATOM     86  F   UNL A   1      42.721  25.591  34.634  1.00  0.00    -0.206 F 
ATOM     87  C   UNL A   1      46.230  26.052  35.402  1.00  0.00     0.006 A 
ENDBRANCH  63  80
ENDBRANCH  37  38
ENDBRANCH  30  32
ENDBRANCH  29  30
ENDBRANCH  28  29
ENDBRANCH  27  28
ENDBRANCH   1  27
TORSDOF 17
ENDMDL
MODEL 3
REMARK VINA RESULT:     -11.0      3.814      6.268
REMARK SMILES Cc1ccc(Cl)cc1NC(=O)N[C@@](C)(C(=O)OCCOCCOC(=O)c1ccc(-c2c3nc(c(-c4c(F)cccc4F)c4ccc([nH]4)c(-c4c(F)cccc4F)c4nc(c(-c5c(F)cccc5F)c5ccc2[nH]5)C=C4)C=C3)cc1)C(F)(F)F
REMARK SMILES IDX 20 1 19 2 18 3 17 4 15 5 16 6 13 7 14 8 12 9 9 10 10 11
REMARK SMILES IDX 11 13 8 15 1 16 2 17 3 18 4 19 7 20 5 21 6 22 80 23 81 24
REMARK SMILES IDX 82 25 83 26 21 27 22 28 23 29 24 30 25 31 26 32 27 33 79 34
REMARK SMILES IDX 28 35 78 36 29 37 30 38 31 39 72 40 32 41 77 42 71 43 73 44
REMARK SMILES IDX 33 45 76 46 70 47 69 48 34 50 60 51 43 52 59 53 44 54 47 55
REMARK SMILES IDX 58 56 74 57 45 58 46 59 57 61 75 62 48 63 35 64 36 65 41 66
REMARK SMILES IDX 37 67 38 68 40 69 42 70 39 71 61 72 62 73 67 74 63 75 64 76
REMARK SMILES IDX 66 77 68 78 65 79 49 80 50 81 55 82 51 83 52 84 54 85 56 86
REMARK SMILES IDX 53 87
REMARK H PARENT 9 12 12 14 73 49 47 60
REMARK Flexibility Score: inf
ROOT
ATOM      1  O   UNL A   1      37.249  21.126  25.262  1.00  0.00    -0.374 OA
ENDROOT
BRANCH   1   2
ATOM      2  C   UNL A   1      35.965  21.503  25.741  1.00  0.00     0.202 C 
BRANCH   2   3
ATOM      3  C   UNL A   1      34.724  20.855  25.114  1.00  0.00     0.261 C 
BRANCH   3   4
ATOM      4  O   UNL A   1      33.928  21.764  24.322  1.00  0.00    -0.461 OA
BRANCH   4   5
ATOM      5  C   UNL A   1      32.602  21.655  24.626  1.00  0.00     0.341 C 
ATOM      6  O   UNL A   1      32.084  20.574  24.904  1.00  0.00    -0.249 OA
BRANCH   5   7
ATOM      7  C   UNL A   1      31.906  23.011  24.888  1.00  0.00     0.232 C 
ATOM      8  C   UNL A   1      33.017  23.839  25.567  1.00  0.00     0.058 C 
BRANCH   7   9
ATOM      9  N   UNL A   1      30.752  23.004  25.848  1.00  0.00    -0.314 N 
ATOM     10  N   UNL A   1      30.056  25.258  26.445  1.00  0.00    -0.308 N 
ATOM     11  C   UNL A   1      30.101  23.917  26.588  1.00  0.00     0.320 C 
ATOM     12  H   UNL A   1      29.505  25.674  27.146  1.00  0.00     0.171 HD
ATOM     13  O   UNL A   1      29.378  23.448  27.478  1.00  0.00    -0.248 OA
ATOM     14  H   UNL A   1      30.377  22.101  25.964  1.00  0.00     0.166 HD
BRANCH  10  15
ATOM     15  C   UNL A   1      30.581  26.224  25.567  1.00  0.00     0.047 A 
ATOM     16  C   UNL A   1      28.431  26.225  24.144  1.00  0.00     0.046 C 
ATOM     17  C   UNL A   1      29.875  26.570  24.395  1.00  0.00    -0.027 A 
ATOM     18  C   UNL A   1      30.520  27.341  23.406  1.00  0.00     0.007 A 
ATOM     19  C   UNL A   1      31.789  27.867  23.623  1.00  0.00     0.021 A 
ATOM     20  C   UNL A   1      31.759  26.911  25.844  1.00  0.00     0.047 A 
ATOM     21  C   UNL A   1      32.366  27.717  24.874  1.00  0.00     0.043 A 
ATOM     22  Cl  UNL A   1      33.878  28.470  25.214  1.00  0.00    -0.084 Cl
ENDBRANCH  10  15
ENDBRANCH   7   9
BRANCH   7  23
ATOM     23  C   UNL A   1      31.535  23.380  23.422  1.00  0.00     0.422 C 
ATOM     24  F   UNL A   1      30.203  23.582  23.276  1.00  0.00    -0.168 F 
ATOM     25  F   UNL A   1      32.187  24.473  22.988  1.00  0.00    -0.168 F 
ATOM     26  F   UNL A   1      31.817  22.422  22.507  1.00  0.00    -0.168 F 
ENDBRANCH   7  23
ENDBRANCH   5   7
ENDBRANCH   4   5
ENDBRANCH   3   4
ENDBRANCH   2   3
ENDBRANCH   1   2
BRANCH   1  27
ATOM     27  C   UNL A   1      37.512  19.749  25.003  1.00  0.00     0.202 C 
BRANCH  27  28
ATOM     28  C   UNL A   1      38.929  19.202  25.222  1.00  0.00     0.261 C 
BRANCH  28  29
ATOM     29  O   UNL A   1      39.521  19.614  26.469  1.00  0.00    -0.460 OA
BRANCH  29  30
ATOM     30  C   UNL A   1      40.802  20.036  26.377  1.00  0.00     0.338 C 
ATOM     31  O   UNL A   1      41.726  19.487  25.784  1.00  0.00    -0.246 OA
BRANCH  30  32
ATOM     32  C   UNL A   1      40.928  21.396  26.920  1.00  0.00     0.060 A 
ATOM     33  C   UNL A   1      40.280  22.436  26.239  1.00  0.00     0.016 A 
ATOM     34  C   UNL A   1      41.761  21.666  28.008  1.00  0.00     0.016 A 
ATOM     35  C   UNL A   1      40.493  23.756  26.615  1.00  0.00     0.010 A 
ATOM     36  C   UNL A   1      41.995  22.996  28.367  1.00  0.00     0.010 A 
ATOM     37  C   UNL A   1      41.394  24.043  27.646  1.00  0.00    -0.014 A 
BRANCH  37  38
ATOM     38  C   UNL A   1      41.838  25.443  27.829  1.00  0.00     0.031 A 
ATOM     39  C   UNL A   1      43.162  25.858  27.251  1.00  0.00     0.074 A 
ATOM     40  C   UNL A   1      41.047  26.336  28.448  1.00  0.00     0.049 A 
ATOM     41  N   UNL A   1      43.769  27.015  27.315  1.00  0.00    -0.248 NA
ATOM     42  C   UNL A   1      43.901  24.832  26.495  1.00  0.00     0.031 C 
ATOM     43  C   UNL A   1      39.721  26.051  28.995  1.00  0.00     0.029 A 
ATOM     44  N   UNL A   1      41.251  27.663  28.724  1.00  0.00    -0.354 N 
ATOM     45  C   UNL A   1      44.964  26.851  26.626  1.00  0.00     0.074 A 
ATOM     46  C   UNL A   1      45.008  25.482  26.166  1.00  0.00     0.031 C 
ATOM     47  C   UNL A   1      39.237  27.169  29.563  1.00  0.00     0.029 A 
ATOM     48  C   UNL A   1      40.233  28.232  29.449  1.00  0.00     0.049 A 
ATOM     49  H   UNL A   1      42.048  28.159  28.431  1.00  0.00     0.167 HD
ATOM     50  C   UNL A   1      45.935  27.766  26.399  1.00  0.00     0.037 A 
ATOM     51  C   UNL A   1      40.138  29.463  29.987  1.00  0.00     0.037 A 
ATOM     52  C   UNL A   1      45.871  29.131  26.850  1.00  0.00     0.049 A 
ATOM     53  C   UNL A   1      41.261  30.444  29.769  1.00  0.00     0.074 A 
ATOM     54  C   UNL A   1      46.787  30.149  26.646  1.00  0.00     0.029 A 
ATOM     55  N   UNL A   1      44.836  29.667  27.600  1.00  0.00    -0.354 N 
ATOM     56  N   UNL A   1      42.377  30.289  29.096  1.00  0.00    -0.248 NA
ATOM     57  C   UNL A   1      41.112  31.770  30.382  1.00  0.00     0.031 C 
ATOM     58  C   UNL A   1      46.335  31.283  27.325  1.00  0.00     0.029 A 
ATOM     59  C   UNL A   1      45.106  30.992  27.896  1.00  0.00     0.049 A 
ATOM     60  H   UNL A   1      44.029  29.178  27.882  1.00  0.00     0.167 HD
ATOM     61  C   UNL A   1      43.043  31.506  29.177  1.00  0.00     0.074 A 
ATOM     62  C   UNL A   1      42.200  32.391  29.952  1.00  0.00     0.031 C 
ATOM     63  C   UNL A   1      44.244  31.860  28.658  1.00  0.00     0.037 A 
BRANCH  50  64
ATOM     64  C   UNL A   1      47.163  27.322  25.662  1.00  0.00     0.057 A 
ATOM     65  C   UNL A   1      47.325  27.528  24.287  1.00  0.00     0.134 A 
ATOM     66  C   UNL A   1      48.230  26.735  26.357  1.00  0.00     0.134 A 
ATOM     67  F   UNL A   1      46.336  28.070  23.559  1.00  0.00    -0.206 F 
ATOM     68  C   UNL A   1      48.499  27.158  23.626  1.00  0.00     0.040 A 
ATOM     69  C   UNL A   1      49.417  26.385  25.713  1.00  0.00     0.040 A 
ATOM     70  F   UNL A   1      48.141  26.511  27.677  1.00  0.00    -0.206 F 
ATOM     71  C   UNL A   1      49.553  26.594  24.342  1.00  0.00     0.006 A 
ENDBRANCH  50  64
BRANCH  51  72
ATOM     72  C   UNL A   1      38.960  29.831  30.814  1.00  0.00     0.057 A 
ATOM     73  C   UNL A   1      38.892  29.509  32.174  1.00  0.00     0.134 A 
ATOM     74  C   UNL A   1      37.853  30.478  30.251  1.00  0.00     0.134 A 
ATOM     75  F   UNL A   1      39.910  28.871  32.770  1.00  0.00    -0.206 F 
ATOM     76  C   UNL A   1      37.755  29.790  32.937  1.00  0.00     0.040 A 
ATOM     77  C   UNL A   1      36.723  30.793  31.008  1.00  0.00     0.040 A 
ATOM     78  F   UNL A   1      37.855  30.818  28.953  1.00  0.00    -0.206 F 
ATOM     79  C   UNL A   1      36.668  30.438  32.353  1.00  0.00     0.006 A 
ENDBRANCH  51  72
BRANCH  63  80
ATOM     80  C   UNL A   1      44.696  33.277  28.869  1.00  0.00     0.057 A 
ATOM     81  C   UNL A   1      45.483  33.651  29.965  1.00  0.00     0.134 A 
ATOM     82  C   UNL A   1      44.372  34.270  27.935  1.00  0.00     0.134 A 
ATOM     83  F   UNL A   1      45.818  32.749  30.900  1.00  0.00    -0.206 F 
ATOM     84  C   UNL A   1      45.910  34.967  30.138  1.00  0.00     0.040 A 
ATOM     85  C   UNL A   1      44.820  35.583  28.081  1.00  0.00     0.040 A 
ATOM     86  F   UNL A   1      43.631  33.976  26.856  1.00  0.00    -0.206 F 
ATOM     87  C   UNL A   1      45.586  35.936  29.190  1.00  0.00     0.006 A 
ENDBRANCH  63  80
ENDBRANCH  37  38
ENDBRANCH  30  32
ENDBRANCH  29  30
ENDBRANCH  28  29
ENDBRANCH  27  28
ENDBRANCH   1  27
TORSDOF 17
ENDMDL
