MODEL 1
REMARK VINA RESULT:     -10.8      0.000      0.000
REMARK SMILES CCCC[C@H]1C[NH2+]CCN1c1ccc(C(=O)OCCOCCOC(=O)c2ccc(-c3c4nc(c(-c5c(F)cccc5F)c5ccc([nH]5)c(-c5c(F)cccc5F)c5nc(c(-c6c(F)cccc6F)c6ccc3[nH]6)C=C5)C=C4)cc2)cc1
REMARK SMILES IDX 19 1 18 2 17 3 15 4 16 5 14 6 11 7 12 8 81 9 13 10 80 11
REMARK SMILES IDX 10 12 5 13 6 14 7 15 9 16 8 17 4 20 3 21 2 22 1 23 20 24
REMARK SMILES IDX 21 25 22 26 23 27 24 28 25 29 26 30 27 31 79 32 28 33 78 34
REMARK SMILES IDX 29 35 30 36 31 37 72 38 32 39 77 40 71 41 73 42 33 43 76 44
REMARK SMILES IDX 70 45 69 46 34 48 60 49 43 50 59 51 44 52 47 53 58 54 74 55
REMARK SMILES IDX 45 56 46 57 57 59 75 60 48 61 35 62 36 63 41 64 37 65 38 66
REMARK SMILES IDX 40 67 42 68 39 69 61 70 62 71 67 72 63 73 64 74 66 75 68 76
REMARK SMILES IDX 65 77 49 78 50 79 55 80 51 81 52 82 54 83 56 84 53 85
REMARK H PARENT 7 18 7 19 73 47 47 58
REMARK Flexibility Score: inf
ROOT
ATOM      1  C   UNL A   1      39.974  21.910  26.857  1.00  0.00     0.202 C 
ENDROOT
BRANCH   1   2
ATOM      2  C   UNL A   1      38.992  21.536  25.744  1.00  0.00     0.261 C 
BRANCH   2   3
ATOM      3  O   UNL A   1      37.742  22.232  25.890  1.00  0.00    -0.460 OA
BRANCH   3   4
ATOM      4  C   UNL A   1      36.691  21.627  25.288  1.00  0.00     0.338 C 
ATOM      5  O   UNL A   1      36.508  20.426  25.159  1.00  0.00    -0.246 OA
BRANCH   4   6
ATOM      6  C   UNL A   1      35.672  22.625  24.911  1.00  0.00     0.060 A 
ATOM      7  C   UNL A   1      34.000  24.691  23.997  1.00  0.00     0.037 A 
ATOM      8  C   UNL A   1      34.433  23.685  23.126  1.00  0.00     0.027 A 
ATOM      9  C   UNL A   1      34.309  24.558  25.361  1.00  0.00     0.027 A 
ATOM     10  C   UNL A   1      35.294  22.682  23.567  1.00  0.00     0.018 A 
ATOM     11  C   UNL A   1      35.128  23.524  25.827  1.00  0.00     0.018 A 
BRANCH   7  12
ATOM     12  N   UNL A   1      33.378  25.818  23.504  1.00  0.00    -0.357 N 
ATOM     13  C   UNL A   1      32.673  26.753  24.408  1.00  0.00     0.137 C 
ATOM     14  C   UNL A   1      31.205  26.894  23.902  1.00  0.00     0.285 C 
ATOM     15  N   UNL A   1      31.089  27.293  22.481  1.00  0.00    -0.343 N 
ATOM     16  C   UNL A   1      33.277  26.054  22.059  1.00  0.00     0.178 C 
ATOM     17  C   UNL A   1      31.800  26.293  21.655  1.00  0.00     0.282 C 
ATOM     18  H   UNL A   1      31.509  28.213  22.347  1.00  0.00     0.346 HD
ATOM     19  H   UNL A   1      30.106  27.337  22.209  1.00  0.00     0.346 HD
BRANCH  13  20
ATOM     20  C   UNL A   1      33.378  28.134  24.456  1.00  0.00     0.031 C 
BRANCH  20  21
ATOM     21  C   UNL A   1      33.875  28.585  25.839  1.00  0.00     0.002 C 
BRANCH  21  22
ATOM     22  C   UNL A   1      33.038  28.198  27.056  1.00  0.00    -0.003 C 
ATOM     23  C   UNL A   1      31.788  29.041  27.243  1.00  0.00     0.004 C 
ENDBRANCH  21  22
ENDBRANCH  20  21
ENDBRANCH  13  20
ENDBRANCH   7  12
ENDBRANCH   4   6
ENDBRANCH   3   4
ENDBRANCH   2   3
ENDBRANCH   1   2
BRANCH   1  24
ATOM     24  O   UNL A   1      41.013  20.969  27.126  1.00  0.00    -0.374 OA
BRANCH  24  25
ATOM     25  C   UNL A   1      41.864  20.612  26.035  1.00  0.00     0.202 C 
BRANCH  25  26
ATOM     26  C   UNL A   1      43.052  21.543  25.771  1.00  0.00     0.261 C 
BRANCH  26  27
ATOM     27  O   UNL A   1      42.653  22.723  25.048  1.00  0.00    -0.460 OA
BRANCH  27  28
ATOM     28  C   UNL A   1      43.476  23.787  25.183  1.00  0.00     0.338 C 
ATOM     29  O   UNL A   1      44.481  24.039  24.532  1.00  0.00    -0.246 OA
BRANCH  28  30
ATOM     30  C   UNL A   1      42.892  24.747  26.138  1.00  0.00     0.060 A 
ATOM     31  C   UNL A   1      43.452  26.029  26.198  1.00  0.00     0.016 A 
ATOM     32  C   UNL A   1      41.846  24.388  26.991  1.00  0.00     0.016 A 
ATOM     33  C   UNL A   1      42.987  26.952  27.133  1.00  0.00     0.010 A 
ATOM     34  C   UNL A   1      41.389  25.312  27.937  1.00  0.00     0.010 A 
ATOM     35  C   UNL A   1      41.971  26.589  28.027  1.00  0.00    -0.014 A 
BRANCH  35  36
ATOM     36  C   UNL A   1      41.584  27.510  29.122  1.00  0.00     0.031 A 
ATOM     37  C   UNL A   1      42.329  27.456  30.427  1.00  0.00     0.074 A 
ATOM     38  C   UNL A   1      40.583  28.392  28.952  1.00  0.00     0.049 A 
ATOM     39  N   UNL A   1      42.108  28.114  31.536  1.00  0.00    -0.248 NA
ATOM     40  C   UNL A   1      43.478  26.537  30.489  1.00  0.00     0.031 C 
ATOM     41  C   UNL A   1      39.816  28.572  27.721  1.00  0.00     0.029 A 
ATOM     42  N   UNL A   1      40.034  29.296  29.826  1.00  0.00    -0.354 N 
ATOM     43  C   UNL A   1      43.086  27.692  32.426  1.00  0.00     0.074 A 
ATOM     44  C   UNL A   1      43.886  26.701  31.739  1.00  0.00     0.031 C 
ATOM     45  C   UNL A   1      38.881  29.517  27.924  1.00  0.00     0.029 A 
ATOM     46  C   UNL A   1      38.962  29.980  29.308  1.00  0.00     0.049 A 
ATOM     47  H   UNL A   1      40.375  29.440  30.739  1.00  0.00     0.167 HD
ATOM     48  C   UNL A   1      43.303  28.102  33.698  1.00  0.00     0.037 A 
ATOM     49  C   UNL A   1      38.124  30.858  29.894  1.00  0.00     0.037 A 
ATOM     50  C   UNL A   1      42.504  29.084  34.384  1.00  0.00     0.049 A 
ATOM     51  C   UNL A   1      38.328  31.222  31.341  1.00  0.00     0.074 A 
ATOM     52  C   UNL A   1      42.653  29.572  35.669  1.00  0.00     0.029 A 
ATOM     53  N   UNL A   1      41.403  29.724  33.837  1.00  0.00    -0.354 N 
ATOM     54  N   UNL A   1      39.268  30.831  32.169  1.00  0.00    -0.248 NA
ATOM     55  C   UNL A   1      37.352  32.145  31.937  1.00  0.00     0.031 C 
ATOM     56  C   UNL A   1      41.615  30.474  35.919  1.00  0.00     0.029 A 
ATOM     57  C   UNL A   1      40.847  30.582  34.771  1.00  0.00     0.049 A 
ATOM     58  H   UNL A   1      41.067  29.588  32.922  1.00  0.00     0.167 HD
ATOM     59  C   UNL A   1      39.009  31.477  33.371  1.00  0.00     0.074 A 
ATOM     60  C   UNL A   1      37.834  32.298  33.162  1.00  0.00     0.031 C 
ATOM     61  C   UNL A   1      39.682  31.397  34.545  1.00  0.00     0.037 A 
BRANCH  48  62
ATOM     62  C   UNL A   1      44.445  27.478  34.445  1.00  0.00     0.057 A 
ATOM     63  C   UNL A   1      44.303  26.262  35.122  1.00  0.00     0.134 A 
ATOM     64  C   UNL A   1      45.714  28.071  34.436  1.00  0.00     0.134 A 
ATOM     65  F   UNL A   1      43.111  25.650  35.178  1.00  0.00    -0.206 F 
ATOM     66  C   UNL A   1      45.381  25.661  35.775  1.00  0.00     0.040 A 
ATOM     67  C   UNL A   1      46.804  27.470  35.066  1.00  0.00     0.040 A 
ATOM     68  F   UNL A   1      45.917  29.235  33.801  1.00  0.00    -0.206 F 
ATOM     69  C   UNL A   1      46.638  26.261  35.740  1.00  0.00     0.006 A 
ENDBRANCH  48  62
BRANCH  49  70
ATOM     70  C   UNL A   1      36.988  31.434  29.132  1.00  0.00     0.057 A 
ATOM     71  C   UNL A   1      37.025  32.749  28.656  1.00  0.00     0.134 A 
ATOM     72  C   UNL A   1      35.819  30.697  28.901  1.00  0.00     0.134 A 
ATOM     73  F   UNL A   1      38.106  33.513  28.869  1.00  0.00    -0.206 F 
ATOM     74  C   UNL A   1      35.933  33.320  28.000  1.00  0.00     0.040 A 
ATOM     75  C   UNL A   1      34.730  31.246  28.223  1.00  0.00     0.040 A 
ATOM     76  F   UNL A   1      35.719  29.431  29.332  1.00  0.00    -0.206 F 
ATOM     77  C   UNL A   1      34.782  32.566  27.778  1.00  0.00     0.006 A 
ENDBRANCH  49  70
BRANCH  61  78
ATOM     78  C   UNL A   1      39.183  32.237  35.684  1.00  0.00     0.057 A 
ATOM     79  C   UNL A   1      39.586  33.568  35.849  1.00  0.00     0.134 A 
ATOM     80  C   UNL A   1      38.257  31.722  36.600  1.00  0.00     0.134 A 
ATOM     81  F   UNL A   1      40.480  34.116  35.014  1.00  0.00    -0.206 F 
ATOM     82  C   UNL A   1      39.096  34.353  36.895  1.00  0.00     0.040 A 
ATOM     83  C   UNL A   1      37.742  32.503  37.635  1.00  0.00     0.040 A 
ATOM     84  F   UNL A   1      37.824  30.456  36.492  1.00  0.00    -0.206 F 
ATOM     85  C   UNL A   1      38.166  33.822  37.787  1.00  0.00     0.006 A 
ENDBRANCH  61  78
ENDBRANCH  35  36
ENDBRANCH  28  30
ENDBRANCH  27  28
ENDBRANCH  26  27
ENDBRANCH  25  26
ENDBRANCH  24  25
ENDBRANCH   1  24
TORSDOF 18
ENDMDL
MODEL 2
REMARK VINA RESULT:     -10.7      5.050      9.982
REMARK SMILES CCCC[C@H]1C[NH2+]CCN1c1ccc(C(=O)OCCOCCOC(=O)c2ccc(-c3c4nc(c(-c5c(F)cccc5F)c5ccc([nH]5)c(-c5c(F)cccc5F)c5nc(c(-c6c(F)cccc6F)c6ccc3[nH]6)C=C5)C=C4)cc2)cc1
REMARK SMILES IDX 19 1 18 2 17 3 15 4 16 5 14 6 11 7 12 8 81 9 13 10 80 11
REMARK SMILES IDX 10 12 5 13 6 14 7 15 9 16 8 17 4 20 3 21 2 22 1 23 20 24
REMARK SMILES IDX 21 25 22 26 23 27 24 28 25 29 26 30 27 31 79 32 28 33 78 34
REMARK SMILES IDX 29 35 30 36 31 37 72 38 32 39 77 40 71 41 73 42 33 43 76 44
REMARK SMILES IDX 70 45 69 46 34 48 60 49 43 50 59 51 44 52 47 53 58 54 74 55
REMARK SMILES IDX 45 56 46 57 57 59 75 60 48 61 35 62 36 63 41 64 37 65 38 66
REMARK SMILES IDX 40 67 42 68 39 69 61 70 62 71 67 72 63 73 64 74 66 75 68 76
REMARK SMILES IDX 65 77 49 78 50 79 55 80 51 81 52 82 54 83 56 84 53 85
REMARK H PARENT 7 18 7 19 73 47 47 58
REMARK Flexibility Score: inf
ROOT
ATOM      1  C   UNL A   1      33.281  35.153  29.854  1.00  0.00     0.202 C 
ENDROOT
BRANCH   1   2
ATOM      2  C   UNL A   1      34.454  34.331  29.315  1.00  0.00     0.261 C 
BRANCH   2   3
ATOM      3  O   UNL A   1      34.059  32.981  29.021  1.00  0.00    -0.460 OA
BRANCH   3   4
ATOM      4  C   UNL A   1      34.778  32.389  28.038  1.00  0.00     0.338 C 
ATOM      5  O   UNL A   1      35.874  32.730  27.621  1.00  0.00    -0.246 OA
BRANCH   4   6
ATOM      6  C   UNL A   1      34.122  31.141  27.603  1.00  0.00     0.060 A 
ATOM      7  C   UNL A   1      33.113  28.765  26.492  1.00  0.00     0.037 A 
ATOM      8  C   UNL A   1      34.362  28.784  27.122  1.00  0.00     0.027 A 
ATOM      9  C   UNL A   1      32.326  29.926  26.557  1.00  0.00     0.027 A 
ATOM     10  C   UNL A   1      34.882  29.969  27.638  1.00  0.00     0.018 A 
ATOM     11  C   UNL A   1      32.814  31.109  27.122  1.00  0.00     0.018 A 
BRANCH   7  12
ATOM     12  N   UNL A   1      32.723  27.669  25.752  1.00  0.00    -0.357 N 
ATOM     13  C   UNL A   1      31.402  27.632  25.088  1.00  0.00     0.137 C 
ATOM     14  C   UNL A   1      30.652  26.357  25.584  1.00  0.00     0.285 C 
ATOM     15  N   UNL A   1      31.409  25.098  25.398  1.00  0.00    -0.343 N 
ATOM     16  C   UNL A   1      33.545  26.454  25.712  1.00  0.00     0.178 C 
ATOM     17  C   UNL A   1      32.700  25.219  26.111  1.00  0.00     0.282 C 
ATOM     18  H   UNL A   1      31.577  24.941  24.404  1.00  0.00     0.346 HD
ATOM     19  H   UNL A   1      30.876  24.311  25.769  1.00  0.00     0.346 HD
BRANCH  13  20
ATOM     20  C   UNL A   1      31.544  27.626  23.543  1.00  0.00     0.031 C 
BRANCH  20  21
ATOM     21  C   UNL A   1      31.285  28.970  22.842  1.00  0.00     0.002 C 
BRANCH  21  22
ATOM     22  C   UNL A   1      29.837  29.354  22.552  1.00  0.00    -0.003 C 
ATOM     23  C   UNL A   1      29.276  30.412  23.487  1.00  0.00     0.004 C 
ENDBRANCH  21  22
ENDBRANCH  20  21
ENDBRANCH  13  20
ENDBRANCH   7  12
ENDBRANCH   4   6
ENDBRANCH   3   4
ENDBRANCH   2   3
ENDBRANCH   1   2
BRANCH   1  24
ATOM     24  O   UNL A   1      32.945  34.952  31.227  1.00  0.00    -0.374 OA
BRANCH  24  25
ATOM     25  C   UNL A   1      34.023  34.689  32.127  1.00  0.00     0.202 C 
BRANCH  25  26
ATOM     26  C   UNL A   1      34.039  33.301  32.778  1.00  0.00     0.261 C 
BRANCH  26  27
ATOM     27  O   UNL A   1      35.048  32.453  32.199  1.00  0.00    -0.460 OA
BRANCH  27  28
ATOM     28  C   UNL A   1      36.131  32.233  32.978  1.00  0.00     0.338 C 
ATOM     29  O   UNL A   1      36.232  32.415  34.184  1.00  0.00    -0.246 OA
BRANCH  28  30
ATOM     30  C   UNL A   1      37.174  31.546  32.193  1.00  0.00     0.060 A 
ATOM     31  C   UNL A   1      38.122  30.787  32.892  1.00  0.00     0.016 A 
ATOM     32  C   UNL A   1      37.253  31.676  30.805  1.00  0.00     0.016 A 
ATOM     33  C   UNL A   1      39.171  30.177  32.208  1.00  0.00     0.010 A 
ATOM     34  C   UNL A   1      38.314  31.073  30.121  1.00  0.00     0.010 A 
ATOM     35  C   UNL A   1      39.289  30.339  30.821  1.00  0.00    -0.014 A 
BRANCH  35  36
ATOM     36  C   UNL A   1      40.486  29.826  30.114  1.00  0.00     0.031 A 
ATOM     37  C   UNL A   1      41.652  30.746  29.878  1.00  0.00     0.074 A 
ATOM     38  C   UNL A   1      40.537  28.550  29.693  1.00  0.00     0.049 A 
ATOM     39  N   UNL A   1      42.761  30.527  29.218  1.00  0.00    -0.248 NA
ATOM     40  C   UNL A   1      41.555  32.092  30.466  1.00  0.00     0.031 C 
ATOM     41  C   UNL A   1      39.491  27.550  29.901  1.00  0.00     0.029 A 
ATOM     42  N   UNL A   1      41.509  27.880  28.992  1.00  0.00    -0.354 N 
ATOM     43  C   UNL A   1      43.493  31.703  29.311  1.00  0.00     0.074 A 
ATOM     44  C   UNL A   1      42.693  32.643  30.066  1.00  0.00     0.031 C 
ATOM     45  C   UNL A   1      39.871  26.396  29.323  1.00  0.00     0.029 A 
ATOM     46  C   UNL A   1      41.166  26.589  28.675  1.00  0.00     0.049 A 
ATOM     47  H   UNL A   1      42.369  28.287  28.740  1.00  0.00     0.167 HD
ATOM     48  C   UNL A   1      44.726  31.970  28.819  1.00  0.00     0.037 A 
ATOM     49  C   UNL A   1      41.813  25.677  27.922  1.00  0.00     0.037 A 
ATOM     50  C   UNL A   1      45.520  31.037  28.063  1.00  0.00     0.049 A 
ATOM     51  C   UNL A   1      43.138  26.035  27.303  1.00  0.00     0.074 A 
ATOM     52  C   UNL A   1      46.785  31.213  27.532  1.00  0.00     0.029 A 
ATOM     53  N   UNL A   1      45.120  29.753  27.729  1.00  0.00    -0.354 N 
ATOM     54  N   UNL A   1      43.830  27.144  27.412  1.00  0.00    -0.248 NA
ATOM     55  C   UNL A   1      43.769  25.017  26.451  1.00  0.00     0.031 C 
ATOM     56  C   UNL A   1      47.134  30.052  26.837  1.00  0.00     0.029 A 
ATOM     57  C   UNL A   1      46.104  29.136  26.975  1.00  0.00     0.049 A 
ATOM     58  H   UNL A   1      44.265  29.341  27.989  1.00  0.00     0.167 HD
ATOM     59  C   UNL A   1      44.985  26.947  26.665  1.00  0.00     0.074 A 
ATOM     60  C   UNL A   1      44.909  25.607  26.120  1.00  0.00     0.031 C 
ATOM     61  C   UNL A   1      46.016  27.799  26.447  1.00  0.00     0.037 A 
BRANCH  48  62
ATOM     62  C   UNL A   1      45.293  33.336  29.068  1.00  0.00     0.057 A 
ATOM     63  C   UNL A   1      46.091  33.608  30.185  1.00  0.00     0.134 A 
ATOM     64  C   UNL A   1      45.087  34.374  28.150  1.00  0.00     0.134 A 
ATOM     65  F   UNL A   1      46.315  32.660  31.107  1.00  0.00    -0.206 F 
ATOM     66  C   UNL A   1      46.657  34.868  30.387  1.00  0.00     0.040 A 
ATOM     67  C   UNL A   1      45.665  35.632  28.329  1.00  0.00     0.040 A 
ATOM     68  F   UNL A   1      44.335  34.177  27.056  1.00  0.00    -0.206 F 
ATOM     69  C   UNL A   1      46.451  35.882  29.453  1.00  0.00     0.006 A 
ENDBRANCH  48  62
BRANCH  49  70
ATOM     70  C   UNL A   1      41.207  24.344  27.674  1.00  0.00     0.057 A 
ATOM     71  C   UNL A   1      41.698  23.196  28.305  1.00  0.00     0.134 A 
ATOM     72  C   UNL A   1      40.154  24.181  26.766  1.00  0.00     0.134 A 
ATOM     73  F   UNL A   1      42.723  23.284  29.166  1.00  0.00    -0.206 F 
ATOM     74  C   UNL A   1      41.181  21.930  28.024  1.00  0.00     0.040 A 
ATOM     75  C   UNL A   1      39.609  22.925  26.494  1.00  0.00     0.040 A 
ATOM     76  F   UNL A   1      39.640  25.242  26.126  1.00  0.00    -0.206 F 
ATOM     77  C   UNL A   1      40.130  21.793  27.119  1.00  0.00     0.006 A 
ENDBRANCH  49  70
BRANCH  61  78
ATOM     78  C   UNL A   1      47.156  27.301  25.607  1.00  0.00     0.057 A 
ATOM     79  C   UNL A   1      47.238  27.580  24.238  1.00  0.00     0.134 A 
ATOM     80  C   UNL A   1      48.204  26.572  26.185  1.00  0.00     0.134 A 
ATOM     81  F   UNL A   1      46.261  28.261  23.622  1.00  0.00    -0.206 F 
ATOM     82  C   UNL A   1      48.316  27.137  23.468  1.00  0.00     0.040 A 
ATOM     83  C   UNL A   1      49.297  26.146  25.431  1.00  0.00     0.040 A 
ATOM     84  F   UNL A   1      48.189  26.279  27.494  1.00  0.00    -0.206 F 
ATOM     85  C   UNL A   1      49.353  26.424  24.066  1.00  0.00     0.006 A 
ENDBRANCH  61  78
ENDBRANCH  35  36
ENDBRANCH  28  30
ENDBRANCH  27  28
ENDBRANCH  26  27
ENDBRANCH  25  26
ENDBRANCH  24  25
ENDBRANCH   1  24
TORSDOF 18
ENDMDL
MODEL 3
REMARK VINA RESULT:     -10.6      1.021      2.209
REMARK SMILES CCCC[C@H]1C[NH2+]CCN1c1ccc(C(=O)OCCOCCOC(=O)c2ccc(-c3c4nc(c(-c5c(F)cccc5F)c5ccc([nH]5)c(-c5c(F)cccc5F)c5nc(c(-c6c(F)cccc6F)c6ccc3[nH]6)C=C5)C=C4)cc2)cc1
REMARK SMILES IDX 19 1 18 2 17 3 15 4 16 5 14 6 11 7 12 8 81 9 13 10 80 11
REMARK SMILES IDX 10 12 5 13 6 14 7 15 9 16 8 17 4 20 3 21 2 22 1 23 20 24
REMARK SMILES IDX 21 25 22 26 23 27 24 28 25 29 26 30 27 31 79 32 28 33 78 34
REMARK SMILES IDX 29 35 30 36 31 37 72 38 32 39 77 40 71 41 73 42 33 43 76 44
REMARK SMILES IDX 70 45 69 46 34 48 60 49 43 50 59 51 44 52 47 53 58 54 74 55
REMARK SMILES IDX 45 56 46 57 57 59 75 60 48 61 35 62 36 63 41 64 37 65 38 66
REMARK SMILES IDX 40 67 42 68 39 69 61 70 62 71 67 72 63 73 64 74 66 75 68 76
REMARK SMILES IDX 65 77 49 78 50 79 55 80 51 81 52 82 54 83 56 84 53 85
REMARK H PARENT 7 18 7 19 73 47 47 58
REMARK Flexibility Score: inf
ROOT
ATOM      1  C   UNL A   1      40.732  20.871  27.265  1.00  0.00     0.202 C 
ENDROOT
BRANCH   1   2
ATOM      2  C   UNL A   1      40.162  21.380  25.939  1.00  0.00     0.261 C 
BRANCH   2   3
ATOM      3  O   UNL A   1      38.835  21.907  26.103  1.00  0.00    -0.460 OA
BRANCH   3   4
ATOM      4  C   UNL A   1      37.908  21.354  25.286  1.00  0.00     0.338 C 
ATOM      5  O   UNL A   1      37.730  20.165  25.074  1.00  0.00    -0.246 OA
BRANCH   4   6
ATOM      6  C   UNL A   1      36.999  22.393  24.764  1.00  0.00     0.060 A 
ATOM      7  C   UNL A   1      34.996  24.184  23.942  1.00  0.00     0.037 A 
ATOM      8  C   UNL A   1      35.412  24.143  25.277  1.00  0.00     0.027 A 
ATOM      9  C   UNL A   1      35.704  23.410  23.008  1.00  0.00     0.027 A 
ATOM     10  C   UNL A   1      36.377  23.228  25.696  1.00  0.00     0.018 A 
ATOM     11  C   UNL A   1      36.713  22.526  23.407  1.00  0.00     0.018 A 
BRANCH   7  12
ATOM     12  N   UNL A   1      33.867  24.890  23.586  1.00  0.00    -0.357 N 
ATOM     13  C   UNL A   1      32.883  24.323  22.639  1.00  0.00     0.137 C 
ATOM     14  C   UNL A   1      32.714  25.331  21.462  1.00  0.00     0.285 C 
ATOM     15  N   UNL A   1      32.356  26.704  21.886  1.00  0.00    -0.343 N 
ATOM     16  C   UNL A   1      33.674  26.277  24.027  1.00  0.00     0.178 C 
ATOM     17  C   UNL A   1      33.403  27.196  22.809  1.00  0.00     0.282 C 
ATOM     18  H   UNL A   1      31.453  26.692  22.362  1.00  0.00     0.346 HD
ATOM     19  H   UNL A   1      32.291  27.316  21.072  1.00  0.00     0.346 HD
BRANCH  13  20
ATOM     20  C   UNL A   1      31.523  24.046  23.333  1.00  0.00     0.031 C 
BRANCH  20  21
ATOM     21  C   UNL A   1      31.578  23.150  24.581  1.00  0.00     0.002 C 
BRANCH  21  22
ATOM     22  C   UNL A   1      31.085  23.738  25.901  1.00  0.00    -0.003 C 
ATOM     23  C   UNL A   1      30.613  25.179  25.800  1.00  0.00     0.004 C 
ENDBRANCH  21  22
ENDBRANCH  20  21
ENDBRANCH  13  20
ENDBRANCH   7  12
ENDBRANCH   4   6
ENDBRANCH   3   4
ENDBRANCH   2   3
ENDBRANCH   1   2
BRANCH   1  24
ATOM     24  O   UNL A   1      42.123  20.553  27.276  1.00  0.00    -0.374 OA
BRANCH  24  25
ATOM     25  C   UNL A   1      42.738  20.287  26.015  1.00  0.00     0.202 C 
BRANCH  25  26
ATOM     26  C   UNL A   1      43.835  21.264  25.578  1.00  0.00     0.261 C 
BRANCH  26  27
ATOM     27  O   UNL A   1      43.840  22.455  26.386  1.00  0.00    -0.460 OA
BRANCH  27  28
ATOM     28  C   UNL A   1      43.623  23.608  25.714  1.00  0.00     0.338 C 
ATOM     29  O   UNL A   1      43.729  23.801  24.511  1.00  0.00    -0.246 OA
BRANCH  28  30
ATOM     30  C   UNL A   1      43.043  24.611  26.627  1.00  0.00     0.060 A 
ATOM     31  C   UNL A   1      43.627  25.884  26.653  1.00  0.00     0.016 A 
ATOM     32  C   UNL A   1      41.978  24.301  27.477  1.00  0.00     0.016 A 
ATOM     33  C   UNL A   1      43.167  26.847  27.549  1.00  0.00     0.010 A 
ATOM     34  C   UNL A   1      41.526  25.265  28.384  1.00  0.00     0.010 A 
ATOM     35  C   UNL A   1      42.131  26.534  28.439  1.00  0.00    -0.014 A 
BRANCH  35  36
ATOM     36  C   UNL A   1      41.746  27.499  29.496  1.00  0.00     0.031 A 
ATOM     37  C   UNL A   1      42.499  27.504  30.798  1.00  0.00     0.074 A 
ATOM     38  C   UNL A   1      40.740  28.369  29.295  1.00  0.00     0.049 A 
ATOM     39  N   UNL A   1      42.281  28.207  31.879  1.00  0.00    -0.248 NA
ATOM     40  C   UNL A   1      43.652  26.594  30.892  1.00  0.00     0.031 C 
ATOM     41  C   UNL A   1      39.965  28.492  28.062  1.00  0.00     0.029 A 
ATOM     42  N   UNL A   1      40.192  29.307  30.133  1.00  0.00    -0.354 N 
ATOM     43  C   UNL A   1      43.266  27.828  32.780  1.00  0.00     0.074 A 
ATOM     44  C   UNL A   1      44.067  26.812  32.131  1.00  0.00     0.031 C 
ATOM     45  C   UNL A   1      39.027  29.441  28.230  1.00  0.00     0.029 A 
ATOM     46  C   UNL A   1      39.114  29.963  29.592  1.00  0.00     0.049 A 
ATOM     47  H   UNL A   1      40.537  29.491  31.036  1.00  0.00     0.167 HD
ATOM     48  C   UNL A   1      43.489  28.293  34.033  1.00  0.00     0.037 A 
ATOM     49  C   UNL A   1      38.275  30.861  30.145  1.00  0.00     0.037 A 
ATOM     50  C   UNL A   1      42.689  29.299  34.680  1.00  0.00     0.049 A 
ATOM     51  C   UNL A   1      38.486  31.288  31.575  1.00  0.00     0.074 A 
ATOM     52  C   UNL A   1      42.843  29.843  35.943  1.00  0.00     0.029 A 
ATOM     53  N   UNL A   1      41.582  29.911  34.114  1.00  0.00    -0.354 N 
ATOM     54  N   UNL A   1      39.431  30.937  32.413  1.00  0.00    -0.248 NA
ATOM     55  C   UNL A   1      37.508  32.231  32.137  1.00  0.00     0.031 C 
ATOM     56  C   UNL A   1      41.802  30.750  36.160  1.00  0.00     0.029 A 
ATOM     57  C   UNL A   1      41.027  30.805  35.013  1.00  0.00     0.049 A 
ATOM     58  H   UNL A   1      41.241  29.735  33.207  1.00  0.00     0.167 HD
ATOM     59  C   UNL A   1      39.177  31.632  33.588  1.00  0.00     0.074 A 
ATOM     60  C   UNL A   1      37.997  32.438  33.351  1.00  0.00     0.031 C 
ATOM     61  C   UNL A   1      39.857  31.605  34.760  1.00  0.00     0.037 A 
BRANCH  48  62
ATOM     62  C   UNL A   1      44.638  27.707  34.798  1.00  0.00     0.057 A 
ATOM     63  C   UNL A   1      45.909  28.292  34.777  1.00  0.00     0.134 A 
ATOM     64  C   UNL A   1      44.456  26.581  35.611  1.00  0.00     0.134 A 
ATOM     65  F   UNL A   1      46.151  29.365  34.009  1.00  0.00    -0.206 F 
ATOM     66  C   UNL A   1      46.964  27.771  35.529  1.00  0.00     0.040 A 
ATOM     67  C   UNL A   1      45.496  26.064  36.385  1.00  0.00     0.040 A 
ATOM     68  F   UNL A   1      43.260  25.976  35.679  1.00  0.00    -0.206 F 
ATOM     69  C   UNL A   1      46.755  26.659  36.343  1.00  0.00     0.006 A 
ENDBRANCH  48  62
BRANCH  49  70
ATOM     70  C   UNL A   1      37.131  31.399  29.366  1.00  0.00     0.057 A 
ATOM     71  C   UNL A   1      35.989  30.627  29.129  1.00  0.00     0.134 A 
ATOM     72  C   UNL A   1      37.173  32.679  28.801  1.00  0.00     0.134 A 
ATOM     73  F   UNL A   1      35.900  29.383  29.622  1.00  0.00    -0.206 F 
ATOM     74  C   UNL A   1      34.939  31.099  28.339  1.00  0.00     0.040 A 
ATOM     75  C   UNL A   1      36.120  33.175  28.031  1.00  0.00     0.040 A 
ATOM     76  F   UNL A   1      38.241  33.469  28.989  1.00  0.00    -0.206 F 
ATOM     77  C   UNL A   1      35.002  32.379  27.790  1.00  0.00     0.006 A 
ENDBRANCH  49  70
BRANCH  61  78
ATOM     78  C   UNL A   1      39.361  32.490  35.865  1.00  0.00     0.057 A 
ATOM     79  C   UNL A   1      38.441  32.034  36.817  1.00  0.00     0.134 A 
ATOM     80  C   UNL A   1      39.841  33.799  36.003  1.00  0.00     0.134 A 
ATOM     81  F   UNL A   1      37.933  30.796  36.733  1.00  0.00    -0.206 F 
ATOM     82  C   UNL A   1      38.005  32.854  37.860  1.00  0.00     0.040 A 
ATOM     83  C   UNL A   1      39.431  34.620  37.054  1.00  0.00     0.040 A 
ATOM     84  F   UNL A   1      40.730  34.294  35.128  1.00  0.00    -0.206 F 
ATOM     85  C   UNL A   1      38.506  34.149  37.984  1.00  0.00     0.006 A 
ENDBRANCH  61  78
ENDBRANCH  35  36
ENDBRANCH  28  30
ENDBRANCH  27  28
ENDBRANCH  26  27
ENDBRANCH  25  26
ENDBRANCH  24  25
ENDBRANCH   1  24
TORSDOF 18
ENDMDL
