MODEL 1
REMARK VINA RESULT:      -8.7      0.000      0.000
REMARK SMILES O=C(COCCNC(=O)C1CCCC1)OCCOCCOC(=O)c1ccc(-c2c3nc(c(-c4c(F)cccc4F)c4ccc([nH]4)c(-c4c(F)cccc4F)c4nc(c(-c5c(F)cccc5F)c5ccc2[nH]5)C=C4)C=C3)cc1
REMARK SMILES IDX 16 1 15 2 2 3 1 4 3 5 4 6 5 7 6 8 7 9 8 10 9 12 10 13 11 14
REMARK SMILES IDX 14 15 12 16 13 17 17 18 18 19 19 20 20 21 21 22 22 23 23 24
REMARK SMILES IDX 24 25 25 26 77 27 26 28 76 29 27 30 28 31 29 32 70 33 30 34
REMARK SMILES IDX 75 35 69 36 71 37 31 38 74 39 68 40 67 41 32 43 58 44 41 45
REMARK SMILES IDX 57 46 42 47 45 48 56 49 72 50 43 51 44 52 55 54 73 55 46 56
REMARK SMILES IDX 33 57 34 58 39 59 35 60 36 61 38 62 40 63 37 64 59 65 60 66
REMARK SMILES IDX 65 67 61 68 62 69 64 70 66 71 63 72 47 73 48 74 53 75 49 76
REMARK SMILES IDX 50 77 52 78 54 79 51 80
REMARK H PARENT 7 11 71 42 45 53
REMARK Flexibility Score: inf
ROOT
ATOM      1  C   UNL A   1      32.461  35.976  32.242  1.00  0.00     0.261 C 
ENDROOT
BRANCH   1   2
ATOM      2  O   UNL A   1      33.117  34.789  32.706  1.00  0.00    -0.462 OA
BRANCH   2   3
ATOM      3  C   UNL A   1      34.456  34.757  32.895  1.00  0.00     0.332 C 
ATOM      4  O   UNL A   1      35.063  35.792  33.158  1.00  0.00    -0.250 OA
BRANCH   3   5
ATOM      5  C   UNL A   1      35.163  33.403  32.819  1.00  0.00     0.282 C 
BRANCH   5   6
ATOM      6  O   UNL A   1      36.560  33.443  33.036  1.00  0.00    -0.368 OA
BRANCH   6   7
ATOM      7  C   UNL A   1      36.942  33.092  34.367  1.00  0.00     0.182 C 
BRANCH   7   8
ATOM      8  C   UNL A   1      38.001  31.979  34.394  1.00  0.00     0.144 C 
BRANCH   8   9
ATOM      9  N   UNL A   1      37.486  30.673  34.007  1.00  0.00    -0.354 N 
ATOM     10  C   UNL A   1      38.052  29.579  33.448  1.00  0.00     0.223 C 
ATOM     11  H   UNL A   1      36.524  30.564  34.191  1.00  0.00     0.163 HD
ATOM     12  O   UNL A   1      37.277  28.658  33.157  1.00  0.00    -0.275 OA
BRANCH  10  13
ATOM     13  C   UNL A   1      39.542  29.403  33.204  1.00  0.00     0.078 C 
ATOM     14  C   UNL A   1      40.373  29.629  34.465  1.00  0.00     0.013 C 
ATOM     15  C   UNL A   1      40.128  28.109  32.673  1.00  0.00     0.013 C 
ATOM     16  C   UNL A   1      41.788  29.232  34.048  1.00  0.00     0.001 C 
ATOM     17  C   UNL A   1      41.629  28.272  32.867  1.00  0.00     0.001 C 
ENDBRANCH  10  13
ENDBRANCH   8   9
ENDBRANCH   7   8
ENDBRANCH   6   7
ENDBRANCH   5   6
ENDBRANCH   3   5
ENDBRANCH   2   3
ENDBRANCH   1   2
BRANCH   1  18
ATOM     18  C   UNL A   1      32.585  36.101  30.723  1.00  0.00     0.202 C 
BRANCH  18  19
ATOM     19  O   UNL A   1      32.688  34.878  29.988  1.00  0.00    -0.374 OA
BRANCH  19  20
ATOM     20  C   UNL A   1      33.943  34.626  29.340  1.00  0.00     0.202 C 
BRANCH  20  21
ATOM     21  C   UNL A   1      34.001  33.396  28.425  1.00  0.00     0.261 C 
BRANCH  21  22
ATOM     22  O   UNL A   1      34.880  32.393  28.955  1.00  0.00    -0.460 OA
BRANCH  22  23
ATOM     23  C   UNL A   1      34.713  31.155  28.433  1.00  0.00     0.338 C 
ATOM     24  O   UNL A   1      33.744  30.730  27.825  1.00  0.00    -0.246 OA
BRANCH  23  25
ATOM     25  C   UNL A   1      36.008  30.450  28.486  1.00  0.00     0.060 A 
ATOM     26  C   UNL A   1      36.359  29.830  29.695  1.00  0.00     0.016 A 
ATOM     27  C   UNL A   1      36.846  30.367  27.373  1.00  0.00     0.016 A 
ATOM     28  C   UNL A   1      37.572  29.163  29.811  1.00  0.00     0.010 A 
ATOM     29  C   UNL A   1      38.074  29.720  27.495  1.00  0.00     0.010 A 
ATOM     30  C   UNL A   1      38.455  29.155  28.726  1.00  0.00    -0.014 A 
BRANCH  30  31
ATOM     31  C   UNL A   1      39.864  28.774  28.948  1.00  0.00     0.031 A 
ATOM     32  C   UNL A   1      40.772  29.793  29.572  1.00  0.00     0.074 A 
ATOM     33  C   UNL A   1      40.311  27.550  28.624  1.00  0.00     0.049 A 
ATOM     34  N   UNL A   1      42.057  29.733  29.803  1.00  0.00    -0.248 NA
ATOM     35  C   UNL A   1      40.143  31.061  29.988  1.00  0.00     0.031 C 
ATOM     36  C   UNL A   1      39.499  26.473  28.062  1.00  0.00     0.029 A 
ATOM     37  N   UNL A   1      41.569  27.016  28.715  1.00  0.00    -0.354 N 
ATOM     38  C   UNL A   1      42.391  30.954  30.375  1.00  0.00     0.074 A 
ATOM     39  C   UNL A   1      41.185  31.749  30.427  1.00  0.00     0.031 C 
ATOM     40  C   UNL A   1      40.286  25.407  27.841  1.00  0.00     0.029 A 
ATOM     41  C   UNL A   1      41.660  25.742  28.213  1.00  0.00     0.049 A 
ATOM     42  H   UNL A   1      42.334  27.500  29.103  1.00  0.00     0.167 HD
ATOM     43  C   UNL A   1      43.597  31.370  30.823  1.00  0.00     0.037 A 
ATOM     44  C   UNL A   1      42.741  24.956  28.049  1.00  0.00     0.037 A 
ATOM     45  C   UNL A   1      44.789  30.568  30.760  1.00  0.00     0.049 A 
ATOM     46  C   UNL A   1      44.088  25.471  28.482  1.00  0.00     0.074 A 
ATOM     47  C   UNL A   1      46.064  30.881  31.192  1.00  0.00     0.029 A 
ATOM     48  N   UNL A   1      44.849  29.292  30.218  1.00  0.00    -0.354 N 
ATOM     49  N   UNL A   1      44.397  26.620  29.038  1.00  0.00    -0.248 NA
ATOM     50  C   UNL A   1      45.237  24.582  28.266  1.00  0.00     0.031 C 
ATOM     51  C   UNL A   1      46.908  29.817  30.861  1.00  0.00     0.029 A 
ATOM     52  C   UNL A   1      46.147  28.814  30.282  1.00  0.00     0.049 A 
ATOM     53  H   UNL A   1      44.084  28.799  29.844  1.00  0.00     0.167 HD
ATOM     54  C   UNL A   1      45.767  26.576  29.269  1.00  0.00     0.074 A 
ATOM     55  C   UNL A   1      46.226  25.284  28.804  1.00  0.00     0.031 C 
ATOM     56  C   UNL A   1      46.574  27.517  29.819  1.00  0.00     0.037 A 
BRANCH  43  57
ATOM     57  C   UNL A   1      43.687  32.758  31.385  1.00  0.00     0.057 A 
ATOM     58  C   UNL A   1      43.873  33.882  30.569  1.00  0.00     0.134 A 
ATOM     59  C   UNL A   1      43.566  32.977  32.763  1.00  0.00     0.134 A 
ATOM     60  F   UNL A   1      44.018  33.742  29.242  1.00  0.00    -0.206 F 
ATOM     61  C   UNL A   1      43.960  35.168  31.104  1.00  0.00     0.040 A 
ATOM     62  C   UNL A   1      43.621  34.261  33.307  1.00  0.00     0.040 A 
ATOM     63  F   UNL A   1      43.388  31.947  33.604  1.00  0.00    -0.206 F 
ATOM     64  C   UNL A   1      43.826  35.360  32.477  1.00  0.00     0.006 A 
ENDBRANCH  43  57
BRANCH  44  65
ATOM     65  C   UNL A   1      42.599  23.609  27.440  1.00  0.00     0.057 A 
ATOM     66  C   UNL A   1      42.697  23.425  26.056  1.00  0.00     0.134 A 
ATOM     67  C   UNL A   1      42.347  22.476  28.223  1.00  0.00     0.134 A 
ATOM     68  F   UNL A   1      42.917  24.474  25.250  1.00  0.00    -0.206 F 
ATOM     69  C   UNL A   1      42.527  22.169  25.471  1.00  0.00     0.040 A 
ATOM     70  C   UNL A   1      42.203  21.210  27.654  1.00  0.00     0.040 A 
ATOM     71  F   UNL A   1      42.244  22.583  29.556  1.00  0.00    -0.206 F 
ATOM     72  C   UNL A   1      42.284  21.055  26.272  1.00  0.00     0.006 A 
ENDBRANCH  44  65
BRANCH  56  73
ATOM     73  C   UNL A   1      48.024  27.164  29.991  1.00  0.00     0.057 A 
ATOM     74  C   UNL A   1      48.498  26.497  31.128  1.00  0.00     0.134 A 
ATOM     75  C   UNL A   1      48.950  27.458  28.980  1.00  0.00     0.134 A 
ATOM     76  F   UNL A   1      47.666  26.195  32.136  1.00  0.00    -0.206 F 
ATOM     77  C   UNL A   1      49.845  26.159  31.265  1.00  0.00     0.040 A 
ATOM     78  C   UNL A   1      50.293  27.096  29.092  1.00  0.00     0.040 A 
ATOM     79  F   UNL A   1      48.560  28.084  27.859  1.00  0.00    -0.206 F 
ATOM     80  C   UNL A   1      50.745  26.452  30.242  1.00  0.00     0.006 A 
ENDBRANCH  56  73
ENDBRANCH  30  31
ENDBRANCH  23  25
ENDBRANCH  22  23
ENDBRANCH  21  22
ENDBRANCH  20  21
ENDBRANCH  19  20
ENDBRANCH  18  19
ENDBRANCH   1  18
TORSDOF 19
ENDMDL
MODEL 2
REMARK VINA RESULT:      -8.7      5.161      9.430
REMARK SMILES O=C(COCCNC(=O)C1CCCC1)OCCOCCOC(=O)c1ccc(-c2c3nc(c(-c4c(F)cccc4F)c4ccc([nH]4)c(-c4c(F)cccc4F)c4nc(c(-c5c(F)cccc5F)c5ccc2[nH]5)C=C4)C=C3)cc1
REMARK SMILES IDX 16 1 15 2 2 3 1 4 3 5 4 6 5 7 6 8 7 9 8 10 9 12 10 13 11 14
REMARK SMILES IDX 14 15 12 16 13 17 17 18 18 19 19 20 20 21 21 22 22 23 23 24
REMARK SMILES IDX 24 25 25 26 77 27 26 28 76 29 27 30 28 31 29 32 70 33 30 34
REMARK SMILES IDX 75 35 69 36 71 37 31 38 74 39 68 40 67 41 32 43 58 44 41 45
REMARK SMILES IDX 57 46 42 47 45 48 56 49 72 50 43 51 44 52 55 54 73 55 46 56
REMARK SMILES IDX 33 57 34 58 39 59 35 60 36 61 38 62 40 63 37 64 59 65 60 66
REMARK SMILES IDX 65 67 61 68 62 69 64 70 66 71 63 72 47 73 48 74 53 75 49 76
REMARK SMILES IDX 50 77 52 78 54 79 51 80
REMARK H PARENT 7 11 71 42 45 53
REMARK Flexibility Score: inf
ROOT
ATOM      1  C   UNL A   1      33.534  23.574  26.129  1.00  0.00     0.261 C 
ENDROOT
BRANCH   1   2
ATOM      2  O   UNL A   1      32.184  23.572  25.649  1.00  0.00    -0.462 OA
BRANCH   2   3
ATOM      3  C   UNL A   1      31.207  24.244  26.300  1.00  0.00     0.332 C 
ATOM      4  O   UNL A   1      30.648  23.728  27.265  1.00  0.00    -0.250 OA
BRANCH   3   5
ATOM      5  C   UNL A   1      30.867  25.658  25.830  1.00  0.00     0.282 C 
BRANCH   5   6
ATOM      6  O   UNL A   1      31.408  26.018  24.573  1.00  0.00    -0.368 OA
BRANCH   6   7
ATOM      7  C   UNL A   1      30.428  26.129  23.540  1.00  0.00     0.182 C 
BRANCH   7   8
ATOM      8  C   UNL A   1      30.007  27.585  23.291  1.00  0.00     0.144 C 
BRANCH   8   9
ATOM      9  N   UNL A   1      28.564  27.785  23.304  1.00  0.00    -0.354 N 
ATOM     10  C   UNL A   1      27.775  28.872  23.137  1.00  0.00     0.223 C 
ATOM     11  H   UNL A   1      28.058  26.957  23.469  1.00  0.00     0.163 HD
ATOM     12  O   UNL A   1      26.564  28.693  23.316  1.00  0.00    -0.275 OA
BRANCH  10  13
ATOM     13  C   UNL A   1      28.270  30.245  22.714  1.00  0.00     0.078 C 
ATOM     14  C   UNL A   1      27.986  30.543  21.243  1.00  0.00     0.013 C 
ATOM     15  C   UNL A   1      27.796  31.520  23.387  1.00  0.00     0.013 C 
ATOM     16  C   UNL A   1      28.390  32.008  21.081  1.00  0.00     0.001 C 
ATOM     17  C   UNL A   1      28.297  32.631  22.475  1.00  0.00     0.001 C 
ENDBRANCH  10  13
ENDBRANCH   8   9
ENDBRANCH   7   8
ENDBRANCH   6   7
ENDBRANCH   5   6
ENDBRANCH   3   5
ENDBRANCH   2   3
ENDBRANCH   1   2
BRANCH   1  18
ATOM     18  C   UNL A   1      34.421  22.695  25.246  1.00  0.00     0.202 C 
BRANCH  18  19
ATOM     19  O   UNL A   1      35.180  21.682  25.912  1.00  0.00    -0.374 OA
BRANCH  19  20
ATOM     20  C   UNL A   1      35.546  20.537  25.128  1.00  0.00     0.202 C 
BRANCH  20  21
ATOM     21  C   UNL A   1      37.047  20.244  25.012  1.00  0.00     0.261 C 
BRANCH  21  22
ATOM     22  O   UNL A   1      37.832  21.372  25.427  1.00  0.00    -0.460 OA
BRANCH  22  23
ATOM     23  C   UNL A   1      39.025  21.061  25.985  1.00  0.00     0.338 C 
ATOM     24  O   UNL A   1      39.655  20.023  25.862  1.00  0.00    -0.246 OA
BRANCH  23  25
ATOM     25  C   UNL A   1      39.594  22.287  26.578  1.00  0.00     0.060 A 
ATOM     26  C   UNL A   1      39.048  23.515  26.176  1.00  0.00     0.016 A 
ATOM     27  C   UNL A   1      40.616  22.239  27.529  1.00  0.00     0.016 A 
ATOM     28  C   UNL A   1      39.551  24.704  26.688  1.00  0.00     0.010 A 
ATOM     29  C   UNL A   1      41.138  23.432  28.024  1.00  0.00     0.010 A 
ATOM     30  C   UNL A   1      40.635  24.664  27.571  1.00  0.00    -0.014 A 
BRANCH  30  31
ATOM     31  C   UNL A   1      41.395  25.903  27.833  1.00  0.00     0.031 A 
ATOM     32  C   UNL A   1      40.707  26.994  28.601  1.00  0.00     0.074 A 
ATOM     33  C   UNL A   1      42.665  26.039  27.417  1.00  0.00     0.049 A 
ATOM     34  N   UNL A   1      41.127  28.197  28.895  1.00  0.00    -0.248 NA
ATOM     35  C   UNL A   1      39.355  26.688  29.102  1.00  0.00     0.031 C 
ATOM     36  C   UNL A   1      43.437  25.020  26.710  1.00  0.00     0.029 A 
ATOM     37  N   UNL A   1      43.520  27.103  27.525  1.00  0.00    -0.354 N 
ATOM     38  C   UNL A   1      40.087  28.792  29.599  1.00  0.00     0.074 A 
ATOM     39  C   UNL A   1      39.006  27.835  29.662  1.00  0.00     0.031 C 
ATOM     40  C   UNL A   1      44.655  25.517  26.431  1.00  0.00     0.029 A 
ATOM     41  C   UNL A   1      44.728  26.896  26.908  1.00  0.00     0.049 A 
ATOM     42  H   UNL A   1      43.291  27.935  27.999  1.00  0.00     0.167 HD
ATOM     43  C   UNL A   1      40.046  30.026  30.151  1.00  0.00     0.037 A 
ATOM     44  C   UNL A   1      45.760  27.744  26.728  1.00  0.00     0.037 A 
ATOM     45  C   UNL A   1      41.129  30.968  30.075  1.00  0.00     0.049 A 
ATOM     46  C   UNL A   1      45.659  29.141  27.282  1.00  0.00     0.074 A 
ATOM     47  C   UNL A   1      41.203  32.243  30.605  1.00  0.00     0.029 A 
ATOM     48  N   UNL A   1      42.329  30.735  29.417  1.00  0.00    -0.354 N 
ATOM     49  N   UNL A   1      44.682  29.695  27.962  1.00  0.00    -0.248 NA
ATOM     50  C   UNL A   1      46.803  30.031  27.045  1.00  0.00     0.031 C 
ATOM     51  C   UNL A   1      42.425  32.803  30.220  1.00  0.00     0.029 A 
ATOM     52  C   UNL A   1      43.139  31.854  29.506  1.00  0.00     0.049 A 
ATOM     53  H   UNL A   1      42.569  29.899  28.957  1.00  0.00     0.167 HD
ATOM     54  C   UNL A   1      45.108  30.984  28.263  1.00  0.00     0.074 A 
ATOM     55  C   UNL A   1      46.435  31.124  27.701  1.00  0.00     0.031 C 
ATOM     56  C   UNL A   1      44.463  31.963  28.944  1.00  0.00     0.037 A 
BRANCH  43  57
ATOM     57  C   UNL A   1      38.780  30.431  30.848  1.00  0.00     0.057 A 
ATOM     58  C   UNL A   1      37.740  31.090  30.180  1.00  0.00     0.134 A 
ATOM     59  C   UNL A   1      38.591  30.140  32.205  1.00  0.00     0.134 A 
ATOM     60  F   UNL A   1      37.863  31.418  28.884  1.00  0.00    -0.206 F 
ATOM     61  C   UNL A   1      36.569  31.467  30.841  1.00  0.00     0.040 A 
ATOM     62  C   UNL A   1      37.413  30.485  32.870  1.00  0.00     0.040 A 
ATOM     63  F   UNL A   1      39.547  29.513  32.907  1.00  0.00    -0.206 F 
ATOM     64  C   UNL A   1      36.401  31.156  32.188  1.00  0.00     0.006 A 
ENDBRANCH  43  57
BRANCH  44  65
ATOM     65  C   UNL A   1      46.968  27.304  25.985  1.00  0.00     0.057 A 
ATOM     66  C   UNL A   1      47.072  27.479  24.601  1.00  0.00     0.134 A 
ATOM     67  C   UNL A   1      48.040  26.683  26.637  1.00  0.00     0.134 A 
ATOM     68  F   UNL A   1      46.069  28.048  23.916  1.00  0.00    -0.206 F 
ATOM     69  C   UNL A   1      48.186  27.034  23.888  1.00  0.00     0.040 A 
ATOM     70  C   UNL A   1      49.173  26.258  25.942  1.00  0.00     0.040 A 
ATOM     71  F   UNL A   1      48.005  26.487  27.964  1.00  0.00    -0.206 F 
ATOM     72  C   UNL A   1      49.244  26.426  24.561  1.00  0.00     0.006 A 
ENDBRANCH  44  65
BRANCH  56  73
ATOM     73  C   UNL A   1      45.202  33.252  29.160  1.00  0.00     0.057 A 
ATOM     74  C   UNL A   1      46.052  33.448  30.257  1.00  0.00     0.134 A 
ATOM     75  C   UNL A   1      45.096  34.295  28.230  1.00  0.00     0.134 A 
ATOM     76  F   UNL A   1      46.192  32.492  31.189  1.00  0.00    -0.206 F 
ATOM     77  C   UNL A   1      46.747  34.645  30.434  1.00  0.00     0.040 A 
ATOM     78  C   UNL A   1      45.811  35.483  28.380  1.00  0.00     0.040 A 
ATOM     79  F   UNL A   1      44.309  34.168  27.150  1.00  0.00    -0.206 F 
ATOM     80  C   UNL A   1      46.633  35.663  29.490  1.00  0.00     0.006 A 
ENDBRANCH  56  73
ENDBRANCH  30  31
ENDBRANCH  23  25
ENDBRANCH  22  23
ENDBRANCH  21  22
ENDBRANCH  20  21
ENDBRANCH  19  20
ENDBRANCH  18  19
ENDBRANCH   1  18
TORSDOF 19
ENDMDL
MODEL 3
REMARK VINA RESULT:      -8.6      4.409      8.461
REMARK SMILES O=C(COCCNC(=O)C1CCCC1)OCCOCCOC(=O)c1ccc(-c2c3nc(c(-c4c(F)cccc4F)c4ccc([nH]4)c(-c4c(F)cccc4F)c4nc(c(-c5c(F)cccc5F)c5ccc2[nH]5)C=C4)C=C3)cc1
REMARK SMILES IDX 16 1 15 2 2 3 1 4 3 5 4 6 5 7 6 8 7 9 8 10 9 12 10 13 11 14
REMARK SMILES IDX 14 15 12 16 13 17 17 18 18 19 19 20 20 21 21 22 22 23 23 24
REMARK SMILES IDX 24 25 25 26 77 27 26 28 76 29 27 30 28 31 29 32 70 33 30 34
REMARK SMILES IDX 75 35 69 36 71 37 31 38 74 39 68 40 67 41 32 43 58 44 41 45
REMARK SMILES IDX 57 46 42 47 45 48 56 49 72 50 43 51 44 52 55 54 73 55 46 56
REMARK SMILES IDX 33 57 34 58 39 59 35 60 36 61 38 62 40 63 37 64 59 65 60 66
REMARK SMILES IDX 65 67 61 68 62 69 64 70 66 71 63 72 47 73 48 74 53 75 49 76
REMARK SMILES IDX 50 77 52 78 54 79 51 80
REMARK H PARENT 7 11 71 42 45 53
REMARK Flexibility Score: inf
ROOT
ATOM      1  C   UNL A   1      34.636  23.684  23.525  1.00  0.00     0.261 C 
ENDROOT
BRANCH   1   2
ATOM      2  O   UNL A   1      33.915  24.052  22.342  1.00  0.00    -0.462 OA
BRANCH   2   3
ATOM      3  C   UNL A   1      33.227  25.213  22.273  1.00  0.00     0.332 C 
ATOM      4  O   UNL A   1      33.653  26.138  21.586  1.00  0.00    -0.250 OA
BRANCH   3   5
ATOM      5  C   UNL A   1      31.900  25.312  23.028  1.00  0.00     0.282 C 
BRANCH   5   6
ATOM      6  O   UNL A   1      31.234  26.554  22.910  1.00  0.00    -0.368 OA
BRANCH   6   7
ATOM      7  C   UNL A   1      31.393  27.397  24.052  1.00  0.00     0.182 C 
BRANCH   7   8
ATOM      8  C   UNL A   1      31.787  28.832  23.667  1.00  0.00     0.144 C 
BRANCH   8   9
ATOM      9  N   UNL A   1      31.355  29.834  24.632  1.00  0.00    -0.354 N 
ATOM     10  C   UNL A   1      31.916  30.350  25.750  1.00  0.00     0.223 C 
ATOM     11  H   UNL A   1      30.471  30.216  24.427  1.00  0.00     0.163 HD
ATOM     12  O   UNL A   1      31.209  31.131  26.398  1.00  0.00    -0.275 OA
BRANCH  10  13
ATOM     13  C   UNL A   1      33.335  30.066  26.217  1.00  0.00     0.078 C 
ATOM     14  C   UNL A   1      33.791  31.019  27.320  1.00  0.00     0.013 C 
ATOM     15  C   UNL A   1      33.748  28.719  26.780  1.00  0.00     0.013 C 
ATOM     16  C   UNL A   1      35.141  30.454  27.758  1.00  0.00     0.001 C 
ATOM     17  C   UNL A   1      35.124  28.972  27.379  1.00  0.00     0.001 C 
ENDBRANCH  10  13
ENDBRANCH   8   9
ENDBRANCH   7   8
ENDBRANCH   6   7
ENDBRANCH   5   6
ENDBRANCH   3   5
ENDBRANCH   2   3
ENDBRANCH   1   2
BRANCH   1  18
ATOM     18  C   UNL A   1      34.321  22.240  23.921  1.00  0.00     0.202 C 
BRANCH  18  19
ATOM     19  O   UNL A   1      34.208  21.972  25.321  1.00  0.00    -0.374 OA
BRANCH  19  20
ATOM     20  C   UNL A   1      35.421  21.631  26.007  1.00  0.00     0.202 C 
BRANCH  20  21
ATOM     21  C   UNL A   1      36.466  20.854  25.196  1.00  0.00     0.261 C 
BRANCH  21  22
ATOM     22  O   UNL A   1      37.662  21.626  25.012  1.00  0.00    -0.460 OA
BRANCH  22  23
ATOM     23  C   UNL A   1      38.721  21.221  25.751  1.00  0.00     0.338 C 
ATOM     24  O   UNL A   1      39.241  20.117  25.759  1.00  0.00    -0.246 OA
BRANCH  23  25
ATOM     25  C   UNL A   1      39.334  22.408  26.377  1.00  0.00     0.060 A 
ATOM     26  C   UNL A   1      38.800  23.663  26.045  1.00  0.00     0.016 A 
ATOM     27  C   UNL A   1      40.382  22.300  27.292  1.00  0.00     0.016 A 
ATOM     28  C   UNL A   1      39.343  24.819  26.590  1.00  0.00     0.010 A 
ATOM     29  C   UNL A   1      40.945  23.460  27.820  1.00  0.00     0.010 A 
ATOM     30  C   UNL A   1      40.453  24.720  27.436  1.00  0.00    -0.014 A 
BRANCH  30  31
ATOM     31  C   UNL A   1      41.246  25.931  27.726  1.00  0.00     0.031 A 
ATOM     32  C   UNL A   1      40.589  27.022  28.522  1.00  0.00     0.074 A 
ATOM     33  C   UNL A   1      42.518  26.044  27.310  1.00  0.00     0.049 A 
ATOM     34  N   UNL A   1      41.041  28.205  28.844  1.00  0.00    -0.248 NA
ATOM     35  C   UNL A   1      39.230  26.739  29.019  1.00  0.00     0.031 C 
ATOM     36  C   UNL A   1      43.262  25.023  26.576  1.00  0.00     0.029 A 
ATOM     37  N   UNL A   1      43.402  27.082  27.441  1.00  0.00    -0.354 N 
ATOM     38  C   UNL A   1      40.019  28.810  29.566  1.00  0.00     0.074 A 
ATOM     39  C   UNL A   1      38.913  27.881  29.608  1.00  0.00     0.031 C 
ATOM     40  C   UNL A   1      44.492  25.494  26.306  1.00  0.00     0.029 A 
ATOM     41  C   UNL A   1      44.603  26.859  26.816  1.00  0.00     0.049 A 
ATOM     42  H   UNL A   1      43.196  27.908  27.936  1.00  0.00     0.167 HD
ATOM     43  C   UNL A   1      40.012  30.031  30.147  1.00  0.00     0.037 A 
ATOM     44  C   UNL A   1      45.656  27.683  26.654  1.00  0.00     0.037 A 
ATOM     45  C   UNL A   1      41.120  30.945  30.092  1.00  0.00     0.049 A 
ATOM     46  C   UNL A   1      45.593  29.069  27.243  1.00  0.00     0.074 A 
ATOM     47  C   UNL A   1      41.228  32.205  30.653  1.00  0.00     0.029 A 
ATOM     48  N   UNL A   1      42.311  30.697  29.425  1.00  0.00    -0.354 N 
ATOM     49  N   UNL A   1      44.632  29.631  27.939  1.00  0.00    -0.248 NA
ATOM     50  C   UNL A   1      46.760  29.933  27.024  1.00  0.00     0.031 C 
ATOM     51  C   UNL A   1      42.463  32.741  30.278  1.00  0.00     0.029 A 
ATOM     52  C   UNL A   1      43.151  31.792  29.539  1.00  0.00     0.049 A 
ATOM     53  H   UNL A   1      42.528  29.867  28.944  1.00  0.00     0.167 HD
ATOM     54  C   UNL A   1      45.093  30.900  28.269  1.00  0.00     0.074 A 
ATOM     55  C   UNL A   1      46.423  31.019  27.708  1.00  0.00     0.031 C 
ATOM     56  C   UNL A   1      44.476  31.879  28.976  1.00  0.00     0.037 A 
BRANCH  43  57
ATOM     57  C   UNL A   1      38.759  30.452  30.858  1.00  0.00     0.057 A 
ATOM     58  C   UNL A   1      37.785  31.249  30.241  1.00  0.00     0.134 A 
ATOM     59  C   UNL A   1      38.514  30.038  32.173  1.00  0.00     0.134 A 
ATOM     60  F   UNL A   1      37.966  31.698  28.989  1.00  0.00    -0.206 F 
ATOM     61  C   UNL A   1      36.626  31.638  30.915  1.00  0.00     0.040 A 
ATOM     62  C   UNL A   1      37.345  30.396  32.847  1.00  0.00     0.040 A 
ATOM     63  F   UNL A   1      39.405  29.275  32.825  1.00  0.00    -0.206 F 
ATOM     64  C   UNL A   1      36.400  31.204  32.219  1.00  0.00     0.006 A 
ENDBRANCH  43  57
BRANCH  44  65
ATOM     65  C   UNL A   1      46.850  27.229  25.897  1.00  0.00     0.057 A 
ATOM     66  C   UNL A   1      46.988  27.498  24.531  1.00  0.00     0.134 A 
ATOM     67  C   UNL A   1      47.874  26.503  26.517  1.00  0.00     0.134 A 
ATOM     68  F   UNL A   1      46.031  28.171  23.876  1.00  0.00    -0.206 F 
ATOM     69  C   UNL A   1      48.088  27.042  23.803  1.00  0.00     0.040 A 
ATOM     70  C   UNL A   1      48.994  26.066  25.808  1.00  0.00     0.040 A 
ATOM     71  F   UNL A   1      47.806  26.214  27.825  1.00  0.00    -0.206 F 
ATOM     72  C   UNL A   1      49.099  26.328  24.443  1.00  0.00     0.006 A 
ENDBRANCH  44  65
BRANCH  56  73
ATOM     73  C   UNL A   1      45.250  33.143  29.221  1.00  0.00     0.057 A 
ATOM     74  C   UNL A   1      46.106  33.289  30.320  1.00  0.00     0.134 A 
ATOM     75  C   UNL A   1      45.170  34.210  28.317  1.00  0.00     0.134 A 
ATOM     76  F   UNL A   1      46.221  32.309  31.229  1.00  0.00    -0.206 F 
ATOM     77  C   UNL A   1      46.833  34.463  30.525  1.00  0.00     0.040 A 
ATOM     78  C   UNL A   1      45.916  35.375  28.494  1.00  0.00     0.040 A 
ATOM     79  F   UNL A   1      44.378  34.130  27.236  1.00  0.00    -0.206 F 
ATOM     80  C   UNL A   1      46.744  35.507  29.606  1.00  0.00     0.006 A 
ENDBRANCH  56  73
ENDBRANCH  30  31
ENDBRANCH  23  25
ENDBRANCH  22  23
ENDBRANCH  21  22
ENDBRANCH  20  21
ENDBRANCH  19  20
ENDBRANCH  18  19
ENDBRANCH   1  18
TORSDOF 19
ENDMDL
