MODEL 1
REMARK VINA RESULT:     -12.8      0.000      0.000
REMARK SMILES C[C@@H](Oc1ccc(/C=C2\C(=O)[NH+]=C(OCCOCCOC(=O)c3ccc(-c4c5nc(c(-c6c(F)cccc6F)c6ccc([nH]6)c(-c6c(F)cccc6F)c6nc(c(-c7c(F)cccc7F)c7ccc4[nH]7)C=C6)C=C5)cc3)N(c3ccc4c(c3)OCO4)C2=O)cc1)C(=O)[O-]
REMARK SMILES IDX 16 1 15 2 14 3 13 4 8 5 9 6 10 7 87 8 11 9 12 10 77 11 88 12
REMARK SMILES IDX 7 14 4 15 5 16 90 17 6 18 89 19 3 20 2 21 1 22 91 23 92 24
REMARK SMILES IDX 93 25 78 26 79 27 83 28 80 29 82 30 81 31 84 32 86 33 85 34
REMARK SMILES IDX 17 35 18 36 19 37 20 38 21 39 22 40 23 41 24 42 76 43 25 44
REMARK SMILES IDX 75 45 26 46 27 47 28 48 69 49 29 50 74 51 68 52 70 53 30 54
REMARK SMILES IDX 73 55 67 56 66 57 31 59 57 60 40 61 56 62 41 63 44 64 55 65
REMARK SMILES IDX 71 66 42 67 43 68 54 70 72 71 45 72 32 73 33 74 38 75 34 76
REMARK SMILES IDX 35 77 37 78 39 79 36 80 58 81 59 82 64 83 60 84 61 85 63 86
REMARK SMILES IDX 65 87 62 88 46 89 47 90 52 91 48 92 49 93 51 94 53 95 50 96
REMARK H PARENT 12 13 70 58 44 69
REMARK Flexibility Score: inf
ROOT
ATOM      1  C   UNL A   1      31.787  29.603  27.222  1.00  0.00     0.202 C 
ENDROOT
BRANCH   1   2
ATOM      2  C   UNL A   1      32.318  28.206  26.866  1.00  0.00     0.266 C 
BRANCH   2   3
ATOM      3  O   UNL A   1      31.369  27.299  26.259  1.00  0.00    -0.428 OA
BRANCH   3   4
ATOM      4  C   UNL A   1      31.875  26.300  25.494  1.00  0.00     0.465 C 
ATOM      5  C   UNL A   1      32.648  22.982  23.400  1.00  0.00     0.032 C 
ATOM      6  C   UNL A   1      32.649  24.172  24.033  1.00  0.00     0.155 C 
ATOM      7  C   UNL A   1      33.188  24.438  25.376  1.00  0.00     0.349 C 
ATOM      8  C   UNL A   1      32.086  25.338  23.303  1.00  0.00     0.357 C 
ATOM      9  O   UNL A   1      34.234  23.939  25.768  1.00  0.00    -0.240 OA
ATOM     10  N   UNL A   1      32.493  25.354  26.110  1.00  0.00    -0.171 N 
ATOM     11  N   UNL A   1      31.705  26.387  24.122  1.00  0.00    -0.123 N 
ATOM     12  O   UNL A   1      31.940  25.309  22.082  1.00  0.00    -0.240 OA
ATOM     13  H   UNL A   1      32.467  25.293  27.093  1.00  0.00     0.319 HD
BRANCH   5  14
ATOM     14  C   UNL A   1      33.092  21.637  23.816  1.00  0.00    -0.024 A 
ATOM     15  C   UNL A   1      33.703  19.026  24.703  1.00  0.00     0.120 A 
ATOM     16  C   UNL A   1      34.666  20.027  24.753  1.00  0.00     0.047 A 
ATOM     17  C   UNL A   1      32.425  19.327  24.248  1.00  0.00     0.047 A 
ATOM     18  C   UNL A   1      34.358  21.327  24.329  1.00  0.00     0.012 A 
ATOM     19  C   UNL A   1      32.130  20.615  23.793  1.00  0.00     0.012 A 
BRANCH  15  20
ATOM     20  O   UNL A   1      34.012  17.817  25.256  1.00  0.00    -0.485 OA
BRANCH  20  21
ATOM     21  C   UNL A   1      34.857  16.987  24.448  1.00  0.00     0.216 C 
ATOM     22  C   UNL A   1      34.211  16.650  23.108  1.00  0.00     0.059 C 
BRANCH  21  23
ATOM     23  C   UNL A   1      35.088  15.677  25.192  1.00  0.00     0.082 C 
ATOM     24  O   UNL A   1      34.278  14.768  25.305  1.00  0.00    -0.546 OA
ATOM     25  O   UNL A   1      36.276  15.602  25.828  1.00  0.00    -0.546 OA
ENDBRANCH  21  23
ENDBRANCH  20  21
ENDBRANCH  15  20
ENDBRANCH   5  14
BRANCH  11  26
ATOM     26  C   UNL A   1      31.093  27.513  23.511  1.00  0.00     0.144 A 
ATOM     27  C   UNL A   1      31.908  28.542  22.981  1.00  0.00     0.056 A 
ATOM     28  C   UNL A   1      29.698  27.611  23.446  1.00  0.00     0.103 A 
ATOM     29  C   UNL A   1      31.339  29.676  22.400  1.00  0.00     0.055 A 
ATOM     30  C   UNL A   1      29.170  28.716  22.815  1.00  0.00     0.170 A 
ATOM     31  C   UNL A   1      29.967  29.721  22.312  1.00  0.00     0.166 A 
ATOM     32  O   UNL A   1      27.848  28.948  22.594  1.00  0.00    -0.453 OA
ATOM     33  O   UNL A   1      29.240  30.711  21.728  1.00  0.00    -0.454 OA
ATOM     34  C   UNL A   1      27.924  30.124  21.760  1.00  0.00     0.468 C 
ENDBRANCH  11  26
ENDBRANCH   3   4
ENDBRANCH   2   3
ENDBRANCH   1   2
BRANCH   1  35
ATOM     35  O   UNL A   1      32.091  30.574  26.212  1.00  0.00    -0.374 OA
BRANCH  35  36
ATOM     36  C   UNL A   1      31.122  31.626  26.088  1.00  0.00     0.202 C 
BRANCH  36  37
ATOM     37  C   UNL A   1      31.520  32.925  26.779  1.00  0.00     0.261 C 
BRANCH  37  38
ATOM     38  O   UNL A   1      32.944  33.012  26.843  1.00  0.00    -0.460 OA
BRANCH  38  39
ATOM     39  C   UNL A   1      33.429  33.718  27.892  1.00  0.00     0.338 C 
ATOM     40  O   UNL A   1      32.918  34.671  28.445  1.00  0.00    -0.246 OA
BRANCH  39  41
ATOM     41  C   UNL A   1      34.612  32.997  28.414  1.00  0.00     0.060 A 
ATOM     42  C   UNL A   1      34.522  31.604  28.537  1.00  0.00     0.016 A 
ATOM     43  C   UNL A   1      35.812  33.660  28.694  1.00  0.00     0.016 A 
ATOM     44  C   UNL A   1      35.627  30.870  28.960  1.00  0.00     0.010 A 
ATOM     45  C   UNL A   1      36.913  32.929  29.123  1.00  0.00     0.010 A 
ATOM     46  C   UNL A   1      36.813  31.537  29.282  1.00  0.00    -0.014 A 
BRANCH  46  47
ATOM     47  C   UNL A   1      37.903  30.827  29.977  1.00  0.00     0.031 A 
ATOM     48  C   UNL A   1      38.132  31.151  31.422  1.00  0.00     0.074 A 
ATOM     49  C   UNL A   1      38.698  29.968  29.318  1.00  0.00     0.049 A 
ATOM     50  N   UNL A   1      39.103  30.780  32.212  1.00  0.00    -0.248 NA
ATOM     51  C   UNL A   1      37.133  32.029  32.059  1.00  0.00     0.031 C 
ATOM     52  C   UNL A   1      38.547  29.576  27.918  1.00  0.00     0.029 A 
ATOM     53  N   UNL A   1      39.814  29.296  29.741  1.00  0.00    -0.354 N 
ATOM     54  C   UNL A   1      38.844  31.392  33.431  1.00  0.00     0.074 A 
ATOM     55  C   UNL A   1      37.638  32.174  33.274  1.00  0.00     0.031 C 
ATOM     56  C   UNL A   1      39.556  28.751  27.588  1.00  0.00     0.029 A 
ATOM     57  C   UNL A   1      40.437  28.588  28.742  1.00  0.00     0.049 A 
ATOM     58  H   UNL A   1      40.138  29.316  30.671  1.00  0.00     0.167 HD
ATOM     59  C   UNL A   1      39.553  31.307  34.578  1.00  0.00     0.037 A 
ATOM     60  C   UNL A   1      41.606  27.920  28.761  1.00  0.00     0.037 A 
ATOM     61  C   UNL A   1      40.750  30.527  34.720  1.00  0.00     0.049 A 
ATOM     62  C   UNL A   1      42.403  27.880  30.038  1.00  0.00     0.074 A 
ATOM     63  C   UNL A   1      41.528  30.336  35.846  1.00  0.00     0.029 A 
ATOM     64  N   UNL A   1      41.349  29.816  33.689  1.00  0.00    -0.354 N 
ATOM     65  N   UNL A   1      42.132  28.425  31.201  1.00  0.00    -0.248 NA
ATOM     66  C   UNL A   1      43.671  27.137  30.005  1.00  0.00     0.031 C 
ATOM     67  C   UNL A   1      42.623  29.543  35.486  1.00  0.00     0.029 A 
ATOM     68  C   UNL A   1      42.502  29.206  34.146  1.00  0.00     0.049 A 
ATOM     69  H   UNL A   1      41.003  29.756  32.769  1.00  0.00     0.167 HD
ATOM     70  C   UNL A   1      43.181  28.074  32.041  1.00  0.00     0.074 A 
ATOM     71  C   UNL A   1      44.087  27.259  31.258  1.00  0.00     0.031 C 
ATOM     72  C   UNL A   1      43.381  28.395  33.343  1.00  0.00     0.037 A 
BRANCH  59  73
ATOM     73  C   UNL A   1      39.062  32.099  35.750  1.00  0.00     0.057 A 
ATOM     74  C   UNL A   1      38.233  31.536  36.729  1.00  0.00     0.134 A 
ATOM     75  C   UNL A   1      39.433  33.440  35.909  1.00  0.00     0.134 A 
ATOM     76  F   UNL A   1      37.823  30.263  36.622  1.00  0.00    -0.206 F 
ATOM     77  C   UNL A   1      37.775  32.284  37.815  1.00  0.00     0.040 A 
ATOM     78  C   UNL A   1      39.000  34.191  37.001  1.00  0.00     0.040 A 
ATOM     79  F   UNL A   1      40.221  34.039  35.003  1.00  0.00    -0.206 F 
ATOM     80  C   UNL A   1      38.164  33.615  37.955  1.00  0.00     0.006 A 
ENDBRANCH  59  73
BRANCH  60  81
ATOM     81  C   UNL A   1      42.107  27.259  27.531  1.00  0.00     0.057 A 
ATOM     82  C   UNL A   1      42.769  27.986  26.535  1.00  0.00     0.134 A 
ATOM     83  C   UNL A   1      41.918  25.889  27.311  1.00  0.00     0.134 A 
ATOM     84  F   UNL A   1      42.960  29.306  26.678  1.00  0.00    -0.206 F 
ATOM     85  C   UNL A   1      43.211  27.379  25.358  1.00  0.00     0.040 A 
ATOM     86  C   UNL A   1      42.375  25.265  26.149  1.00  0.00     0.040 A 
ATOM     87  F   UNL A   1      41.293  25.136  28.227  1.00  0.00    -0.206 F 
ATOM     88  C   UNL A   1      43.017  26.013  25.164  1.00  0.00     0.006 A 
ENDBRANCH  60  81
BRANCH  72  89
ATOM     89  C   UNL A   1      44.606  27.842  34.006  1.00  0.00     0.057 A 
ATOM     90  C   UNL A   1      44.612  26.575  34.600  1.00  0.00     0.134 A 
ATOM     91  C   UNL A   1      45.807  28.562  33.995  1.00  0.00     0.134 A 
ATOM     92  F   UNL A   1      43.489  25.842  34.652  1.00  0.00    -0.206 F 
ATOM     93  C   UNL A   1      45.768  26.048  35.175  1.00  0.00     0.040 A 
ATOM     94  C   UNL A   1      46.975  28.036  34.545  1.00  0.00     0.040 A 
ATOM     95  F   UNL A   1      45.868  29.778  33.431  1.00  0.00    -0.206 F 
ATOM     96  C   UNL A   1      46.957  26.776  35.141  1.00  0.00     0.006 A 
ENDBRANCH  72  89
ENDBRANCH  46  47
ENDBRANCH  39  41
ENDBRANCH  38  39
ENDBRANCH  37  38
ENDBRANCH  36  37
ENDBRANCH  35  36
ENDBRANCH   1  35
TORSDOF 18
ENDMDL
MODEL 2
REMARK VINA RESULT:     -12.5      4.022      9.603
REMARK SMILES C[C@@H](Oc1ccc(/C=C2\C(=O)[NH+]=C(OCCOCCOC(=O)c3ccc(-c4c5nc(c(-c6c(F)cccc6F)c6ccc([nH]6)c(-c6c(F)cccc6F)c6nc(c(-c7c(F)cccc7F)c7ccc4[nH]7)C=C6)C=C5)cc3)N(c3ccc4c(c3)OCO4)C2=O)cc1)C(=O)[O-]
REMARK SMILES IDX 16 1 15 2 14 3 13 4 8 5 9 6 10 7 87 8 11 9 12 10 77 11 88 12
REMARK SMILES IDX 7 14 4 15 5 16 90 17 6 18 89 19 3 20 2 21 1 22 91 23 92 24
REMARK SMILES IDX 93 25 78 26 79 27 83 28 80 29 82 30 81 31 84 32 86 33 85 34
REMARK SMILES IDX 17 35 18 36 19 37 20 38 21 39 22 40 23 41 24 42 76 43 25 44
REMARK SMILES IDX 75 45 26 46 27 47 28 48 69 49 29 50 74 51 68 52 70 53 30 54
REMARK SMILES IDX 73 55 67 56 66 57 31 59 57 60 40 61 56 62 41 63 44 64 55 65
REMARK SMILES IDX 71 66 42 67 43 68 54 70 72 71 45 72 32 73 33 74 38 75 34 76
REMARK SMILES IDX 35 77 37 78 39 79 36 80 58 81 59 82 64 83 60 84 61 85 63 86
REMARK SMILES IDX 65 87 62 88 46 89 47 90 52 91 48 92 49 93 51 94 53 95 50 96
REMARK H PARENT 12 13 70 58 44 69
REMARK Flexibility Score: inf
ROOT
ATOM      1  C   UNL A   1      37.593  22.893  25.384  1.00  0.00     0.202 C 
ENDROOT
BRANCH   1   2
ATOM      2  C   UNL A   1      36.489  23.685  26.101  1.00  0.00     0.266 C 
BRANCH   2   3
ATOM      3  O   UNL A   1      35.253  22.976  26.348  1.00  0.00    -0.428 OA
BRANCH   3   4
ATOM      4  C   UNL A   1      34.127  23.488  25.791  1.00  0.00     0.465 C 
ATOM      5  C   UNL A   1      31.310  25.186  23.518  1.00  0.00     0.032 C 
ATOM      6  C   UNL A   1      32.052  24.590  24.471  1.00  0.00     0.155 C 
ATOM      7  C   UNL A   1      32.700  25.259  25.611  1.00  0.00     0.349 C 
ATOM      8  C   UNL A   1      32.210  23.113  24.394  1.00  0.00     0.357 C 
ATOM      9  O   UNL A   1      32.150  26.154  26.238  1.00  0.00    -0.240 OA
ATOM     10  N   UNL A   1      33.908  24.743  25.977  1.00  0.00    -0.171 N 
ATOM     11  N   UNL A   1      33.302  22.625  25.090  1.00  0.00    -0.123 N 
ATOM     12  O   UNL A   1      31.445  22.431  23.714  1.00  0.00    -0.240 OA
ATOM     13  H   UNL A   1      34.599  25.320  26.377  1.00  0.00     0.319 HD
BRANCH   5  14
ATOM     14  C   UNL A   1      30.966  26.601  23.270  1.00  0.00    -0.024 A 
ATOM     15  C   UNL A   1      30.077  29.224  22.718  1.00  0.00     0.120 A 
ATOM     16  C   UNL A   1      31.408  28.877  22.515  1.00  0.00     0.047 A 
ATOM     17  C   UNL A   1      29.178  28.261  23.159  1.00  0.00     0.047 A 
ATOM     18  C   UNL A   1      31.845  27.571  22.773  1.00  0.00     0.012 A 
ATOM     19  C   UNL A   1      29.623  26.968  23.449  1.00  0.00     0.012 A 
BRANCH  15  20
ATOM     20  O   UNL A   1      29.675  30.466  22.320  1.00  0.00    -0.485 OA
BRANCH  20  21
ATOM     21  C   UNL A   1      28.264  30.599  22.105  1.00  0.00     0.216 C 
ATOM     22  C   UNL A   1      27.947  31.119  20.706  1.00  0.00     0.059 C 
BRANCH  21  23
ATOM     23  C   UNL A   1      27.724  31.613  23.107  1.00  0.00     0.082 C 
ATOM     24  O   UNL A   1      26.952  31.370  24.024  1.00  0.00    -0.546 OA
ATOM     25  O   UNL A   1      28.101  32.887  22.864  1.00  0.00    -0.546 OA
ENDBRANCH  21  23
ENDBRANCH  20  21
ENDBRANCH  15  20
ENDBRANCH   5  14
BRANCH  11  26
ATOM     26  C   UNL A   1      33.566  21.232  25.011  1.00  0.00     0.144 A 
ATOM     27  C   UNL A   1      34.850  20.793  24.607  1.00  0.00     0.056 A 
ATOM     28  C   UNL A   1      32.564  20.304  25.315  1.00  0.00     0.103 A 
ATOM     29  C   UNL A   1      35.135  19.432  24.488  1.00  0.00     0.055 A 
ATOM     30  C   UNL A   1      32.896  18.968  25.244  1.00  0.00     0.170 A 
ATOM     31  C   UNL A   1      34.142  18.545  24.838  1.00  0.00     0.166 A 
ATOM     32  O   UNL A   1      32.081  17.929  25.570  1.00  0.00    -0.453 OA
ATOM     33  O   UNL A   1      34.254  17.190  24.845  1.00  0.00    -0.454 OA
ATOM     34  C   UNL A   1      33.008  16.827  25.474  1.00  0.00     0.468 C 
ENDBRANCH  11  26
ENDBRANCH   3   4
ENDBRANCH   2   3
ENDBRANCH   1   2
BRANCH   1  35
ATOM     35  O   UNL A   1      37.952  21.699  26.091  1.00  0.00    -0.374 OA
BRANCH  35  36
ATOM     36  C   UNL A   1      38.808  20.809  25.359  1.00  0.00     0.202 C 
BRANCH  36  37
ATOM     37  C   UNL A   1      39.634  19.875  26.235  1.00  0.00     0.261 C 
BRANCH  37  38
ATOM     38  O   UNL A   1      40.608  19.208  25.431  1.00  0.00    -0.460 OA
BRANCH  38  39
ATOM     39  C   UNL A   1      41.851  19.151  25.965  1.00  0.00     0.338 C 
ATOM     40  O   UNL A   1      42.634  18.223  25.928  1.00  0.00    -0.246 OA
BRANCH  39  41
ATOM     41  C   UNL A   1      42.206  20.511  26.431  1.00  0.00     0.060 A 
ATOM     42  C   UNL A   1      42.459  21.487  25.457  1.00  0.00     0.016 A 
ATOM     43  C   UNL A   1      42.204  20.845  27.790  1.00  0.00     0.016 A 
ATOM     44  C   UNL A   1      42.731  22.797  25.840  1.00  0.00     0.010 A 
ATOM     45  C   UNL A   1      42.483  22.152  28.173  1.00  0.00     0.010 A 
ATOM     46  C   UNL A   1      42.773  23.122  27.200  1.00  0.00    -0.014 A 
BRANCH  46  47
ATOM     47  C   UNL A   1      43.312  24.422  27.640  1.00  0.00     0.031 A 
ATOM     48  C   UNL A   1      42.330  25.473  28.064  1.00  0.00     0.074 A 
ATOM     49  C   UNL A   1      44.631  24.672  27.601  1.00  0.00     0.049 A 
ATOM     50  N   UNL A   1      42.532  26.729  28.352  1.00  0.00    -0.248 NA
ATOM     51  C   UNL A   1      40.922  25.047  28.161  1.00  0.00     0.031 C 
ATOM     52  C   UNL A   1      45.665  23.712  27.219  1.00  0.00     0.029 A 
ATOM     53  N   UNL A   1      45.319  25.828  27.860  1.00  0.00    -0.354 N 
ATOM     54  C   UNL A   1      41.279  27.249  28.646  1.00  0.00     0.074 A 
ATOM     55  C   UNL A   1      40.319  26.181  28.483  1.00  0.00     0.031 C 
ATOM     56  C   UNL A   1      46.859  24.331  27.240  1.00  0.00     0.029 A 
ATOM     57  C   UNL A   1      46.664  25.733  27.603  1.00  0.00     0.049 A 
ATOM     58  H   UNL A   1      44.890  26.648  28.200  1.00  0.00     0.167 HD
ATOM     59  C   UNL A   1      40.961  28.509  29.018  1.00  0.00     0.037 A 
ATOM     60  C   UNL A   1      47.614  26.687  27.624  1.00  0.00     0.037 A 
ATOM     61  C   UNL A   1      41.925  29.562  29.175  1.00  0.00     0.049 A 
ATOM     62  C   UNL A   1      47.227  28.095  27.994  1.00  0.00     0.074 A 
ATOM     63  C   UNL A   1      41.721  30.865  29.586  1.00  0.00     0.029 A 
ATOM     64  N   UNL A   1      43.281  29.428  28.913  1.00  0.00    -0.354 N 
ATOM     65  N   UNL A   1      46.047  28.572  28.313  1.00  0.00    -0.248 NA
ATOM     66  C   UNL A   1      48.302  29.097  28.003  1.00  0.00     0.031 C 
ATOM     67  C   UNL A   1      42.948  31.534  29.532  1.00  0.00     0.029 A 
ATOM     68  C   UNL A   1      43.923  30.633  29.128  1.00  0.00     0.049 A 
ATOM     69  H   UNL A   1      43.720  28.597  28.617  1.00  0.00     0.167 HD
ATOM     70  C   UNL A   1      46.240  29.921  28.581  1.00  0.00     0.074 A 
ATOM     71  C   UNL A   1      47.653  30.184  28.399  1.00  0.00     0.031 C 
ATOM     72  C   UNL A   1      45.333  30.861  28.944  1.00  0.00     0.037 A 
BRANCH  59  73
ATOM     73  C   UNL A   1      39.513  28.813  29.249  1.00  0.00     0.057 A 
ATOM     74  C   UNL A   1      38.914  28.648  30.505  1.00  0.00     0.134 A 
ATOM     75  C   UNL A   1      38.710  29.287  28.205  1.00  0.00     0.134 A 
ATOM     76  F   UNL A   1      39.624  28.175  31.540  1.00  0.00    -0.206 F 
ATOM     77  C   UNL A   1      37.562  28.928  30.709  1.00  0.00     0.040 A 
ATOM     78  C   UNL A   1      37.363  29.592  28.402  1.00  0.00     0.040 A 
ATOM     79  F   UNL A   1      39.222  29.461  26.977  1.00  0.00    -0.206 F 
ATOM     80  C   UNL A   1      36.784  29.407  29.657  1.00  0.00     0.006 A 
ENDBRANCH  59  73
BRANCH  60  81
ATOM     81  C   UNL A   1      49.013  26.354  27.261  1.00  0.00     0.057 A 
ATOM     82  C   UNL A   1      49.466  26.464  25.941  1.00  0.00     0.134 A 
ATOM     83  C   UNL A   1      49.927  25.898  28.219  1.00  0.00     0.134 A 
ATOM     84  F   UNL A   1      48.632  26.873  24.974  1.00  0.00    -0.206 F 
ATOM     85  C   UNL A   1      50.771  26.117  25.584  1.00  0.00     0.040 A 
ATOM     86  C   UNL A   1      51.241  25.570  27.880  1.00  0.00     0.040 A 
ATOM     87  F   UNL A   1      49.556  25.772  29.502  1.00  0.00    -0.206 F 
ATOM     88  C   UNL A   1      51.663  25.672  26.556  1.00  0.00     0.006 A 
ENDBRANCH  60  81
BRANCH  72  89
ATOM     89  C   UNL A   1      45.845  32.247  29.195  1.00  0.00     0.057 A 
ATOM     90  C   UNL A   1      46.373  32.623  30.436  1.00  0.00     0.134 A 
ATOM     91  C   UNL A   1      45.865  33.196  28.165  1.00  0.00     0.134 A 
ATOM     92  F   UNL A   1      46.370  31.762  31.465  1.00  0.00    -0.206 F 
ATOM     93  C   UNL A   1      46.889  33.901  30.648  1.00  0.00     0.040 A 
ATOM     94  C   UNL A   1      46.401  34.469  28.358  1.00  0.00     0.040 A 
ATOM     95  F   UNL A   1      45.384  32.893  26.950  1.00  0.00    -0.206 F 
ATOM     96  C   UNL A   1      46.912  34.826  29.605  1.00  0.00     0.006 A 
ENDBRANCH  72  89
ENDBRANCH  46  47
ENDBRANCH  39  41
ENDBRANCH  38  39
ENDBRANCH  37  38
ENDBRANCH  36  37
ENDBRANCH  35  36
ENDBRANCH   1  35
TORSDOF 18
ENDMDL
MODEL 3
REMARK VINA RESULT:     -12.5      0.660      5.765
REMARK SMILES C[C@@H](Oc1ccc(/C=C2\C(=O)[NH+]=C(OCCOCCOC(=O)c3ccc(-c4c5nc(c(-c6c(F)cccc6F)c6ccc([nH]6)c(-c6c(F)cccc6F)c6nc(c(-c7c(F)cccc7F)c7ccc4[nH]7)C=C6)C=C5)cc3)N(c3ccc4c(c3)OCO4)C2=O)cc1)C(=O)[O-]
REMARK SMILES IDX 16 1 15 2 14 3 13 4 8 5 9 6 10 7 87 8 11 9 12 10 77 11 88 12
REMARK SMILES IDX 7 14 4 15 5 16 90 17 6 18 89 19 3 20 2 21 1 22 91 23 92 24
REMARK SMILES IDX 93 25 78 26 79 27 83 28 80 29 82 30 81 31 84 32 86 33 85 34
REMARK SMILES IDX 17 35 18 36 19 37 20 38 21 39 22 40 23 41 24 42 76 43 25 44
REMARK SMILES IDX 75 45 26 46 27 47 28 48 69 49 29 50 74 51 68 52 70 53 30 54
REMARK SMILES IDX 73 55 67 56 66 57 31 59 57 60 40 61 56 62 41 63 44 64 55 65
REMARK SMILES IDX 71 66 42 67 43 68 54 70 72 71 45 72 32 73 33 74 38 75 34 76
REMARK SMILES IDX 35 77 37 78 39 79 36 80 58 81 59 82 64 83 60 84 61 85 63 86
REMARK SMILES IDX 65 87 62 88 46 89 47 90 52 91 48 92 49 93 51 94 53 95 50 96
REMARK H PARENT 12 13 70 58 44 69
REMARK Flexibility Score: inf
ROOT
ATOM      1  C   UNL A   1      31.786  29.435  27.260  1.00  0.00     0.202 C 
ENDROOT
BRANCH   1   2
ATOM      2  C   UNL A   1      32.316  28.063  26.816  1.00  0.00     0.266 C 
BRANCH   2   3
ATOM      3  O   UNL A   1      31.342  27.156  26.249  1.00  0.00    -0.428 OA
BRANCH   3   4
ATOM      4  C   UNL A   1      31.816  26.157  25.463  1.00  0.00     0.465 C 
ATOM      5  C   UNL A   1      32.483  22.856  23.307  1.00  0.00     0.032 C 
ATOM      6  C   UNL A   1      32.520  24.034  23.960  1.00  0.00     0.155 C 
ATOM      7  C   UNL A   1      33.078  24.263  25.303  1.00  0.00     0.349 C 
ATOM      8  C   UNL A   1      31.983  25.228  23.255  1.00  0.00     0.357 C 
ATOM      9  O   UNL A   1      34.114  23.730  25.678  1.00  0.00    -0.240 OA
ATOM     10  N   UNL A   1      32.414  25.185  26.058  1.00  0.00    -0.171 N 
ATOM     11  N   UNL A   1      31.637  26.272  24.095  1.00  0.00    -0.123 N 
ATOM     12  O   UNL A   1      31.825  25.223  22.035  1.00  0.00    -0.240 OA
ATOM     13  H   UNL A   1      32.393  25.108  27.040  1.00  0.00     0.319 HD
BRANCH   5  14
ATOM     14  C   UNL A   1      32.895  21.493  23.698  1.00  0.00    -0.024 A 
ATOM     15  C   UNL A   1      33.928  18.966  24.421  1.00  0.00     0.120 A 
ATOM     16  C   UNL A   1      32.748  19.059  23.692  1.00  0.00     0.047 A 
ATOM     17  C   UNL A   1      34.617  20.124  24.759  1.00  0.00     0.047 A 
ATOM     18  C   UNL A   1      32.244  20.312  23.319  1.00  0.00     0.012 A 
ATOM     19  C   UNL A   1      34.095  21.375  24.416  1.00  0.00     0.012 A 
BRANCH  15  20
ATOM     20  O   UNL A   1      34.446  17.722  24.637  1.00  0.00    -0.485 OA
BRANCH  20  21
ATOM     21  C   UNL A   1      33.470  16.701  24.881  1.00  0.00     0.216 C 
ATOM     22  C   UNL A   1      32.560  17.051  26.054  1.00  0.00     0.059 C 
BRANCH  21  23
ATOM     23  C   UNL A   1      34.207  15.415  25.237  1.00  0.00     0.082 C 
ATOM     24  O   UNL A   1      35.421  15.279  25.294  1.00  0.00    -0.546 OA
ATOM     25  O   UNL A   1      33.402  14.346  25.416  1.00  0.00    -0.546 OA
ENDBRANCH  21  23
ENDBRANCH  20  21
ENDBRANCH  15  20
ENDBRANCH   5  14
BRANCH  11  26
ATOM     26  C   UNL A   1      31.049  27.424  23.508  1.00  0.00     0.144 A 
ATOM     27  C   UNL A   1      31.887  28.444  22.997  1.00  0.00     0.056 A 
ATOM     28  C   UNL A   1      29.657  27.555  23.448  1.00  0.00     0.103 A 
ATOM     29  C   UNL A   1      31.343  29.603  22.440  1.00  0.00     0.055 A 
ATOM     30  C   UNL A   1      29.153  28.684  22.840  1.00  0.00     0.170 A 
ATOM     31  C   UNL A   1      29.972  29.681  22.356  1.00  0.00     0.166 A 
ATOM     32  O   UNL A   1      27.836  28.951  22.627  1.00  0.00    -0.453 OA
ATOM     33  O   UNL A   1      29.267  30.699  21.794  1.00  0.00    -0.454 OA
ATOM     34  C   UNL A   1      27.937  30.141  21.817  1.00  0.00     0.468 C 
ENDBRANCH  11  26
ENDBRANCH   3   4
ENDBRANCH   2   3
ENDBRANCH   1   2
BRANCH   1  35
ATOM     35  O   UNL A   1      32.118  30.473  26.329  1.00  0.00    -0.374 OA
BRANCH  35  36
ATOM     36  C   UNL A   1      31.083  31.448  26.132  1.00  0.00     0.202 C 
BRANCH  36  37
ATOM     37  C   UNL A   1      31.431  32.841  26.644  1.00  0.00     0.261 C 
BRANCH  37  38
ATOM     38  O   UNL A   1      32.839  32.924  26.872  1.00  0.00    -0.460 OA
BRANCH  38  39
ATOM     39  C   UNL A   1      33.207  33.717  27.906  1.00  0.00     0.338 C 
ATOM     40  O   UNL A   1      32.571  34.622  28.410  1.00  0.00    -0.246 OA
BRANCH  39  41
ATOM     41  C   UNL A   1      34.450  33.159  28.486  1.00  0.00     0.060 A 
ATOM     42  C   UNL A   1      34.406  31.847  28.976  1.00  0.00     0.016 A 
ATOM     43  C   UNL A   1      35.652  33.874  28.469  1.00  0.00     0.016 A 
ATOM     44  C   UNL A   1      35.562  31.251  29.471  1.00  0.00     0.010 A 
ATOM     45  C   UNL A   1      36.806  33.281  28.969  1.00  0.00     0.010 A 
ATOM     46  C   UNL A   1      36.756  31.979  29.495  1.00  0.00    -0.014 A 
BRANCH  46  47
ATOM     47  C   UNL A   1      37.922  31.477  30.246  1.00  0.00     0.031 A 
ATOM     48  C   UNL A   1      38.796  30.463  29.572  1.00  0.00     0.074 A 
ATOM     49  C   UNL A   1      38.152  31.871  31.509  1.00  0.00     0.049 A 
ATOM     50  N   UNL A   1      39.785  29.765  30.060  1.00  0.00    -0.248 NA
ATOM     51  C   UNL A   1      38.502  30.188  28.154  1.00  0.00     0.031 C 
ATOM     52  C   UNL A   1      37.369  32.863  32.244  1.00  0.00     0.029 A 
ATOM     53  N   UNL A   1      39.100  31.453  32.405  1.00  0.00    -0.354 N 
ATOM     54  C   UNL A   1      40.218  28.956  29.019  1.00  0.00     0.074 A 
ATOM     55  C   UNL A   1      39.376  29.233  27.877  1.00  0.00     0.031 C 
ATOM     56  C   UNL A   1      37.853  32.955  33.495  1.00  0.00     0.029 A 
ATOM     57  C   UNL A   1      38.953  32.006  33.653  1.00  0.00     0.049 A 
ATOM     58  H   UNL A   1      39.818  30.819  32.176  1.00  0.00     0.167 HD
ATOM     59  C   UNL A   1      41.232  28.062  29.019  1.00  0.00     0.037 A 
ATOM     60  C   UNL A   1      39.614  31.741  34.796  1.00  0.00     0.037 A 
ATOM     61  C   UNL A   1      42.061  27.796  30.160  1.00  0.00     0.049 A 
ATOM     62  C   UNL A   1      40.707  30.704  34.783  1.00  0.00     0.074 A 
ATOM     63  C   UNL A   1      43.141  26.940  30.262  1.00  0.00     0.029 A 
ATOM     64  N   UNL A   1      41.889  28.380  31.407  1.00  0.00    -0.354 N 
ATOM     65  N   UNL A   1      41.142  29.973  33.784  1.00  0.00    -0.248 NA
ATOM     66  C   UNL A   1      41.397  30.452  36.056  1.00  0.00     0.031 C 
ATOM     67  C   UNL A   1      43.597  26.974  31.584  1.00  0.00     0.029 A 
ATOM     68  C   UNL A   1      42.827  27.884  32.293  1.00  0.00     0.049 A 
ATOM     69  H   UNL A   1      41.200  29.050  31.627  1.00  0.00     0.167 HD
ATOM     70  C   UNL A   1      42.168  29.192  34.301  1.00  0.00     0.074 A 
ATOM     71  C   UNL A   1      42.299  29.547  35.699  1.00  0.00     0.031 C 
ATOM     72  C   UNL A   1      42.935  28.263  33.678  1.00  0.00     0.037 A 
BRANCH  59  73
ATOM     73  C   UNL A   1      41.471  27.295  27.755  1.00  0.00     0.057 A 
ATOM     74  C   UNL A   1      40.936  26.016  27.553  1.00  0.00     0.134 A 
ATOM     75  C   UNL A   1      42.239  27.846  26.722  1.00  0.00     0.134 A 
ATOM     76  F   UNL A   1      40.212  25.423  28.514  1.00  0.00    -0.206 F 
ATOM     77  C   UNL A   1      41.170  25.305  26.375  1.00  0.00     0.040 A 
ATOM     78  C   UNL A   1      42.461  27.156  25.531  1.00  0.00     0.040 A 
ATOM     79  F   UNL A   1      42.784  29.065  26.855  1.00  0.00    -0.206 F 
ATOM     80  C   UNL A   1      41.931  25.879  25.357  1.00  0.00     0.006 A 
ENDBRANCH  59  73
BRANCH  60  81
ATOM     81  C   UNL A   1      39.247  32.442  36.050  1.00  0.00     0.057 A 
ATOM     82  C   UNL A   1      39.795  33.689  36.371  1.00  0.00     0.134 A 
ATOM     83  C   UNL A   1      38.356  31.873  36.969  1.00  0.00     0.134 A 
ATOM     84  F   UNL A   1      40.671  34.274  35.542  1.00  0.00    -0.206 F 
ATOM     85  C   UNL A   1      39.483  34.339  37.567  1.00  0.00     0.040 A 
ATOM     86  C   UNL A   1      38.017  32.523  38.158  1.00  0.00     0.040 A 
ATOM     87  F   UNL A   1      37.795  30.681  36.720  1.00  0.00    -0.206 F 
ATOM     88  C   UNL A   1      38.589  33.756  38.464  1.00  0.00     0.006 A 
ENDBRANCH  60  81
BRANCH  72  89
ATOM     89  C   UNL A   1      43.997  27.591  34.495  1.00  0.00     0.057 A 
ATOM     90  C   UNL A   1      43.759  26.382  35.158  1.00  0.00     0.134 A 
ATOM     91  C   UNL A   1      45.288  28.131  34.568  1.00  0.00     0.134 A 
ATOM     92  F   UNL A   1      42.540  25.821  35.136  1.00  0.00    -0.206 F 
ATOM     93  C   UNL A   1      44.766  25.739  35.879  1.00  0.00     0.040 A 
ATOM     94  C   UNL A   1      46.308  27.485  35.265  1.00  0.00     0.040 A 
ATOM     95  F   UNL A   1      45.580  29.282  33.944  1.00  0.00    -0.206 F 
ATOM     96  C   UNL A   1      46.047  26.286  35.927  1.00  0.00     0.006 A 
ENDBRANCH  72  89
ENDBRANCH  46  47
ENDBRANCH  39  41
ENDBRANCH  38  39
ENDBRANCH  37  38
ENDBRANCH  36  37
ENDBRANCH  35  36
ENDBRANCH   1  35
TORSDOF 18
ENDMDL
