MODEL 1
REMARK VINA RESULT:     -11.2      0.000      0.000
REMARK SMILES NC(=O)c1c(-c2ccc(Cl)cc2)csc1NC(=O)[C@H]1[C@@H](C(=O)OCCOCCOC(=O)c2ccc(-c3c4nc(c(-c5c(F)cccc5F)c5ccc([nH]5)c(-c5c(F)cccc5F)c5nc(c(-c6c(F)cccc6F)c6ccc3[nH]6)C=C5)C=C4)cc2)[C@@H]2CC[C@H]1O2
REMARK SMILES IDX 25 1 24 2 23 3 21 4 22 5 20 6 19 7 89 8 86 9 88 10 90 11
REMARK SMILES IDX 87 12 17 13 16 14 18 16 15 17 4 18 5 19 13 20 14 21 2 22
REMARK SMILES IDX 1 23 3 26 6 27 7 28 12 29 8 30 11 31 9 32 10 33 26 34 27 35
REMARK SMILES IDX 28 36 29 37 30 38 31 39 32 40 33 41 85 42 34 43 84 44 35 45
REMARK SMILES IDX 36 46 37 47 78 48 38 49 83 50 77 51 79 52 39 53 82 54 76 55
REMARK SMILES IDX 75 56 40 58 66 59 49 60 65 61 50 62 53 63 64 64 80 65 51 66
REMARK SMILES IDX 52 67 63 69 81 70 54 71 41 72 42 73 47 74 43 75 44 76 46 77
REMARK SMILES IDX 48 78 45 79 67 80 68 81 73 82 69 83 70 84 72 85 74 86 71 87
REMARK SMILES IDX 55 88 56 89 61 90 57 91 58 92 60 93 62 94 59 95
REMARK H PARENT 16 15 1 24 1 25 79 57 53 68
REMARK Flexibility Score: inf
ROOT
ATOM      1  C   UNL A   1      33.582  32.111  27.721  1.00  0.00     0.202 C 
ENDROOT
BRANCH   1   2
ATOM      2  C   UNL A   1      33.214  30.720  27.176  1.00  0.00     0.261 C 
BRANCH   2   3
ATOM      3  O   UNL A   1      32.336  30.611  26.057  1.00  0.00    -0.463 OA
BRANCH   3   4
ATOM      4  C   UNL A   1      32.576  29.626  25.162  1.00  0.00     0.312 C 
ATOM      5  O   UNL A   1      33.690  29.218  24.875  1.00  0.00    -0.252 OA
BRANCH   4   6
ATOM      6  C   UNL A   1      31.290  28.987  24.704  1.00  0.00     0.143 C 
ATOM      7  C   UNL A   1      30.866  27.714  25.452  1.00  0.00     0.124 C 
ATOM      8  C   UNL A   1      30.610  26.734  24.313  1.00  0.00     0.132 C 
ATOM      9  C   UNL A   1      31.262  28.514  23.239  1.00  0.00     0.133 C 
ATOM     10  C   UNL A   1      29.344  27.136  23.540  1.00  0.00     0.035 C 
ATOM     11  O   UNL A   1      31.612  27.123  23.347  1.00  0.00    -0.373 OA
ATOM     12  C   UNL A   1      29.824  28.355  22.742  1.00  0.00     0.036 C 
BRANCH   7  13
ATOM     13  C   UNL A   1      31.646  27.186  26.665  1.00  0.00     0.231 C 
ATOM     14  N   UNL A   1      32.635  26.254  26.679  1.00  0.00    -0.317 N 
ATOM     15  H   UNL A   1      33.183  26.276  27.496  1.00  0.00     0.170 HD
ATOM     16  O   UNL A   1      31.419  27.748  27.751  1.00  0.00    -0.274 OA
BRANCH  14  17
ATOM     17  C   UNL A   1      33.025  25.285  25.781  1.00  0.00     0.108 A 
ATOM     18  C   UNL A   1      32.454  24.029  25.591  1.00  0.00     0.082 A 
ATOM     19  C   UNL A   1      33.194  23.303  24.576  1.00  0.00     0.007 A 
ATOM     20  C   UNL A   1      34.138  24.100  23.959  1.00  0.00     0.076 A 
ATOM     21  S   UNL A   1      34.113  25.694  24.555  1.00  0.00    -0.125 S 
BRANCH  18  22
ATOM     22  C   UNL A   1      31.315  23.586  26.399  1.00  0.00     0.252 C 
ATOM     23  N   UNL A   1      30.240  23.057  25.745  1.00  0.00    -0.365 N 
ATOM     24  H   UNL A   1      29.456  22.749  26.255  1.00  0.00     0.159 HD
ATOM     25  H   UNL A   1      30.249  22.983  24.763  1.00  0.00     0.159 HD
ATOM     26  O   UNL A   1      31.295  23.673  27.624  1.00  0.00    -0.269 OA
ENDBRANCH  18  22
BRANCH  19  27
ATOM     27  C   UNL A   1      33.018  21.937  24.110  1.00  0.00    -0.017 A 
ATOM     28  C   UNL A   1      32.285  21.682  22.943  1.00  0.00     0.010 A 
ATOM     29  C   UNL A   1      33.601  20.875  24.810  1.00  0.00     0.010 A 
ATOM     30  C   UNL A   1      32.151  20.372  22.478  1.00  0.00     0.021 A 
ATOM     31  C   UNL A   1      33.449  19.565  24.350  1.00  0.00     0.021 A 
ATOM     32  C   UNL A   1      32.723  19.318  23.185  1.00  0.00     0.041 A 
ATOM     33  Cl  UNL A   1      32.533  17.708  22.616  1.00  0.00    -0.084 Cl
ENDBRANCH  19  27
ENDBRANCH  14  17
ENDBRANCH   7  13
ENDBRANCH   4   6
ENDBRANCH   3   4
ENDBRANCH   2   3
ENDBRANCH   1   2
BRANCH   1  34
ATOM     34  O   UNL A   1      34.300  32.307  28.929  1.00  0.00    -0.374 OA
BRANCH  34  35
ATOM     35  C   UNL A   1      34.325  33.547  29.608  1.00  0.00     0.202 C 
BRANCH  35  36
ATOM     36  C   UNL A   1      34.407  33.479  31.127  1.00  0.00     0.261 C 
BRANCH  36  37
ATOM     37  O   UNL A   1      35.763  33.574  31.584  1.00  0.00    -0.460 OA
BRANCH  37  38
ATOM     38  C   UNL A   1      36.157  32.571  32.404  1.00  0.00     0.338 C 
ATOM     39  O   UNL A   1      35.764  32.332  33.527  1.00  0.00    -0.246 OA
BRANCH  38  40
ATOM     40  C   UNL A   1      37.081  31.680  31.676  1.00  0.00     0.060 A 
ATOM     41  C   UNL A   1      38.017  30.962  32.432  1.00  0.00     0.016 A 
ATOM     42  C   UNL A   1      37.069  31.589  30.280  1.00  0.00     0.016 A 
ATOM     43  C   UNL A   1      38.990  30.205  31.788  1.00  0.00     0.010 A 
ATOM     44  C   UNL A   1      38.057  30.845  29.635  1.00  0.00     0.010 A 
ATOM     45  C   UNL A   1      39.046  30.192  30.388  1.00  0.00    -0.014 A 
BRANCH  45  46
ATOM     46  C   UNL A   1      40.271  29.698  29.724  1.00  0.00     0.031 A 
ATOM     47  C   UNL A   1      41.432  30.641  29.597  1.00  0.00     0.074 A 
ATOM     48  C   UNL A   1      40.352  28.440  29.265  1.00  0.00     0.049 A 
ATOM     49  N   UNL A   1      42.597  30.450  29.038  1.00  0.00    -0.248 NA
ATOM     50  C   UNL A   1      41.244  31.989  30.158  1.00  0.00     0.031 C 
ATOM     51  C   UNL A   1      39.285  27.448  29.336  1.00  0.00     0.029 A 
ATOM     52  N   UNL A   1      41.392  27.779  28.665  1.00  0.00    -0.354 N 
ATOM     53  C   UNL A   1      43.263  31.663  29.140  1.00  0.00     0.074 A 
ATOM     54  C   UNL A   1      42.384  32.578  29.834  1.00  0.00     0.031 C 
ATOM     55  C   UNL A   1      39.744  26.281  28.853  1.00  0.00     0.029 A 
ATOM     56  C   UNL A   1      41.115  26.464  28.383  1.00  0.00     0.049 A 
ATOM     57  H   UNL A   1      42.254  28.206  28.456  1.00  0.00     0.167 HD
ATOM     58  C   UNL A   1      44.488  31.993  28.670  1.00  0.00     0.037 A 
ATOM     59  C   UNL A   1      41.885  25.526  27.798  1.00  0.00     0.037 A 
ATOM     60  C   UNL A   1      45.354  31.080  27.977  1.00  0.00     0.049 A 
ATOM     61  C   UNL A   1      43.259  25.904  27.315  1.00  0.00     0.074 A 
ATOM     62  C   UNL A   1      46.612  31.311  27.454  1.00  0.00     0.029 A 
ATOM     63  N   UNL A   1      45.042  29.755  27.707  1.00  0.00    -0.354 N 
ATOM     64  N   UNL A   1      43.880  27.057  27.412  1.00  0.00    -0.248 NA
ATOM     65  C   UNL A   1      44.028  24.865  26.617  1.00  0.00     0.031 C 
ATOM     66  C   UNL A   1      47.047  30.135  26.833  1.00  0.00     0.029 A 
ATOM     67  C   UNL A   1      46.075  29.161  27.006  1.00  0.00     0.049 A 
ATOM     68  H   UNL A   1      44.208  29.305  27.976  1.00  0.00     0.167 HD
ATOM     69  C   UNL A   1      45.103  26.885  26.778  1.00  0.00     0.074 A 
ATOM     70  C   UNL A   1      45.152  25.507  26.331  1.00  0.00     0.031 C 
ATOM     71  C   UNL A   1      46.091  27.790  26.565  1.00  0.00     0.037 A 
BRANCH  58  72
ATOM     72  C   UNL A   1      44.914  33.420  28.826  1.00  0.00     0.057 A 
ATOM     73  C   UNL A   1      44.557  34.413  27.906  1.00  0.00     0.134 A 
ATOM     74  C   UNL A   1      45.718  33.799  29.909  1.00  0.00     0.134 A 
ATOM     75  F   UNL A   1      43.812  34.107  26.833  1.00  0.00    -0.206 F 
ATOM     76  C   UNL A   1      45.005  35.728  28.044  1.00  0.00     0.040 A 
ATOM     77  C   UNL A   1      46.155  35.114  30.069  1.00  0.00     0.040 A 
ATOM     78  F   UNL A   1      46.102  32.893  30.822  1.00  0.00    -0.206 F 
ATOM     79  C   UNL A   1      45.805  36.082  29.130  1.00  0.00     0.006 A 
ENDBRANCH  58  72
BRANCH  59  80
ATOM     80  C   UNL A   1      41.367  24.147  27.623  1.00  0.00     0.057 A 
ATOM     81  C   UNL A   1      40.385  23.862  26.666  1.00  0.00     0.134 A 
ATOM     82  C   UNL A   1      41.844  23.080  28.394  1.00  0.00     0.134 A 
ATOM     83  F   UNL A   1      39.872  24.847  25.914  1.00  0.00    -0.206 F 
ATOM     84  C   UNL A   1      39.896  22.568  26.483  1.00  0.00     0.040 A 
ATOM     85  C   UNL A   1      41.379  21.777  28.206  1.00  0.00     0.040 A 
ATOM     86  F   UNL A   1      42.785  23.287  29.326  1.00  0.00    -0.206 F 
ATOM     87  C   UNL A   1      40.399  21.519  27.251  1.00  0.00     0.006 A 
ENDBRANCH  59  80
BRANCH  71  88
ATOM     88  C   UNL A   1      47.296  27.325  25.805  1.00  0.00     0.057 A 
ATOM     89  C   UNL A   1      48.343  26.649  26.444  1.00  0.00     0.134 A 
ATOM     90  C   UNL A   1      47.377  27.489  24.418  1.00  0.00     0.134 A 
ATOM     91  F   UNL A   1      48.325  26.468  27.773  1.00  0.00    -0.206 F 
ATOM     92  C   UNL A   1      49.436  26.160  25.728  1.00  0.00     0.040 A 
ATOM     93  C   UNL A   1      48.456  26.989  23.689  1.00  0.00     0.040 A 
ATOM     94  F   UNL A   1      46.400  28.121  23.750  1.00  0.00    -0.206 F 
ATOM     95  C   UNL A   1      49.490  26.323  24.344  1.00  0.00     0.006 A 
ENDBRANCH  71  88
ENDBRANCH  45  46
ENDBRANCH  38  40
ENDBRANCH  37  38
ENDBRANCH  36  37
ENDBRANCH  35  36
ENDBRANCH  34  35
ENDBRANCH   1  34
TORSDOF 18
ENDMDL
MODEL 2
REMARK VINA RESULT:     -11.2      4.011      8.160
REMARK SMILES NC(=O)c1c(-c2ccc(Cl)cc2)csc1NC(=O)[C@H]1[C@@H](C(=O)OCCOCCOC(=O)c2ccc(-c3c4nc(c(-c5c(F)cccc5F)c5ccc([nH]5)c(-c5c(F)cccc5F)c5nc(c(-c6c(F)cccc6F)c6ccc3[nH]6)C=C5)C=C4)cc2)[C@@H]2CC[C@H]1O2
REMARK SMILES IDX 25 1 24 2 23 3 21 4 22 5 20 6 19 7 89 8 86 9 88 10 90 11
REMARK SMILES IDX 87 12 17 13 16 14 18 16 15 17 4 18 5 19 13 20 14 21 2 22
REMARK SMILES IDX 1 23 3 26 6 27 7 28 12 29 8 30 11 31 9 32 10 33 26 34 27 35
REMARK SMILES IDX 28 36 29 37 30 38 31 39 32 40 33 41 85 42 34 43 84 44 35 45
REMARK SMILES IDX 36 46 37 47 78 48 38 49 83 50 77 51 79 52 39 53 82 54 76 55
REMARK SMILES IDX 75 56 40 58 66 59 49 60 65 61 50 62 53 63 64 64 80 65 51 66
REMARK SMILES IDX 52 67 63 69 81 70 54 71 41 72 42 73 47 74 43 75 44 76 46 77
REMARK SMILES IDX 48 78 45 79 67 80 68 81 73 82 69 83 70 84 72 85 74 86 71 87
REMARK SMILES IDX 55 88 56 89 61 90 57 91 58 92 60 93 62 94 59 95
REMARK H PARENT 16 15 1 24 1 25 79 57 53 68
REMARK Flexibility Score: inf
ROOT
ATOM      1  C   UNL A   1      33.500  28.330  25.434  1.00  0.00     0.202 C 
ENDROOT
BRANCH   1   2
ATOM      2  C   UNL A   1      33.592  26.953  26.115  1.00  0.00     0.261 C 
BRANCH   2   3
ATOM      3  O   UNL A   1      32.423  26.145  26.234  1.00  0.00    -0.463 OA
BRANCH   3   4
ATOM      4  C   UNL A   1      32.586  24.844  26.563  1.00  0.00     0.312 C 
ATOM      5  O   UNL A   1      31.832  24.223  27.295  1.00  0.00    -0.252 OA
BRANCH   4   6
ATOM      6  C   UNL A   1      33.711  24.224  25.774  1.00  0.00     0.143 C 
ATOM      7  C   UNL A   1      33.295  23.310  24.612  1.00  0.00     0.124 C 
ATOM      8  C   UNL A   1      34.101  22.046  24.883  1.00  0.00     0.132 C 
ATOM      9  C   UNL A   1      34.661  23.309  26.568  1.00  0.00     0.133 C 
ATOM     10  C   UNL A   1      35.595  22.302  24.624  1.00  0.00     0.035 C 
ATOM     11  O   UNL A   1      34.117  22.000  26.328  1.00  0.00    -0.373 OA
ATOM     12  C   UNL A   1      35.997  23.144  25.842  1.00  0.00     0.036 C 
BRANCH   7  13
ATOM     13  C   UNL A   1      31.824  23.127  24.209  1.00  0.00     0.231 C 
ATOM     14  N   UNL A   1      31.058  23.953  23.450  1.00  0.00    -0.317 N 
ATOM     15  H   UNL A   1      30.257  23.517  23.080  1.00  0.00     0.170 HD
ATOM     16  O   UNL A   1      31.298  22.047  24.529  1.00  0.00    -0.274 OA
BRANCH  14  17
ATOM     17  C   UNL A   1      31.176  25.278  23.092  1.00  0.00     0.108 A 
ATOM     18  C   UNL A   1      30.363  26.337  23.490  1.00  0.00     0.082 A 
ATOM     19  C   UNL A   1      30.808  27.562  22.853  1.00  0.00     0.007 A 
ATOM     20  C   UNL A   1      31.998  27.386  22.174  1.00  0.00     0.076 A 
ATOM     21  S   UNL A   1      32.591  25.799  22.330  1.00  0.00    -0.125 S 
BRANCH  18  22
ATOM     22  C   UNL A   1      29.217  26.119  24.376  1.00  0.00     0.252 C 
ATOM     23  N   UNL A   1      27.971  26.342  23.869  1.00  0.00    -0.365 N 
ATOM     24  H   UNL A   1      27.177  26.206  24.436  1.00  0.00     0.159 HD
ATOM     25  H   UNL A   1      27.864  26.639  22.936  1.00  0.00     0.159 HD
ATOM     26  O   UNL A   1      29.340  25.748  25.540  1.00  0.00    -0.269 OA
ENDBRANCH  18  22
BRANCH  19  27
ATOM     27  C   UNL A   1      30.220  28.891  22.902  1.00  0.00    -0.017 A 
ATOM     28  C   UNL A   1      30.354  29.676  24.055  1.00  0.00     0.010 A 
ATOM     29  C   UNL A   1      29.540  29.401  21.791  1.00  0.00     0.010 A 
ATOM     30  C   UNL A   1      29.821  30.966  24.085  1.00  0.00     0.021 A 
ATOM     31  C   UNL A   1      28.994  30.686  21.832  1.00  0.00     0.021 A 
ATOM     32  C   UNL A   1      29.135  31.463  22.980  1.00  0.00     0.041 A 
ATOM     33  Cl  UNL A   1      28.464  33.044  23.036  1.00  0.00    -0.084 Cl
ENDBRANCH  19  27
ENDBRANCH  14  17
ENDBRANCH   7  13
ENDBRANCH   4   6
ENDBRANCH   3   4
ENDBRANCH   2   3
ENDBRANCH   1   2
BRANCH   1  34
ATOM     34  O   UNL A   1      33.512  29.554  26.152  1.00  0.00    -0.374 OA
BRANCH  34  35
ATOM     35  C   UNL A   1      32.521  29.886  27.105  1.00  0.00     0.202 C 
BRANCH  35  36
ATOM     36  C   UNL A   1      32.085  31.346  27.137  1.00  0.00     0.261 C 
BRANCH  36  37
ATOM     37  O   UNL A   1      33.201  32.231  26.972  1.00  0.00    -0.460 OA
BRANCH  37  38
ATOM     38  C   UNL A   1      33.270  33.232  27.882  1.00  0.00     0.338 C 
ATOM     39  O   UNL A   1      32.416  34.051  28.152  1.00  0.00    -0.246 OA
BRANCH  38  40
ATOM     40  C   UNL A   1      34.534  33.119  28.635  1.00  0.00     0.060 A 
ATOM     41  C   UNL A   1      35.706  33.551  28.000  1.00  0.00     0.016 A 
ATOM     42  C   UNL A   1      34.581  32.554  29.914  1.00  0.00     0.016 A 
ATOM     43  C   UNL A   1      36.938  33.353  28.614  1.00  0.00     0.010 A 
ATOM     44  C   UNL A   1      35.819  32.339  30.520  1.00  0.00     0.010 A 
ATOM     45  C   UNL A   1      36.999  32.695  29.850  1.00  0.00    -0.014 A 
BRANCH  45  46
ATOM     46  C   UNL A   1      38.299  32.170  30.318  1.00  0.00     0.031 A 
ATOM     47  C   UNL A   1      38.810  30.901  29.701  1.00  0.00     0.074 A 
ATOM     48  C   UNL A   1      39.013  32.817  31.253  1.00  0.00     0.049 A 
ATOM     49  N   UNL A   1      39.904  30.235  29.960  1.00  0.00    -0.248 NA
ATOM     50  C   UNL A   1      37.959  30.289  28.666  1.00  0.00     0.031 C 
ATOM     51  C   UNL A   1      38.607  34.051  31.916  1.00  0.00     0.029 A 
ATOM     52  N   UNL A   1      40.241  32.529  31.791  1.00  0.00    -0.354 N 
ATOM     53  C   UNL A   1      39.853  29.106  29.154  1.00  0.00     0.074 A 
ATOM     54  C   UNL A   1      38.633  29.185  28.382  1.00  0.00     0.031 C 
ATOM     55  C   UNL A   1      39.597  34.451  32.732  1.00  0.00     0.029 A 
ATOM     56  C   UNL A   1      40.677  33.467  32.692  1.00  0.00     0.049 A 
ATOM     57  H   UNL A   1      40.759  31.727  31.552  1.00  0.00     0.167 HD
ATOM     58  C   UNL A   1      40.730  28.079  29.088  1.00  0.00     0.037 A 
ATOM     59  C   UNL A   1      41.815  33.509  33.412  1.00  0.00     0.037 A 
ATOM     60  C   UNL A   1      41.938  28.004  29.863  1.00  0.00     0.049 A 
ATOM     61  C   UNL A   1      42.796  32.374  33.295  1.00  0.00     0.074 A 
ATOM     62  C   UNL A   1      42.895  27.007  29.878  1.00  0.00     0.029 A 
ATOM     63  N   UNL A   1      42.349  28.972  30.768  1.00  0.00    -0.354 N 
ATOM     64  N   UNL A   1      42.737  31.307  32.534  1.00  0.00    -0.248 NA
ATOM     65  C   UNL A   1      43.985  32.433  34.157  1.00  0.00     0.031 C 
ATOM     66  C   UNL A   1      43.868  27.353  30.822  1.00  0.00     0.029 A 
ATOM     67  C   UNL A   1      43.536  28.586  31.364  1.00  0.00     0.049 A 
ATOM     68  H   UNL A   1      41.868  29.809  30.959  1.00  0.00     0.167 HD
ATOM     69  C   UNL A   1      43.870  30.562  32.833  1.00  0.00     0.074 A 
ATOM     70  C   UNL A   1      44.618  31.316  33.819  1.00  0.00     0.031 C 
ATOM     71  C   UNL A   1      44.252  29.353  32.351  1.00  0.00     0.037 A 
BRANCH  58  72
ATOM     72  C   UNL A   1      40.364  26.928  28.204  1.00  0.00     0.057 A 
ATOM     73  C   UNL A   1      40.862  26.796  26.902  1.00  0.00     0.134 A 
ATOM     74  C   UNL A   1      39.474  25.945  28.660  1.00  0.00     0.134 A 
ATOM     75  F   UNL A   1      41.695  27.719  26.398  1.00  0.00    -0.206 F 
ATOM     76  C   UNL A   1      40.470  25.742  26.076  1.00  0.00     0.040 A 
ATOM     77  C   UNL A   1      39.092  24.875  27.851  1.00  0.00     0.040 A 
ATOM     78  F   UNL A   1      38.955  26.019  29.895  1.00  0.00    -0.206 F 
ATOM     79  C   UNL A   1      39.584  24.776  26.551  1.00  0.00     0.006 A 
ENDBRANCH  58  72
BRANCH  59  80
ATOM     80  C   UNL A   1      42.078  34.657  34.315  1.00  0.00     0.057 A 
ATOM     81  C   UNL A   1      42.691  35.822  33.838  1.00  0.00     0.134 A 
ATOM     82  C   UNL A   1      41.715  34.626  35.666  1.00  0.00     0.134 A 
ATOM     83  F   UNL A   1      43.083  35.901  32.558  1.00  0.00    -0.206 F 
ATOM     84  C   UNL A   1      42.935  36.913  34.672  1.00  0.00     0.040 A 
ATOM     85  C   UNL A   1      41.933  35.719  36.507  1.00  0.00     0.040 A 
ATOM     86  F   UNL A   1      41.123  33.541  36.183  1.00  0.00    -0.206 F 
ATOM     87  C   UNL A   1      42.549  36.866  36.011  1.00  0.00     0.006 A 
ENDBRANCH  59  80
BRANCH  71  88
ATOM     88  C   UNL A   1      45.519  28.766  32.893  1.00  0.00     0.057 A 
ATOM     89  C   UNL A   1      45.509  27.915  34.006  1.00  0.00     0.134 A 
ATOM     90  C   UNL A   1      46.744  28.993  32.258  1.00  0.00     0.134 A 
ATOM     91  F   UNL A   1      44.366  27.665  34.661  1.00  0.00    -0.206 F 
ATOM     92  C   UNL A   1      46.680  27.317  34.473  1.00  0.00     0.040 A 
ATOM     93  C   UNL A   1      47.919  28.387  32.705  1.00  0.00     0.040 A 
ATOM     94  F   UNL A   1      46.815  29.792  31.182  1.00  0.00    -0.206 F 
ATOM     95  C   UNL A   1      47.888  27.547  33.816  1.00  0.00     0.006 A 
ENDBRANCH  71  88
ENDBRANCH  45  46
ENDBRANCH  38  40
ENDBRANCH  37  38
ENDBRANCH  36  37
ENDBRANCH  35  36
ENDBRANCH  34  35
ENDBRANCH   1  34
TORSDOF 18
ENDMDL
MODEL 3
REMARK VINA RESULT:     -11.2      2.604      7.289
REMARK SMILES NC(=O)c1c(-c2ccc(Cl)cc2)csc1NC(=O)[C@H]1[C@@H](C(=O)OCCOCCOC(=O)c2ccc(-c3c4nc(c(-c5c(F)cccc5F)c5ccc([nH]5)c(-c5c(F)cccc5F)c5nc(c(-c6c(F)cccc6F)c6ccc3[nH]6)C=C5)C=C4)cc2)[C@@H]2CC[C@H]1O2
REMARK SMILES IDX 25 1 24 2 23 3 21 4 22 5 20 6 19 7 89 8 86 9 88 10 90 11
REMARK SMILES IDX 87 12 17 13 16 14 18 16 15 17 4 18 5 19 13 20 14 21 2 22
REMARK SMILES IDX 1 23 3 26 6 27 7 28 12 29 8 30 11 31 9 32 10 33 26 34 27 35
REMARK SMILES IDX 28 36 29 37 30 38 31 39 32 40 33 41 85 42 34 43 84 44 35 45
REMARK SMILES IDX 36 46 37 47 78 48 38 49 83 50 77 51 79 52 39 53 82 54 76 55
REMARK SMILES IDX 75 56 40 58 66 59 49 60 65 61 50 62 53 63 64 64 80 65 51 66
REMARK SMILES IDX 52 67 63 69 81 70 54 71 41 72 42 73 47 74 43 75 44 76 46 77
REMARK SMILES IDX 48 78 45 79 67 80 68 81 73 82 69 83 70 84 72 85 74 86 71 87
REMARK SMILES IDX 55 88 56 89 61 90 57 91 58 92 60 93 62 94 59 95
REMARK H PARENT 16 15 1 24 1 25 79 57 53 68
REMARK Flexibility Score: inf
ROOT
ATOM      1  C   UNL A   1      36.201  23.800  25.731  1.00  0.00     0.202 C 
ENDROOT
BRANCH   1   2
ATOM      2  C   UNL A   1      34.917  24.466  25.207  1.00  0.00     0.261 C 
BRANCH   2   3
ATOM      3  O   UNL A   1      34.651  24.480  23.806  1.00  0.00    -0.463 OA
BRANCH   3   4
ATOM      4  C   UNL A   1      34.121  25.605  23.276  1.00  0.00     0.312 C 
ATOM      5  O   UNL A   1      34.052  25.832  22.079  1.00  0.00    -0.252 OA
BRANCH   4   6
ATOM      6  C   UNL A   1      33.474  26.452  24.342  1.00  0.00     0.143 C 
ATOM      7  C   UNL A   1      31.939  26.496  24.329  1.00  0.00     0.124 C 
ATOM      8  C   UNL A   1      31.653  27.993  24.352  1.00  0.00     0.132 C 
ATOM      9  C   UNL A   1      33.831  27.949  24.317  1.00  0.00     0.133 C 
ATOM     10  C   UNL A   1      32.018  28.583  25.724  1.00  0.00     0.035 C 
ATOM     11  O   UNL A   1      32.745  28.523  23.568  1.00  0.00    -0.373 OA
ATOM     12  C   UNL A   1      33.551  28.603  25.671  1.00  0.00     0.036 C 
BRANCH   7  13
ATOM     13  C   UNL A   1      31.110  25.643  23.357  1.00  0.00     0.231 C 
ATOM     14  N   UNL A   1      30.776  24.331  23.476  1.00  0.00    -0.317 N 
ATOM     15  H   UNL A   1      30.018  24.066  22.907  1.00  0.00     0.170 HD
ATOM     16  O   UNL A   1      30.598  26.245  22.397  1.00  0.00    -0.274 OA
BRANCH  14  17
ATOM     17  C   UNL A   1      31.283  23.297  24.232  1.00  0.00     0.108 A 
ATOM     18  C   UNL A   1      31.980  22.180  23.777  1.00  0.00     0.082 A 
ATOM     19  C   UNL A   1      32.300  21.313  24.895  1.00  0.00     0.007 A 
ATOM     20  C   UNL A   1      31.987  21.900  26.106  1.00  0.00     0.076 A 
ATOM     21  S   UNL A   1      31.361  23.470  25.911  1.00  0.00    -0.125 S 
BRANCH  18  22
ATOM     22  C   UNL A   1      32.243  21.982  22.349  1.00  0.00     0.252 C 
ATOM     23  N   UNL A   1      31.694  20.887  21.749  1.00  0.00    -0.365 N 
ATOM     24  H   UNL A   1      31.849  20.722  20.790  1.00  0.00     0.159 HD
ATOM     25  H   UNL A   1      31.143  20.262  22.273  1.00  0.00     0.159 HD
ATOM     26  O   UNL A   1      32.928  22.757  21.687  1.00  0.00    -0.269 OA
ENDBRANCH  18  22
BRANCH  19  27
ATOM     27  C   UNL A   1      32.940  20.008  24.894  1.00  0.00    -0.017 A 
ATOM     28  C   UNL A   1      32.177  18.852  25.102  1.00  0.00     0.010 A 
ATOM     29  C   UNL A   1      34.315  19.899  24.659  1.00  0.00     0.010 A 
ATOM     30  C   UNL A   1      32.789  17.597  25.061  1.00  0.00     0.021 A 
ATOM     31  C   UNL A   1      34.925  18.643  24.636  1.00  0.00     0.021 A 
ATOM     32  C   UNL A   1      34.159  17.496  24.839  1.00  0.00     0.041 A 
ATOM     33  Cl  UNL A   1      34.906  15.948  24.814  1.00  0.00    -0.084 Cl
ENDBRANCH  19  27
ENDBRANCH  14  17
ENDBRANCH   7  13
ENDBRANCH   4   6
ENDBRANCH   3   4
ENDBRANCH   2   3
ENDBRANCH   1   2
BRANCH   1  34
ATOM     34  O   UNL A   1      36.388  22.393  25.763  1.00  0.00    -0.374 OA
BRANCH  34  35
ATOM     35  C   UNL A   1      37.215  21.714  24.839  1.00  0.00     0.202 C 
BRANCH  35  36
ATOM     36  C   UNL A   1      38.233  20.748  25.433  1.00  0.00     0.261 C 
BRANCH  36  37
ATOM     37  O   UNL A   1      39.531  21.349  25.533  1.00  0.00    -0.460 OA
BRANCH  37  38
ATOM     38  C   UNL A   1      40.134  21.199  26.737  1.00  0.00     0.338 C 
ATOM     39  O   UNL A   1      40.481  20.166  27.270  1.00  0.00    -0.246 OA
BRANCH  38  40
ATOM     40  C   UNL A   1      40.449  22.529  27.293  1.00  0.00     0.060 A 
ATOM     41  C   UNL A   1      39.734  23.625  26.791  1.00  0.00     0.016 A 
ATOM     42  C   UNL A   1      41.458  22.709  28.244  1.00  0.00     0.016 A 
ATOM     43  C   UNL A   1      40.076  24.913  27.188  1.00  0.00     0.010 A 
ATOM     44  C   UNL A   1      41.813  24.003  28.627  1.00  0.00     0.010 A 
ATOM     45  C   UNL A   1      41.153  25.106  28.063  1.00  0.00    -0.014 A 
BRANCH  45  46
ATOM     46  C   UNL A   1      41.736  26.459  28.195  1.00  0.00     0.031 A 
ATOM     47  C   UNL A   1      43.052  26.727  27.524  1.00  0.00     0.074 A 
ATOM     48  C   UNL A   1      41.101  27.425  28.876  1.00  0.00     0.049 A 
ATOM     49  N   UNL A   1      43.770  27.818  27.514  1.00  0.00    -0.248 NA
ATOM     50  C   UNL A   1      43.648  25.603  26.781  1.00  0.00     0.031 C 
ATOM     51  C   UNL A   1      39.825  27.269  29.565  1.00  0.00     0.029 A 
ATOM     52  N   UNL A   1      41.441  28.737  29.082  1.00  0.00    -0.354 N 
ATOM     53  C   UNL A   1      44.920  27.501  26.805  1.00  0.00     0.074 A 
ATOM     54  C   UNL A   1      44.797  26.125  26.380  1.00  0.00     0.031 C 
ATOM     55  C   UNL A   1      39.455  28.458  30.069  1.00  0.00     0.029 A 
ATOM     56  C   UNL A   1      40.501  29.441  29.791  1.00  0.00     0.049 A 
ATOM     57  H   UNL A   1      42.279  29.135  28.752  1.00  0.00     0.167 HD
ATOM     58  C   UNL A   1      45.997  28.281  26.557  1.00  0.00     0.037 A 
ATOM     59  C   UNL A   1      40.500  30.731  30.181  1.00  0.00     0.037 A 
ATOM     60  C   UNL A   1      46.115  29.646  26.987  1.00  0.00     0.049 A 
ATOM     61  C   UNL A   1      41.692  31.592  29.861  1.00  0.00     0.074 A 
ATOM     62  C   UNL A   1      47.165  30.526  26.793  1.00  0.00     0.029 A 
ATOM     63  N   UNL A   1      45.144  30.329  27.704  1.00  0.00    -0.354 N 
ATOM     64  N   UNL A   1      42.779  31.282  29.194  1.00  0.00    -0.248 NA
ATOM     65  C   UNL A   1      41.674  32.969  30.374  1.00  0.00     0.031 C 
ATOM     66  C   UNL A   1      46.844  31.730  27.429  1.00  0.00     0.029 A 
ATOM     67  C   UNL A   1      45.578  31.612  27.982  1.00  0.00     0.049 A 
ATOM     68  H   UNL A   1      44.275  29.955  27.977  1.00  0.00     0.167 HD
ATOM     69  C   UNL A   1      43.577  32.418  29.216  1.00  0.00     0.074 A 
ATOM     70  C   UNL A   1      42.835  33.436  29.933  1.00  0.00     0.031 C 
ATOM     71  C   UNL A   1      44.821  32.600  28.707  1.00  0.00     0.037 A 
BRANCH  58  72
ATOM     72  C   UNL A   1      47.154  27.638  25.855  1.00  0.00     0.057 A 
ATOM     73  C   UNL A   1      47.285  27.652  24.461  1.00  0.00     0.134 A 
ATOM     74  C   UNL A   1      48.142  26.973  26.592  1.00  0.00     0.134 A 
ATOM     75  F   UNL A   1      46.356  28.249  23.699  1.00  0.00    -0.206 F 
ATOM     76  C   UNL A   1      48.345  27.005  23.824  1.00  0.00     0.040 A 
ATOM     77  C   UNL A   1      49.217  26.341  25.968  1.00  0.00     0.040 A 
ATOM     78  F   UNL A   1      48.070  26.916  27.931  1.00  0.00    -0.206 F 
ATOM     79  C   UNL A   1      49.317  26.349  24.579  1.00  0.00     0.006 A 
ENDBRANCH  58  72
BRANCH  59  80
ATOM     80  C   UNL A   1      39.340  31.278  30.927  1.00  0.00     0.057 A 
ATOM     81  C   UNL A   1      39.297  31.231  32.325  1.00  0.00     0.134 A 
ATOM     82  C   UNL A   1      38.257  31.872  30.268  1.00  0.00     0.134 A 
ATOM     83  F   UNL A   1      40.295  30.653  33.012  1.00  0.00    -0.206 F 
ATOM     84  C   UNL A   1      38.218  31.751  33.041  1.00  0.00     0.040 A 
ATOM     85  C   UNL A   1      37.182  32.416  30.973  1.00  0.00     0.040 A 
ATOM     86  F   UNL A   1      38.239  31.950  28.930  1.00  0.00    -0.206 F 
ATOM     87  C   UNL A   1      37.159  32.353  32.364  1.00  0.00     0.006 A 
ENDBRANCH  59  80
BRANCH  71  88
ATOM     88  C   UNL A   1      45.461  33.938  28.921  1.00  0.00     0.057 A 
ATOM     89  C   UNL A   1      46.264  34.190  30.041  1.00  0.00     0.134 A 
ATOM     90  C   UNL A   1      45.335  34.954  27.968  1.00  0.00     0.134 A 
ATOM     91  F   UNL A   1      46.417  33.256  30.992  1.00  0.00    -0.206 F 
ATOM     92  C   UNL A   1      46.912  35.414  30.209  1.00  0.00     0.040 A 
ATOM     93  C   UNL A   1      45.993  36.176  28.117  1.00  0.00     0.040 A 
ATOM     94  F   UNL A   1      44.587  34.769  26.870  1.00  0.00    -0.206 F 
ATOM     95  C   UNL A   1      46.783  36.408  29.241  1.00  0.00     0.006 A 
ENDBRANCH  71  88
ENDBRANCH  45  46
ENDBRANCH  38  40
ENDBRANCH  37  38
ENDBRANCH  36  37
ENDBRANCH  35  36
ENDBRANCH  34  35
ENDBRANCH   1  34
TORSDOF 18
ENDMDL
