MODEL 1
REMARK VINA RESULT:     -12.1      0.000      0.000
REMARK SMILES O=C(COc1ccc(-c2cc3cc(Br)ccc3oc2=O)cc1)OCCOCCOC(=O)c1ccc(-c2c3nc(c(-c4c(F)cccc4F)c4ccc([nH]4)c(-c4c(F)cccc4F)c4nc(c(-c5c(F)cccc5F)c5ccc2[nH]5)C=C4)C=C3)cc1
REMARK SMILES IDX 25 1 24 2 23 3 2 4 1 5 3 6 4 7 5 8 6 9 22 10 7 11 21 12 8 13
REMARK SMILES IDX 9 14 10 15 19 16 11 17 18 18 20 19 12 20 17 21 13 22 16 23
REMARK SMILES IDX 14 24 15 25 26 26 27 27 28 28 29 29 30 30 31 31 32 32 33 33
REMARK SMILES IDX 85 34 34 35 84 36 35 37 36 38 37 39 78 40 38 41 83 42 77 43
REMARK SMILES IDX 79 44 39 45 82 46 76 47 75 48 40 50 66 51 49 52 65 53 50 54
REMARK SMILES IDX 53 55 64 56 80 57 51 58 52 59 63 61 81 62 54 63 41 64 42 65
REMARK SMILES IDX 47 66 43 67 44 68 46 69 48 70 45 71 67 72 68 73 73 74 69 75
REMARK SMILES IDX 70 76 72 77 74 78 71 79 55 80 56 81 61 82 57 83 58 84 60 85
REMARK SMILES IDX 62 86 59 87
REMARK H PARENT 79 49 53 60
REMARK Flexibility Score: inf
ROOT
ATOM      1  C   UNL A   1      42.377  20.877  26.699  1.00  0.00     0.202 C 
ENDROOT
BRANCH   1   2
ATOM      2  C   UNL A   1      40.945  20.353  26.828  1.00  0.00     0.261 C 
BRANCH   2   3
ATOM      3  O   UNL A   1      40.052  20.995  25.905  1.00  0.00    -0.461 OA
BRANCH   3   4
ATOM      4  C   UNL A   1      39.312  22.084  26.220  1.00  0.00     0.344 C 
ATOM      5  O   UNL A   1      39.664  22.807  27.153  1.00  0.00    -0.248 OA
BRANCH   4   6
ATOM      6  C   UNL A   1      38.020  22.369  25.448  1.00  0.00     0.351 C 
BRANCH   6   7
ATOM      7  O   UNL A   1      37.375  23.622  25.576  1.00  0.00    -0.482 OA
BRANCH   7   8
ATOM      8  C   UNL A   1      36.111  23.734  25.077  1.00  0.00     0.120 A 
ATOM      9  C   UNL A   1      35.856  22.974  23.937  1.00  0.00     0.047 A 
ATOM     10  C   UNL A   1      35.105  24.548  25.585  1.00  0.00     0.047 A 
ATOM     11  C   UNL A   1      34.657  23.127  23.237  1.00  0.00     0.013 A 
ATOM     12  C   UNL A   1      33.905  24.694  24.892  1.00  0.00     0.013 A 
ATOM     13  C   UNL A   1      33.697  24.055  23.665  1.00  0.00    -0.011 A 
BRANCH  13  14
ATOM     14  C   UNL A   1      32.604  24.442  22.721  1.00  0.00     0.068 A 
ATOM     15  C   UNL A   1      31.606  25.308  23.023  1.00  0.00     0.028 A 
ATOM     16  C   UNL A   1      33.135  24.847  21.366  1.00  0.00     0.344 A 
ATOM     17  C   UNL A   1      32.121  26.687  23.184  1.00  0.00     0.019 A 
ATOM     18  O   UNL A   1      33.616  26.167  21.338  1.00  0.00    -0.422 OA
ATOM     19  O   UNL A   1      33.229  24.071  20.424  1.00  0.00    -0.246 OA
ATOM     20  C   UNL A   1      31.678  27.553  24.179  1.00  0.00     0.027 A 
ATOM     21  C   UNL A   1      33.206  27.047  22.368  1.00  0.00     0.138 A 
ATOM     22  C   UNL A   1      32.379  28.742  24.389  1.00  0.00     0.018 A 
ATOM     23  C   UNL A   1      33.907  28.226  22.576  1.00  0.00     0.049 A 
ATOM     24  Br  UNL A   1      31.843  29.899  25.786  1.00  0.00    -0.051 Br
ATOM     25  C   UNL A   1      33.497  29.071  23.611  1.00  0.00     0.019 A 
ENDBRANCH  13  14
ENDBRANCH   7   8
ENDBRANCH   6   7
ENDBRANCH   4   6
ENDBRANCH   3   4
ENDBRANCH   2   3
ENDBRANCH   1   2
BRANCH   1  26
ATOM     26  O   UNL A   1      42.864  21.039  25.367  1.00  0.00    -0.374 OA
BRANCH  26  27
ATOM     27  C   UNL A   1      44.263  21.291  25.205  1.00  0.00     0.202 C 
BRANCH  27  28
ATOM     28  C   UNL A   1      44.670  22.433  24.272  1.00  0.00     0.261 C 
BRANCH  28  29
ATOM     29  O   UNL A   1      43.852  23.596  24.467  1.00  0.00    -0.460 OA
BRANCH  29  30
ATOM     30  C   UNL A   1      44.506  24.649  24.999  1.00  0.00     0.338 C 
ATOM     31  O   UNL A   1      45.643  25.026  24.733  1.00  0.00    -0.246 OA
BRANCH  30  32
ATOM     32  C   UNL A   1      43.600  25.434  25.851  1.00  0.00     0.060 A 
ATOM     33  C   UNL A   1      43.975  26.757  26.119  1.00  0.00     0.016 A 
ATOM     34  C   UNL A   1      42.455  24.883  26.435  1.00  0.00     0.016 A 
ATOM     35  C   UNL A   1      43.261  27.503  27.047  1.00  0.00     0.010 A 
ATOM     36  C   UNL A   1      41.739  25.634  27.372  1.00  0.00     0.010 A 
ATOM     37  C   UNL A   1      42.177  26.923  27.718  1.00  0.00    -0.014 A 
BRANCH  37  38
ATOM     38  C   UNL A   1      41.647  27.618  28.911  1.00  0.00     0.031 A 
ATOM     39  C   UNL A   1      42.388  27.480  30.213  1.00  0.00     0.074 A 
ATOM     40  C   UNL A   1      40.587  28.436  28.806  1.00  0.00     0.049 A 
ATOM     41  N   UNL A   1      42.164  28.063  31.361  1.00  0.00    -0.248 NA
ATOM     42  C   UNL A   1      43.544  26.566  30.217  1.00  0.00     0.031 C 
ATOM     43  C   UNL A   1      39.817  28.665  27.584  1.00  0.00     0.029 A 
ATOM     44  N   UNL A   1      39.988  29.238  29.740  1.00  0.00    -0.354 N 
ATOM     45  C   UNL A   1      43.155  27.599  32.219  1.00  0.00     0.074 A 
ATOM     46  C   UNL A   1      43.955  26.653  31.473  1.00  0.00     0.031 C 
ATOM     47  C   UNL A   1      38.841  29.551  27.846  1.00  0.00     0.029 A 
ATOM     48  C   UNL A   1      38.914  29.938  29.253  1.00  0.00     0.049 A 
ATOM     49  H   UNL A   1      40.298  29.306  30.673  1.00  0.00     0.167 HD
ATOM     50  C   UNL A   1      43.387  27.946  33.506  1.00  0.00     0.037 A 
ATOM     51  C   UNL A   1      38.082  30.792  29.879  1.00  0.00     0.037 A 
ATOM     52  C   UNL A   1      42.579  28.880  34.244  1.00  0.00     0.049 A 
ATOM     53  C   UNL A   1      38.333  31.126  31.324  1.00  0.00     0.074 A 
ATOM     54  C   UNL A   1      42.714  29.293  35.558  1.00  0.00     0.029 A 
ATOM     55  N   UNL A   1      41.478  29.546  33.725  1.00  0.00    -0.354 N 
ATOM     56  N   UNL A   1      39.282  30.693  32.121  1.00  0.00    -0.248 NA
ATOM     57  C   UNL A   1      37.408  32.078  31.953  1.00  0.00     0.031 C 
ATOM     58  C   UNL A   1      41.672  30.182  35.844  1.00  0.00     0.029 A 
ATOM     59  C   UNL A   1      40.916  30.358  34.696  1.00  0.00     0.049 A 
ATOM     60  H   UNL A   1      41.146  29.456  32.803  1.00  0.00     0.167 HD
ATOM     61  C   UNL A   1      39.078  31.329  33.338  1.00  0.00     0.074 A 
ATOM     62  C   UNL A   1      37.931  32.198  33.165  1.00  0.00     0.031 C 
ATOM     63  C   UNL A   1      39.768  31.205  34.498  1.00  0.00     0.037 A 
BRANCH  50  64
ATOM     64  C   UNL A   1      44.553  27.300  34.194  1.00  0.00     0.057 A 
ATOM     65  C   UNL A   1      45.822  27.895  34.207  1.00  0.00     0.134 A 
ATOM     66  C   UNL A   1      44.404  26.082  34.869  1.00  0.00     0.134 A 
ATOM     67  F   UNL A   1      46.038  29.052  33.563  1.00  0.00    -0.206 F 
ATOM     68  C   UNL A   1      46.904  27.292  34.852  1.00  0.00     0.040 A 
ATOM     69  C   UNL A   1      45.472  25.482  35.537  1.00  0.00     0.040 A 
ATOM     70  F   UNL A   1      43.216  25.459  34.894  1.00  0.00    -0.206 F 
ATOM     71  C   UNL A   1      46.728  26.085  35.526  1.00  0.00     0.006 A 
ENDBRANCH  50  64
BRANCH  51  72
ATOM     72  C   UNL A   1      36.936  31.383  29.145  1.00  0.00     0.057 A 
ATOM     73  C   UNL A   1      35.778  30.646  28.877  1.00  0.00     0.134 A 
ATOM     74  C   UNL A   1      36.981  32.704  28.680  1.00  0.00     0.134 A 
ATOM     75  F   UNL A   1      35.682  29.370  29.278  1.00  0.00    -0.206 F 
ATOM     76  C   UNL A   1      34.713  31.192  28.158  1.00  0.00     0.040 A 
ATOM     77  C   UNL A   1      35.915  33.272  27.983  1.00  0.00     0.040 A 
ATOM     78  F   UNL A   1      38.062  33.465  28.907  1.00  0.00    -0.206 F 
ATOM     79  C   UNL A   1      34.778  32.511  27.713  1.00  0.00     0.006 A 
ENDBRANCH  51  72
BRANCH  63  80
ATOM     80  C   UNL A   1      39.302  32.039  35.655  1.00  0.00     0.057 A 
ATOM     81  C   UNL A   1      38.417  31.536  36.616  1.00  0.00     0.134 A 
ATOM     82  C   UNL A   1      39.751  33.356  35.813  1.00  0.00     0.134 A 
ATOM     83  F   UNL A   1      37.942  30.285  36.514  1.00  0.00    -0.206 F 
ATOM     84  C   UNL A   1      37.968  32.323  37.676  1.00  0.00     0.040 A 
ATOM     85  C   UNL A   1      39.330  34.145  36.884  1.00  0.00     0.040 A 
ATOM     86  F   UNL A   1      40.608  33.895  34.933  1.00  0.00    -0.206 F 
ATOM     87  C   UNL A   1      38.428  33.632  37.814  1.00  0.00     0.006 A 
ENDBRANCH  63  80
ENDBRANCH  37  38
ENDBRANCH  30  32
ENDBRANCH  29  30
ENDBRANCH  28  29
ENDBRANCH  27  28
ENDBRANCH  26  27
ENDBRANCH   1  26
TORSDOF 17
ENDMDL
MODEL 2
REMARK VINA RESULT:     -11.9      1.179      2.168
REMARK SMILES O=C(COc1ccc(-c2cc3cc(Br)ccc3oc2=O)cc1)OCCOCCOC(=O)c1ccc(-c2c3nc(c(-c4c(F)cccc4F)c4ccc([nH]4)c(-c4c(F)cccc4F)c4nc(c(-c5c(F)cccc5F)c5ccc2[nH]5)C=C4)C=C3)cc1
REMARK SMILES IDX 25 1 24 2 23 3 2 4 1 5 3 6 4 7 5 8 6 9 22 10 7 11 21 12 8 13
REMARK SMILES IDX 9 14 10 15 19 16 11 17 18 18 20 19 12 20 17 21 13 22 16 23
REMARK SMILES IDX 14 24 15 25 26 26 27 27 28 28 29 29 30 30 31 31 32 32 33 33
REMARK SMILES IDX 85 34 34 35 84 36 35 37 36 38 37 39 78 40 38 41 83 42 77 43
REMARK SMILES IDX 79 44 39 45 82 46 76 47 75 48 40 50 66 51 49 52 65 53 50 54
REMARK SMILES IDX 53 55 64 56 80 57 51 58 52 59 63 61 81 62 54 63 41 64 42 65
REMARK SMILES IDX 47 66 43 67 44 68 46 69 48 70 45 71 67 72 68 73 73 74 69 75
REMARK SMILES IDX 70 76 72 77 74 78 71 79 55 80 56 81 61 82 57 83 58 84 60 85
REMARK SMILES IDX 62 86 59 87
REMARK H PARENT 79 49 53 60
REMARK Flexibility Score: inf
ROOT
ATOM      1  C   UNL A   1      43.974  19.236  25.420  1.00  0.00     0.202 C 
ENDROOT
BRANCH   1   2
ATOM      2  C   UNL A   1      42.686  18.673  26.025  1.00  0.00     0.261 C 
BRANCH   2   3
ATOM      3  O   UNL A   1      42.248  19.434  27.162  1.00  0.00    -0.461 OA
BRANCH   3   4
ATOM      4  C   UNL A   1      41.617  20.627  27.061  1.00  0.00     0.344 C 
ATOM      5  O   UNL A   1      42.142  21.634  27.539  1.00  0.00    -0.248 OA
BRANCH   4   6
ATOM      6  C   UNL A   1      40.235  20.697  26.402  1.00  0.00     0.351 C 
BRANCH   6   7
ATOM      7  O   UNL A   1      39.785  21.905  25.820  1.00  0.00    -0.482 OA
BRANCH   7   8
ATOM      8  C   UNL A   1      38.439  22.068  25.668  1.00  0.00     0.120 A 
ATOM      9  C   UNL A   1      37.940  23.297  26.096  1.00  0.00     0.047 A 
ATOM     10  C   UNL A   1      37.556  21.118  25.167  1.00  0.00     0.047 A 
ATOM     11  C   UNL A   1      36.563  23.524  26.147  1.00  0.00     0.013 A 
ATOM     12  C   UNL A   1      36.182  21.347  25.208  1.00  0.00     0.013 A 
ATOM     13  C   UNL A   1      35.662  22.514  25.778  1.00  0.00    -0.011 A 
BRANCH  13  14
ATOM     14  C   UNL A   1      34.225  22.659  26.168  1.00  0.00     0.068 A 
ATOM     15  C   UNL A   1      33.601  23.847  26.354  1.00  0.00     0.028 A 
ATOM     16  C   UNL A   1      33.312  21.818  25.307  1.00  0.00     0.344 A 
ATOM     17  C   UNL A   1      33.454  24.583  25.077  1.00  0.00     0.019 A 
ATOM     18  O   UNL A   1      33.027  22.414  24.067  1.00  0.00    -0.422 OA
ATOM     19  O   UNL A   1      32.945  20.693  25.619  1.00  0.00    -0.246 OA
ATOM     20  C   UNL A   1      33.645  25.957  24.966  1.00  0.00     0.027 A 
ATOM     21  C   UNL A   1      33.257  23.803  23.927  1.00  0.00     0.138 A 
ATOM     22  C   UNL A   1      33.706  26.521  23.691  1.00  0.00     0.018 A 
ATOM     23  C   UNL A   1      33.320  24.359  22.657  1.00  0.00     0.049 A 
ATOM     24  Br  UNL A   1      34.042  28.373  23.511  1.00  0.00    -0.051 Br
ATOM     25  C   UNL A   1      33.566  25.730  22.542  1.00  0.00     0.019 A 
ENDBRANCH  13  14
ENDBRANCH   7   8
ENDBRANCH   6   7
ENDBRANCH   4   6
ENDBRANCH   3   4
ENDBRANCH   2   3
ENDBRANCH   1   2
BRANCH   1  26
ATOM     26  O   UNL A   1      43.824  20.402  24.609  1.00  0.00    -0.374 OA
BRANCH  26  27
ATOM     27  C   UNL A   1      44.936  21.299  24.537  1.00  0.00     0.202 C 
BRANCH  27  28
ATOM     28  C   UNL A   1      44.698  22.665  23.890  1.00  0.00     0.261 C 
BRANCH  28  29
ATOM     29  O   UNL A   1      43.877  23.507  24.712  1.00  0.00    -0.460 OA
BRANCH  29  30
ATOM     30  C   UNL A   1      44.462  24.668  25.073  1.00  0.00     0.338 C 
ATOM     31  O   UNL A   1      45.532  25.114  24.669  1.00  0.00    -0.246 OA
BRANCH  30  32
ATOM     32  C   UNL A   1      43.553  25.457  25.917  1.00  0.00     0.060 A 
ATOM     33  C   UNL A   1      43.913  26.789  26.158  1.00  0.00     0.016 A 
ATOM     34  C   UNL A   1      42.420  24.902  26.520  1.00  0.00     0.016 A 
ATOM     35  C   UNL A   1      43.197  27.543  27.078  1.00  0.00     0.010 A 
ATOM     36  C   UNL A   1      41.701  25.662  27.448  1.00  0.00     0.010 A 
ATOM     37  C   UNL A   1      42.125  26.962  27.768  1.00  0.00    -0.014 A 
BRANCH  37  38
ATOM     38  C   UNL A   1      41.595  27.672  28.952  1.00  0.00     0.031 A 
ATOM     39  C   UNL A   1      42.340  27.555  30.254  1.00  0.00     0.074 A 
ATOM     40  C   UNL A   1      40.532  28.485  28.837  1.00  0.00     0.049 A 
ATOM     41  N   UNL A   1      42.116  28.154  31.394  1.00  0.00    -0.248 NA
ATOM     42  C   UNL A   1      43.499  26.646  30.269  1.00  0.00     0.031 C 
ATOM     43  C   UNL A   1      39.759  28.693  27.613  1.00  0.00     0.029 A 
ATOM     44  N   UNL A   1      39.932  29.298  29.761  1.00  0.00    -0.354 N 
ATOM     45  C   UNL A   1      43.110  27.706  32.256  1.00  0.00     0.074 A 
ATOM     46  C   UNL A   1      43.912  26.752  31.522  1.00  0.00     0.031 C 
ATOM     47  C   UNL A   1      38.780  29.580  27.865  1.00  0.00     0.029 A 
ATOM     48  C   UNL A   1      38.854  29.988  29.266  1.00  0.00     0.049 A 
ATOM     49  H   UNL A   1      40.244  29.380  30.692  1.00  0.00     0.167 HD
ATOM     50  C   UNL A   1      43.344  28.072  33.538  1.00  0.00     0.037 A 
ATOM     51  C   UNL A   1      38.021  30.847  29.881  1.00  0.00     0.037 A 
ATOM     52  C   UNL A   1      42.535  29.014  34.264  1.00  0.00     0.049 A 
ATOM     53  C   UNL A   1      38.274  31.202  31.322  1.00  0.00     0.074 A 
ATOM     54  C   UNL A   1      42.671  29.446  35.571  1.00  0.00     0.029 A 
ATOM     55  N   UNL A   1      41.430  29.669  33.737  1.00  0.00    -0.354 N 
ATOM     56  N   UNL A   1      39.226  30.784  32.122  1.00  0.00    -0.248 NA
ATOM     57  C   UNL A   1      37.347  32.160  31.939  1.00  0.00     0.031 C 
ATOM     58  C   UNL A   1      41.626  30.336  35.847  1.00  0.00     0.029 A 
ATOM     59  C   UNL A   1      40.867  30.492  34.698  1.00  0.00     0.049 A 
ATOM     60  H   UNL A   1      41.096  29.564  32.818  1.00  0.00     0.167 HD
ATOM     61  C   UNL A   1      39.022  31.437  33.331  1.00  0.00     0.074 A 
ATOM     62  C   UNL A   1      37.872  32.300  33.147  1.00  0.00     0.031 C 
ATOM     63  C   UNL A   1      39.715  31.332  34.491  1.00  0.00     0.037 A 
BRANCH  50  64
ATOM     64  C   UNL A   1      44.514  27.441  34.232  1.00  0.00     0.057 A 
ATOM     65  C   UNL A   1      45.781  28.041  34.236  1.00  0.00     0.134 A 
ATOM     66  C   UNL A   1      44.371  26.231  34.923  1.00  0.00     0.134 A 
ATOM     67  F   UNL A   1      45.990  29.191  33.577  1.00  0.00    -0.206 F 
ATOM     68  C   UNL A   1      46.866  27.451  34.887  1.00  0.00     0.040 A 
ATOM     69  C   UNL A   1      45.443  25.644  35.597  1.00  0.00     0.040 A 
ATOM     70  F   UNL A   1      43.186  25.603  34.958  1.00  0.00    -0.206 F 
ATOM     71  C   UNL A   1      46.697  26.253  35.576  1.00  0.00     0.006 A 
ENDBRANCH  50  64
BRANCH  51  72
ATOM     72  C   UNL A   1      36.871  31.424  29.142  1.00  0.00     0.057 A 
ATOM     73  C   UNL A   1      35.726  30.670  28.864  1.00  0.00     0.134 A 
ATOM     74  C   UNL A   1      36.900  32.747  28.682  1.00  0.00     0.134 A 
ATOM     75  F   UNL A   1      35.647  29.392  29.261  1.00  0.00    -0.206 F 
ATOM     76  C   UNL A   1      34.658  31.203  28.140  1.00  0.00     0.040 A 
ATOM     77  C   UNL A   1      35.830  33.300  27.979  1.00  0.00     0.040 A 
ATOM     78  F   UNL A   1      37.968  33.522  28.918  1.00  0.00    -0.206 F 
ATOM     79  C   UNL A   1      34.707  32.524  27.699  1.00  0.00     0.006 A 
ENDBRANCH  51  72
BRANCH  63  80
ATOM     80  C   UNL A   1      39.249  32.182  35.636  1.00  0.00     0.057 A 
ATOM     81  C   UNL A   1      39.667  33.510  35.785  1.00  0.00     0.134 A 
ATOM     82  C   UNL A   1      38.365  31.668  36.593  1.00  0.00     0.134 A 
ATOM     83  F   UNL A   1      40.522  34.056  34.907  1.00  0.00    -0.206 F 
ATOM     84  C   UNL A   1      39.249  34.288  36.865  1.00  0.00     0.040 A 
ATOM     85  C   UNL A   1      37.919  32.445  37.663  1.00  0.00     0.040 A 
ATOM     86  F   UNL A   1      37.918  30.407  36.502  1.00  0.00    -0.206 F 
ATOM     87  C   UNL A   1      38.370  33.756  37.807  1.00  0.00     0.006 A 
ENDBRANCH  63  80
ENDBRANCH  37  38
ENDBRANCH  30  32
ENDBRANCH  29  30
ENDBRANCH  28  29
ENDBRANCH  27  28
ENDBRANCH  26  27
ENDBRANCH   1  26
TORSDOF 17
ENDMDL
MODEL 3
REMARK VINA RESULT:     -11.6      5.050     10.098
REMARK SMILES O=C(COc1ccc(-c2cc3cc(Br)ccc3oc2=O)cc1)OCCOCCOC(=O)c1ccc(-c2c3nc(c(-c4c(F)cccc4F)c4ccc([nH]4)c(-c4c(F)cccc4F)c4nc(c(-c5c(F)cccc5F)c5ccc2[nH]5)C=C4)C=C3)cc1
REMARK SMILES IDX 25 1 24 2 23 3 2 4 1 5 3 6 4 7 5 8 6 9 22 10 7 11 21 12 8 13
REMARK SMILES IDX 9 14 10 15 19 16 11 17 18 18 20 19 12 20 17 21 13 22 16 23
REMARK SMILES IDX 14 24 15 25 26 26 27 27 28 28 29 29 30 30 31 31 32 32 33 33
REMARK SMILES IDX 85 34 34 35 84 36 35 37 36 38 37 39 78 40 38 41 83 42 77 43
REMARK SMILES IDX 79 44 39 45 82 46 76 47 75 48 40 50 66 51 49 52 65 53 50 54
REMARK SMILES IDX 53 55 64 56 80 57 51 58 52 59 63 61 81 62 54 63 41 64 42 65
REMARK SMILES IDX 47 66 43 67 44 68 46 69 48 70 45 71 67 72 68 73 73 74 69 75
REMARK SMILES IDX 70 76 72 77 74 78 71 79 55 80 56 81 61 82 57 83 58 84 60 85
REMARK SMILES IDX 62 86 59 87
REMARK H PARENT 79 49 53 60
REMARK Flexibility Score: inf
ROOT
ATOM      1  C   UNL A   1      34.373  33.620  30.816  1.00  0.00     0.202 C 
ENDROOT
BRANCH   1   2
ATOM      2  C   UNL A   1      34.448  34.191  29.398  1.00  0.00     0.261 C 
BRANCH   2   3
ATOM      3  O   UNL A   1      33.870  33.301  28.429  1.00  0.00    -0.461 OA
BRANCH   3   4
ATOM      4  C   UNL A   1      34.480  32.173  27.998  1.00  0.00     0.344 C 
ATOM      5  O   UNL A   1      35.708  32.146  27.899  1.00  0.00    -0.248 OA
BRANCH   4   6
ATOM      6  C   UNL A   1      33.631  30.965  27.587  1.00  0.00     0.351 C 
BRANCH   6   7
ATOM      7  O   UNL A   1      34.205  29.916  26.830  1.00  0.00    -0.482 OA
BRANCH   7   8
ATOM      8  C   UNL A   1      33.507  28.747  26.744  1.00  0.00     0.120 A 
ATOM      9  C   UNL A   1      34.104  27.760  25.961  1.00  0.00     0.047 A 
ATOM     10  C   UNL A   1      32.273  28.491  27.329  1.00  0.00     0.047 A 
ATOM     11  C   UNL A   1      33.415  26.583  25.659  1.00  0.00     0.013 A 
ATOM     12  C   UNL A   1      31.589  27.313  27.036  1.00  0.00     0.013 A 
ATOM     13  C   UNL A   1      32.109  26.382  26.130  1.00  0.00    -0.011 A 
BRANCH  13  14
ATOM     14  C   UNL A   1      31.285  25.297  25.514  1.00  0.00     0.068 A 
ATOM     15  C   UNL A   1      31.789  24.293  24.756  1.00  0.00     0.028 A 
ATOM     16  C   UNL A   1      30.343  24.660  26.509  1.00  0.00     0.344 A 
ATOM     17  C   UNL A   1      32.617  23.371  25.566  1.00  0.00     0.019 A 
ATOM     18  O   UNL A   1      30.974  23.707  27.326  1.00  0.00    -0.422 OA
ATOM     19  O   UNL A   1      29.181  25.014  26.653  1.00  0.00    -0.246 OA
ATOM     20  C   UNL A   1      33.814  22.828  25.113  1.00  0.00     0.027 A 
ATOM     21  C   UNL A   1      32.214  23.177  26.897  1.00  0.00     0.138 A 
ATOM     22  C   UNL A   1      34.630  22.155  26.024  1.00  0.00     0.018 A 
ATOM     23  C   UNL A   1      33.023  22.513  27.807  1.00  0.00     0.049 A 
ATOM     24  Br  UNL A   1      36.299  21.475  25.450  1.00  0.00    -0.051 Br
ATOM     25  C   UNL A   1      34.251  22.013  27.367  1.00  0.00     0.019 A 
ENDBRANCH  13  14
ENDBRANCH   7   8
ENDBRANCH   6   7
ENDBRANCH   4   6
ENDBRANCH   3   4
ENDBRANCH   2   3
ENDBRANCH   1   2
BRANCH   1  26
ATOM     26  O   UNL A   1      33.855  34.500  31.815  1.00  0.00    -0.374 OA
BRANCH  26  27
ATOM     27  C   UNL A   1      34.801  35.254  32.578  1.00  0.00     0.202 C 
BRANCH  27  28
ATOM     28  C   UNL A   1      35.617  34.502  33.632  1.00  0.00     0.261 C 
BRANCH  28  29
ATOM     29  O   UNL A   1      36.783  33.889  33.063  1.00  0.00    -0.460 OA
BRANCH  29  30
ATOM     30  C   UNL A   1      37.101  32.696  33.606  1.00  0.00     0.338 C 
ATOM     31  O   UNL A   1      36.732  32.254  34.690  1.00  0.00    -0.246 OA
BRANCH  30  32
ATOM     32  C   UNL A   1      37.837  31.873  32.634  1.00  0.00     0.060 A 
ATOM     33  C   UNL A   1      38.849  31.050  33.143  1.00  0.00     0.016 A 
ATOM     34  C   UNL A   1      37.603  31.950  31.257  1.00  0.00     0.016 A 
ATOM     35  C   UNL A   1      39.694  30.375  32.273  1.00  0.00     0.010 A 
ATOM     36  C   UNL A   1      38.456  31.272  30.382  1.00  0.00     0.010 A 
ATOM     37  C   UNL A   1      39.536  30.531  30.890  1.00  0.00    -0.014 A 
BRANCH  37  38
ATOM     38  C   UNL A   1      40.630  30.068  30.009  1.00  0.00     0.031 A 
ATOM     39  C   UNL A   1      41.764  31.011  29.714  1.00  0.00     0.074 A 
ATOM     40  C   UNL A   1      40.658  28.799  29.571  1.00  0.00     0.049 A 
ATOM     41  N   UNL A   1      42.868  30.798  29.046  1.00  0.00    -0.248 NA
ATOM     42  C   UNL A   1      41.641  32.376  30.252  1.00  0.00     0.031 C 
ATOM     43  C   UNL A   1      39.624  27.796  29.826  1.00  0.00     0.029 A 
ATOM     44  N   UNL A   1      41.599  28.135  28.831  1.00  0.00    -0.354 N 
ATOM     45  C   UNL A   1      43.574  31.994  29.094  1.00  0.00     0.074 A 
ATOM     46  C   UNL A   1      42.757  32.942  29.818  1.00  0.00     0.031 C 
ATOM     47  C   UNL A   1      39.990  26.639  29.248  1.00  0.00     0.029 A 
ATOM     48  C   UNL A   1      41.273  26.827  28.575  1.00  0.00     0.049 A 
ATOM     49  H   UNL A   1      42.432  28.555  28.513  1.00  0.00     0.167 HD
ATOM     50  C   UNL A   1      44.802  32.270  28.596  1.00  0.00     0.037 A 
ATOM     51  C   UNL A   1      41.937  25.893  27.870  1.00  0.00     0.037 A 
ATOM     52  C   UNL A   1      45.604  31.323  27.867  1.00  0.00     0.049 A 
ATOM     53  C   UNL A   1      43.280  26.238  27.286  1.00  0.00     0.074 A 
ATOM     54  C   UNL A   1      46.855  31.501  27.305  1.00  0.00     0.029 A 
ATOM     55  N   UNL A   1      45.225  30.016  27.600  1.00  0.00    -0.354 N 
ATOM     56  N   UNL A   1      43.945  27.368  27.351  1.00  0.00    -0.248 NA
ATOM     57  C   UNL A   1      43.971  25.176  26.543  1.00  0.00     0.031 C 
ATOM     58  C   UNL A   1      47.217  30.310  26.665  1.00  0.00     0.029 A 
ATOM     59  C   UNL A   1      46.212  29.378  26.868  1.00  0.00     0.049 A 
ATOM     60  H   UNL A   1      44.379  29.602  27.888  1.00  0.00     0.167 HD
ATOM     61  C   UNL A   1      45.137  27.148  26.672  1.00  0.00     0.074 A 
ATOM     62  C   UNL A   1      45.114  25.768  26.229  1.00  0.00     0.031 C 
ATOM     63  C   UNL A   1      46.158  28.006  26.431  1.00  0.00     0.037 A 
BRANCH  50  64
ATOM     64  C   UNL A   1      45.339  33.653  28.816  1.00  0.00     0.057 A 
ATOM     65  C   UNL A   1      46.074  33.984  29.962  1.00  0.00     0.134 A 
ATOM     66  C   UNL A   1      45.140  34.659  27.863  1.00  0.00     0.134 A 
ATOM     67  F   UNL A   1      46.284  33.072  30.923  1.00  0.00    -0.206 F 
ATOM     68  C   UNL A   1      46.576  35.272  30.160  1.00  0.00     0.040 A 
ATOM     69  C   UNL A   1      45.657  35.945  28.039  1.00  0.00     0.040 A 
ATOM     70  F   UNL A   1      44.445  34.410  26.743  1.00  0.00    -0.206 F 
ATOM     71  C   UNL A   1      46.374  36.255  29.194  1.00  0.00     0.006 A 
ENDBRANCH  50  64
BRANCH  51  72
ATOM     72  C   UNL A   1      41.341  24.547  27.676  1.00  0.00     0.057 A 
ATOM     73  C   UNL A   1      41.756  23.446  28.432  1.00  0.00     0.134 A 
ATOM     74  C   UNL A   1      40.347  24.331  26.713  1.00  0.00     0.134 A 
ATOM     75  F   UNL A   1      42.717  23.585  29.356  1.00  0.00    -0.206 F 
ATOM     76  C   UNL A   1      41.218  22.174  28.226  1.00  0.00     0.040 A 
ATOM     77  C   UNL A   1      39.783  23.072  26.513  1.00  0.00     0.040 A 
ATOM     78  F   UNL A   1      39.905  25.347  25.957  1.00  0.00    -0.206 F 
ATOM     79  C   UNL A   1      40.225  21.986  27.267  1.00  0.00     0.006 A 
ENDBRANCH  51  72
BRANCH  63  80
ATOM     80  C   UNL A   1      47.328  27.466  25.664  1.00  0.00     0.057 A 
ATOM     81  C   UNL A   1      47.396  27.550  24.268  1.00  0.00     0.134 A 
ATOM     82  C   UNL A   1      48.404  26.865  26.330  1.00  0.00     0.134 A 
ATOM     83  F   UNL A   1      46.391  28.104  23.571  1.00  0.00    -0.206 F 
ATOM     84  C   UNL A   1      48.475  27.024  23.557  1.00  0.00     0.040 A 
ATOM     85  C   UNL A   1      49.501  26.359  25.634  1.00  0.00     0.040 A 
ATOM     86  F   UNL A   1      48.406  26.763  27.668  1.00  0.00    -0.206 F 
ATOM     87  C   UNL A   1      49.534  26.429  24.242  1.00  0.00     0.006 A 
ENDBRANCH  63  80
ENDBRANCH  37  38
ENDBRANCH  30  32
ENDBRANCH  29  30
ENDBRANCH  28  29
ENDBRANCH  27  28
ENDBRANCH  26  27
ENDBRANCH   1  26
TORSDOF 17
ENDMDL
