MODEL 1
REMARK VINA RESULT:     -10.9      0.000      0.000
REMARK SMILES O=C(Cc1ccccc1Nc1c(Cl)cccc1Cl)OCCOCCOC(=O)c1ccc(-c2c3nc(c(-c4c(F)cccc4F)c4ccc([nH]4)c(-c4c(F)cccc4F)c4nc(c(-c5c(F)cccc5F)c5ccc2[nH]5)C=C4)C=C3)cc1
REMARK SMILES IDX 21 1 20 2 19 3 2 4 1 5 3 6 4 7 5 8 9 9 6 10 8 11 7 12 10 13
REMARK SMILES IDX 11 15 12 16 17 17 13 18 14 19 16 20 18 21 15 22 22 23 23 24
REMARK SMILES IDX 24 25 25 26 26 27 27 28 28 29 29 30 81 31 30 32 80 33 31 34
REMARK SMILES IDX 32 35 33 36 74 37 34 38 79 39 73 40 75 41 35 42 78 43 72 44
REMARK SMILES IDX 71 45 36 47 62 48 45 49 61 50 46 51 49 52 60 53 76 54 47 55
REMARK SMILES IDX 48 56 59 58 77 59 50 60 37 61 38 62 43 63 39 64 40 65 42 66
REMARK SMILES IDX 44 67 41 68 63 69 64 70 69 71 65 72 66 73 68 74 70 75 67 76
REMARK SMILES IDX 51 77 52 78 57 79 53 80 54 81 56 82 58 83 55 84
REMARK H PARENT 10 14 75 46 49 57
REMARK Flexibility Score: inf
ROOT
ATOM      1  C   UNL A   1      40.593  21.235  26.202  1.00  0.00     0.202 C 
ENDROOT
BRANCH   1   2
ATOM      2  C   UNL A   1      39.366  22.153  26.225  1.00  0.00     0.261 C 
BRANCH   2   3
ATOM      3  O   UNL A   1      38.154  21.600  25.702  1.00  0.00    -0.463 OA
BRANCH   3   4
ATOM      4  C   UNL A   1      37.156  22.342  25.172  1.00  0.00     0.310 C 
ATOM      5  O   UNL A   1      36.759  22.110  24.028  1.00  0.00    -0.252 OA
BRANCH   4   6
ATOM      6  C   UNL A   1      36.571  23.501  25.946  1.00  0.00     0.160 C 
BRANCH   6   7
ATOM      7  C   UNL A   1      35.113  23.397  26.325  1.00  0.00    -0.013 A 
ATOM      8  C   UNL A   1      34.765  22.422  27.281  1.00  0.00     0.006 A 
ATOM      9  C   UNL A   1      34.113  24.214  25.750  1.00  0.00     0.042 A 
ATOM     10  C   UNL A   1      33.435  22.202  27.619  1.00  0.00     0.000 A 
ATOM     11  C   UNL A   1      32.777  23.940  26.076  1.00  0.00     0.026 A 
ATOM     12  C   UNL A   1      32.440  22.951  27.006  1.00  0.00     0.002 A 
BRANCH   9  13
ATOM     13  N   UNL A   1      34.448  25.183  24.787  1.00  0.00    -0.353 N 
ATOM     14  H   UNL A   1      35.345  25.575  24.888  1.00  0.00     0.167 HD
BRANCH  13  15
ATOM     15  C   UNL A   1      33.699  25.683  23.698  1.00  0.00     0.076 A 
ATOM     16  C   UNL A   1      33.148  26.979  23.752  1.00  0.00     0.066 A 
ATOM     17  C   UNL A   1      33.288  24.842  22.647  1.00  0.00     0.066 A 
ATOM     18  Cl  UNL A   1      33.542  28.076  25.033  1.00  0.00    -0.082 Cl
ATOM     19  C   UNL A   1      32.259  27.432  22.770  1.00  0.00     0.023 A 
ATOM     20  C   UNL A   1      32.405  25.297  21.662  1.00  0.00     0.023 A 
ATOM     21  Cl  UNL A   1      33.819  23.197  22.545  1.00  0.00    -0.082 Cl
ATOM     22  C   UNL A   1      31.890  26.591  21.724  1.00  0.00     0.003 A 
ENDBRANCH  13  15
ENDBRANCH   9  13
ENDBRANCH   6   7
ENDBRANCH   4   6
ENDBRANCH   3   4
ENDBRANCH   2   3
ENDBRANCH   1   2
BRANCH   1  23
ATOM     23  O   UNL A   1      41.751  21.633  25.484  1.00  0.00    -0.374 OA
BRANCH  23  24
ATOM     24  C   UNL A   1      43.033  21.149  25.884  1.00  0.00     0.202 C 
BRANCH  24  25
ATOM     25  C   UNL A   1      44.292  21.924  25.494  1.00  0.00     0.261 C 
BRANCH  25  26
ATOM     26  O   UNL A   1      44.501  23.111  26.274  1.00  0.00    -0.460 OA
BRANCH  26  27
ATOM     27  C   UNL A   1      44.445  24.255  25.558  1.00  0.00     0.338 C 
ATOM     28  O   UNL A   1      44.989  24.487  24.486  1.00  0.00    -0.246 OA
BRANCH  27  29
ATOM     29  C   UNL A   1      43.503  25.209  26.159  1.00  0.00     0.060 A 
ATOM     30  C   UNL A   1      43.987  26.492  26.440  1.00  0.00     0.016 A 
ATOM     31  C   UNL A   1      42.248  24.798  26.613  1.00  0.00     0.016 A 
ATOM     32  C   UNL A   1      43.261  27.337  27.269  1.00  0.00     0.010 A 
ATOM     33  C   UNL A   1      41.521  25.647  27.452  1.00  0.00     0.010 A 
ATOM     34  C   UNL A   1      42.060  26.888  27.834  1.00  0.00    -0.014 A 
BRANCH  34  35
ATOM     35  C   UNL A   1      41.519  27.623  28.999  1.00  0.00     0.031 A 
ATOM     36  C   UNL A   1      42.242  27.512  30.316  1.00  0.00     0.074 A 
ATOM     37  C   UNL A   1      40.461  28.438  28.866  1.00  0.00     0.049 A 
ATOM     38  N   UNL A   1      41.996  28.107  31.454  1.00  0.00    -0.248 NA
ATOM     39  C   UNL A   1      43.406  26.609  30.351  1.00  0.00     0.031 C 
ATOM     40  C   UNL A   1      39.713  28.655  27.629  1.00  0.00     0.029 A 
ATOM     41  N   UNL A   1      39.843  29.247  29.783  1.00  0.00    -0.354 N 
ATOM     42  C   UNL A   1      42.965  27.648  32.337  1.00  0.00     0.074 A 
ATOM     43  C   UNL A   1      43.786  26.701  31.616  1.00  0.00     0.031 C 
ATOM     44  C   UNL A   1      38.735  29.547  27.864  1.00  0.00     0.029 A 
ATOM     45  C   UNL A   1      38.780  29.946  29.269  1.00  0.00     0.049 A 
ATOM     46  H   UNL A   1      40.135  29.320  30.721  1.00  0.00     0.167 HD
ATOM     47  C   UNL A   1      43.161  27.994  33.632  1.00  0.00     0.037 A 
ATOM     48  C   UNL A   1      37.940  30.808  29.873  1.00  0.00     0.037 A 
ATOM     49  C   UNL A   1      42.346  28.942  34.342  1.00  0.00     0.049 A 
ATOM     50  C   UNL A   1      38.152  31.143  31.325  1.00  0.00     0.074 A 
ATOM     51  C   UNL A   1      42.463  29.374  35.652  1.00  0.00     0.029 A 
ATOM     52  N   UNL A   1      41.257  29.605  33.796  1.00  0.00    -0.354 N 
ATOM     53  N   UNL A   1      39.085  30.721  32.146  1.00  0.00    -0.248 NA
ATOM     54  C   UNL A   1      37.200  32.082  31.931  1.00  0.00     0.031 C 
ATOM     55  C   UNL A   1      41.419  30.270  35.908  1.00  0.00     0.029 A 
ATOM     56  C   UNL A   1      40.681  30.430  34.746  1.00  0.00     0.049 A 
ATOM     57  H   UNL A   1      40.940  29.504  32.869  1.00  0.00     0.167 HD
ATOM     58  C   UNL A   1      38.854  31.370  33.353  1.00  0.00     0.074 A 
ATOM     59  C   UNL A   1      37.697  32.218  33.153  1.00  0.00     0.031 C 
ATOM     60  C   UNL A   1      39.537  31.275  34.520  1.00  0.00     0.037 A 
BRANCH  47  61
ATOM     61  C   UNL A   1      44.283  27.317  34.364  1.00  0.00     0.057 A 
ATOM     62  C   UNL A   1      45.588  27.825  34.357  1.00  0.00     0.134 A 
ATOM     63  C   UNL A   1      44.050  26.146  35.096  1.00  0.00     0.134 A 
ATOM     64  F   UNL A   1      45.882  28.933  33.660  1.00  0.00    -0.206 F 
ATOM     65  C   UNL A   1      46.627  27.179  35.031  1.00  0.00     0.040 A 
ATOM     66  C   UNL A   1      45.075  25.504  35.795  1.00  0.00     0.040 A 
ATOM     67  F   UNL A   1      42.822  25.606  35.146  1.00  0.00    -0.206 F 
ATOM     68  C   UNL A   1      46.369  26.017  35.758  1.00  0.00     0.006 A 
ENDBRANCH  47  61
BRANCH  48  69
ATOM     69  C   UNL A   1      36.831  31.425  29.104  1.00  0.00     0.057 A 
ATOM     70  C   UNL A   1      36.887  32.763  28.698  1.00  0.00     0.134 A 
ATOM     71  C   UNL A   1      35.685  30.695  28.768  1.00  0.00     0.134 A 
ATOM     72  F   UNL A   1      37.950  33.519  29.007  1.00  0.00    -0.206 F 
ATOM     73  C   UNL A   1      35.835  33.359  27.999  1.00  0.00     0.040 A 
ATOM     74  C   UNL A   1      34.637  31.271  28.051  1.00  0.00     0.040 A 
ATOM     75  F   UNL A   1      35.572  29.408  29.127  1.00  0.00    -0.206 F 
ATOM     76  C   UNL A   1      34.707  32.610  27.670  1.00  0.00     0.006 A 
ENDBRANCH  48  69
BRANCH  60  77
ATOM     77  C   UNL A   1      39.077  32.144  35.652  1.00  0.00     0.057 A 
ATOM     78  C   UNL A   1      38.234  31.664  36.661  1.00  0.00     0.134 A 
ATOM     79  C   UNL A   1      39.508  33.474  35.746  1.00  0.00     0.134 A 
ATOM     80  F   UNL A   1      37.778  30.402  36.622  1.00  0.00    -0.206 F 
ATOM     81  C   UNL A   1      37.813  32.483  37.710  1.00  0.00     0.040 A 
ATOM     82  C   UNL A   1      39.114  34.296  36.803  1.00  0.00     0.040 A 
ATOM     83  F   UNL A   1      40.324  33.994  34.816  1.00  0.00    -0.206 F 
ATOM     84  C   UNL A   1      38.257  33.802  37.784  1.00  0.00     0.006 A 
ENDBRANCH  60  77
ENDBRANCH  34  35
ENDBRANCH  27  29
ENDBRANCH  26  27
ENDBRANCH  25  26
ENDBRANCH  24  25
ENDBRANCH  23  24
ENDBRANCH   1  23
TORSDOF 17
ENDMDL
MODEL 2
REMARK VINA RESULT:     -10.7      0.828      2.054
REMARK SMILES O=C(Cc1ccccc1Nc1c(Cl)cccc1Cl)OCCOCCOC(=O)c1ccc(-c2c3nc(c(-c4c(F)cccc4F)c4ccc([nH]4)c(-c4c(F)cccc4F)c4nc(c(-c5c(F)cccc5F)c5ccc2[nH]5)C=C4)C=C3)cc1
REMARK SMILES IDX 21 1 20 2 19 3 2 4 1 5 3 6 4 7 5 8 9 9 6 10 8 11 7 12 10 13
REMARK SMILES IDX 11 15 12 16 17 17 13 18 14 19 16 20 18 21 15 22 22 23 23 24
REMARK SMILES IDX 24 25 25 26 26 27 27 28 28 29 29 30 81 31 30 32 80 33 31 34
REMARK SMILES IDX 32 35 33 36 74 37 34 38 79 39 73 40 75 41 35 42 78 43 72 44
REMARK SMILES IDX 71 45 36 47 62 48 45 49 61 50 46 51 49 52 60 53 76 54 47 55
REMARK SMILES IDX 48 56 59 58 77 59 50 60 37 61 38 62 43 63 39 64 40 65 42 66
REMARK SMILES IDX 44 67 41 68 63 69 64 70 69 71 65 72 66 73 68 74 70 75 67 76
REMARK SMILES IDX 51 77 52 78 57 79 53 80 54 81 56 82 58 83 55 84
REMARK H PARENT 10 14 75 46 49 57
REMARK Flexibility Score: inf
ROOT
ATOM      1  C   UNL A   1      40.969  21.169  26.266  1.00  0.00     0.202 C 
ENDROOT
BRANCH   1   2
ATOM      2  C   UNL A   1      39.634  21.909  26.399  1.00  0.00     0.261 C 
BRANCH   2   3
ATOM      3  O   UNL A   1      38.646  21.614  25.407  1.00  0.00    -0.463 OA
BRANCH   3   4
ATOM      4  C   UNL A   1      37.534  22.356  25.209  1.00  0.00     0.310 C 
ATOM      5  O   UNL A   1      37.303  23.324  25.937  1.00  0.00    -0.252 OA
BRANCH   4   6
ATOM      6  C   UNL A   1      36.533  21.965  24.146  1.00  0.00     0.160 C 
BRANCH   6   7
ATOM      7  C   UNL A   1      35.124  21.684  24.610  1.00  0.00    -0.013 A 
ATOM      8  C   UNL A   1      34.817  20.355  24.967  1.00  0.00     0.006 A 
ATOM      9  C   UNL A   1      34.128  22.684  24.679  1.00  0.00     0.042 A 
ATOM     10  C   UNL A   1      33.522  19.996  25.321  1.00  0.00     0.000 A 
ATOM     11  C   UNL A   1      32.821  22.285  24.996  1.00  0.00     0.026 A 
ATOM     12  C   UNL A   1      32.521  20.958  25.321  1.00  0.00     0.002 A 
BRANCH   9  13
ATOM     13  N   UNL A   1      34.420  24.011  24.315  1.00  0.00    -0.353 N 
ATOM     14  H   UNL A   1      35.340  24.301  24.512  1.00  0.00     0.167 HD
BRANCH  13  15
ATOM     15  C   UNL A   1      33.602  24.993  23.713  1.00  0.00     0.076 A 
ATOM     16  C   UNL A   1      33.159  24.830  22.384  1.00  0.00     0.066 A 
ATOM     17  C   UNL A   1      33.400  26.247  24.319  1.00  0.00     0.066 A 
ATOM     18  Cl  UNL A   1      33.407  23.347  21.526  1.00  0.00    -0.082 Cl
ATOM     19  C   UNL A   1      32.500  25.862  21.707  1.00  0.00     0.023 A 
ATOM     20  C   UNL A   1      32.735  27.276  23.643  1.00  0.00     0.023 A 
ATOM     21  Cl  UNL A   1      33.999  26.591  25.906  1.00  0.00    -0.082 Cl
ATOM     22  C   UNL A   1      32.286  27.084  22.338  1.00  0.00     0.003 A 
ENDBRANCH  13  15
ENDBRANCH   9  13
ENDBRANCH   6   7
ENDBRANCH   4   6
ENDBRANCH   3   4
ENDBRANCH   2   3
ENDBRANCH   1   2
BRANCH   1  23
ATOM     23  O   UNL A   1      42.065  21.811  25.632  1.00  0.00    -0.374 OA
BRANCH  23  24
ATOM     24  C   UNL A   1      43.323  21.143  25.547  1.00  0.00     0.202 C 
BRANCH  24  25
ATOM     25  C   UNL A   1      44.618  21.956  25.593  1.00  0.00     0.261 C 
BRANCH  25  26
ATOM     26  O   UNL A   1      44.505  23.175  26.343  1.00  0.00    -0.460 OA
BRANCH  26  27
ATOM     27  C   UNL A   1      44.408  24.283  25.575  1.00  0.00     0.338 C 
ATOM     28  O   UNL A   1      44.884  24.458  24.461  1.00  0.00    -0.246 OA
BRANCH  27  29
ATOM     29  C   UNL A   1      43.510  25.272  26.187  1.00  0.00     0.060 A 
ATOM     30  C   UNL A   1      44.062  26.514  26.523  1.00  0.00     0.016 A 
ATOM     31  C   UNL A   1      42.221  24.923  26.597  1.00  0.00     0.016 A 
ATOM     32  C   UNL A   1      43.367  27.373  27.363  1.00  0.00     0.010 A 
ATOM     33  C   UNL A   1      41.525  25.786  27.447  1.00  0.00     0.010 A 
ATOM     34  C   UNL A   1      42.127  26.979  27.884  1.00  0.00    -0.014 A 
BRANCH  34  35
ATOM     35  C   UNL A   1      41.601  27.707  29.061  1.00  0.00     0.031 A 
ATOM     36  C   UNL A   1      42.337  27.581  30.369  1.00  0.00     0.074 A 
ATOM     37  C   UNL A   1      40.547  28.529  28.945  1.00  0.00     0.049 A 
ATOM     38  N   UNL A   1      42.105  28.168  31.515  1.00  0.00    -0.248 NA
ATOM     39  C   UNL A   1      43.496  26.672  30.385  1.00  0.00     0.031 C 
ATOM     40  C   UNL A   1      39.788  28.760  27.717  1.00  0.00     0.029 A 
ATOM     41  N   UNL A   1      39.942  29.334  29.875  1.00  0.00    -0.354 N 
ATOM     42  C   UNL A   1      43.080  27.696  32.385  1.00  0.00     0.074 A 
ATOM     43  C   UNL A   1      43.889  26.751  31.648  1.00  0.00     0.031 C 
ATOM     44  C   UNL A   1      38.817  29.656  27.970  1.00  0.00     0.029 A 
ATOM     45  C   UNL A   1      38.878  30.042  29.378  1.00  0.00     0.049 A 
ATOM     46  H   UNL A   1      40.243  29.397  30.810  1.00  0.00     0.167 HD
ATOM     47  C   UNL A   1      43.290  28.029  33.681  1.00  0.00     0.037 A 
ATOM     48  C   UNL A   1      38.048  30.903  29.997  1.00  0.00     0.037 A 
ATOM     49  C   UNL A   1      42.487  28.976  34.406  1.00  0.00     0.049 A 
ATOM     50  C   UNL A   1      38.276  31.225  31.449  1.00  0.00     0.074 A 
ATOM     51  C   UNL A   1      42.620  29.396  35.718  1.00  0.00     0.029 A 
ATOM     52  N   UNL A   1      41.397  29.649  33.877  1.00  0.00    -0.354 N 
ATOM     53  N   UNL A   1      39.215  30.791  32.257  1.00  0.00    -0.248 NA
ATOM     54  C   UNL A   1      37.335  32.164  32.073  1.00  0.00     0.031 C 
ATOM     55  C   UNL A   1      41.583  30.295  35.993  1.00  0.00     0.029 A 
ATOM     56  C   UNL A   1      40.835  30.469  34.839  1.00  0.00     0.049 A 
ATOM     57  H   UNL A   1      41.071  29.558  32.953  1.00  0.00     0.167 HD
ATOM     58  C   UNL A   1      38.999  31.430  33.472  1.00  0.00     0.074 A 
ATOM     59  C   UNL A   1      37.845  32.287  33.292  1.00  0.00     0.031 C 
ATOM     60  C   UNL A   1      39.693  31.322  34.632  1.00  0.00     0.037 A 
BRANCH  47  61
ATOM     61  C   UNL A   1      44.416  27.340  34.396  1.00  0.00     0.057 A 
ATOM     62  C   UNL A   1      44.240  26.116  35.053  1.00  0.00     0.134 A 
ATOM     63  C   UNL A   1      45.697  27.906  34.416  1.00  0.00     0.134 A 
ATOM     64  F   UNL A   1      43.034  25.530  35.087  1.00  0.00    -0.206 F 
ATOM     65  C   UNL A   1      45.293  25.491  35.726  1.00  0.00     0.040 A 
ATOM     66  C   UNL A   1      46.763  27.279  35.064  1.00  0.00     0.040 A 
ATOM     67  F   UNL A   1      45.935  29.077  33.805  1.00  0.00    -0.206 F 
ATOM     68  C   UNL A   1      46.560  26.071  35.727  1.00  0.00     0.006 A 
ENDBRANCH  47  61
BRANCH  48  69
ATOM     69  C   UNL A   1      36.935  31.533  29.244  1.00  0.00     0.057 A 
ATOM     70  C   UNL A   1      35.760  30.827  28.961  1.00  0.00     0.134 A 
ATOM     71  C   UNL A   1      37.025  32.851  28.781  1.00  0.00     0.134 A 
ATOM     72  F   UNL A   1      35.624  29.555  29.362  1.00  0.00    -0.206 F 
ATOM     73  C   UNL A   1      34.721  31.403  28.229  1.00  0.00     0.040 A 
ATOM     74  C   UNL A   1      35.984  33.446  28.068  1.00  0.00     0.040 A 
ATOM     75  F   UNL A   1      38.124  33.580  29.021  1.00  0.00    -0.206 F 
ATOM     76  C   UNL A   1      34.830  32.719  27.783  1.00  0.00     0.006 A 
ENDBRANCH  48  69
BRANCH  60  77
ATOM     77  C   UNL A   1      39.248  32.184  35.776  1.00  0.00     0.057 A 
ATOM     78  C   UNL A   1      39.729  33.486  35.954  1.00  0.00     0.134 A 
ATOM     79  C   UNL A   1      38.303  31.710  36.696  1.00  0.00     0.134 A 
ATOM     80  F   UNL A   1      40.644  33.994  35.113  1.00  0.00    -0.206 F 
ATOM     81  C   UNL A   1      39.307  34.279  37.022  1.00  0.00     0.040 A 
ATOM     82  C   UNL A   1      37.854  32.502  37.753  1.00  0.00     0.040 A 
ATOM     83  F   UNL A   1      37.795  30.474  36.576  1.00  0.00    -0.206 F 
ATOM     84  C   UNL A   1      38.363  33.787  37.923  1.00  0.00     0.006 A 
ENDBRANCH  60  77
ENDBRANCH  34  35
ENDBRANCH  27  29
ENDBRANCH  26  27
ENDBRANCH  25  26
ENDBRANCH  24  25
ENDBRANCH  23  24
ENDBRANCH   1  23
TORSDOF 17
ENDMDL
MODEL 3
REMARK VINA RESULT:     -10.7      4.616      7.411
REMARK SMILES O=C(Cc1ccccc1Nc1c(Cl)cccc1Cl)OCCOCCOC(=O)c1ccc(-c2c3nc(c(-c4c(F)cccc4F)c4ccc([nH]4)c(-c4c(F)cccc4F)c4nc(c(-c5c(F)cccc5F)c5ccc2[nH]5)C=C4)C=C3)cc1
REMARK SMILES IDX 21 1 20 2 19 3 2 4 1 5 3 6 4 7 5 8 9 9 6 10 8 11 7 12 10 13
REMARK SMILES IDX 11 15 12 16 17 17 13 18 14 19 16 20 18 21 15 22 22 23 23 24
REMARK SMILES IDX 24 25 25 26 26 27 27 28 28 29 29 30 81 31 30 32 80 33 31 34
REMARK SMILES IDX 32 35 33 36 74 37 34 38 79 39 73 40 75 41 35 42 78 43 72 44
REMARK SMILES IDX 71 45 36 47 62 48 45 49 61 50 46 51 49 52 60 53 76 54 47 55
REMARK SMILES IDX 48 56 59 58 77 59 50 60 37 61 38 62 43 63 39 64 40 65 42 66
REMARK SMILES IDX 44 67 41 68 63 69 64 70 69 71 65 72 66 73 68 74 70 75 67 76
REMARK SMILES IDX 51 77 52 78 57 79 53 80 54 81 56 82 58 83 55 84
REMARK H PARENT 10 14 75 46 49 57
REMARK Flexibility Score: inf
ROOT
ATOM      1  C   UNL A   1      42.276  19.366  26.251  1.00  0.00     0.202 C 
ENDROOT
BRANCH   1   2
ATOM      2  C   UNL A   1      43.483  19.131  25.338  1.00  0.00     0.261 C 
BRANCH   2   3
ATOM      3  O   UNL A   1      44.004  20.285  24.670  1.00  0.00    -0.463 OA
BRANCH   3   4
ATOM      4  C   UNL A   1      44.673  21.278  25.297  1.00  0.00     0.310 C 
ATOM      5  O   UNL A   1      45.872  21.144  25.553  1.00  0.00    -0.252 OA
BRANCH   4   6
ATOM      6  C   UNL A   1      43.946  22.524  25.748  1.00  0.00     0.160 C 
BRANCH   6   7
ATOM      7  C   UNL A   1      44.235  23.008  27.149  1.00  0.00    -0.013 A 
ATOM      8  C   UNL A   1      43.296  22.682  28.149  1.00  0.00     0.006 A 
ATOM      9  C   UNL A   1      45.379  23.771  27.474  1.00  0.00     0.042 A 
ATOM     10  C   UNL A   1      43.442  23.163  29.444  1.00  0.00     0.000 A 
ATOM     11  C   UNL A   1      45.478  24.281  28.778  1.00  0.00     0.026 A 
ATOM     12  C   UNL A   1      44.525  23.974  29.755  1.00  0.00     0.002 A 
BRANCH   9  13
ATOM     13  N   UNL A   1      46.317  24.111  26.483  1.00  0.00    -0.353 N 
ATOM     14  H   UNL A   1      46.784  23.347  26.075  1.00  0.00     0.167 HD
BRANCH  13  15
ATOM     15  C   UNL A   1      46.696  25.377  25.981  1.00  0.00     0.076 A 
ATOM     16  C   UNL A   1      47.951  25.925  26.314  1.00  0.00     0.066 A 
ATOM     17  C   UNL A   1      45.765  26.217  25.341  1.00  0.00     0.066 A 
ATOM     18  Cl  UNL A   1      49.149  24.996  27.151  1.00  0.00    -0.082 Cl
ATOM     19  C   UNL A   1      48.279  27.244  25.979  1.00  0.00     0.023 A 
ATOM     20  C   UNL A   1      46.096  27.533  25.001  1.00  0.00     0.023 A 
ATOM     21  Cl  UNL A   1      44.159  25.680  24.984  1.00  0.00    -0.082 Cl
ATOM     22  C   UNL A   1      47.352  28.046  25.320  1.00  0.00     0.003 A 
ENDBRANCH  13  15
ENDBRANCH   9  13
ENDBRANCH   6   7
ENDBRANCH   4   6
ENDBRANCH   3   4
ENDBRANCH   2   3
ENDBRANCH   1   2
BRANCH   1  23
ATOM     23  O   UNL A   1      40.972  19.066  25.777  1.00  0.00    -0.374 OA
BRANCH  23  24
ATOM     24  C   UNL A   1      39.941  20.049  25.871  1.00  0.00     0.202 C 
BRANCH  24  25
ATOM     25  C   UNL A   1      40.311  21.520  26.067  1.00  0.00     0.261 C 
BRANCH  25  26
ATOM     26  O   UNL A   1      39.343  22.260  26.826  1.00  0.00    -0.460 OA
BRANCH  26  27
ATOM     27  C   UNL A   1      39.056  23.476  26.311  1.00  0.00     0.338 C 
ATOM     28  O   UNL A   1      38.095  23.780  25.616  1.00  0.00    -0.246 OA
BRANCH  27  29
ATOM     29  C   UNL A   1      39.994  24.494  26.806  1.00  0.00     0.060 A 
ATOM     30  C   UNL A   1      40.211  24.542  28.188  1.00  0.00     0.016 A 
ATOM     31  C   UNL A   1      40.488  25.493  25.964  1.00  0.00     0.016 A 
ATOM     32  C   UNL A   1      40.835  25.649  28.749  1.00  0.00     0.010 A 
ATOM     33  C   UNL A   1      41.111  26.608  26.531  1.00  0.00     0.010 A 
ATOM     34  C   UNL A   1      41.222  26.716  27.928  1.00  0.00    -0.014 A 
BRANCH  34  35
ATOM     35  C   UNL A   1      41.508  28.020  28.567  1.00  0.00     0.031 A 
ATOM     36  C   UNL A   1      42.946  28.441  28.725  1.00  0.00     0.074 A 
ATOM     37  C   UNL A   1      40.511  28.847  28.915  1.00  0.00     0.049 A 
ATOM     38  N   UNL A   1      43.440  29.558  29.195  1.00  0.00    -0.248 NA
ATOM     39  C   UNL A   1      43.965  27.472  28.289  1.00  0.00     0.031 C 
ATOM     40  C   UNL A   1      39.085  28.561  28.766  1.00  0.00     0.029 A 
ATOM     41  N   UNL A   1      40.549  30.107  29.455  1.00  0.00    -0.354 N 
ATOM     42  C   UNL A   1      44.821  29.421  29.117  1.00  0.00     0.074 A 
ATOM     43  C   UNL A   1      45.091  28.104  28.585  1.00  0.00     0.031 C 
ATOM     44  C   UNL A   1      38.382  29.620  29.201  1.00  0.00     0.029 A 
ATOM     45  C   UNL A   1      39.307  30.647  29.675  1.00  0.00     0.049 A 
ATOM     46  H   UNL A   1      41.388  30.578  29.665  1.00  0.00     0.167 HD
ATOM     47  C   UNL A   1      45.779  30.319  29.449  1.00  0.00     0.037 A 
ATOM     48  C   UNL A   1      38.965  31.837  30.202  1.00  0.00     0.037 A 
ATOM     49  C   UNL A   1      45.504  31.631  29.970  1.00  0.00     0.049 A 
ATOM     50  C   UNL A   1      40.049  32.801  30.603  1.00  0.00     0.074 A 
ATOM     51  C   UNL A   1      46.399  32.624  30.328  1.00  0.00     0.029 A 
ATOM     52  N   UNL A   1      44.233  32.130  30.209  1.00  0.00    -0.354 N 
ATOM     53  N   UNL A   1      41.351  32.672  30.505  1.00  0.00    -0.248 NA
ATOM     54  C   UNL A   1      39.614  34.080  31.180  1.00  0.00     0.031 C 
ATOM     55  C   UNL A   1      45.667  33.710  30.821  1.00  0.00     0.029 A 
ATOM     56  C   UNL A   1      44.317  33.410  30.727  1.00  0.00     0.049 A 
ATOM     57  H   UNL A   1      43.393  31.645  30.036  1.00  0.00     0.167 HD
ATOM     58  C   UNL A   1      41.889  33.865  30.973  1.00  0.00     0.074 A 
ATOM     59  C   UNL A   1      40.771  34.706  31.348  1.00  0.00     0.031 C 
ATOM     60  C   UNL A   1      43.190  34.233  31.081  1.00  0.00     0.037 A 
BRANCH  47  61
ATOM     61  C   UNL A   1      47.209  29.894  29.283  1.00  0.00     0.057 A 
ATOM     62  C   UNL A   1      47.877  29.135  30.252  1.00  0.00     0.134 A 
ATOM     63  C   UNL A   1      47.924  30.241  28.129  1.00  0.00     0.134 A 
ATOM     64  F   UNL A   1      47.255  28.785  31.388  1.00  0.00    -0.206 F 
ATOM     65  C   UNL A   1      49.211  28.757  30.092  1.00  0.00     0.040 A 
ATOM     66  C   UNL A   1      49.251  29.848  27.945  1.00  0.00     0.040 A 
ATOM     67  F   UNL A   1      47.344  30.966  27.160  1.00  0.00    -0.206 F 
ATOM     68  C   UNL A   1      49.900  29.109  28.932  1.00  0.00     0.006 A 
ENDBRANCH  47  61
BRANCH  48  69
ATOM     69  C   UNL A   1      37.533  32.191  30.368  1.00  0.00     0.057 A 
ATOM     70  C   UNL A   1      36.853  32.936  29.397  1.00  0.00     0.134 A 
ATOM     71  C   UNL A   1      36.815  31.802  31.504  1.00  0.00     0.134 A 
ATOM     72  F   UNL A   1      37.492  33.354  28.296  1.00  0.00    -0.206 F 
ATOM     73  C   UNL A   1      35.514  33.297  29.560  1.00  0.00     0.040 A 
ATOM     74  C   UNL A   1      35.471  32.137  31.669  1.00  0.00     0.040 A 
ATOM     75  F   UNL A   1      37.410  31.085  32.469  1.00  0.00    -0.206 F 
ATOM     76  C   UNL A   1      34.818  32.893  30.697  1.00  0.00     0.006 A 
ENDBRANCH  48  69
BRANCH  60  77
ATOM     77  C   UNL A   1      43.467  35.619  31.582  1.00  0.00     0.057 A 
ATOM     78  C   UNL A   1      43.678  36.694  30.711  1.00  0.00     0.134 A 
ATOM     79  C   UNL A   1      43.493  35.885  32.958  1.00  0.00     0.134 A 
ATOM     80  F   UNL A   1      43.676  36.503  29.382  1.00  0.00    -0.206 F 
ATOM     81  C   UNL A   1      43.934  37.980  31.189  1.00  0.00     0.040 A 
ATOM     82  C   UNL A   1      43.723  37.171  33.448  1.00  0.00     0.040 A 
ATOM     83  F   UNL A   1      43.288  34.900  33.846  1.00  0.00    -0.206 F 
ATOM     84  C   UNL A   1      43.953  38.221  32.563  1.00  0.00     0.006 A 
ENDBRANCH  60  77
ENDBRANCH  34  35
ENDBRANCH  27  29
ENDBRANCH  26  27
ENDBRANCH  25  26
ENDBRANCH  24  25
ENDBRANCH  23  24
ENDBRANCH   1  23
TORSDOF 17
ENDMDL
