MODEL 1
REMARK VINA RESULT:     -12.4      0.000      0.000
REMARK SMILES O=C(OCCOCCOC(=O)c1ccc(-c2c3nc(c(-c4c(F)cccc4F)c4ccc([nH]4)c(-c4c(F)cccc4F)c4nc(c(-c5c(F)cccc5F)c5ccc2[nH]5)C=C4)C=C3)cc1)C1=Cc2c(Cl)ccc(Cl)c2O[C@@H]1C(F)(F)F
REMARK SMILES IDX 7 1 6 2 5 3 4 4 3 5 2 6 1 7 66 8 67 9 77 10 68 11 76 12
REMARK SMILES IDX 69 13 75 14 70 15 71 16 73 17 72 18 74 19 78 20 79 21 80 22
REMARK SMILES IDX 81 23 8 24 9 25 10 26 11 27 12 28 13 29 65 30 14 31 64 32
REMARK SMILES IDX 15 33 16 34 17 35 58 36 18 37 63 38 57 39 59 40 19 41 62 42
REMARK SMILES IDX 56 43 55 44 20 46 46 47 29 48 45 49 30 50 33 51 44 52 60 53
REMARK SMILES IDX 31 54 32 55 43 57 61 58 34 59 21 60 22 61 27 62 23 63 24 64
REMARK SMILES IDX 26 65 28 66 25 67 47 68 48 69 53 70 49 71 50 72 52 73 54 74
REMARK SMILES IDX 51 75 35 76 36 77 41 78 37 79 38 80 40 81 42 82 39 83
REMARK H PARENT 59 45 33 56
REMARK Flexibility Score: inf
ROOT
ATOM      1  C   UNL A   1      42.632  21.078  26.126  1.00  0.00     0.202 C 
ENDROOT
BRANCH   1   2
ATOM      2  O   UNL A   1      41.336  21.226  25.513  1.00  0.00    -0.374 OA
BRANCH   2   3
ATOM      3  C   UNL A   1      40.033  21.808  26.210  1.00  0.00     0.202 C 
BRANCH   3   4
ATOM      4  C   UNL A   1      37.950  21.448  25.747  1.00  0.00     0.261 C 
BRANCH   4   5
ATOM      5  O   UNL A   1      36.765  22.409  26.028  1.00  0.00    -0.460 OA
BRANCH   5   6
ATOM      6  C   UNL A   1      36.422  23.146  24.970  1.00  0.00     0.338 C 
ATOM      7  O   UNL A   1      37.103  23.698  24.146  1.00  0.00    -0.246 OA
BRANCH   6   8
ATOM      8  C   UNL A   1      35.044  23.299  25.358  1.00  0.00     0.087 C 
ATOM      9  C   UNL A   1      34.763  24.746  25.665  1.00  0.00     0.029 C 
ATOM     10  C   UNL A   1      34.257  22.321  23.871  1.00  0.00     0.316 C 
ATOM     11  C   UNL A   1      33.764  25.847  24.573  1.00  0.00     0.037 A 
ATOM     12  O   UNL A   1      33.264  23.460  22.706  1.00  0.00    -0.474 OA
ATOM     13  C   UNL A   1      33.704  27.205  24.781  1.00  0.00     0.052 A 
ATOM     14  C   UNL A   1      33.071  25.228  23.109  1.00  0.00     0.148 A 
ATOM     15  Cl  UNL A   1      34.340  27.974  26.173  1.00  0.00    -0.084 Cl
ATOM     16  C   UNL A   1      33.132  27.966  23.743  1.00  0.00     0.023 A 
ATOM     17  C   UNL A   1      32.673  26.065  22.101  1.00  0.00     0.083 A 
ATOM     18  C   UNL A   1      32.681  27.431  22.466  1.00  0.00     0.026 A 
ATOM     19  Cl  UNL A   1      32.526  25.579  20.477  1.00  0.00    -0.080 Cl
BRANCH  10  20
ATOM     20  C   UNL A   1      33.775  20.965  24.500  1.00  0.00     0.430 C 
ATOM     21  F   UNL A   1      32.845  21.104  25.462  1.00  0.00    -0.167 F 
ATOM     22  F   UNL A   1      33.192  20.232  23.511  1.00  0.00    -0.167 F 
ATOM     23  F   UNL A   1      34.764  20.180  24.979  1.00  0.00    -0.167 F 
ENDBRANCH  10  20
ENDBRANCH   6   8
ENDBRANCH   5   6
ENDBRANCH   4   5
ENDBRANCH   3   4
ENDBRANCH   2   3
ENDBRANCH   1   2
BRANCH   1  24
ATOM     24  C   UNL A   1      43.717  21.909  25.438  1.00  0.00     0.261 C 
BRANCH  24  25
ATOM     25  O   UNL A   1      43.178  23.112  24.898  1.00  0.00    -0.460 OA
BRANCH  25  26
ATOM     26  C   UNL A   1      43.957  24.201  25.094  1.00  0.00     0.338 C 
ATOM     27  O   UNL A   1      45.037  24.450  24.585  1.00  0.00    -0.246 OA
BRANCH  26  28
ATOM     28  C   UNL A   1      43.287  25.095  26.054  1.00  0.00     0.060 A 
ATOM     29  C   UNL A   1      43.885  26.328  26.338  1.00  0.00     0.016 A 
ATOM     30  C   UNL A   1      42.077  24.727  26.660  1.00  0.00     0.016 A 
ATOM     31  C   UNL A   1      43.268  27.201  27.227  1.00  0.00     0.010 A 
ATOM     32  C   UNL A   1      41.455  25.605  27.539  1.00  0.00     0.010 A 
ATOM     33  C   UNL A   1      42.062  26.831  27.839  1.00  0.00    -0.014 A 
BRANCH  33  34
ATOM     34  C   UNL A   1      41.544  27.632  28.960  1.00  0.00     0.031 A 
ATOM     35  C   UNL A   1      42.244  27.502  30.278  1.00  0.00     0.074 A 
ATOM     36  C   UNL A   1      40.493  28.452  28.800  1.00  0.00     0.049 A 
ATOM     37  N   UNL A   1      42.013  28.121  31.404  1.00  0.00    -0.248 NA
ATOM     38  C   UNL A   1      43.358  26.538  30.332  1.00  0.00     0.031 C 
ATOM     39  C   UNL A   1      39.745  28.640  27.557  1.00  0.00     0.029 A 
ATOM     40  N   UNL A   1      39.869  29.278  29.697  1.00  0.00    -0.354 N 
ATOM     41  C   UNL A   1      42.970  27.644  32.289  1.00  0.00     0.074 A 
ATOM     42  C   UNL A   1      43.742  26.640  31.594  1.00  0.00     0.031 C 
ATOM     43  C   UNL A   1      38.759  29.528  27.772  1.00  0.00     0.029 A 
ATOM     44  C   UNL A   1      38.795  29.952  29.170  1.00  0.00     0.049 A 
ATOM     45  H   UNL A   1      40.164  29.379  30.630  1.00  0.00     0.167 HD
ATOM     46  C   UNL A   1      43.197  28.030  33.563  1.00  0.00     0.037 A 
ATOM     47  C   UNL A   1      37.939  30.802  29.767  1.00  0.00     0.037 A 
ATOM     48  C   UNL A   1      42.389  28.994  34.256  1.00  0.00     0.049 A 
ATOM     49  C   UNL A   1      38.155  31.141  31.222  1.00  0.00     0.074 A 
ATOM     50  C   UNL A   1      42.511  29.449  35.556  1.00  0.00     0.029 A 
ATOM     51  N   UNL A   1      41.290  29.637  33.704  1.00  0.00    -0.354 N 
ATOM     52  N   UNL A   1      39.100  30.736  32.037  1.00  0.00    -0.248 NA
ATOM     53  C   UNL A   1      37.192  32.065  31.834  1.00  0.00     0.031 C 
ATOM     54  C   UNL A   1      41.451  30.327  35.806  1.00  0.00     0.029 A 
ATOM     55  C   UNL A   1      40.709  30.468  34.643  1.00  0.00     0.049 A 
ATOM     56  H   UNL A   1      40.973  29.518  32.779  1.00  0.00     0.167 HD
ATOM     57  C   UNL A   1      38.869  31.384  33.244  1.00  0.00     0.074 A 
ATOM     58  C   UNL A   1      37.701  32.220  33.047  1.00  0.00     0.031 C 
ATOM     59  C   UNL A   1      39.554  31.300  34.411  1.00  0.00     0.037 A 
BRANCH  46  60
ATOM     60  C   UNL A   1      44.349  27.385  34.273  1.00  0.00     0.057 A 
ATOM     61  C   UNL A   1      45.628  27.959  34.272  1.00  0.00     0.134 A 
ATOM     62  C   UNL A   1      44.185  26.171  34.950  1.00  0.00     0.134 A 
ATOM     63  F   UNL A   1      45.857  29.108  33.618  1.00  0.00    -0.206 F 
ATOM     64  C   UNL A   1      46.709  27.335  34.895  1.00  0.00     0.040 A 
ATOM     65  C   UNL A   1      45.253  25.552  35.602  1.00  0.00     0.040 A 
ATOM     66  F   UNL A   1      42.990  25.565  34.983  1.00  0.00    -0.206 F 
ATOM     67  C   UNL A   1      46.521  26.130  35.569  1.00  0.00     0.006 A 
ENDBRANCH  46  60
BRANCH  47  68
ATOM     68  C   UNL A   1      36.807  31.395  29.010  1.00  0.00     0.057 A 
ATOM     69  C   UNL A   1      36.821  32.738  28.612  1.00  0.00     0.134 A 
ATOM     70  C   UNL A   1      35.659  30.651  28.710  1.00  0.00     0.134 A 
ATOM     71  F   UNL A   1      37.883  33.511  28.884  1.00  0.00    -0.206 F 
ATOM     72  C   UNL A   1      35.725  33.327  27.978  1.00  0.00     0.040 A 
ATOM     73  C   UNL A   1      34.567  31.218  28.051  1.00  0.00     0.040 A 
ATOM     74  F   UNL A   1      35.582  29.357  29.057  1.00  0.00    -0.206 F 
ATOM     75  C   UNL A   1      34.594  32.565  27.694  1.00  0.00     0.006 A 
ENDBRANCH  47  68
BRANCH  59  76
ATOM     76  C   UNL A   1      39.092  32.171  35.544  1.00  0.00     0.057 A 
ATOM     77  C   UNL A   1      38.257  31.691  36.560  1.00  0.00     0.134 A 
ATOM     78  C   UNL A   1      39.531  33.498  35.640  1.00  0.00     0.134 A 
ATOM     79  F   UNL A   1      37.793  30.432  36.521  1.00  0.00    -0.206 F 
ATOM     80  C   UNL A   1      37.851  32.508  37.616  1.00  0.00     0.040 A 
ATOM     81  C   UNL A   1      39.159  34.315  36.709  1.00  0.00     0.040 A 
ATOM     82  F   UNL A   1      40.344  34.018  34.707  1.00  0.00    -0.206 F 
ATOM     83  C   UNL A   1      38.310  33.821  37.696  1.00  0.00     0.006 A 
ENDBRANCH  59  76
ENDBRANCH  33  34
ENDBRANCH  26  28
ENDBRANCH  25  26
ENDBRANCH  24  25
ENDBRANCH   1  24
TORSDOF 15
ENDMDL
MODEL 2
REMARK VINA RESULT:     -12.2      4.791      9.608
REMARK SMILES O=C(OCCOCCOC(=O)c1ccc(-c2c3nc(c(-c4c(F)cccc4F)c4ccc([nH]4)c(-c4c(F)cccc4F)c4nc(c(-c5c(F)cccc5F)c5ccc2[nH]5)C=C4)C=C3)cc1)C1=Cc2c(Cl)ccc(Cl)c2O[C@@H]1C(F)(F)F
REMARK SMILES IDX 7 1 6 2 5 3 4 4 3 5 2 6 1 7 66 8 67 9 77 10 68 11 76 12
REMARK SMILES IDX 69 13 75 14 70 15 71 16 73 17 72 18 74 19 78 20 79 21 80 22
REMARK SMILES IDX 81 23 8 24 9 25 10 26 11 27 12 28 13 29 65 30 14 31 64 32
REMARK SMILES IDX 15 33 16 34 17 35 58 36 18 37 63 38 57 39 59 40 19 41 62 42
REMARK SMILES IDX 56 43 55 44 20 46 46 47 29 48 45 49 30 50 33 51 44 52 60 53
REMARK SMILES IDX 31 54 32 55 43 57 61 58 34 59 21 60 22 61 27 62 23 63 24 64
REMARK SMILES IDX 26 65 28 66 25 67 47 68 48 69 53 70 49 71 50 72 52 73 54 74
REMARK SMILES IDX 51 75 35 76 36 77 41 78 37 79 38 80 40 81 42 82 39 83
REMARK H PARENT 59 45 33 56
REMARK Flexibility Score: inf
ROOT
ATOM      1  C   UNL A   1      34.623  33.872  29.953  1.00  0.00     0.202 C 
ENDROOT
BRANCH   1   2
ATOM      2  O   UNL A   1      34.010  32.790  29.224  1.00  0.00    -0.374 OA
BRANCH   2   3
ATOM      3  C   UNL A   1      34.569  32.121  27.896  1.00  0.00     0.202 C 
BRANCH   3   4
ATOM      4  C   UNL A   1      34.685  30.029  27.355  1.00  0.00     0.261 C 
BRANCH   4   5
ATOM      5  O   UNL A   1      33.910  29.332  26.206  1.00  0.00    -0.460 OA
BRANCH   5   6
ATOM      6  C   UNL A   1      33.038  28.419  26.636  1.00  0.00     0.338 C 
ATOM      7  O   UNL A   1      32.622  28.193  27.743  1.00  0.00    -0.246 OA
BRANCH   6   8
ATOM      8  C   UNL A   1      33.044  27.648  25.420  1.00  0.00     0.087 C 
ATOM      9  C   UNL A   1      34.045  26.530  25.536  1.00  0.00     0.029 C 
ATOM     10  C   UNL A   1      31.120  27.387  25.282  1.00  0.00     0.316 C 
ATOM     11  C   UNL A   1      33.578  24.756  25.736  1.00  0.00     0.037 A 
ATOM     12  O   UNL A   1      30.621  25.563  25.540  1.00  0.00    -0.474 OA
ATOM     13  C   UNL A   1      34.513  23.796  26.045  1.00  0.00     0.052 A 
ATOM     14  C   UNL A   1      31.908  24.294  25.782  1.00  0.00     0.148 A 
ATOM     15  Cl  UNL A   1      36.201  24.090  26.046  1.00  0.00    -0.084 Cl
ATOM     16  C   UNL A   1      34.006  22.539  26.426  1.00  0.00     0.023 A 
ATOM     17  C   UNL A   1      31.517  23.091  26.307  1.00  0.00     0.083 A 
ATOM     18  C   UNL A   1      32.595  22.220  26.586  1.00  0.00     0.026 A 
ATOM     19  Cl  UNL A   1      29.952  22.789  26.904  1.00  0.00    -0.080 Cl
BRANCH  10  20
ATOM     20  C   UNL A   1      30.676  28.329  24.106  1.00  0.00     0.430 C 
ATOM     21  F   UNL A   1      31.392  28.176  22.978  1.00  0.00    -0.167 F 
ATOM     22  F   UNL A   1      29.390  28.015  23.786  1.00  0.00    -0.167 F 
ATOM     23  F   UNL A   1      30.648  29.643  24.415  1.00  0.00    -0.167 F 
ENDBRANCH  10  20
ENDBRANCH   6   8
ENDBRANCH   5   6
ENDBRANCH   4   5
ENDBRANCH   3   4
ENDBRANCH   2   3
ENDBRANCH   1   2
BRANCH   1  24
ATOM     24  C   UNL A   1      34.557  33.683  31.470  1.00  0.00     0.261 C 
BRANCH  24  25
ATOM     25  O   UNL A   1      34.776  32.322  31.829  1.00  0.00    -0.460 OA
BRANCH  25  26
ATOM     26  C   UNL A   1      35.809  32.138  32.684  1.00  0.00     0.338 C 
ATOM     27  O   UNL A   1      35.883  32.480  33.852  1.00  0.00    -0.246 OA
BRANCH  26  28
ATOM     28  C   UNL A   1      36.887  31.427  31.976  1.00  0.00     0.060 A 
ATOM     29  C   UNL A   1      38.033  31.076  32.698  1.00  0.00     0.016 A 
ATOM     30  C   UNL A   1      36.768  31.102  30.617  1.00  0.00     0.016 A 
ATOM     31  C   UNL A   1      39.062  30.390  32.062  1.00  0.00     0.010 A 
ATOM     32  C   UNL A   1      37.790  30.405  29.985  1.00  0.00     0.010 A 
ATOM     33  C   UNL A   1      38.946  30.069  30.702  1.00  0.00    -0.014 A 
BRANCH  33  34
ATOM     34  C   UNL A   1      40.125  29.577  29.971  1.00  0.00     0.031 A 
ATOM     35  C   UNL A   1      41.248  30.543  29.748  1.00  0.00     0.074 A 
ATOM     36  C   UNL A   1      40.189  28.309  29.534  1.00  0.00     0.049 A 
ATOM     37  N   UNL A   1      42.404  30.351  29.173  1.00  0.00    -0.248 NA
ATOM     38  C   UNL A   1      41.035  31.915  30.243  1.00  0.00     0.031 C 
ATOM     39  C   UNL A   1      39.144  27.300  29.699  1.00  0.00     0.029 A 
ATOM     40  N   UNL A   1      41.183  27.658  28.852  1.00  0.00    -0.354 N 
ATOM     41  C   UNL A   1      43.065  31.568  29.263  1.00  0.00     0.074 A 
ATOM     42  C   UNL A   1      42.163  32.508  29.888  1.00  0.00     0.031 C 
ATOM     43  C   UNL A   1      39.554  26.152  29.131  1.00  0.00     0.029 A 
ATOM     44  C   UNL A   1      40.877  26.355  28.546  1.00  0.00     0.049 A 
ATOM     45  H   UNL A   1      42.035  28.083  28.607  1.00  0.00     0.167 HD
ATOM     46  C   UNL A   1      44.326  31.865  28.879  1.00  0.00     0.037 A 
ATOM     47  C   UNL A   1      41.591  25.445  27.858  1.00  0.00     0.037 A 
ATOM     48  C   UNL A   1      45.193  30.933  28.214  1.00  0.00     0.049 A 
ATOM     49  C   UNL A   1      42.958  25.834  27.350  1.00  0.00     0.074 A 
ATOM     50  C   UNL A   1      46.484  31.128  27.758  1.00  0.00     0.029 A 
ATOM     51  N   UNL A   1      44.842  29.630  27.891  1.00  0.00    -0.354 N 
ATOM     52  N   UNL A   1      43.605  26.966  27.493  1.00  0.00    -0.248 NA
ATOM     53  C   UNL A   1      43.698  24.813  26.596  1.00  0.00     0.031 C 
ATOM     54  C   UNL A   1      46.893  29.957  27.111  1.00  0.00     0.029 A 
ATOM     55  C   UNL A   1      45.882  29.013  27.221  1.00  0.00     0.049 A 
ATOM     56  H   UNL A   1      43.980  29.207  28.109  1.00  0.00     0.167 HD
ATOM     57  C   UNL A   1      44.840  26.782  26.883  1.00  0.00     0.074 A 
ATOM     58  C   UNL A   1      44.854  25.422  26.382  1.00  0.00     0.031 C 
ATOM     59  C   UNL A   1      45.871  27.651  26.747  1.00  0.00     0.037 A 
BRANCH  46  60
ATOM     60  C   UNL A   1      44.809  33.256  29.155  1.00  0.00     0.057 A 
ATOM     61  C   UNL A   1      44.612  34.299  28.238  1.00  0.00     0.134 A 
ATOM     62  C   UNL A   1      45.493  33.557  30.338  1.00  0.00     0.134 A 
ATOM     63  F   UNL A   1      43.988  34.070  27.072  1.00  0.00    -0.206 F 
ATOM     64  C   UNL A   1      45.101  35.583  28.477  1.00  0.00     0.040 A 
ATOM     65  C   UNL A   1      45.961  34.845  30.601  1.00  0.00     0.040 A 
ATOM     66  F   UNL A   1      45.721  32.604  31.254  1.00  0.00    -0.206 F 
ATOM     67  C   UNL A   1      45.773  35.861  29.666  1.00  0.00     0.006 A 
ENDBRANCH  46  60
BRANCH  47  68
ATOM     68  C   UNL A   1      41.046  24.086  27.603  1.00  0.00     0.057 A 
ATOM     69  C   UNL A   1      41.544  22.964  28.277  1.00  0.00     0.134 A 
ATOM     70  C   UNL A   1      40.050  23.867  26.644  1.00  0.00     0.134 A 
ATOM     71  F   UNL A   1      42.512  23.103  29.195  1.00  0.00    -0.206 F 
ATOM     72  C   UNL A   1      41.100  21.674  27.981  1.00  0.00     0.040 A 
ATOM     73  C   UNL A   1      39.575  22.585  26.358  1.00  0.00     0.040 A 
ATOM     74  F   UNL A   1      39.523  24.898  25.966  1.00  0.00    -0.206 F 
ATOM     75  C   UNL A   1      40.110  21.482  27.020  1.00  0.00     0.006 A 
ENDBRANCH  47  68
BRANCH  59  76
ATOM     76  C   UNL A   1      47.116  27.143  26.077  1.00  0.00     0.057 A 
ATOM     77  C   UNL A   1      47.326  27.275  24.699  1.00  0.00     0.134 A 
ATOM     78  C   UNL A   1      48.137  26.556  26.834  1.00  0.00     0.134 A 
ATOM     79  F   UNL A   1      46.382  27.819  23.916  1.00  0.00    -0.206 F 
ATOM     80  C   UNL A   1      48.496  26.814  24.094  1.00  0.00     0.040 A 
ATOM     81  C   UNL A   1      49.325  26.122  26.246  1.00  0.00     0.040 A 
ATOM     82  F   UNL A   1      48.006  26.412  28.162  1.00  0.00    -0.206 F 
ATOM     83  C   UNL A   1      49.503  26.244  24.870  1.00  0.00     0.006 A 
ENDBRANCH  59  76
ENDBRANCH  33  34
ENDBRANCH  26  28
ENDBRANCH  25  26
ENDBRANCH  24  25
ENDBRANCH   1  24
TORSDOF 15
ENDMDL
MODEL 3
REMARK VINA RESULT:     -12.0      3.169      8.127
REMARK SMILES O=C(OCCOCCOC(=O)c1ccc(-c2c3nc(c(-c4c(F)cccc4F)c4ccc([nH]4)c(-c4c(F)cccc4F)c4nc(c(-c5c(F)cccc5F)c5ccc2[nH]5)C=C4)C=C3)cc1)C1=Cc2c(Cl)ccc(Cl)c2O[C@@H]1C(F)(F)F
REMARK SMILES IDX 7 1 6 2 5 3 4 4 3 5 2 6 1 7 66 8 67 9 77 10 68 11 76 12
REMARK SMILES IDX 69 13 75 14 70 15 71 16 73 17 72 18 74 19 78 20 79 21 80 22
REMARK SMILES IDX 81 23 8 24 9 25 10 26 11 27 12 28 13 29 65 30 14 31 64 32
REMARK SMILES IDX 15 33 16 34 17 35 58 36 18 37 63 38 57 39 59 40 19 41 62 42
REMARK SMILES IDX 56 43 55 44 20 46 46 47 29 48 45 49 30 50 33 51 44 52 60 53
REMARK SMILES IDX 31 54 32 55 43 57 61 58 34 59 21 60 22 61 27 62 23 63 24 64
REMARK SMILES IDX 26 65 28 66 25 67 47 68 48 69 53 70 49 71 50 72 52 73 54 74
REMARK SMILES IDX 51 75 35 76 36 77 41 78 37 79 38 80 40 81 42 82 39 83
REMARK H PARENT 59 45 33 56
REMARK Flexibility Score: inf
ROOT
ATOM      1  C   UNL A   1      31.391  31.844  26.919  1.00  0.00     0.202 C 
ENDROOT
BRANCH   1   2
ATOM      2  O   UNL A   1      31.615  31.039  25.744  1.00  0.00    -0.374 OA
BRANCH   2   3
ATOM      3  C   UNL A   1      32.479  29.709  25.673  1.00  0.00     0.202 C 
BRANCH   3   4
ATOM      4  C   UNL A   1      31.861  27.652  25.941  1.00  0.00     0.261 C 
BRANCH   4   5
ATOM      5  O   UNL A   1      32.641  26.549  26.703  1.00  0.00    -0.460 OA
BRANCH   5   6
ATOM      6  C   UNL A   1      32.160  25.322  26.493  1.00  0.00     0.338 C 
ATOM      7  O   UNL A   1      31.625  24.551  27.246  1.00  0.00    -0.246 OA
BRANCH   6   8
ATOM      8  C   UNL A   1      32.783  25.155  25.206  1.00  0.00     0.087 C 
ATOM      9  C   UNL A   1      34.246  24.850  25.388  1.00  0.00     0.029 C 
ATOM     10  C   UNL A   1      31.488  23.908  24.463  1.00  0.00     0.316 C 
ATOM     11  C   UNL A   1      34.987  23.187  25.092  1.00  0.00     0.037 A 
ATOM     12  O   UNL A   1      32.231  22.169  24.201  1.00  0.00    -0.474 OA
ATOM     13  C   UNL A   1      36.279  22.898  25.466  1.00  0.00     0.052 A 
ATOM     14  C   UNL A   1      33.994  21.872  24.555  1.00  0.00     0.148 A 
ATOM     15  Cl  UNL A   1      37.387  24.082  26.019  1.00  0.00    -0.084 Cl
ATOM     16  C   UNL A   1      36.645  21.539  25.429  1.00  0.00     0.023 A 
ATOM     17  C   UNL A   1      34.398  20.571  24.697  1.00  0.00     0.083 A 
ATOM     18  C   UNL A   1      35.747  20.440  25.103  1.00  0.00     0.026 A 
ATOM     19  Cl  UNL A   1      33.325  19.251  24.739  1.00  0.00    -0.080 Cl
BRANCH  10  20
ATOM     20  C   UNL A   1      30.677  24.755  23.417  1.00  0.00     0.430 C 
ATOM     21  F   UNL A   1      31.434  25.302  22.448  1.00  0.00    -0.167 F 
ATOM     22  F   UNL A   1      29.806  23.916  22.789  1.00  0.00    -0.167 F 
ATOM     23  F   UNL A   1      29.906  25.725  23.951  1.00  0.00    -0.167 F 
ENDBRANCH  10  20
ENDBRANCH   6   8
ENDBRANCH   5   6
ENDBRANCH   4   5
ENDBRANCH   3   4
ENDBRANCH   2   3
ENDBRANCH   1   2
BRANCH   1  24
ATOM     24  C   UNL A   1      32.295  33.077  26.980  1.00  0.00     0.261 C 
BRANCH  24  25
ATOM     25  O   UNL A   1      32.340  33.616  28.297  1.00  0.00    -0.460 OA
BRANCH  25  26
ATOM     26  C   UNL A   1      33.384  34.450  28.514  1.00  0.00     0.338 C 
ATOM     27  O   UNL A   1      33.402  35.666  28.427  1.00  0.00    -0.246 OA
BRANCH  26  28
ATOM     28  C   UNL A   1      34.558  33.646  28.896  1.00  0.00     0.060 A 
ATOM     29  C   UNL A   1      34.341  32.404  29.501  1.00  0.00     0.016 A 
ATOM     30  C   UNL A   1      35.860  34.107  28.650  1.00  0.00     0.016 A 
ATOM     31  C   UNL A   1      35.429  31.614  29.858  1.00  0.00     0.010 A 
ATOM     32  C   UNL A   1      36.946  33.313  28.995  1.00  0.00     0.010 A 
ATOM     33  C   UNL A   1      36.731  32.077  29.618  1.00  0.00    -0.014 A 
BRANCH  33  34
ATOM     34  C   UNL A   1      37.873  31.368  30.219  1.00  0.00     0.031 A 
ATOM     35  C   UNL A   1      38.211  31.693  31.641  1.00  0.00     0.074 A 
ATOM     36  C   UNL A   1      38.572  30.462  29.517  1.00  0.00     0.049 A 
ATOM     37  N   UNL A   1      39.137  31.185  32.409  1.00  0.00    -0.248 NA
ATOM     38  C   UNL A   1      37.392  32.735  32.286  1.00  0.00     0.031 C 
ATOM     39  C   UNL A   1      38.320  30.085  28.127  1.00  0.00     0.029 A 
ATOM     40  N   UNL A   1      39.646  29.696  29.885  1.00  0.00    -0.354 N 
ATOM     41  C   UNL A   1      38.992  31.825  33.632  1.00  0.00     0.074 A 
ATOM     42  C   UNL A   1      37.936  32.800  33.490  1.00  0.00     0.031 C 
ATOM     43  C   UNL A   1      39.219  29.156  27.758  1.00  0.00     0.029 A 
ATOM     44  C   UNL A   1      40.119  28.892  28.877  1.00  0.00     0.049 A 
ATOM     45  H   UNL A   1      40.041  29.719  30.786  1.00  0.00     0.167 HD
ATOM     46  C   UNL A   1      39.667  31.598  34.780  1.00  0.00     0.037 A 
ATOM     47  C   UNL A   1      41.171  28.052  28.872  1.00  0.00     0.037 A 
ATOM     48  C   UNL A   1      40.748  30.659  34.893  1.00  0.00     0.049 A 
ATOM     49  C   UNL A   1      41.973  27.891  30.141  1.00  0.00     0.074 A 
ATOM     50  C   UNL A   1      41.520  30.360  35.999  1.00  0.00     0.029 A 
ATOM     51  N   UNL A   1      41.222  29.882  33.846  1.00  0.00    -0.354 N 
ATOM     52  N   UNL A   1      41.791  28.451  31.313  1.00  0.00    -0.248 NA
ATOM     53  C   UNL A   1      43.117  26.972  30.087  1.00  0.00     0.031 C 
ATOM     54  C   UNL A   1      42.498  29.440  35.606  1.00  0.00     0.029 A 
ATOM     55  C   UNL A   1      42.293  29.118  34.272  1.00  0.00     0.049 A 
ATOM     56  H   UNL A   1      40.850  29.875  32.934  1.00  0.00     0.167 HD
ATOM     57  C   UNL A   1      42.772  27.924  32.146  1.00  0.00     0.074 A 
ATOM     58  C   UNL A   1      43.535  26.989  31.343  1.00  0.00     0.031 C 
ATOM     59  C   UNL A   1      43.023  28.184  33.452  1.00  0.00     0.037 A 
BRANCH  46  60
ATOM     60  C   UNL A   1      39.256  32.399  35.978  1.00  0.00     0.057 A 
ATOM     61  C   UNL A   1      38.317  31.915  36.900  1.00  0.00     0.134 A 
ATOM     62  C   UNL A   1      39.789  33.672  36.207  1.00  0.00     0.134 A 
ATOM     63  F   UNL A   1      37.748  30.713  36.724  1.00  0.00    -0.206 F 
ATOM     64  C   UNL A   1      37.903  32.680  37.991  1.00  0.00     0.040 A 
ATOM     65  C   UNL A   1      39.404  34.436  37.311  1.00  0.00     0.040 A 
ATOM     66  F   UNL A   1      40.686  34.198  35.360  1.00  0.00    -0.206 F 
ATOM     67  C   UNL A   1      38.453  33.943  38.202  1.00  0.00     0.006 A 
ENDBRANCH  46  60
BRANCH  47  68
ATOM     68  C   UNL A   1      41.536  27.299  27.645  1.00  0.00     0.057 A 
ATOM     69  C   UNL A   1      42.378  27.855  26.673  1.00  0.00     0.134 A 
ATOM     70  C   UNL A   1      41.012  26.026  27.386  1.00  0.00     0.134 A 
ATOM     71  F   UNL A   1      42.899  29.078  26.852  1.00  0.00    -0.206 F 
ATOM     72  C   UNL A   1      42.656  27.191  25.477  1.00  0.00     0.040 A 
ATOM     73  C   UNL A   1      41.305  25.338  26.207  1.00  0.00     0.040 A 
ATOM     74  F   UNL A   1      40.204  25.433  28.277  1.00  0.00    -0.206 F 
ATOM     75  C   UNL A   1      42.119  25.926  25.242  1.00  0.00     0.006 A 
ENDBRANCH  47  68
BRANCH  59  76
ATOM     76  C   UNL A   1      44.133  27.411  34.107  1.00  0.00     0.057 A 
ATOM     77  C   UNL A   1      45.434  27.918  34.208  1.00  0.00     0.134 A 
ATOM     78  C   UNL A   1      43.878  26.161  34.684  1.00  0.00     0.134 A 
ATOM     79  F   UNL A   1      45.746  29.105  33.667  1.00  0.00    -0.206 F 
ATOM     80  C   UNL A   1      46.449  27.195  34.836  1.00  0.00     0.040 A 
ATOM     81  C   UNL A   1      44.876  25.443  35.344  1.00  0.00     0.040 A 
ATOM     82  F   UNL A   1      42.649  25.623  34.635  1.00  0.00    -0.206 F 
ATOM     83  C   UNL A   1      46.169  25.958  35.413  1.00  0.00     0.006 A 
ENDBRANCH  59  76
ENDBRANCH  33  34
ENDBRANCH  26  28
ENDBRANCH  25  26
ENDBRANCH  24  25
ENDBRANCH   1  24
TORSDOF 15
ENDMDL
