MODEL 1
REMARK VINA RESULT:      -9.8      0.000      0.000
REMARK SMILES C[C@@H](NC(=O)NCCC(=O)NC1CC1)C(=O)OCCOCCOC(=O)c1ccc(-c2c3nc(c(-c4c(F)cccc4F)c4ccc([nH]4)c(-c4c(F)cccc4F)c4nc(c(-c5c(F)cccc5F)c5ccc2[nH]5)C=C4)C=C3)cc1
REMARK SMILES IDX 18 1 17 2 15 3 16 4 2 5 1 6 3 7 4 8 5 10 6 11 7 13 8 14 9 15
REMARK SMILES IDX 10 16 11 17 12 19 13 20 14 21 19 22 20 23 21 24 22 25 23 26
REMARK SMILES IDX 24 27 25 28 26 29 27 30 79 31 28 32 78 33 29 34 30 35 31 36
REMARK SMILES IDX 72 37 32 38 77 39 71 40 73 41 33 42 76 43 70 44 69 45 34 47
REMARK SMILES IDX 60 48 43 49 59 50 44 51 47 52 58 53 74 54 45 55 46 56 57 58
REMARK SMILES IDX 75 59 48 60 35 61 36 62 41 63 37 64 38 65 40 66 42 67 39 68
REMARK SMILES IDX 61 69 62 70 67 71 63 72 64 73 66 74 68 75 65 76 49 77 50 78
REMARK SMILES IDX 55 79 51 80 52 81 54 82 56 83 53 84
REMARK H PARENT 3 9 6 12 11 18 73 46 47 57
REMARK Flexibility Score: inf
ROOT
ATOM      1  C   UNL A   1      34.653  33.258  28.023  1.00  0.00     0.261 C 
ENDROOT
BRANCH   1   2
ATOM      2  O   UNL A   1      34.611  31.826  28.208  1.00  0.00    -0.462 OA
BRANCH   2   3
ATOM      3  C   UNL A   1      33.690  31.062  27.568  1.00  0.00     0.328 C 
ATOM      4  O   UNL A   1      32.576  31.455  27.236  1.00  0.00    -0.250 OA
BRANCH   3   5
ATOM      5  C   UNL A   1      34.164  29.627  27.326  1.00  0.00     0.190 C 
ATOM      6  C   UNL A   1      35.665  29.449  27.540  1.00  0.00     0.043 C 
BRANCH   5   7
ATOM      7  N   UNL A   1      33.346  28.552  27.913  1.00  0.00    -0.325 N 
ATOM      8  C   UNL A   1      32.219  28.048  27.363  1.00  0.00     0.315 C 
ATOM      9  H   UNL A   1      33.644  28.171  28.770  1.00  0.00     0.166 HD
ATOM     10  O   UNL A   1      31.120  28.300  27.848  1.00  0.00    -0.249 OA
ATOM     11  N   UNL A   1      32.321  27.163  26.345  1.00  0.00    -0.338 N 
ATOM     12  H   UNL A   1      31.469  26.917  25.915  1.00  0.00     0.165 HD
BRANCH  11  13
ATOM     13  C   UNL A   1      33.504  26.520  25.787  1.00  0.00     0.127 C 
BRANCH  13  14
ATOM     14  C   UNL A   1      33.400  25.100  25.245  1.00  0.00     0.121 C 
BRANCH  14  15
ATOM     15  C   UNL A   1      32.708  24.113  26.148  1.00  0.00     0.221 C 
ATOM     16  O   UNL A   1      31.872  24.460  26.982  1.00  0.00    -0.275 OA
ATOM     17  N   UNL A   1      33.054  22.793  26.023  1.00  0.00    -0.353 N 
ATOM     18  H   UNL A   1      32.482  22.143  26.490  1.00  0.00     0.163 HD
BRANCH  17  19
ATOM     19  C   UNL A   1      34.157  22.258  25.290  1.00  0.00     0.082 C 
ATOM     20  C   UNL A   1      35.200  21.499  26.064  1.00  0.00     0.027 C 
ATOM     21  C   UNL A   1      34.350  20.796  25.045  1.00  0.00     0.027 C 
ENDBRANCH  17  19
ENDBRANCH  14  15
ENDBRANCH  13  14
ENDBRANCH  11  13
ENDBRANCH   5   7
ENDBRANCH   3   5
ENDBRANCH   2   3
ENDBRANCH   1   2
BRANCH   1  22
ATOM     22  C   UNL A   1      34.552  34.229  29.220  1.00  0.00     0.202 C 
BRANCH  22  23
ATOM     23  O   UNL A   1      34.047  33.843  30.490  1.00  0.00    -0.374 OA
BRANCH  23  24
ATOM     24  C   UNL A   1      33.946  34.831  31.496  1.00  0.00     0.202 C 
BRANCH  24  25
ATOM     25  C   UNL A   1      35.027  34.665  32.574  1.00  0.00     0.261 C 
BRANCH  25  26
ATOM     26  O   UNL A   1      36.156  33.886  32.136  1.00  0.00    -0.460 OA
BRANCH  26  27
ATOM     27  C   UNL A   1      36.360  32.747  32.845  1.00  0.00     0.338 C 
ATOM     28  O   UNL A   1      35.883  32.451  33.926  1.00  0.00    -0.246 OA
BRANCH  27  29
ATOM     29  C   UNL A   1      37.221  31.828  32.072  1.00  0.00     0.060 A 
ATOM     30  C   UNL A   1      38.179  31.076  32.763  1.00  0.00     0.016 A 
ATOM     31  C   UNL A   1      37.155  31.781  30.676  1.00  0.00     0.016 A 
ATOM     32  C   UNL A   1      39.123  30.332  32.054  1.00  0.00     0.010 A 
ATOM     33  C   UNL A   1      38.110  31.046  29.967  1.00  0.00     0.010 A 
ATOM     34  C   UNL A   1      39.127  30.359  30.652  1.00  0.00    -0.014 A 
BRANCH  34  35
ATOM     35  C   UNL A   1      40.316  29.857  29.920  1.00  0.00     0.031 A 
ATOM     36  C   UNL A   1      41.470  30.799  29.696  1.00  0.00     0.074 A 
ATOM     37  C   UNL A   1      40.397  28.581  29.503  1.00  0.00     0.049 A 
ATOM     38  N   UNL A   1      42.604  30.595  29.076  1.00  0.00    -0.248 NA
ATOM     39  C   UNL A   1      41.322  32.154  30.250  1.00  0.00     0.031 C 
ATOM     40  C   UNL A   1      39.371  27.561  29.703  1.00  0.00     0.029 A 
ATOM     41  N   UNL A   1      41.394  27.931  28.820  1.00  0.00    -0.354 N 
ATOM     42  C   UNL A   1      43.302  31.793  29.166  1.00  0.00     0.074 A 
ATOM     43  C   UNL A   1      42.454  32.728  29.871  1.00  0.00     0.031 C 
ATOM     44  C   UNL A   1      39.789  26.410  29.146  1.00  0.00     0.029 A 
ATOM     45  C   UNL A   1      41.098  26.623  28.526  1.00  0.00     0.049 A 
ATOM     46  H   UNL A   1      42.243  28.361  28.566  1.00  0.00     0.167 HD
ATOM     47  C   UNL A   1      44.543  32.087  28.712  1.00  0.00     0.037 A 
ATOM     48  C   UNL A   1      41.795  25.711  27.821  1.00  0.00     0.037 A 
ATOM     49  C   UNL A   1      45.385  31.158  28.005  1.00  0.00     0.049 A 
ATOM     50  C   UNL A   1      43.139  26.086  27.250  1.00  0.00     0.074 A 
ATOM     51  C   UNL A   1      46.662  31.357  27.509  1.00  0.00     0.029 A 
ATOM     52  N   UNL A   1      45.030  29.856  27.688  1.00  0.00    -0.354 N 
ATOM     53  N   UNL A   1      43.799  27.215  27.356  1.00  0.00    -0.248 NA
ATOM     54  C   UNL A   1      43.837  25.059  26.464  1.00  0.00     0.031 C 
ATOM     55  C   UNL A   1      47.059  30.191  26.847  1.00  0.00     0.029 A 
ATOM     56  C   UNL A   1      46.052  29.248  26.978  1.00  0.00     0.049 A 
ATOM     57  H   UNL A   1      44.178  29.427  27.932  1.00  0.00     0.167 HD
ATOM     58  C   UNL A   1      44.996  27.024  26.676  1.00  0.00     0.074 A 
ATOM     59  C   UNL A   1      44.977  25.667  26.172  1.00  0.00     0.031 C 
ATOM     60  C   UNL A   1      46.020  27.893  26.489  1.00  0.00     0.037 A 
BRANCH  47  61
ATOM     61  C   UNL A   1      45.048  33.481  28.937  1.00  0.00     0.057 A 
ATOM     62  C   UNL A   1      44.852  34.502  27.998  1.00  0.00     0.134 A 
ATOM     63  C   UNL A   1      45.725  33.812  30.118  1.00  0.00     0.134 A 
ATOM     64  F   UNL A   1      44.224  34.249  26.839  1.00  0.00    -0.206 F 
ATOM     65  C   UNL A   1      45.330  35.795  28.215  1.00  0.00     0.040 A 
ATOM     66  C   UNL A   1      46.185  35.107  30.358  1.00  0.00     0.040 A 
ATOM     67  F   UNL A   1      45.945  32.882  31.060  1.00  0.00    -0.206 F 
ATOM     68  C   UNL A   1      45.994  36.102  29.401  1.00  0.00     0.006 A 
ENDBRANCH  47  61
BRANCH  48  69
ATOM     69  C   UNL A   1      41.232  24.357  27.592  1.00  0.00     0.057 A 
ATOM     70  C   UNL A   1      40.192  24.144  26.679  1.00  0.00     0.134 A 
ATOM     71  C   UNL A   1      41.700  23.245  28.304  1.00  0.00     0.134 A 
ATOM     72  F   UNL A   1      39.681  25.172  25.986  1.00  0.00    -0.206 F 
ATOM     73  C   UNL A   1      39.629  22.880  26.492  1.00  0.00     0.040 A 
ATOM     74  C   UNL A   1      41.164  21.971  28.108  1.00  0.00     0.040 A 
ATOM     75  F   UNL A   1      42.691  23.381  29.197  1.00  0.00    -0.206 F 
ATOM     76  C   UNL A   1      40.119  21.788  27.205  1.00  0.00     0.006 A 
ENDBRANCH  48  69
BRANCH  60  77
ATOM     77  C   UNL A   1      47.220  27.394  25.736  1.00  0.00     0.057 A 
ATOM     78  C   UNL A   1      47.356  27.574  24.354  1.00  0.00     0.134 A 
ATOM     79  C   UNL A   1      48.275  26.767  26.414  1.00  0.00     0.134 A 
ATOM     80  F   UNL A   1      46.378  28.156  23.645  1.00  0.00    -0.206 F 
ATOM     81  C   UNL A   1      48.487  27.128  23.669  1.00  0.00     0.040 A 
ATOM     82  C   UNL A   1      49.423  26.341  25.744  1.00  0.00     0.040 A 
ATOM     83  F   UNL A   1      48.213  26.573  27.740  1.00  0.00    -0.206 F 
ATOM     84  C   UNL A   1      49.528  26.515  24.367  1.00  0.00     0.006 A 
ENDBRANCH  60  77
ENDBRANCH  34  35
ENDBRANCH  27  29
ENDBRANCH  26  27
ENDBRANCH  25  26
ENDBRANCH  24  25
ENDBRANCH  23  24
ENDBRANCH  22  23
ENDBRANCH   1  22
TORSDOF 19
ENDMDL
MODEL 2
REMARK VINA RESULT:      -9.7      3.439      5.491
REMARK SMILES C[C@@H](NC(=O)NCCC(=O)NC1CC1)C(=O)OCCOCCOC(=O)c1ccc(-c2c3nc(c(-c4c(F)cccc4F)c4ccc([nH]4)c(-c4c(F)cccc4F)c4nc(c(-c5c(F)cccc5F)c5ccc2[nH]5)C=C4)C=C3)cc1
REMARK SMILES IDX 18 1 17 2 15 3 16 4 2 5 1 6 3 7 4 8 5 10 6 11 7 13 8 14 9 15
REMARK SMILES IDX 10 16 11 17 12 19 13 20 14 21 19 22 20 23 21 24 22 25 23 26
REMARK SMILES IDX 24 27 25 28 26 29 27 30 79 31 28 32 78 33 29 34 30 35 31 36
REMARK SMILES IDX 72 37 32 38 77 39 71 40 73 41 33 42 76 43 70 44 69 45 34 47
REMARK SMILES IDX 60 48 43 49 59 50 44 51 47 52 58 53 74 54 45 55 46 56 57 58
REMARK SMILES IDX 75 59 48 60 35 61 36 62 41 63 37 64 38 65 40 66 42 67 39 68
REMARK SMILES IDX 61 69 62 70 67 71 63 72 64 73 66 74 68 75 65 76 49 77 50 78
REMARK SMILES IDX 55 79 51 80 52 81 54 82 56 83 53 84
REMARK H PARENT 3 9 6 12 11 18 73 46 47 57
REMARK Flexibility Score: inf
ROOT
ATOM      1  C   UNL A   1      33.529  35.511  28.935  1.00  0.00     0.261 C 
ENDROOT
BRANCH   1   2
ATOM      2  O   UNL A   1      33.165  35.117  30.276  1.00  0.00    -0.462 OA
BRANCH   2   3
ATOM      3  C   UNL A   1      32.888  36.042  31.229  1.00  0.00     0.328 C 
ATOM      4  O   UNL A   1      32.013  36.896  31.130  1.00  0.00    -0.250 OA
BRANCH   3   5
ATOM      5  C   UNL A   1      33.810  35.944  32.446  1.00  0.00     0.190 C 
ATOM      6  C   UNL A   1      33.964  37.269  33.188  1.00  0.00     0.043 C 
BRANCH   5   7
ATOM      7  N   UNL A   1      33.616  34.783  33.332  1.00  0.00    -0.325 N 
ATOM      8  C   UNL A   1      34.225  33.585  33.184  1.00  0.00     0.315 C 
ATOM      9  H   UNL A   1      32.997  34.889  34.090  1.00  0.00     0.166 HD
ATOM     10  O   UNL A   1      33.595  32.608  32.795  1.00  0.00    -0.249 OA
ATOM     11  N   UNL A   1      35.509  33.445  33.587  1.00  0.00    -0.338 N 
ATOM     12  H   UNL A   1      35.930  32.586  33.354  1.00  0.00     0.165 HD
BRANCH  11  13
ATOM     13  C   UNL A   1      36.363  34.377  34.313  1.00  0.00     0.127 C 
BRANCH  13  14
ATOM     14  C   UNL A   1      37.877  34.250  34.200  1.00  0.00     0.121 C 
BRANCH  14  15
ATOM     15  C   UNL A   1      38.389  32.864  33.905  1.00  0.00     0.221 C 
ATOM     16  O   UNL A   1      38.351  31.960  34.738  1.00  0.00    -0.275 OA
ATOM     17  N   UNL A   1      38.924  32.641  32.663  1.00  0.00    -0.353 N 
ATOM     18  H   UNL A   1      39.097  31.703  32.422  1.00  0.00     0.163 HD
BRANCH  17  19
ATOM     19  C   UNL A   1      39.260  33.622  31.680  1.00  0.00     0.082 C 
ATOM     20  C   UNL A   1      39.586  33.131  30.296  1.00  0.00     0.027 C 
ATOM     21  C   UNL A   1      38.368  33.977  30.535  1.00  0.00     0.027 C 
ENDBRANCH  17  19
ENDBRANCH  14  15
ENDBRANCH  13  14
ENDBRANCH  11  13
ENDBRANCH   5   7
ENDBRANCH   3   5
ENDBRANCH   2   3
ENDBRANCH   1   2
BRANCH   1  22
ATOM     22  C   UNL A   1      34.774  34.925  28.233  1.00  0.00     0.202 C 
BRANCH  22  23
ATOM     23  O   UNL A   1      34.722  33.783  27.389  1.00  0.00    -0.374 OA
BRANCH  23  24
ATOM     24  C   UNL A   1      34.536  32.517  27.992  1.00  0.00     0.202 C 
BRANCH  24  25
ATOM     25  C   UNL A   1      35.345  32.375  29.289  1.00  0.00     0.261 C 
BRANCH  25  26
ATOM     26  O   UNL A   1      35.444  31.017  29.756  1.00  0.00    -0.460 OA
BRANCH  26  27
ATOM     27  C   UNL A   1      36.393  30.818  30.704  1.00  0.00     0.338 C 
ATOM     28  O   UNL A   1      36.377  31.199  31.861  1.00  0.00    -0.246 OA
BRANCH  27  29
ATOM     29  C   UNL A   1      37.476  29.977  30.154  1.00  0.00     0.060 A 
ATOM     30  C   UNL A   1      38.234  29.204  31.043  1.00  0.00     0.016 A 
ATOM     31  C   UNL A   1      37.807  30.023  28.797  1.00  0.00     0.016 A 
ATOM     32  C   UNL A   1      39.371  28.534  30.589  1.00  0.00     0.010 A 
ATOM     33  C   UNL A   1      38.954  29.363  28.346  1.00  0.00     0.010 A 
ATOM     34  C   UNL A   1      39.767  28.657  29.249  1.00  0.00    -0.014 A 
BRANCH  34  35
ATOM     35  C   UNL A   1      41.135  28.237  28.856  1.00  0.00     0.031 A 
ATOM     36  C   UNL A   1      42.238  29.262  28.897  1.00  0.00     0.074 A 
ATOM     37  C   UNL A   1      41.408  26.966  28.514  1.00  0.00     0.049 A 
ATOM     38  N   UNL A   1      43.504  29.137  28.588  1.00  0.00    -0.248 NA
ATOM     39  C   UNL A   1      41.860  30.610  29.351  1.00  0.00     0.031 C 
ATOM     40  C   UNL A   1      40.440  25.873  28.484  1.00  0.00     0.029 A 
ATOM     41  N   UNL A   1      42.589  26.385  28.126  1.00  0.00    -0.354 N 
ATOM     42  C   UNL A   1      44.070  30.386  28.811  1.00  0.00     0.074 A 
ATOM     43  C   UNL A   1      43.007  31.263  29.249  1.00  0.00     0.031 C 
ATOM     44  C   UNL A   1      41.065  24.750  28.088  1.00  0.00     0.029 A 
ATOM     45  C   UNL A   1      42.469  25.054  27.810  1.00  0.00     0.049 A 
ATOM     46  H   UNL A   1      43.441  26.875  28.078  1.00  0.00     0.167 HD
ATOM     47  C   UNL A   1      45.362  30.767  28.673  1.00  0.00     0.037 A 
ATOM     48  C   UNL A   1      43.384  24.188  27.333  1.00  0.00     0.037 A 
ATOM     49  C   UNL A   1      46.418  29.896  28.231  1.00  0.00     0.049 A 
ATOM     50  C   UNL A   1      44.799  24.657  27.105  1.00  0.00     0.074 A 
ATOM     51  C   UNL A   1      47.761  30.185  28.064  1.00  0.00     0.029 A 
ATOM     52  N   UNL A   1      46.248  28.567  27.878  1.00  0.00    -0.354 N 
ATOM     53  N   UNL A   1      45.330  25.834  27.336  1.00  0.00    -0.248 NA
ATOM     54  C   UNL A   1      45.744  23.675  26.553  1.00  0.00     0.031 C 
ATOM     55  C   UNL A   1      48.394  29.043  27.562  1.00  0.00     0.029 A 
ATOM     56  C   UNL A   1      47.456  28.028  27.468  1.00  0.00     0.049 A 
ATOM     57  H   UNL A   1      45.394  28.077  27.914  1.00  0.00     0.167 HD
ATOM     58  C   UNL A   1      46.670  25.726  26.985  1.00  0.00     0.074 A 
ATOM     59  C   UNL A   1      46.875  24.365  26.537  1.00  0.00     0.031 C 
ATOM     60  C   UNL A   1      47.644  26.668  27.031  1.00  0.00     0.037 A 
BRANCH  47  61
ATOM     61  C   UNL A   1      45.694  32.200  28.972  1.00  0.00     0.057 A 
ATOM     62  C   UNL A   1      46.074  32.621  30.253  1.00  0.00     0.134 A 
ATOM     63  C   UNL A   1      45.650  33.168  27.961  1.00  0.00     0.134 A 
ATOM     64  F   UNL A   1      46.121  31.747  31.270  1.00  0.00    -0.206 F 
ATOM     65  C   UNL A   1      46.376  33.956  30.522  1.00  0.00     0.040 A 
ATOM     66  C   UNL A   1      45.976  34.501  28.211  1.00  0.00     0.040 A 
ATOM     67  F   UNL A   1      45.297  32.831  26.710  1.00  0.00    -0.206 F 
ATOM     68  C   UNL A   1      46.333  34.900  29.498  1.00  0.00     0.006 A 
ENDBRANCH  47  61
BRANCH  48  69
ATOM     69  C   UNL A   1      42.994  22.791  27.014  1.00  0.00     0.057 A 
ATOM     70  C   UNL A   1      42.841  22.360  25.692  1.00  0.00     0.134 A 
ATOM     71  C   UNL A   1      42.736  21.860  28.029  1.00  0.00     0.134 A 
ATOM     72  F   UNL A   1      43.046  23.212  24.676  1.00  0.00    -0.206 F 
ATOM     73  C   UNL A   1      42.430  21.060  25.388  1.00  0.00     0.040 A 
ATOM     74  C   UNL A   1      42.350  20.551  27.740  1.00  0.00     0.040 A 
ATOM     75  F   UNL A   1      42.860  22.210  29.317  1.00  0.00    -0.206 F 
ATOM     76  C   UNL A   1      42.189  20.150  26.415  1.00  0.00     0.006 A 
ENDBRANCH  48  69
BRANCH  60  77
ATOM     77  C   UNL A   1      49.028  26.251  26.620  1.00  0.00     0.057 A 
ATOM     78  C   UNL A   1      49.538  26.530  25.347  1.00  0.00     0.134 A 
ATOM     79  C   UNL A   1      49.875  25.605  27.530  1.00  0.00     0.134 A 
ATOM     80  F   UNL A   1      48.774  27.137  24.425  1.00  0.00    -0.206 F 
ATOM     81  C   UNL A   1      50.834  26.160  24.984  1.00  0.00     0.040 A 
ATOM     82  C   UNL A   1      51.182  25.254  27.188  1.00  0.00     0.040 A 
ATOM     83  F   UNL A   1      49.452  25.318  28.770  1.00  0.00    -0.206 F 
ATOM     84  C   UNL A   1      51.663  25.526  25.910  1.00  0.00     0.006 A 
ENDBRANCH  60  77
ENDBRANCH  34  35
ENDBRANCH  27  29
ENDBRANCH  26  27
ENDBRANCH  25  26
ENDBRANCH  24  25
ENDBRANCH  23  24
ENDBRANCH  22  23
ENDBRANCH   1  22
TORSDOF 19
ENDMDL
MODEL 3
REMARK VINA RESULT:      -9.6      2.388      8.389
REMARK SMILES C[C@@H](NC(=O)NCCC(=O)NC1CC1)C(=O)OCCOCCOC(=O)c1ccc(-c2c3nc(c(-c4c(F)cccc4F)c4ccc([nH]4)c(-c4c(F)cccc4F)c4nc(c(-c5c(F)cccc5F)c5ccc2[nH]5)C=C4)C=C3)cc1
REMARK SMILES IDX 18 1 17 2 15 3 16 4 2 5 1 6 3 7 4 8 5 10 6 11 7 13 8 14 9 15
REMARK SMILES IDX 10 16 11 17 12 19 13 20 14 21 19 22 20 23 21 24 22 25 23 26
REMARK SMILES IDX 24 27 25 28 26 29 27 30 79 31 28 32 78 33 29 34 30 35 31 36
REMARK SMILES IDX 72 37 32 38 77 39 71 40 73 41 33 42 76 43 70 44 69 45 34 47
REMARK SMILES IDX 60 48 43 49 59 50 44 51 47 52 58 53 74 54 45 55 46 56 57 58
REMARK SMILES IDX 75 59 48 60 35 61 36 62 41 63 37 64 38 65 40 66 42 67 39 68
REMARK SMILES IDX 61 69 62 70 67 71 63 72 64 73 66 74 68 75 65 76 49 77 50 78
REMARK SMILES IDX 55 79 51 80 52 81 54 82 56 83 53 84
REMARK H PARENT 3 9 6 12 11 18 73 46 47 57
REMARK Flexibility Score: inf
ROOT
ATOM      1  C   UNL A   1      34.904  23.374  24.090  1.00  0.00     0.261 C 
ENDROOT
BRANCH   1   2
ATOM      2  O   UNL A   1      33.783  23.001  23.260  1.00  0.00    -0.462 OA
BRANCH   2   3
ATOM      3  C   UNL A   1      33.314  23.833  22.296  1.00  0.00     0.328 C 
ATOM      4  O   UNL A   1      33.419  23.626  21.092  1.00  0.00    -0.250 OA
BRANCH   3   5
ATOM      5  C   UNL A   1      32.663  25.097  22.861  1.00  0.00     0.190 C 
ATOM      6  C   UNL A   1      32.871  26.324  21.976  1.00  0.00     0.043 C 
BRANCH   5   7
ATOM      7  N   UNL A   1      31.291  24.962  23.379  1.00  0.00    -0.325 N 
ATOM      8  C   UNL A   1      30.963  24.847  24.685  1.00  0.00     0.315 C 
ATOM      9  H   UNL A   1      30.557  24.954  22.723  1.00  0.00     0.166 HD
ATOM     10  O   UNL A   1      30.577  23.776  25.141  1.00  0.00    -0.249 OA
ATOM     11  N   UNL A   1      30.948  25.957  25.459  1.00  0.00    -0.338 N 
ATOM     12  H   UNL A   1      30.810  25.796  26.421  1.00  0.00     0.165 HD
BRANCH  11  13
ATOM     13  C   UNL A   1      31.106  27.356  25.083  1.00  0.00     0.127 C 
BRANCH  13  14
ATOM     14  C   UNL A   1      32.222  28.180  25.713  1.00  0.00     0.121 C 
BRANCH  14  15
ATOM     15  C   UNL A   1      32.220  28.225  27.218  1.00  0.00     0.221 C 
ATOM     16  O   UNL A   1      31.239  27.898  27.883  1.00  0.00    -0.275 OA
ATOM     17  N   UNL A   1      33.361  28.666  27.837  1.00  0.00    -0.353 N 
ATOM     18  H   UNL A   1      33.413  28.532  28.811  1.00  0.00     0.163 HD
BRANCH  17  19
ATOM     19  C   UNL A   1      34.485  29.300  27.223  1.00  0.00     0.082 C 
ATOM     20  C   UNL A   1      34.789  30.716  27.631  1.00  0.00     0.027 C 
ATOM     21  C   UNL A   1      35.753  29.610  27.950  1.00  0.00     0.027 C 
ENDBRANCH  17  19
ENDBRANCH  14  15
ENDBRANCH  13  14
ENDBRANCH  11  13
ENDBRANCH   5   7
ENDBRANCH   3   5
ENDBRANCH   2   3
ENDBRANCH   1   2
BRANCH   1  22
ATOM     22  C   UNL A   1      35.023  22.888  25.551  1.00  0.00     0.202 C 
BRANCH  22  23
ATOM     23  O   UNL A   1      35.798  21.759  25.931  1.00  0.00    -0.374 OA
BRANCH  23  24
ATOM     24  C   UNL A   1      36.203  20.857  24.921  1.00  0.00     0.202 C 
BRANCH  24  25
ATOM     25  C   UNL A   1      37.586  20.256  25.210  1.00  0.00     0.261 C 
BRANCH  25  26
ATOM     26  O   UNL A   1      38.645  21.232  25.212  1.00  0.00    -0.460 OA
BRANCH  26  27
ATOM     27  C   UNL A   1      39.601  21.020  26.151  1.00  0.00     0.338 C 
ATOM     28  O   UNL A   1      40.182  19.977  26.396  1.00  0.00    -0.246 OA
BRANCH  27  29
ATOM     29  C   UNL A   1      39.921  22.292  26.830  1.00  0.00     0.060 A 
ATOM     30  C   UNL A   1      39.209  23.440  26.461  1.00  0.00     0.016 A 
ATOM     31  C   UNL A   1      40.974  22.376  27.746  1.00  0.00     0.016 A 
ATOM     32  C   UNL A   1      39.598  24.688  26.950  1.00  0.00     0.010 A 
ATOM     33  C   UNL A   1      41.372  23.628  28.224  1.00  0.00     0.010 A 
ATOM     34  C   UNL A   1      40.716  24.793  27.789  1.00  0.00    -0.014 A 
BRANCH  34  35
ATOM     35  C   UNL A   1      41.323  26.126  28.025  1.00  0.00     0.031 A 
ATOM     36  C   UNL A   1      42.722  26.375  27.524  1.00  0.00     0.074 A 
ATOM     37  C   UNL A   1      40.638  27.114  28.628  1.00  0.00     0.049 A 
ATOM     38  N   UNL A   1      43.464  27.448  27.621  1.00  0.00    -0.248 NA
ATOM     39  C   UNL A   1      43.368  25.259  26.813  1.00  0.00     0.031 C 
ATOM     40  C   UNL A   1      39.264  27.014  29.112  1.00  0.00     0.029 A 
ATOM     41  N   UNL A   1      41.014  28.398  28.934  1.00  0.00    -0.354 N 
ATOM     42  C   UNL A   1      44.660  27.138  26.986  1.00  0.00     0.074 A 
ATOM     43  C   UNL A   1      44.559  25.768  26.535  1.00  0.00     0.031 C 
ATOM     44  C   UNL A   1      38.912  28.189  29.665  1.00  0.00     0.029 A 
ATOM     45  C   UNL A   1      40.046  29.111  29.598  1.00  0.00     0.049 A 
ATOM     46  H   UNL A   1      41.894  28.773  28.699  1.00  0.00     0.167 HD
ATOM     47  C   UNL A   1      45.743  27.926  26.786  1.00  0.00     0.037 A 
ATOM     48  C   UNL A   1      40.083  30.356  30.109  1.00  0.00     0.037 A 
ATOM     49  C   UNL A   1      45.846  29.287  27.240  1.00  0.00     0.049 A 
ATOM     50  C   UNL A   1      41.330  31.187  29.950  1.00  0.00     0.074 A 
ATOM     51  C   UNL A   1      46.898  30.172  27.082  1.00  0.00     0.029 A 
ATOM     52  N   UNL A   1      44.861  29.958  27.948  1.00  0.00    -0.354 N 
ATOM     53  N   UNL A   1      42.450  30.891  29.332  1.00  0.00    -0.248 NA
ATOM     54  C   UNL A   1      41.320  32.526  30.557  1.00  0.00     0.031 C 
ATOM     55  C   UNL A   1      46.570  31.362  27.739  1.00  0.00     0.029 A 
ATOM     56  C   UNL A   1      45.292  31.238  28.259  1.00  0.00     0.049 A 
ATOM     57  H   UNL A   1      43.985  29.582  28.193  1.00  0.00     0.167 HD
ATOM     58  C   UNL A   1      43.261  32.014  29.452  1.00  0.00     0.074 A 
ATOM     59  C   UNL A   1      42.502  33.000  30.191  1.00  0.00     0.031 C 
ATOM     60  C   UNL A   1      44.520  32.210  28.990  1.00  0.00     0.037 A 
BRANCH  47  61
ATOM     61  C   UNL A   1      46.915  27.319  26.074  1.00  0.00     0.057 A 
ATOM     62  C   UNL A   1      47.903  26.594  26.755  1.00  0.00     0.134 A 
ATOM     63  C   UNL A   1      47.050  27.445  24.686  1.00  0.00     0.134 A 
ATOM     64  F   UNL A   1      47.842  26.448  28.087  1.00  0.00    -0.206 F 
ATOM     65  C   UNL A   1      48.993  26.038  26.083  1.00  0.00     0.040 A 
ATOM     66  C   UNL A   1      48.120  26.871  24.000  1.00  0.00     0.040 A 
ATOM     67  F   UNL A   1      46.138  28.124  23.972  1.00  0.00    -0.206 F 
ATOM     68  C   UNL A   1      49.100  26.171  24.700  1.00  0.00     0.006 A 
ENDBRANCH  47  61
BRANCH  48  69
ATOM     69  C   UNL A   1      38.908  30.895  30.842  1.00  0.00     0.057 A 
ATOM     70  C   UNL A   1      37.936  31.665  30.194  1.00  0.00     0.134 A 
ATOM     71  C   UNL A   1      38.747  30.678  32.216  1.00  0.00     0.134 A 
ATOM     72  F   UNL A   1      38.048  31.932  28.885  1.00  0.00    -0.206 F 
ATOM     73  C   UNL A   1      36.853  32.212  30.887  1.00  0.00     0.040 A 
ATOM     74  C   UNL A   1      37.657  31.196  32.916  1.00  0.00     0.040 A 
ATOM     75  F   UNL A   1      39.646  29.953  32.897  1.00  0.00    -0.206 F 
ATOM     76  C   UNL A   1      36.709  31.972  32.252  1.00  0.00     0.006 A 
ENDBRANCH  48  69
BRANCH  60  77
ATOM     77  C   UNL A   1      45.145  33.554  29.238  1.00  0.00     0.057 A 
ATOM     78  C   UNL A   1      45.942  33.804  30.362  1.00  0.00     0.134 A 
ATOM     79  C   UNL A   1      44.984  34.595  28.314  1.00  0.00     0.134 A 
ATOM     80  F   UNL A   1      46.126  32.854  31.291  1.00  0.00    -0.206 F 
ATOM     81  C   UNL A   1      46.538  35.049  30.570  1.00  0.00     0.040 A 
ATOM     82  C   UNL A   1      45.597  35.835  28.496  1.00  0.00     0.040 A 
ATOM     83  F   UNL A   1      44.242  34.417  27.210  1.00  0.00    -0.206 F 
ATOM     84  C   UNL A   1      46.371  36.067  29.631  1.00  0.00     0.006 A 
ENDBRANCH  60  77
ENDBRANCH  34  35
ENDBRANCH  27  29
ENDBRANCH  26  27
ENDBRANCH  25  26
ENDBRANCH  24  25
ENDBRANCH  23  24
ENDBRANCH  22  23
ENDBRANCH   1  22
TORSDOF 19
ENDMDL
