MODEL 1
REMARK VINA RESULT:     -13.3      0.000      0.000
REMARK SMILES Cc1ccc(C)c([C@H]2[NH2+][C@@H](C(=O)OCCOCCOC(=O)c3ccc(-c4c5nc(c(-c6c(F)cccc6F)c6ccc([nH]6)c(-c6c(F)cccc6F)c6nc(c(-c7c(F)cccc7F)c7ccc4[nH]7)C=C6)C=C5)cc3)Cc3c2[nH]c2ccccc32)c1
REMARK SMILES IDX 17 1 16 2 15 3 14 4 13 5 11 6 12 7 10 8 8 9 9 10 78 11 77 14
REMARK SMILES IDX 79 15 76 16 85 17 80 18 84 20 81 21 83 22 82 23 7 24 1 25
REMARK SMILES IDX 2 26 3 27 86 28 4 29 5 30 6 31 18 32 19 33 20 34 21 35 22 36
REMARK SMILES IDX 23 37 75 38 24 39 74 40 25 41 26 42 27 43 68 44 28 45 73 46
REMARK SMILES IDX 67 47 69 48 29 49 72 50 66 51 65 52 30 54 56 55 39 56 55 57
REMARK SMILES IDX 40 58 43 59 54 60 70 61 41 62 42 63 53 65 71 66 44 67 31 68
REMARK SMILES IDX 32 69 37 70 33 71 34 72 36 73 38 74 35 75 57 76 58 77 63 78
REMARK SMILES IDX 59 79 60 80 62 81 64 82 61 83 45 84 46 85 51 86 47 87 48 88
REMARK SMILES IDX 50 89 52 90 49 91
REMARK H PARENT 9 12 9 13 79 19 69 53 43 64
REMARK Flexibility Score: inf
ROOT
ATOM      1  C   UNL A   1      34.248  20.847  24.608  1.00  0.00     0.202 C 
ENDROOT
BRANCH   1   2
ATOM      2  O   UNL A   1      33.174  21.192  25.453  1.00  0.00    -0.374 OA
BRANCH   2   3
ATOM      3  C   UNL A   1      32.561  22.459  25.371  1.00  0.00     0.202 C 
BRANCH   3   4
ATOM      4  C   UNL A   1      32.838  22.968  23.950  1.00  0.00     0.261 C 
BRANCH   4   5
ATOM      5  O   UNL A   1      32.660  24.391  23.779  1.00  0.00    -0.459 OA
BRANCH   5   6
ATOM      6  C   UNL A   1      31.532  24.820  23.128  1.00  0.00     0.365 C 
ATOM      7  O   UNL A   1      30.493  24.211  23.093  1.00  0.00    -0.245 OA
BRANCH   6   8
ATOM      8  C   UNL A   1      31.664  26.225  22.552  1.00  0.00     0.298 C 
ATOM      9  C   UNL A   1      32.832  27.997  24.012  1.00  0.00     0.262 C 
ATOM     10  N   UNL A   1      32.927  26.925  22.972  1.00  0.00    -0.323 N 
ATOM     11  C   UNL A   1      31.578  28.768  23.738  1.00  0.00     0.083 A 
ATOM     12  H   UNL A   1      33.564  26.213  23.331  1.00  0.00     0.347 HD
ATOM     13  H   UNL A   1      33.236  27.415  22.132  1.00  0.00     0.347 HD
ATOM     14  C   UNL A   1      30.472  28.307  23.065  1.00  0.00    -0.006 A 
ATOM     15  N   UNL A   1      31.234  29.983  24.270  1.00  0.00    -0.353 N 
ATOM     16  C   UNL A   1      30.321  26.932  22.605  1.00  0.00     0.115 C 
ATOM     17  C   UNL A   1      29.514  29.319  23.006  1.00  0.00     0.003 A 
ATOM     18  C   UNL A   1      29.957  30.319  23.865  1.00  0.00     0.046 A 
ATOM     19  H   UNL A   1      31.809  30.531  24.853  1.00  0.00     0.166 HD
ATOM     20  C   UNL A   1      28.278  29.420  22.356  1.00  0.00     0.010 A 
ATOM     21  C   UNL A   1      29.146  31.402  24.190  1.00  0.00     0.026 A 
ATOM     22  C   UNL A   1      27.500  30.544  22.595  1.00  0.00     0.001 A 
ATOM     23  C   UNL A   1      27.916  31.501  23.521  1.00  0.00     0.002 A 
BRANCH   9  24
ATOM     24  C   UNL A   1      32.920  27.454  25.468  1.00  0.00     0.019 A 
ATOM     25  C   UNL A   1      35.192  29.571  27.608  1.00  0.00     0.044 C 
ATOM     26  C   UNL A   1      34.019  28.822  27.067  1.00  0.00    -0.051 A 
ATOM     27  C   UNL A   1      32.742  29.208  27.387  1.00  0.00     0.004 A 
ATOM     28  C   UNL A   1      34.102  27.781  26.179  1.00  0.00     0.014 A 
ATOM     29  C   UNL A   1      31.630  28.400  27.139  1.00  0.00     0.004 A 
ATOM     30  C   UNL A   1      31.707  27.449  26.159  1.00  0.00    -0.042 A 
ATOM     31  C   UNL A   1      30.467  26.691  25.804  1.00  0.00     0.045 C 
ENDBRANCH   9  24
ENDBRANCH   6   8
ENDBRANCH   5   6
ENDBRANCH   4   5
ENDBRANCH   3   4
ENDBRANCH   2   3
ENDBRANCH   1   2
BRANCH   1  32
ATOM     32  C   UNL A   1      35.535  20.785  25.412  1.00  0.00     0.261 C 
BRANCH  32  33
ATOM     33  O   UNL A   1      36.665  21.215  24.606  1.00  0.00    -0.460 OA
BRANCH  33  34
ATOM     34  C   UNL A   1      37.908  20.816  25.030  1.00  0.00     0.338 C 
ATOM     35  O   UNL A   1      38.387  19.719  24.790  1.00  0.00    -0.246 OA
BRANCH  34  36
ATOM     36  C   UNL A   1      38.529  21.834  25.952  1.00  0.00     0.060 A 
ATOM     37  C   UNL A   1      38.108  23.181  25.999  1.00  0.00     0.016 A 
ATOM     38  C   UNL A   1      39.725  21.508  26.563  1.00  0.00     0.016 A 
ATOM     39  C   UNL A   1      38.941  24.209  26.556  1.00  0.00     0.010 A 
ATOM     40  C   UNL A   1      40.583  22.533  26.944  1.00  0.00     0.010 A 
ATOM     41  C   UNL A   1      40.244  23.913  26.971  1.00  0.00    -0.014 A 
BRANCH  41  42
ATOM     42  C   UNL A   1      41.175  24.669  27.897  1.00  0.00     0.031 A 
ATOM     43  C   UNL A   1      40.451  25.915  28.159  1.00  0.00     0.074 A 
ATOM     44  C   UNL A   1      42.435  24.672  28.434  1.00  0.00     0.049 A 
ATOM     45  N   UNL A   1      40.503  26.882  27.294  1.00  0.00    -0.248 NA
ATOM     46  C   UNL A   1      39.354  26.022  29.128  1.00  0.00     0.031 C 
ATOM     47  C   UNL A   1      43.636  23.979  28.003  1.00  0.00     0.029 A 
ATOM     48  N   UNL A   1      42.854  25.161  29.696  1.00  0.00    -0.354 N 
ATOM     49  C   UNL A   1      39.771  27.856  27.909  1.00  0.00     0.074 A 
ATOM     50  C   UNL A   1      38.783  27.143  28.669  1.00  0.00     0.031 C 
ATOM     51  C   UNL A   1      44.541  23.914  29.011  1.00  0.00     0.029 A 
ATOM     52  C   UNL A   1      43.981  24.490  30.248  1.00  0.00     0.049 A 
ATOM     53  H   UNL A   1      42.401  25.905  30.154  1.00  0.00     0.167 HD
ATOM     54  C   UNL A   1      40.445  28.982  28.266  1.00  0.00     0.037 A 
ATOM     55  C   UNL A   1      44.856  24.820  31.257  1.00  0.00     0.037 A 
ATOM     56  C   UNL A   1      41.737  29.059  27.585  1.00  0.00     0.049 A 
ATOM     57  C   UNL A   1      45.280  26.196  30.950  1.00  0.00     0.074 A 
ATOM     58  C   UNL A   1      42.172  29.139  26.274  1.00  0.00     0.029 A 
ATOM     59  N   UNL A   1      42.808  28.597  28.313  1.00  0.00    -0.354 N 
ATOM     60  N   UNL A   1      45.977  26.502  29.889  1.00  0.00    -0.248 NA
ATOM     61  C   UNL A   1      44.530  27.293  31.556  1.00  0.00     0.031 C 
ATOM     62  C   UNL A   1      43.534  28.715  26.246  1.00  0.00     0.029 A 
ATOM     63  C   UNL A   1      43.929  28.413  27.539  1.00  0.00     0.049 A 
ATOM     64  H   UNL A   1      42.776  28.418  29.280  1.00  0.00     0.167 HD
ATOM     65  C   UNL A   1      45.320  27.620  29.410  1.00  0.00     0.074 A 
ATOM     66  C   UNL A   1      44.591  28.167  30.549  1.00  0.00     0.031 C 
ATOM     67  C   UNL A   1      45.112  27.784  28.071  1.00  0.00     0.037 A 
BRANCH  54  68
ATOM     68  C   UNL A   1      40.189  29.728  29.554  1.00  0.00     0.057 A 
ATOM     69  C   UNL A   1      40.638  29.127  30.737  1.00  0.00     0.134 A 
ATOM     70  C   UNL A   1      39.369  30.867  29.742  1.00  0.00     0.134 A 
ATOM     71  F   UNL A   1      41.419  28.039  30.699  1.00  0.00    -0.206 F 
ATOM     72  C   UNL A   1      40.255  29.586  32.000  1.00  0.00     0.040 A 
ATOM     73  C   UNL A   1      39.016  31.357  30.997  1.00  0.00     0.040 A 
ATOM     74  F   UNL A   1      38.782  31.544  28.753  1.00  0.00    -0.206 F 
ATOM     75  C   UNL A   1      39.439  30.701  32.134  1.00  0.00     0.006 A 
ENDBRANCH  54  68
BRANCH  55  76
ATOM     76  C   UNL A   1      45.054  24.170  32.609  1.00  0.00     0.057 A 
ATOM     77  C   UNL A   1      46.084  24.496  33.506  1.00  0.00     0.134 A 
ATOM     78  C   UNL A   1      44.201  23.176  33.097  1.00  0.00     0.134 A 
ATOM     79  F   UNL A   1      46.995  25.423  33.181  1.00  0.00    -0.206 F 
ATOM     80  C   UNL A   1      46.217  23.897  34.786  1.00  0.00     0.040 A 
ATOM     81  C   UNL A   1      44.312  22.550  34.353  1.00  0.00     0.040 A 
ATOM     82  F   UNL A   1      43.166  22.810  32.363  1.00  0.00    -0.206 F 
ATOM     83  C   UNL A   1      45.323  22.923  35.217  1.00  0.00     0.006 A 
ENDBRANCH  55  76
BRANCH  67  84
ATOM     84  C   UNL A   1      46.103  27.127  27.154  1.00  0.00     0.057 A 
ATOM     85  C   UNL A   1      45.792  26.086  26.274  1.00  0.00     0.134 A 
ATOM     86  C   UNL A   1      47.412  27.604  27.103  1.00  0.00     0.134 A 
ATOM     87  F   UNL A   1      44.520  25.768  26.021  1.00  0.00    -0.206 F 
ATOM     88  C   UNL A   1      46.767  25.418  25.524  1.00  0.00     0.040 A 
ATOM     89  C   UNL A   1      48.382  27.017  26.281  1.00  0.00     0.040 A 
ATOM     90  F   UNL A   1      47.755  28.701  27.797  1.00  0.00    -0.206 F 
ATOM     91  C   UNL A   1      48.074  25.886  25.528  1.00  0.00     0.006 A 
ENDBRANCH  67  84
ENDBRANCH  41  42
ENDBRANCH  34  36
ENDBRANCH  33  34
ENDBRANCH  32  33
ENDBRANCH   1  32
TORSDOF 15
ENDMDL
MODEL 2
REMARK VINA RESULT:     -13.2      0.835      2.714
REMARK SMILES Cc1ccc(C)c([C@H]2[NH2+][C@@H](C(=O)OCCOCCOC(=O)c3ccc(-c4c5nc(c(-c6c(F)cccc6F)c6ccc([nH]6)c(-c6c(F)cccc6F)c6nc(c(-c7c(F)cccc7F)c7ccc4[nH]7)C=C6)C=C5)cc3)Cc3c2[nH]c2ccccc32)c1
REMARK SMILES IDX 17 1 16 2 15 3 14 4 13 5 11 6 12 7 10 8 8 9 9 10 78 11 77 14
REMARK SMILES IDX 79 15 76 16 85 17 80 18 84 20 81 21 83 22 82 23 7 24 1 25
REMARK SMILES IDX 2 26 3 27 86 28 4 29 5 30 6 31 18 32 19 33 20 34 21 35 22 36
REMARK SMILES IDX 23 37 75 38 24 39 74 40 25 41 26 42 27 43 68 44 28 45 73 46
REMARK SMILES IDX 67 47 69 48 29 49 72 50 66 51 65 52 30 54 56 55 39 56 55 57
REMARK SMILES IDX 40 58 43 59 54 60 70 61 41 62 42 63 53 65 71 66 44 67 31 68
REMARK SMILES IDX 32 69 37 70 33 71 34 72 36 73 38 74 35 75 57 76 58 77 63 78
REMARK SMILES IDX 59 79 60 80 62 81 64 82 61 83 45 84 46 85 51 86 47 87 48 88
REMARK SMILES IDX 50 89 52 90 49 91
REMARK H PARENT 9 12 9 13 79 19 69 53 43 64
REMARK Flexibility Score: inf
ROOT
ATOM      1  C   UNL A   1      34.093  20.776  24.548  1.00  0.00     0.202 C 
ENDROOT
BRANCH   1   2
ATOM      2  O   UNL A   1      32.958  20.856  25.378  1.00  0.00    -0.374 OA
BRANCH   2   3
ATOM      3  C   UNL A   1      31.932  21.788  25.121  1.00  0.00     0.202 C 
BRANCH   3   4
ATOM      4  C   UNL A   1      32.264  22.412  23.759  1.00  0.00     0.261 C 
BRANCH   4   5
ATOM      5  O   UNL A   1      32.250  23.857  23.744  1.00  0.00    -0.459 OA
BRANCH   5   6
ATOM      6  C   UNL A   1      33.277  24.511  24.376  1.00  0.00     0.365 C 
ATOM      7  O   UNL A   1      34.403  24.579  23.953  1.00  0.00    -0.245 OA
BRANCH   6   8
ATOM      8  C   UNL A   1      32.833  25.275  25.618  1.00  0.00     0.298 C 
ATOM      9  C   UNL A   1      30.877  26.931  25.353  1.00  0.00     0.262 C 
ATOM     10  N   UNL A   1      31.353  25.544  25.655  1.00  0.00    -0.323 N 
ATOM     11  C   UNL A   1      31.849  27.879  25.982  1.00  0.00     0.083 A 
ATOM     12  H   UNL A   1      30.915  24.920  24.977  1.00  0.00     0.347 HD
ATOM     13  H   UNL A   1      31.094  25.396  26.630  1.00  0.00     0.347 HD
ATOM     14  C   UNL A   1      33.163  27.612  26.289  1.00  0.00    -0.006 A 
ATOM     15  N   UNL A   1      31.667  29.222  26.182  1.00  0.00    -0.353 N 
ATOM     16  C   UNL A   1      33.837  26.369  25.937  1.00  0.00     0.115 C 
ATOM     17  C   UNL A   1      33.738  28.740  26.871  1.00  0.00     0.003 A 
ATOM     18  C   UNL A   1      32.827  29.775  26.689  1.00  0.00     0.046 A 
ATOM     19  H   UNL A   1      30.837  29.717  25.992  1.00  0.00     0.166 HD
ATOM     20  C   UNL A   1      34.988  28.973  27.459  1.00  0.00     0.010 A 
ATOM     21  C   UNL A   1      33.162  31.093  26.988  1.00  0.00     0.026 A 
ATOM     22  C   UNL A   1      35.297  30.268  27.852  1.00  0.00     0.001 A 
ATOM     23  C   UNL A   1      34.410  31.312  27.590  1.00  0.00     0.002 A 
BRANCH   9  24
ATOM     24  C   UNL A   1      30.655  27.190  23.834  1.00  0.00     0.019 A 
ATOM     25  C   UNL A   1      27.279  28.730  23.164  1.00  0.00     0.044 C 
ATOM     26  C   UNL A   1      28.746  28.461  23.222  1.00  0.00    -0.051 A 
ATOM     27  C   UNL A   1      29.644  29.498  23.173  1.00  0.00     0.004 A 
ATOM     28  C   UNL A   1      29.305  27.223  23.404  1.00  0.00     0.014 A 
ATOM     29  C   UNL A   1      31.008  29.298  22.952  1.00  0.00     0.004 A 
ATOM     30  C   UNL A   1      31.559  28.086  23.260  1.00  0.00    -0.042 A 
ATOM     31  C   UNL A   1      33.044  27.931  23.157  1.00  0.00     0.045 C 
ENDBRANCH   9  24
ENDBRANCH   6   8
ENDBRANCH   5   6
ENDBRANCH   4   5
ENDBRANCH   3   4
ENDBRANCH   2   3
ENDBRANCH   1   2
BRANCH   1  32
ATOM     32  C   UNL A   1      35.353  20.871  25.391  1.00  0.00     0.261 C 
BRANCH  32  33
ATOM     33  O   UNL A   1      36.466  21.363  24.596  1.00  0.00    -0.460 OA
BRANCH  33  34
ATOM     34  C   UNL A   1      37.720  20.959  24.980  1.00  0.00     0.338 C 
ATOM     35  O   UNL A   1      38.197  19.870  24.703  1.00  0.00    -0.246 OA
BRANCH  34  36
ATOM     36  C   UNL A   1      38.361  21.958  25.909  1.00  0.00     0.060 A 
ATOM     37  C   UNL A   1      37.946  23.305  25.988  1.00  0.00     0.016 A 
ATOM     38  C   UNL A   1      39.566  21.617  26.492  1.00  0.00     0.016 A 
ATOM     39  C   UNL A   1      38.792  24.320  26.549  1.00  0.00     0.010 A 
ATOM     40  C   UNL A   1      40.435  22.632  26.877  1.00  0.00     0.010 A 
ATOM     41  C   UNL A   1      40.101  24.012  26.935  1.00  0.00    -0.014 A 
BRANCH  41  42
ATOM     42  C   UNL A   1      41.051  24.748  27.859  1.00  0.00     0.031 A 
ATOM     43  C   UNL A   1      40.345  26.001  28.139  1.00  0.00     0.074 A 
ATOM     44  C   UNL A   1      42.316  24.730  28.382  1.00  0.00     0.049 A 
ATOM     45  N   UNL A   1      40.401  26.975  27.281  1.00  0.00    -0.248 NA
ATOM     46  C   UNL A   1      39.260  26.113  29.120  1.00  0.00     0.031 C 
ATOM     47  C   UNL A   1      43.504  24.026  27.934  1.00  0.00     0.029 A 
ATOM     48  N   UNL A   1      42.754  25.203  29.644  1.00  0.00    -0.354 N 
ATOM     49  C   UNL A   1      39.688  27.952  27.913  1.00  0.00     0.074 A 
ATOM     50  C   UNL A   1      38.699  27.245  28.677  1.00  0.00     0.031 C 
ATOM     51  C   UNL A   1      44.418  23.940  28.932  1.00  0.00     0.029 A 
ATOM     52  C   UNL A   1      43.877  24.512  30.179  1.00  0.00     0.049 A 
ATOM     53  H   UNL A   1      42.315  25.948  30.113  1.00  0.00     0.167 HD
ATOM     54  C   UNL A   1      40.380  29.067  28.272  1.00  0.00     0.037 A 
ATOM     55  C   UNL A   1      44.767  24.823  31.182  1.00  0.00     0.037 A 
ATOM     56  C   UNL A   1      41.666  29.133  27.579  1.00  0.00     0.049 A 
ATOM     57  C   UNL A   1      45.206  26.196  30.883  1.00  0.00     0.074 A 
ATOM     58  C   UNL A   1      42.089  29.219  26.265  1.00  0.00     0.029 A 
ATOM     59  N   UNL A   1      42.738  28.651  28.292  1.00  0.00    -0.354 N 
ATOM     60  N   UNL A   1      45.895  26.502  29.817  1.00  0.00    -0.248 NA
ATOM     61  C   UNL A   1      44.476  27.297  31.506  1.00  0.00     0.031 C 
ATOM     62  C   UNL A   1      43.445  28.779  26.219  1.00  0.00     0.029 A 
ATOM     63  C   UNL A   1      43.849  28.460  27.506  1.00  0.00     0.049 A 
ATOM     64  H   UNL A   1      42.714  28.464  29.258  1.00  0.00     0.167 HD
ATOM     65  C   UNL A   1      45.248  27.633  29.355  1.00  0.00     0.074 A 
ATOM     66  C   UNL A   1      44.538  28.179  30.506  1.00  0.00     0.031 C 
ATOM     67  C   UNL A   1      45.029  27.811  28.019  1.00  0.00     0.037 A 
BRANCH  54  68
ATOM     68  C   UNL A   1      40.146  29.804  29.570  1.00  0.00     0.057 A 
ATOM     69  C   UNL A   1      40.606  29.191  30.742  1.00  0.00     0.134 A 
ATOM     70  C   UNL A   1      39.337  30.947  29.778  1.00  0.00     0.134 A 
ATOM     71  F   UNL A   1      41.380  28.098  30.685  1.00  0.00    -0.206 F 
ATOM     72  C   UNL A   1      40.243  29.643  32.014  1.00  0.00     0.040 A 
ATOM     73  C   UNL A   1      39.004  31.430  31.041  1.00  0.00     0.040 A 
ATOM     74  F   UNL A   1      38.741  31.636  28.802  1.00  0.00    -0.206 F 
ATOM     75  C   UNL A   1      39.437  30.763  32.167  1.00  0.00     0.006 A 
ENDBRANCH  54  68
BRANCH  55  76
ATOM     76  C   UNL A   1      44.970  24.158  32.526  1.00  0.00     0.057 A 
ATOM     77  C   UNL A   1      45.992  24.489  33.432  1.00  0.00     0.134 A 
ATOM     78  C   UNL A   1      44.131  23.144  32.998  1.00  0.00     0.134 A 
ATOM     79  F   UNL A   1      46.890  25.433  33.122  1.00  0.00    -0.206 F 
ATOM     80  C   UNL A   1      46.129  23.875  34.704  1.00  0.00     0.040 A 
ATOM     81  C   UNL A   1      44.247  22.505  34.246  1.00  0.00     0.040 A 
ATOM     82  F   UNL A   1      43.104  22.773  32.256  1.00  0.00    -0.206 F 
ATOM     83  C   UNL A   1      45.250  22.881  35.119  1.00  0.00     0.006 A 
ENDBRANCH  55  76
BRANCH  67  84
ATOM     84  C   UNL A   1      46.002  27.150  27.087  1.00  0.00     0.057 A 
ATOM     85  C   UNL A   1      45.669  26.121  26.201  1.00  0.00     0.134 A 
ATOM     86  C   UNL A   1      47.316  27.612  27.027  1.00  0.00     0.134 A 
ATOM     87  F   UNL A   1      44.390  25.821  25.959  1.00  0.00    -0.206 F 
ATOM     88  C   UNL A   1      46.628  25.447  25.436  1.00  0.00     0.040 A 
ATOM     89  C   UNL A   1      48.270  27.019  26.190  1.00  0.00     0.040 A 
ATOM     90  F   UNL A   1      47.680  28.698  27.726  1.00  0.00    -0.206 F 
ATOM     91  C   UNL A   1      47.941  25.899  25.430  1.00  0.00     0.006 A 
ENDBRANCH  67  84
ENDBRANCH  41  42
ENDBRANCH  34  36
ENDBRANCH  33  34
ENDBRANCH  32  33
ENDBRANCH   1  32
TORSDOF 15
ENDMDL
MODEL 3
REMARK VINA RESULT:     -12.8      2.800      7.947
REMARK SMILES Cc1ccc(C)c([C@H]2[NH2+][C@@H](C(=O)OCCOCCOC(=O)c3ccc(-c4c5nc(c(-c6c(F)cccc6F)c6ccc([nH]6)c(-c6c(F)cccc6F)c6nc(c(-c7c(F)cccc7F)c7ccc4[nH]7)C=C6)C=C5)cc3)Cc3c2[nH]c2ccccc32)c1
REMARK SMILES IDX 17 1 16 2 15 3 14 4 13 5 11 6 12 7 10 8 8 9 9 10 78 11 77 14
REMARK SMILES IDX 79 15 76 16 85 17 80 18 84 20 81 21 83 22 82 23 7 24 1 25
REMARK SMILES IDX 2 26 3 27 86 28 4 29 5 30 6 31 18 32 19 33 20 34 21 35 22 36
REMARK SMILES IDX 23 37 75 38 24 39 74 40 25 41 26 42 27 43 68 44 28 45 73 46
REMARK SMILES IDX 67 47 69 48 29 49 72 50 66 51 65 52 30 54 56 55 39 56 55 57
REMARK SMILES IDX 40 58 43 59 54 60 70 61 41 62 42 63 53 65 71 66 44 67 31 68
REMARK SMILES IDX 32 69 37 70 33 71 34 72 36 73 38 74 35 75 57 76 58 77 63 78
REMARK SMILES IDX 59 79 60 80 62 81 64 82 61 83 45 84 46 85 51 86 47 87 48 88
REMARK SMILES IDX 50 89 52 90 49 91
REMARK H PARENT 9 12 9 13 79 19 69 53 43 64
REMARK Flexibility Score: inf
ROOT
ATOM      1  C   UNL A   1      33.593  29.180  27.529  1.00  0.00     0.202 C 
ENDROOT
BRANCH   1   2
ATOM      2  O   UNL A   1      32.940  29.303  26.287  1.00  0.00    -0.374 OA
BRANCH   2   3
ATOM      3  C   UNL A   1      32.695  28.175  25.478  1.00  0.00     0.202 C 
BRANCH   3   4
ATOM      4  C   UNL A   1      31.995  27.154  26.384  1.00  0.00     0.261 C 
BRANCH   4   5
ATOM      5  O   UNL A   1      32.547  25.820  26.320  1.00  0.00    -0.459 OA
BRANCH   5   6
ATOM      6  C   UNL A   1      32.321  25.090  25.180  1.00  0.00     0.365 C 
ATOM      7  O   UNL A   1      31.229  24.787  24.772  1.00  0.00    -0.245 OA
BRANCH   6   8
ATOM      8  C   UNL A   1      33.589  24.803  24.385  1.00  0.00     0.298 C 
ATOM      9  C   UNL A   1      33.925  22.399  23.521  1.00  0.00     0.262 C 
ATOM     10  N   UNL A   1      33.393  23.780  23.299  1.00  0.00    -0.323 N 
ATOM     11  C   UNL A   1      35.242  22.540  24.218  1.00  0.00     0.083 A 
ATOM     12  H   UNL A   1      32.388  23.694  23.141  1.00  0.00     0.347 HD
ATOM     13  H   UNL A   1      33.938  24.137  22.514  1.00  0.00     0.347 HD
ATOM     14  C   UNL A   1      35.645  23.607  24.986  1.00  0.00    -0.006 A 
ATOM     15  N   UNL A   1      36.190  21.564  24.378  1.00  0.00    -0.353 N 
ATOM     16  C   UNL A   1      34.781  24.731  25.323  1.00  0.00     0.115 C 
ATOM     17  C   UNL A   1      36.936  23.373  25.457  1.00  0.00     0.003 A 
ATOM     18  C   UNL A   1      37.217  22.042  25.168  1.00  0.00     0.046 A 
ATOM     19  H   UNL A   1      36.145  20.659  23.990  1.00  0.00     0.166 HD
ATOM     20  C   UNL A   1      37.844  24.164  26.174  1.00  0.00     0.010 A 
ATOM     21  C   UNL A   1      38.359  21.421  25.667  1.00  0.00     0.026 A 
ATOM     22  C   UNL A   1      39.032  23.583  26.594  1.00  0.00     0.001 A 
ATOM     23  C   UNL A   1      39.267  22.226  26.370  1.00  0.00     0.002 A 
BRANCH   9  24
ATOM     24  C   UNL A   1      32.927  21.465  24.266  1.00  0.00     0.019 A 
ATOM     25  C   UNL A   1      32.418  18.217  22.418  1.00  0.00     0.044 C 
ATOM     26  C   UNL A   1      32.723  19.241  23.460  1.00  0.00    -0.051 A 
ATOM     27  C   UNL A   1      33.601  18.957  24.476  1.00  0.00     0.004 A 
ATOM     28  C   UNL A   1      32.241  20.524  23.457  1.00  0.00     0.014 A 
ATOM     29  C   UNL A   1      33.718  19.759  25.612  1.00  0.00     0.004 A 
ATOM     30  C   UNL A   1      33.342  21.072  25.540  1.00  0.00    -0.042 A 
ATOM     31  C   UNL A   1      33.607  21.956  26.717  1.00  0.00     0.045 C 
ENDBRANCH   9  24
ENDBRANCH   6   8
ENDBRANCH   5   6
ENDBRANCH   4   5
ENDBRANCH   3   4
ENDBRANCH   2   3
ENDBRANCH   1   2
BRANCH   1  32
ATOM     32  C   UNL A   1      34.775  30.133  27.584  1.00  0.00     0.261 C 
BRANCH  32  33
ATOM     33  O   UNL A   1      36.027  29.396  27.621  1.00  0.00    -0.460 OA
BRANCH  33  34
ATOM     34  C   UNL A   1      36.702  29.392  28.816  1.00  0.00     0.338 C 
ATOM     35  O   UNL A   1      36.170  29.593  29.896  1.00  0.00    -0.246 OA
BRANCH  34  36
ATOM     36  C   UNL A   1      38.190  29.269  28.608  1.00  0.00     0.060 A 
ATOM     37  C   UNL A   1      38.804  29.452  27.351  1.00  0.00     0.016 A 
ATOM     38  C   UNL A   1      38.936  28.688  29.615  1.00  0.00     0.016 A 
ATOM     39  C   UNL A   1      40.121  28.948  27.079  1.00  0.00     0.010 A 
ATOM     40  C   UNL A   1      40.134  28.064  29.286  1.00  0.00     0.010 A 
ATOM     41  C   UNL A   1      40.786  28.164  28.027  1.00  0.00    -0.014 A 
BRANCH  41  42
ATOM     42  C   UNL A   1      42.257  27.828  28.165  1.00  0.00     0.031 A 
ATOM     43  C   UNL A   1      42.425  26.679  27.272  1.00  0.00     0.074 A 
ATOM     44  C   UNL A   1      43.390  28.101  28.886  1.00  0.00     0.049 A 
ATOM     45  N   UNL A   1      42.100  25.492  27.684  1.00  0.00    -0.248 NA
ATOM     46  C   UNL A   1      42.561  26.803  25.816  1.00  0.00     0.031 C 
ATOM     47  C   UNL A   1      43.540  28.713  30.194  1.00  0.00     0.029 A 
ATOM     48  N   UNL A   1      44.737  28.084  28.449  1.00  0.00    -0.354 N 
ATOM     49  C   UNL A   1      42.446  24.714  26.618  1.00  0.00     0.074 A 
ATOM     50  C   UNL A   1      42.233  25.552  25.471  1.00  0.00     0.031 C 
ATOM     51  C   UNL A   1      44.803  29.175  30.366  1.00  0.00     0.029 A 
ATOM     52  C   UNL A   1      45.595  28.987  29.137  1.00  0.00     0.049 A 
ATOM     53  H   UNL A   1      45.054  27.494  27.728  1.00  0.00     0.167 HD
ATOM     54  C   UNL A   1      43.453  23.822  26.823  1.00  0.00     0.037 A 
ATOM     55  C   UNL A   1      46.965  29.074  29.235  1.00  0.00     0.037 A 
ATOM     56  C   UNL A   1      43.705  23.635  28.252  1.00  0.00     0.049 A 
ATOM     57  C   UNL A   1      47.403  27.712  29.583  1.00  0.00     0.074 A 
ATOM     58  C   UNL A   1      42.988  23.170  29.340  1.00  0.00     0.029 A 
ATOM     59  N   UNL A   1      44.729  24.393  28.768  1.00  0.00    -0.354 N 
ATOM     60  N   UNL A   1      47.095  27.137  30.714  1.00  0.00    -0.248 NA
ATOM     61  C   UNL A   1      47.770  26.813  28.492  1.00  0.00     0.031 C 
ATOM     62  C   UNL A   1      43.619  23.671  30.517  1.00  0.00     0.029 A 
ATOM     63  C   UNL A   1      44.731  24.407  30.142  1.00  0.00     0.049 A 
ATOM     64  H   UNL A   1      45.387  24.873  28.216  1.00  0.00     0.167 HD
ATOM     65  C   UNL A   1      46.702  25.874  30.312  1.00  0.00     0.074 A 
ATOM     66  C   UNL A   1      47.314  25.669  29.004  1.00  0.00     0.031 C 
ATOM     67  C   UNL A   1      45.619  25.269  30.882  1.00  0.00     0.037 A 
BRANCH  54  68
ATOM     68  C   UNL A   1      44.512  23.516  25.791  1.00  0.00     0.057 A 
ATOM     69  C   UNL A   1      44.563  22.205  25.302  1.00  0.00     0.134 A 
ATOM     70  C   UNL A   1      45.598  24.337  25.400  1.00  0.00     0.134 A 
ATOM     71  F   UNL A   1      43.598  21.324  25.600  1.00  0.00    -0.206 F 
ATOM     72  C   UNL A   1      45.634  21.734  24.536  1.00  0.00     0.040 A 
ATOM     73  C   UNL A   1      46.648  23.889  24.603  1.00  0.00     0.040 A 
ATOM     74  F   UNL A   1      45.778  25.594  25.811  1.00  0.00    -0.206 F 
ATOM     75  C   UNL A   1      46.682  22.575  24.188  1.00  0.00     0.006 A 
ENDBRANCH  54  68
BRANCH  55  76
ATOM     76  C   UNL A   1      47.901  30.141  28.711  1.00  0.00     0.057 A 
ATOM     77  C   UNL A   1      47.911  30.611  27.387  1.00  0.00     0.134 A 
ATOM     78  C   UNL A   1      48.846  30.776  29.522  1.00  0.00     0.134 A 
ATOM     79  F   UNL A   1      47.072  30.093  26.480  1.00  0.00    -0.206 F 
ATOM     80  C   UNL A   1      48.772  31.645  26.938  1.00  0.00     0.040 A 
ATOM     81  C   UNL A   1      49.725  31.794  29.105  1.00  0.00     0.040 A 
ATOM     82  F   UNL A   1      48.906  30.453  30.800  1.00  0.00    -0.206 F 
ATOM     83  C   UNL A   1      49.682  32.247  27.801  1.00  0.00     0.006 A 
ENDBRANCH  55  76
BRANCH  67  84
ATOM     84  C   UNL A   1      45.292  25.671  32.290  1.00  0.00     0.057 A 
ATOM     85  C   UNL A   1      44.143  26.377  32.661  1.00  0.00     0.134 A 
ATOM     86  C   UNL A   1      46.133  25.276  33.331  1.00  0.00     0.134 A 
ATOM     87  F   UNL A   1      43.134  26.531  31.801  1.00  0.00    -0.206 F 
ATOM     88  C   UNL A   1      43.933  26.840  33.965  1.00  0.00     0.040 A 
ATOM     89  C   UNL A   1      45.886  25.640  34.660  1.00  0.00     0.040 A 
ATOM     90  F   UNL A   1      47.171  24.463  33.083  1.00  0.00    -0.206 F 
ATOM     91  C   UNL A   1      44.812  26.470  34.974  1.00  0.00     0.006 A 
ENDBRANCH  67  84
ENDBRANCH  41  42
ENDBRANCH  34  36
ENDBRANCH  33  34
ENDBRANCH  32  33
ENDBRANCH   1  32
TORSDOF 15
ENDMDL
