MODEL 1
REMARK VINA RESULT:     -12.6      0.000      0.000
REMARK SMILES COc1ccc(-c2[nH]nc3nc(-c4ccc(C(F)(F)F)cc4)cc(C(=O)OCCOCCOC(=O)c4ccc(-c5c6nc(c(-c7c(F)cccc7F)c7ccc([nH]7)c(-c7c(F)cccc7F)c7nc(c(-c8c(F)cccc8F)c8ccc5[nH]8)C=C7)C=C6)cc4)c23)cc1
REMARK SMILES IDX 30 1 29 2 28 3 27 4 25 5 26 6 24 7 7 8 8 9 90 10 9 11 10 13
REMARK SMILES IDX 11 14 23 15 12 16 6 17 3 18 4 19 92 20 5 21 91 22 2 23 1 24
REMARK SMILES IDX 13 25 14 26 22 27 15 28 21 29 16 30 17 31 18 32 19 33 20 34
REMARK SMILES IDX 31 35 32 36 33 37 34 38 35 39 36 40 37 41 89 42 38 43 88 44
REMARK SMILES IDX 39 45 40 46 41 47 82 48 42 49 87 50 81 51 83 52 43 53 86 54
REMARK SMILES IDX 80 55 79 56 44 58 70 59 53 60 69 61 54 62 57 63 68 64 84 65
REMARK SMILES IDX 55 66 56 67 67 69 85 70 58 71 45 72 46 73 51 74 47 75 48 76
REMARK SMILES IDX 50 77 52 78 49 79 71 80 72 81 77 82 73 83 74 84 76 85 78 86
REMARK SMILES IDX 75 87 59 88 60 89 65 90 61 91 62 92 64 93 66 94 63 95
REMARK H PARENT 8 12 83 57 57 68
REMARK Flexibility Score: inf
ROOT
ATOM      1  O   UNL A   1      33.322  28.889  27.446  1.00  0.00    -0.374 OA
ENDROOT
BRANCH   1   2
ATOM      2  C   UNL A   1      31.910  28.951  27.224  1.00  0.00     0.202 C 
BRANCH   2   3
ATOM      3  C   UNL A   1      31.364  27.656  26.626  1.00  0.00     0.261 C 
BRANCH   3   4
ATOM      4  O   UNL A   1      32.464  26.842  26.183  1.00  0.00    -0.460 OA
BRANCH   4   5
ATOM      5  C   UNL A   1      32.216  25.508  26.124  1.00  0.00     0.339 C 
ATOM      6  O   UNL A   1      31.370  24.892  26.740  1.00  0.00    -0.246 OA
BRANCH   5   7
ATOM      7  C   UNL A   1      33.147  24.916  25.159  1.00  0.00     0.075 A 
ATOM      8  C   UNL A   1      31.965  25.267  22.944  1.00  0.00     0.075 A 
ATOM      9  N   UNL A   1      32.304  24.792  21.696  1.00  0.00    -0.275 N 
ATOM     10  C   UNL A   1      32.953  24.763  23.779  1.00  0.00     0.061 A 
ATOM     11  N   UNL A   1      33.476  24.140  21.638  1.00  0.00    -0.154 NA
ATOM     12  H   UNL A   1      31.730  24.922  20.907  1.00  0.00     0.190 HD
ATOM     13  C   UNL A   1      33.895  24.129  22.902  1.00  0.00     0.182 A 
ATOM     14  N   UNL A   1      35.077  23.629  23.335  1.00  0.00    -0.226 NA
ATOM     15  C   UNL A   1      34.390  24.404  25.571  1.00  0.00     0.045 A 
ATOM     16  C   UNL A   1      35.290  23.778  24.673  1.00  0.00     0.074 A 
BRANCH   8  17
ATOM     17  C   UNL A   1      30.851  26.200  23.092  1.00  0.00     0.001 A 
ATOM     18  C   UNL A   1      28.606  27.897  23.279  1.00  0.00     0.118 A 
ATOM     19  C   UNL A   1      29.794  28.340  22.691  1.00  0.00     0.047 A 
ATOM     20  C   UNL A   1      28.559  26.617  23.823  1.00  0.00     0.047 A 
ATOM     21  C   UNL A   1      30.911  27.499  22.596  1.00  0.00     0.014 A 
ATOM     22  C   UNL A   1      29.687  25.791  23.758  1.00  0.00     0.014 A 
BRANCH  18  23
ATOM     23  O   UNL A   1      27.578  28.799  23.260  1.00  0.00    -0.497 OA
ATOM     24  C   UNL A   1      27.925  30.168  23.084  1.00  0.00     0.278 C 
ENDBRANCH  18  23
ENDBRANCH   8  17
BRANCH  16  25
ATOM     25  C   UNL A   1      36.565  23.202  25.168  1.00  0.00     0.000 A 
ATOM     26  C   UNL A   1      37.468  23.967  25.929  1.00  0.00     0.011 A 
ATOM     27  C   UNL A   1      36.932  21.876  24.874  1.00  0.00     0.011 A 
ATOM     28  C   UNL A   1      38.683  23.429  26.377  1.00  0.00     0.014 A 
ATOM     29  C   UNL A   1      38.144  21.334  25.318  1.00  0.00     0.014 A 
ATOM     30  C   UNL A   1      39.035  22.108  26.072  1.00  0.00     0.056 A 
BRANCH  30  31
ATOM     31  C   UNL A   1      40.358  21.543  26.530  1.00  0.00     0.416 C 
ATOM     32  F   UNL A   1      40.698  21.957  27.782  1.00  0.00    -0.166 F 
ATOM     33  F   UNL A   1      40.356  20.181  26.574  1.00  0.00    -0.166 F 
ATOM     34  F   UNL A   1      41.403  21.886  25.727  1.00  0.00    -0.166 F 
ENDBRANCH  30  31
ENDBRANCH  16  25
ENDBRANCH   5   7
ENDBRANCH   4   5
ENDBRANCH   3   4
ENDBRANCH   2   3
ENDBRANCH   1   2
BRANCH   1  35
ATOM     35  C   UNL A   1      34.060  29.968  26.876  1.00  0.00     0.202 C 
BRANCH  35  36
ATOM     36  C   UNL A   1      34.947  30.625  27.927  1.00  0.00     0.261 C 
BRANCH  36  37
ATOM     37  O   UNL A   1      35.660  29.605  28.612  1.00  0.00    -0.460 OA
BRANCH  37  38
ATOM     38  C   UNL A   1      36.846  29.989  29.153  1.00  0.00     0.338 C 
ATOM     39  O   UNL A   1      37.078  30.885  29.915  1.00  0.00    -0.246 OA
BRANCH  38  40
ATOM     40  C   UNL A   1      37.824  29.079  28.541  1.00  0.00     0.060 A 
ATOM     41  C   UNL A   1      38.282  28.052  29.352  1.00  0.00     0.016 A 
ATOM     42  C   UNL A   1      38.463  29.454  27.344  1.00  0.00     0.016 A 
ATOM     43  C   UNL A   1      39.554  27.591  29.112  1.00  0.00     0.010 A 
ATOM     44  C   UNL A   1      39.737  29.001  27.112  1.00  0.00     0.010 A 
ATOM     45  C   UNL A   1      40.296  28.164  28.070  1.00  0.00    -0.014 A 
BRANCH  45  46
ATOM     46  C   UNL A   1      41.718  27.926  28.082  1.00  0.00     0.031 A 
ATOM     47  C   UNL A   1      42.141  26.675  27.433  1.00  0.00     0.074 A 
ATOM     48  C   UNL A   1      42.578  28.797  28.634  1.00  0.00     0.049 A 
ATOM     49  N   UNL A   1      42.639  25.626  27.995  1.00  0.00    -0.248 NA
ATOM     50  C   UNL A   1      41.862  26.537  26.000  1.00  0.00     0.031 C 
ATOM     51  C   UNL A   1      42.349  30.189  29.033  1.00  0.00     0.029 A 
ATOM     52  N   UNL A   1      43.903  28.620  28.865  1.00  0.00    -0.354 N 
ATOM     53  C   UNL A   1      42.892  24.740  26.958  1.00  0.00     0.074 A 
ATOM     54  C   UNL A   1      42.264  25.287  25.781  1.00  0.00     0.031 C 
ATOM     55  C   UNL A   1      43.546  30.784  29.242  1.00  0.00     0.029 A 
ATOM     56  C   UNL A   1      44.599  29.788  29.108  1.00  0.00     0.049 A 
ATOM     57  H   UNL A   1      44.332  27.733  28.859  1.00  0.00     0.167 HD
ATOM     58  C   UNL A   1      43.773  23.715  27.093  1.00  0.00     0.037 A 
ATOM     59  C   UNL A   1      45.948  29.915  29.078  1.00  0.00     0.037 A 
ATOM     60  C   UNL A   1      44.072  23.434  28.470  1.00  0.00     0.049 A 
ATOM     61  C   UNL A   1      46.532  28.555  29.236  1.00  0.00     0.074 A 
ATOM     62  C   UNL A   1      43.322  23.046  29.564  1.00  0.00     0.029 A 
ATOM     63  N   UNL A   1      45.267  23.879  28.981  1.00  0.00    -0.354 N 
ATOM     64  N   UNL A   1      46.482  27.856  30.338  1.00  0.00    -0.248 NA
ATOM     65  C   UNL A   1      46.801  27.784  28.029  1.00  0.00     0.031 C 
ATOM     66  C   UNL A   1      43.908  23.715  30.676  1.00  0.00     0.029 A 
ATOM     67  C   UNL A   1      44.991  24.452  30.197  1.00  0.00     0.049 A 
ATOM     68  H   UNL A   1      46.152  23.804  28.557  1.00  0.00     0.167 HD
ATOM     69  C   UNL A   1      46.303  26.543  29.924  1.00  0.00     0.074 A 
ATOM     70  C   UNL A   1      46.604  26.548  28.497  1.00  0.00     0.031 C 
ATOM     71  C   UNL A   1      45.656  25.629  30.708  1.00  0.00     0.037 A 
BRANCH  58  72
ATOM     72  C   UNL A   1      44.587  23.179  25.955  1.00  0.00     0.057 A 
ATOM     73  C   UNL A   1      44.588  21.801  25.686  1.00  0.00     0.134 A 
ATOM     74  C   UNL A   1      45.568  23.931  25.274  1.00  0.00     0.134 A 
ATOM     75  F   UNL A   1      43.726  20.981  26.305  1.00  0.00    -0.206 F 
ATOM     76  C   UNL A   1      45.521  21.211  24.827  1.00  0.00     0.040 A 
ATOM     77  C   UNL A   1      46.465  23.362  24.371  1.00  0.00     0.040 A 
ATOM     78  F   UNL A   1      45.767  25.232  25.524  1.00  0.00    -0.206 F 
ATOM     79  C   UNL A   1      46.461  21.992  24.165  1.00  0.00     0.006 A 
ENDBRANCH  58  72
BRANCH  59  80
ATOM     80  C   UNL A   1      46.727  31.075  28.586  1.00  0.00     0.057 A 
ATOM     81  C   UNL A   1      47.627  31.747  29.422  1.00  0.00     0.134 A 
ATOM     82  C   UNL A   1      46.798  31.402  27.218  1.00  0.00     0.134 A 
ATOM     83  F   UNL A   1      47.675  31.470  30.734  1.00  0.00    -0.206 F 
ATOM     84  C   UNL A   1      48.551  32.678  28.928  1.00  0.00     0.040 A 
ATOM     85  C   UNL A   1      47.702  32.340  26.714  1.00  0.00     0.040 A 
ATOM     86  F   UNL A   1      46.052  30.762  26.306  1.00  0.00    -0.206 F 
ATOM     87  C   UNL A   1      48.593  32.974  27.568  1.00  0.00     0.006 A 
ENDBRANCH  59  80
BRANCH  71  88
ATOM     88  C   UNL A   1      45.356  26.008  32.131  1.00  0.00     0.057 A 
ATOM     89  C   UNL A   1      44.180  26.662  32.525  1.00  0.00     0.134 A 
ATOM     90  C   UNL A   1      46.201  25.556  33.151  1.00  0.00     0.134 A 
ATOM     91  F   UNL A   1      43.257  27.029  31.626  1.00  0.00    -0.206 F 
ATOM     92  C   UNL A   1      43.882  26.901  33.870  1.00  0.00     0.040 A 
ATOM     93  C   UNL A   1      45.899  25.757  34.501  1.00  0.00     0.040 A 
ATOM     94  F   UNL A   1      47.312  24.863  32.854  1.00  0.00    -0.206 F 
ATOM     95  C   UNL A   1      44.742  26.443  34.864  1.00  0.00     0.006 A 
ENDBRANCH  71  88
ENDBRANCH  45  46
ENDBRANCH  38  40
ENDBRANCH  37  38
ENDBRANCH  36  37
ENDBRANCH  35  36
ENDBRANCH   1  35
TORSDOF 18
ENDMDL
MODEL 2
REMARK VINA RESULT:     -12.0      4.680      9.341
REMARK SMILES COc1ccc(-c2[nH]nc3nc(-c4ccc(C(F)(F)F)cc4)cc(C(=O)OCCOCCOC(=O)c4ccc(-c5c6nc(c(-c7c(F)cccc7F)c7ccc([nH]7)c(-c7c(F)cccc7F)c7nc(c(-c8c(F)cccc8F)c8ccc5[nH]8)C=C7)C=C6)cc4)c23)cc1
REMARK SMILES IDX 30 1 29 2 28 3 27 4 25 5 26 6 24 7 7 8 8 9 90 10 9 11 10 13
REMARK SMILES IDX 11 14 23 15 12 16 6 17 3 18 4 19 92 20 5 21 91 22 2 23 1 24
REMARK SMILES IDX 13 25 14 26 22 27 15 28 21 29 16 30 17 31 18 32 19 33 20 34
REMARK SMILES IDX 31 35 32 36 33 37 34 38 35 39 36 40 37 41 89 42 38 43 88 44
REMARK SMILES IDX 39 45 40 46 41 47 82 48 42 49 87 50 81 51 83 52 43 53 86 54
REMARK SMILES IDX 80 55 79 56 44 58 70 59 53 60 69 61 54 62 57 63 68 64 84 65
REMARK SMILES IDX 55 66 56 67 67 69 85 70 58 71 45 72 46 73 51 74 47 75 48 76
REMARK SMILES IDX 50 77 52 78 49 79 71 80 72 81 77 82 73 83 74 84 76 85 78 86
REMARK SMILES IDX 75 87 59 88 60 89 65 90 61 91 62 92 64 93 66 94 63 95
REMARK H PARENT 8 12 83 57 57 68
REMARK Flexibility Score: inf
ROOT
ATOM      1  O   UNL A   1      37.556  21.476  26.013  1.00  0.00    -0.374 OA
ENDROOT
BRANCH   1   2
ATOM      2  C   UNL A   1      36.211  21.533  25.530  1.00  0.00     0.202 C 
BRANCH   2   3
ATOM      3  C   UNL A   1      36.057  22.513  24.369  1.00  0.00     0.261 C 
BRANCH   3   4
ATOM      4  O   UNL A   1      35.473  23.733  24.858  1.00  0.00    -0.460 OA
BRANCH   4   5
ATOM      5  C   UNL A   1      34.479  24.253  24.093  1.00  0.00     0.339 C 
ATOM      6  O   UNL A   1      34.345  24.142  22.891  1.00  0.00    -0.246 OA
BRANCH   5   7
ATOM      7  C   UNL A   1      33.558  24.975  24.975  1.00  0.00     0.075 A 
ATOM      8  C   UNL A   1      31.667  23.318  25.299  1.00  0.00     0.075 A 
ATOM      9  N   UNL A   1      30.453  23.499  25.925  1.00  0.00    -0.275 N 
ATOM     10  C   UNL A   1      32.295  24.551  25.412  1.00  0.00     0.061 A 
ATOM     11  N   UNL A   1      30.302  24.687  26.531  1.00  0.00    -0.154 NA
ATOM     12  H   UNL A   1      29.751  22.809  25.927  1.00  0.00     0.190 HD
ATOM     13  C   UNL A   1      31.428  25.336  26.242  1.00  0.00     0.182 A 
ATOM     14  N   UNL A   1      31.764  26.569  26.694  1.00  0.00    -0.226 NA
ATOM     15  C   UNL A   1      33.883  26.248  25.477  1.00  0.00     0.045 A 
ATOM     16  C   UNL A   1      32.994  26.996  26.288  1.00  0.00     0.074 A 
BRANCH   8  17
ATOM     17  C   UNL A   1      32.053  21.992  24.823  1.00  0.00     0.001 A 
ATOM     18  C   UNL A   1      32.633  19.409  23.852  1.00  0.00     0.118 A 
ATOM     19  C   UNL A   1      32.761  19.711  25.210  1.00  0.00     0.047 A 
ATOM     20  C   UNL A   1      32.265  20.419  22.968  1.00  0.00     0.047 A 
ATOM     21  C   UNL A   1      32.472  20.993  25.696  1.00  0.00     0.014 A 
ATOM     22  C   UNL A   1      32.011  21.708  23.451  1.00  0.00     0.014 A 
BRANCH  18  23
ATOM     23  O   UNL A   1      32.895  18.108  23.519  1.00  0.00    -0.497 OA
ATOM     24  C   UNL A   1      34.219  17.638  23.750  1.00  0.00     0.278 C 
ENDBRANCH  18  23
ENDBRANCH   8  17
BRANCH  16  25
ATOM     25  C   UNL A   1      33.361  28.359  26.745  1.00  0.00     0.000 A 
ATOM     26  C   UNL A   1      34.682  28.681  27.104  1.00  0.00     0.011 A 
ATOM     27  C   UNL A   1      32.396  29.377  26.862  1.00  0.00     0.011 A 
ATOM     28  C   UNL A   1      35.024  29.963  27.557  1.00  0.00     0.014 A 
ATOM     29  C   UNL A   1      32.731  30.658  27.314  1.00  0.00     0.014 A 
ATOM     30  C   UNL A   1      34.050  30.963  27.671  1.00  0.00     0.056 A 
BRANCH  30  31
ATOM     31  C   UNL A   1      34.416  32.334  28.189  1.00  0.00     0.416 C 
ATOM     32  F   UNL A   1      35.686  32.696  27.858  1.00  0.00    -0.166 F 
ATOM     33  F   UNL A   1      33.607  33.311  27.694  1.00  0.00    -0.166 F 
ATOM     34  F   UNL A   1      34.340  32.441  29.545  1.00  0.00    -0.166 F 
ENDBRANCH  30  31
ENDBRANCH  16  25
ENDBRANCH   5   7
ENDBRANCH   4   5
ENDBRANCH   3   4
ENDBRANCH   2   3
ENDBRANCH   1   2
BRANCH   1  35
ATOM     35  C   UNL A   1      38.403  22.520  25.537  1.00  0.00     0.202 C 
BRANCH  35  36
ATOM     36  C   UNL A   1      39.552  22.764  26.509  1.00  0.00     0.261 C 
BRANCH  36  37
ATOM     37  O   UNL A   1      39.272  23.946  27.244  1.00  0.00    -0.460 OA
BRANCH  37  38
ATOM     38  C   UNL A   1      40.229  24.908  27.182  1.00  0.00     0.338 C 
ATOM     39  O   UNL A   1      41.350  24.838  26.764  1.00  0.00    -0.246 OA
BRANCH  38  40
ATOM     40  C   UNL A   1      39.595  26.077  27.808  1.00  0.00     0.060 A 
ATOM     41  C   UNL A   1      39.985  27.313  27.312  1.00  0.00     0.016 A 
ATOM     42  C   UNL A   1      38.909  25.922  29.027  1.00  0.00     0.016 A 
ATOM     43  C   UNL A   1      39.946  28.373  28.185  1.00  0.00     0.010 A 
ATOM     44  C   UNL A   1      38.881  26.979  29.901  1.00  0.00     0.010 A 
ATOM     45  C   UNL A   1      39.506  28.152  29.498  1.00  0.00    -0.014 A 
BRANCH  45  46
ATOM     46  C   UNL A   1      39.821  29.174  30.465  1.00  0.00     0.031 A 
ATOM     47  C   UNL A   1      38.721  30.103  30.764  1.00  0.00     0.074 A 
ATOM     48  C   UNL A   1      41.028  29.248  31.051  1.00  0.00     0.049 A 
ATOM     49  N   UNL A   1      38.644  31.355  30.463  1.00  0.00    -0.248 NA
ATOM     50  C   UNL A   1      37.509  29.535  31.364  1.00  0.00     0.031 C 
ATOM     51  C   UNL A   1      42.095  28.245  31.089  1.00  0.00     0.029 A 
ATOM     52  N   UNL A   1      41.507  30.245  31.836  1.00  0.00    -0.354 N 
ATOM     53  C   UNL A   1      37.430  31.784  30.983  1.00  0.00     0.074 A 
ATOM     54  C   UNL A   1      36.713  30.602  31.392  1.00  0.00     0.031 C 
ATOM     55  C   UNL A   1      42.991  28.599  32.039  1.00  0.00     0.029 A 
ATOM     56  C   UNL A   1      42.620  29.899  32.579  1.00  0.00     0.049 A 
ATOM     57  H   UNL A   1      41.097  31.140  31.873  1.00  0.00     0.167 HD
ATOM     58  C   UNL A   1      37.181  33.096  31.226  1.00  0.00     0.037 A 
ATOM     59  C   UNL A   1      43.104  30.598  33.633  1.00  0.00     0.037 A 
ATOM     60  C   UNL A   1      38.102  33.961  30.540  1.00  0.00     0.049 A 
ATOM     61  C   UNL A   1      42.572  31.985  33.537  1.00  0.00     0.074 A 
ATOM     62  C   UNL A   1      38.418  34.179  29.212  1.00  0.00     0.029 A 
ATOM     63  N   UNL A   1      39.124  34.527  31.261  1.00  0.00    -0.354 N 
ATOM     64  N   UNL A   1      42.927  32.848  32.622  1.00  0.00    -0.248 NA
ATOM     65  C   UNL A   1      41.311  32.280  34.205  1.00  0.00     0.031 C 
ATOM     66  C   UNL A   1      39.820  34.433  29.198  1.00  0.00     0.029 A 
ATOM     67  C   UNL A   1      40.268  34.375  30.518  1.00  0.00     0.049 A 
ATOM     68  H   UNL A   1      39.052  34.960  32.143  1.00  0.00     0.167 HD
ATOM     69  C   UNL A   1      41.766  33.546  32.316  1.00  0.00     0.074 A 
ATOM     70  C   UNL A   1      40.831  33.221  33.388  1.00  0.00     0.031 C 
ATOM     71  C   UNL A   1      41.569  34.097  31.082  1.00  0.00     0.037 A 
BRANCH  58  72
ATOM     72  C   UNL A   1      36.288  33.570  32.332  1.00  0.00     0.057 A 
ATOM     73  C   UNL A   1      35.245  34.466  32.051  1.00  0.00     0.134 A 
ATOM     74  C   UNL A   1      36.571  33.377  33.700  1.00  0.00     0.134 A 
ATOM     75  F   UNL A   1      34.913  34.757  30.784  1.00  0.00    -0.206 F 
ATOM     76  C   UNL A   1      34.557  35.148  33.060  1.00  0.00     0.040 A 
ATOM     77  C   UNL A   1      35.853  34.006  34.717  1.00  0.00     0.040 A 
ATOM     78  F   UNL A   1      37.616  32.648  34.116  1.00  0.00    -0.206 F 
ATOM     79  C   UNL A   1      34.858  34.916  34.397  1.00  0.00     0.006 A 
ENDBRANCH  58  72
BRANCH  59  80
ATOM     80  C   UNL A   1      43.705  30.050  34.871  1.00  0.00     0.057 A 
ATOM     81  C   UNL A   1      42.952  29.263  35.751  1.00  0.00     0.134 A 
ATOM     82  C   UNL A   1      45.094  30.071  35.101  1.00  0.00     0.134 A 
ATOM     83  F   UNL A   1      41.626  29.136  35.587  1.00  0.00    -0.206 F 
ATOM     84  C   UNL A   1      43.543  28.532  36.790  1.00  0.00     0.040 A 
ATOM     85  C   UNL A   1      45.695  29.360  36.143  1.00  0.00     0.040 A 
ATOM     86  F   UNL A   1      45.931  30.712  34.274  1.00  0.00    -0.206 F 
ATOM     87  C   UNL A   1      44.921  28.576  36.985  1.00  0.00     0.006 A 
ENDBRANCH  59  80
BRANCH  71  88
ATOM     88  C   UNL A   1      42.737  34.144  30.137  1.00  0.00     0.057 A 
ATOM     89  C   UNL A   1      43.099  33.076  29.303  1.00  0.00     0.134 A 
ATOM     90  C   UNL A   1      43.413  35.354  29.944  1.00  0.00     0.134 A 
ATOM     91  F   UNL A   1      42.432  31.915  29.336  1.00  0.00    -0.206 F 
ATOM     92  C   UNL A   1      44.122  33.191  28.356  1.00  0.00     0.040 A 
ATOM     93  C   UNL A   1      44.413  35.494  28.978  1.00  0.00     0.040 A 
ATOM     94  F   UNL A   1      43.075  36.440  30.658  1.00  0.00    -0.206 F 
ATOM     95  C   UNL A   1      44.779  34.406  28.188  1.00  0.00     0.006 A 
ENDBRANCH  71  88
ENDBRANCH  45  46
ENDBRANCH  38  40
ENDBRANCH  37  38
ENDBRANCH  36  37
ENDBRANCH  35  36
ENDBRANCH   1  35
TORSDOF 18
ENDMDL
MODEL 3
REMARK VINA RESULT:     -11.7      2.548      6.320
REMARK SMILES COc1ccc(-c2[nH]nc3nc(-c4ccc(C(F)(F)F)cc4)cc(C(=O)OCCOCCOC(=O)c4ccc(-c5c6nc(c(-c7c(F)cccc7F)c7ccc([nH]7)c(-c7c(F)cccc7F)c7nc(c(-c8c(F)cccc8F)c8ccc5[nH]8)C=C7)C=C6)cc4)c23)cc1
REMARK SMILES IDX 30 1 29 2 28 3 27 4 25 5 26 6 24 7 7 8 8 9 90 10 9 11 10 13
REMARK SMILES IDX 11 14 23 15 12 16 6 17 3 18 4 19 92 20 5 21 91 22 2 23 1 24
REMARK SMILES IDX 13 25 14 26 22 27 15 28 21 29 16 30 17 31 18 32 19 33 20 34
REMARK SMILES IDX 31 35 32 36 33 37 34 38 35 39 36 40 37 41 89 42 38 43 88 44
REMARK SMILES IDX 39 45 40 46 41 47 82 48 42 49 87 50 81 51 83 52 43 53 86 54
REMARK SMILES IDX 80 55 79 56 44 58 70 59 53 60 69 61 54 62 57 63 68 64 84 65
REMARK SMILES IDX 55 66 56 67 67 69 85 70 58 71 45 72 46 73 51 74 47 75 48 76
REMARK SMILES IDX 50 77 52 78 49 79 71 80 72 81 77 82 73 83 74 84 76 85 78 86
REMARK SMILES IDX 75 87 59 88 60 89 65 90 61 91 62 92 64 93 66 94 63 95
REMARK H PARENT 8 12 83 57 57 68
REMARK Flexibility Score: inf
ROOT
ATOM      1  O   UNL A   1      32.310  28.332  27.869  1.00  0.00    -0.374 OA
ENDROOT
BRANCH   1   2
ATOM      2  C   UNL A   1      31.178  27.596  27.396  1.00  0.00     0.202 C 
BRANCH   2   3
ATOM      3  C   UNL A   1      31.584  26.421  26.509  1.00  0.00     0.261 C 
BRANCH   3   4
ATOM      4  O   UNL A   1      30.457  25.542  26.348  1.00  0.00    -0.460 OA
BRANCH   4   5
ATOM      5  C   UNL A   1      29.891  25.539  25.113  1.00  0.00     0.339 C 
ATOM      6  O   UNL A   1      28.800  25.973  24.806  1.00  0.00    -0.246 OA
BRANCH   5   7
ATOM      7  C   UNL A   1      30.842  24.928  24.180  1.00  0.00     0.075 A 
ATOM      8  C   UNL A   1      31.217  26.761  22.470  1.00  0.00     0.075 A 
ATOM      9  N   UNL A   1      31.912  26.710  21.282  1.00  0.00    -0.275 N 
ATOM     10  C   UNL A   1      31.333  25.478  22.988  1.00  0.00     0.061 A 
ATOM     11  N   UNL A   1      32.560  25.556  21.057  1.00  0.00    -0.154 NA
ATOM     12  H   UNL A   1      31.931  27.462  20.647  1.00  0.00     0.190 HD
ATOM     13  C   UNL A   1      32.231  24.798  22.100  1.00  0.00     0.182 A 
ATOM     14  N   UNL A   1      32.701  23.551  22.347  1.00  0.00    -0.226 NA
ATOM     15  C   UNL A   1      31.364  23.643  24.415  1.00  0.00     0.045 A 
ATOM     16  C   UNL A   1      32.243  23.002  23.508  1.00  0.00     0.074 A 
BRANCH   8  17
ATOM     17  C   UNL A   1      30.682  28.034  22.949  1.00  0.00     0.001 A 
ATOM     18  C   UNL A   1      29.676  30.555  23.713  1.00  0.00     0.118 A 
ATOM     19  C   UNL A   1      30.819  30.025  24.317  1.00  0.00     0.047 A 
ATOM     20  C   UNL A   1      29.004  29.797  22.760  1.00  0.00     0.047 A 
ATOM     21  C   UNL A   1      31.322  28.773  23.939  1.00  0.00     0.014 A 
ATOM     22  C   UNL A   1      29.488  28.531  22.408  1.00  0.00     0.014 A 
BRANCH  18  23
ATOM     23  O   UNL A   1      29.323  31.807  24.137  1.00  0.00    -0.497 OA
ATOM     24  C   UNL A   1      28.694  32.657  23.184  1.00  0.00     0.278 C 
ENDBRANCH  18  23
ENDBRANCH   8  17
BRANCH  16  25
ATOM     25  C   UNL A   1      32.721  21.622  23.773  1.00  0.00     0.000 A 
ATOM     26  C   UNL A   1      33.757  21.369  24.688  1.00  0.00     0.011 A 
ATOM     27  C   UNL A   1      32.171  20.515  23.100  1.00  0.00     0.011 A 
ATOM     28  C   UNL A   1      34.224  20.067  24.923  1.00  0.00     0.014 A 
ATOM     29  C   UNL A   1      32.632  19.214  23.329  1.00  0.00     0.014 A 
ATOM     30  C   UNL A   1      33.668  18.977  24.241  1.00  0.00     0.056 A 
BRANCH  30  31
ATOM     31  C   UNL A   1      34.193  17.580  24.473  1.00  0.00     0.416 C 
ATOM     32  F   UNL A   1      33.725  17.030  25.627  1.00  0.00    -0.166 F 
ATOM     33  F   UNL A   1      33.841  16.719  23.478  1.00  0.00    -0.166 F 
ATOM     34  F   UNL A   1      35.552  17.517  24.554  1.00  0.00    -0.166 F 
ENDBRANCH  30  31
ENDBRANCH  16  25
ENDBRANCH   5   7
ENDBRANCH   4   5
ENDBRANCH   3   4
ENDBRANCH   2   3
ENDBRANCH   1   2
BRANCH   1  35
ATOM     35  C   UNL A   1      33.286  28.626  26.871  1.00  0.00     0.202 C 
BRANCH  35  36
ATOM     36  C   UNL A   1      33.681  30.097  26.925  1.00  0.00     0.261 C 
BRANCH  36  37
ATOM     37  O   UNL A   1      35.041  30.180  27.329  1.00  0.00    -0.460 OA
BRANCH  37  38
ATOM     38  C   UNL A   1      35.402  31.353  27.912  1.00  0.00     0.338 C 
ATOM     39  O   UNL A   1      35.031  32.467  27.669  1.00  0.00    -0.246 OA
BRANCH  38  40
ATOM     40  C   UNL A   1      36.418  30.959  28.897  1.00  0.00     0.060 A 
ATOM     41  C   UNL A   1      37.608  31.671  28.855  1.00  0.00     0.016 A 
ATOM     42  C   UNL A   1      36.280  29.737  29.583  1.00  0.00     0.016 A 
ATOM     43  C   UNL A   1      38.743  31.009  29.257  1.00  0.00     0.010 A 
ATOM     44  C   UNL A   1      37.415  29.074  29.974  1.00  0.00     0.010 A 
ATOM     45  C   UNL A   1      38.632  29.681  29.694  1.00  0.00    -0.014 A 
BRANCH  45  46
ATOM     46  C   UNL A   1      39.854  28.918  29.753  1.00  0.00     0.031 A 
ATOM     47  C   UNL A   1      40.442  28.794  31.095  1.00  0.00     0.074 A 
ATOM     48  C   UNL A   1      40.391  28.355  28.658  1.00  0.00     0.049 A 
ATOM     49  N   UNL A   1      41.539  29.318  31.526  1.00  0.00    -0.248 NA
ATOM     50  C   UNL A   1      39.646  28.100  32.114  1.00  0.00     0.031 C 
ATOM     51  C   UNL A   1      39.782  28.133  27.344  1.00  0.00     0.029 A 
ATOM     52  N   UNL A   1      41.607  27.765  28.542  1.00  0.00    -0.354 N 
ATOM     53  C   UNL A   1      41.663  28.886  32.838  1.00  0.00     0.074 A 
ATOM     54  C   UNL A   1      40.409  28.268  33.192  1.00  0.00     0.031 C 
ATOM     55  C   UNL A   1      40.551  27.264  26.649  1.00  0.00     0.029 A 
ATOM     56  C   UNL A   1      41.750  26.971  27.420  1.00  0.00     0.049 A 
ATOM     57  H   UNL A   1      42.328  27.892  29.202  1.00  0.00     0.167 HD
ATOM     58  C   UNL A   1      42.859  28.886  33.481  1.00  0.00     0.037 A 
ATOM     59  C   UNL A   1      42.736  26.062  27.226  1.00  0.00     0.037 A 
ATOM     60  C   UNL A   1      43.829  29.719  32.823  1.00  0.00     0.049 A 
ATOM     61  C   UNL A   1      43.857  26.410  28.141  1.00  0.00     0.074 A 
ATOM     62  C   UNL A   1      43.898  31.064  32.513  1.00  0.00     0.029 A 
ATOM     63  N   UNL A   1      44.796  29.113  32.058  1.00  0.00    -0.354 N 
ATOM     64  N   UNL A   1      44.613  27.467  28.010  1.00  0.00    -0.248 NA
ATOM     65  C   UNL A   1      43.867  25.807  29.468  1.00  0.00     0.031 C 
ATOM     66  C   UNL A   1      44.559  31.124  31.253  1.00  0.00     0.029 A 
ATOM     67  C   UNL A   1      44.871  29.815  30.882  1.00  0.00     0.049 A 
ATOM     68  H   UNL A   1      45.332  28.325  32.306  1.00  0.00     0.167 HD
ATOM     69  C   UNL A   1      44.862  27.896  29.307  1.00  0.00     0.074 A 
ATOM     70  C   UNL A   1      44.460  26.783  30.160  1.00  0.00     0.031 C 
ATOM     71  C   UNL A   1      45.104  29.210  29.591  1.00  0.00     0.037 A 
BRANCH  58  72
ATOM     72  C   UNL A   1      43.224  27.886  34.535  1.00  0.00     0.057 A 
ATOM     73  C   UNL A   1      43.434  26.544  34.180  1.00  0.00     0.134 A 
ATOM     74  C   UNL A   1      43.126  28.140  35.919  1.00  0.00     0.134 A 
ATOM     75  F   UNL A   1      43.505  26.178  32.891  1.00  0.00    -0.206 F 
ATOM     76  C   UNL A   1      43.508  25.524  35.135  1.00  0.00     0.040 A 
ATOM     77  C   UNL A   1      43.256  27.139  36.882  1.00  0.00     0.040 A 
ATOM     78  F   UNL A   1      42.804  29.348  36.401  1.00  0.00    -0.206 F 
ATOM     79  C   UNL A   1      43.422  25.821  36.490  1.00  0.00     0.006 A 
ENDBRANCH  58  72
BRANCH  59  80
ATOM     80  C   UNL A   1      42.619  24.745  26.559  1.00  0.00     0.057 A 
ATOM     81  C   UNL A   1      43.374  24.445  25.418  1.00  0.00     0.134 A 
ATOM     82  C   UNL A   1      41.956  23.658  27.160  1.00  0.00     0.134 A 
ATOM     83  F   UNL A   1      44.084  25.400  24.800  1.00  0.00    -0.206 F 
ATOM     84  C   UNL A   1      43.475  23.141  24.912  1.00  0.00     0.040 A 
ATOM     85  C   UNL A   1      42.034  22.357  26.657  1.00  0.00     0.040 A 
ATOM     86  F   UNL A   1      41.277  23.800  28.308  1.00  0.00    -0.206 F 
ATOM     87  C   UNL A   1      42.806  22.091  25.536  1.00  0.00     0.006 A 
ENDBRANCH  59  80
BRANCH  71  88
ATOM     88  C   UNL A   1      45.337  30.148  28.440  1.00  0.00     0.057 A 
ATOM     89  C   UNL A   1      44.303  30.806  27.757  1.00  0.00     0.134 A 
ATOM     90  C   UNL A   1      46.647  30.522  28.117  1.00  0.00     0.134 A 
ATOM     91  F   UNL A   1      43.020  30.597  28.077  1.00  0.00    -0.206 F 
ATOM     92  C   UNL A   1      44.561  31.756  26.764  1.00  0.00     0.040 A 
ATOM     93  C   UNL A   1      46.918  31.495  27.152  1.00  0.00     0.040 A 
ATOM     94  F   UNL A   1      47.686  29.985  28.775  1.00  0.00    -0.206 F 
ATOM     95  C   UNL A   1      45.873  32.107  26.462  1.00  0.00     0.006 A 
ENDBRANCH  71  88
ENDBRANCH  45  46
ENDBRANCH  38  40
ENDBRANCH  37  38
ENDBRANCH  36  37
ENDBRANCH  35  36
ENDBRANCH   1  35
TORSDOF 18
ENDMDL
