MODEL 1
REMARK VINA RESULT:      -9.8      0.000      0.000
REMARK SMILES CCC1CN(c2cccc(F)c2C(=O)OCCOCCOC(=O)c2ccc(-c3c4nc(c(-c5c(F)cccc5F)c5ccc([nH]5)c(-c5c(F)cccc5F)c5nc(c(-c6c(F)cccc6F)c6ccc3[nH]6)C=C5)C=C4)cc2)C1
REMARK SMILES IDX 18 1 17 2 16 3 15 4 13 5 14 6 12 7 6 8 7 9 8 10 10 11 9 12
REMARK SMILES IDX 11 13 5 14 3 15 4 16 78 17 2 18 1 19 19 20 20 21 21 22 22 23
REMARK SMILES IDX 23 24 24 25 25 26 77 27 26 28 76 29 27 30 28 31 29 32 70 33
REMARK SMILES IDX 30 34 75 35 69 36 71 37 31 38 74 39 68 40 67 41 32 43 58 44
REMARK SMILES IDX 41 45 57 46 42 47 45 48 56 49 72 50 43 51 44 52 55 54 73 55
REMARK SMILES IDX 46 56 33 57 34 58 39 59 35 60 36 61 38 62 40 63 37 64 59 65
REMARK SMILES IDX 60 66 65 67 61 68 62 69 64 70 66 71 63 72 47 73 48 74 53 75
REMARK SMILES IDX 49 76 50 77 52 78 54 79 51 80
REMARK H PARENT 71 42 45 53
REMARK Flexibility Score: inf
ROOT
ATOM      1  O   UNL A   1      38.150  21.830  24.902  1.00  0.00    -0.374 OA
ENDROOT
BRANCH   1   2
ATOM      2  C   UNL A   1      37.999  22.655  26.061  1.00  0.00     0.202 C 
BRANCH   2   3
ATOM      3  C   UNL A   1      37.044  23.843  25.928  1.00  0.00     0.261 C 
BRANCH   3   4
ATOM      4  O   UNL A   1      35.688  23.375  25.923  1.00  0.00    -0.460 OA
BRANCH   4   5
ATOM      5  C   UNL A   1      34.926  23.820  24.897  1.00  0.00     0.343 C 
ATOM      6  O   UNL A   1      35.271  23.936  23.730  1.00  0.00    -0.246 OA
BRANCH   5   7
ATOM      7  C   UNL A   1      33.553  24.041  25.385  1.00  0.00     0.119 A 
ATOM      8  C   UNL A   1      32.600  23.008  25.301  1.00  0.00     0.054 A 
ATOM      9  C   UNL A   1      31.280  23.286  25.690  1.00  0.00     0.027 A 
ATOM     10  C   UNL A   1      30.925  24.547  26.181  1.00  0.00     0.005 A 
ATOM     11  C   UNL A   1      33.197  25.291  25.891  1.00  0.00     0.139 A 
ATOM     12  C   UNL A   1      31.889  25.547  26.294  1.00  0.00     0.040 A 
ATOM     13  F   UNL A   1      34.096  26.281  25.986  1.00  0.00    -0.206 F 
BRANCH   8  14
ATOM     14  N   UNL A   1      32.962  21.720  24.874  1.00  0.00    -0.370 N 
ATOM     15  C   UNL A   1      32.599  19.707  24.538  1.00  0.00     0.028 C 
ATOM     16  C   UNL A   1      33.175  20.559  25.676  1.00  0.00     0.122 C 
ATOM     17  C   UNL A   1      32.560  21.002  23.711  1.00  0.00     0.122 C 
BRANCH  15  18
ATOM     18  C   UNL A   1      33.493  18.561  24.083  1.00  0.00     0.004 C 
ATOM     19  C   UNL A   1      32.761  17.659  23.105  1.00  0.00     0.004 C 
ENDBRANCH  15  18
ENDBRANCH   8  14
ENDBRANCH   5   7
ENDBRANCH   4   5
ENDBRANCH   3   4
ENDBRANCH   2   3
ENDBRANCH   1   2
BRANCH   1  20
ATOM     20  C   UNL A   1      37.752  20.465  25.012  1.00  0.00     0.202 C 
BRANCH  20  21
ATOM     21  C   UNL A   1      38.855  19.425  25.230  1.00  0.00     0.261 C 
BRANCH  21  22
ATOM     22  O   UNL A   1      39.662  19.695  26.383  1.00  0.00    -0.460 OA
BRANCH  22  23
ATOM     23  C   UNL A   1      40.993  19.680  26.144  1.00  0.00     0.338 C 
ATOM     24  O   UNL A   1      41.632  18.839  25.527  1.00  0.00    -0.246 OA
BRANCH  23  25
ATOM     25  C   UNL A   1      41.589  20.943  26.606  1.00  0.00     0.060 A 
ATOM     26  C   UNL A   1      41.620  21.177  27.987  1.00  0.00     0.016 A 
ATOM     27  C   UNL A   1      42.054  21.903  25.706  1.00  0.00     0.016 A 
ATOM     28  C   UNL A   1      42.074  22.399  28.472  1.00  0.00     0.010 A 
ATOM     29  C   UNL A   1      42.502  23.132  26.194  1.00  0.00     0.010 A 
ATOM     30  C   UNL A   1      42.479  23.396  27.575  1.00  0.00    -0.014 A 
BRANCH  30  31
ATOM     31  C   UNL A   1      42.740  24.764  28.074  1.00  0.00     0.031 A 
ATOM     32  C   UNL A   1      44.151  25.156  28.412  1.00  0.00     0.074 A 
ATOM     33  C   UNL A   1      41.738  25.650  28.193  1.00  0.00     0.049 A 
ATOM     34  N   UNL A   1      44.604  26.282  28.897  1.00  0.00    -0.248 NA
ATOM     35  C   UNL A   1      45.192  24.142  28.168  1.00  0.00     0.031 C 
ATOM     36  C   UNL A   1      40.341  25.393  27.850  1.00  0.00     0.029 A 
ATOM     37  N   UNL A   1      41.746  26.948  28.636  1.00  0.00    -0.354 N 
ATOM     38  C   UNL A   1      45.977  26.112  29.021  1.00  0.00     0.074 A 
ATOM     39  C   UNL A   1      46.281  24.766  28.590  1.00  0.00     0.031 C 
ATOM     40  C   UNL A   1      39.622  26.501  28.098  1.00  0.00     0.029 A 
ATOM     41  C   UNL A   1      40.502  27.530  28.648  1.00  0.00     0.049 A 
ATOM     42  H   UNL A   1      42.564  27.417  28.918  1.00  0.00     0.167 HD
ATOM     43  C   UNL A   1      46.900  27.006  29.443  1.00  0.00     0.037 A 
ATOM     44  C   UNL A   1      40.119  28.749  29.074  1.00  0.00     0.037 A 
ATOM     45  C   UNL A   1      46.588  28.346  29.865  1.00  0.00     0.049 A 
ATOM     46  C   UNL A   1      41.153  29.698  29.614  1.00  0.00     0.074 A 
ATOM     47  C   UNL A   1      47.454  29.334  30.301  1.00  0.00     0.029 A 
ATOM     48  N   UNL A   1      45.311  28.884  29.907  1.00  0.00    -0.354 N 
ATOM     49  N   UNL A   1      42.450  29.534  29.721  1.00  0.00    -0.248 NA
ATOM     50  C   UNL A   1      40.674  31.003  30.093  1.00  0.00     0.031 C 
ATOM     51  C   UNL A   1      46.695  30.453  30.654  1.00  0.00     0.029 A 
ATOM     52  C   UNL A   1      45.363  30.182  30.385  1.00  0.00     0.049 A 
ATOM     53  H   UNL A   1      44.490  28.413  29.636  1.00  0.00     0.167 HD
ATOM     54  C   UNL A   1      42.943  30.718  30.254  1.00  0.00     0.074 A 
ATOM     55  C   UNL A   1      41.808  31.598  30.441  1.00  0.00     0.031 C 
ATOM     56  C   UNL A   1      44.222  31.047  30.559  1.00  0.00     0.037 A 
BRANCH  43  57
ATOM     57  C   UNL A   1      48.333  26.567  29.484  1.00  0.00     0.057 A 
ATOM     58  C   UNL A   1      48.864  25.970  30.635  1.00  0.00     0.134 A 
ATOM     59  C   UNL A   1      49.205  26.790  28.411  1.00  0.00     0.134 A 
ATOM     60  F   UNL A   1      48.084  25.731  31.699  1.00  0.00    -0.206 F 
ATOM     61  C   UNL A   1      50.213  25.627  30.723  1.00  0.00     0.040 A 
ATOM     62  C   UNL A   1      50.551  26.428  28.478  1.00  0.00     0.040 A 
ATOM     63  F   UNL A   1      48.755  27.344  27.274  1.00  0.00    -0.206 F 
ATOM     64  C   UNL A   1      51.061  25.854  29.640  1.00  0.00     0.006 A 
ENDBRANCH  43  57
BRANCH  44  65
ATOM     65  C   UNL A   1      38.687  29.135  29.003  1.00  0.00     0.057 A 
ATOM     66  C   UNL A   1      37.841  29.008  30.111  1.00  0.00     0.134 A 
ATOM     67  C   UNL A   1      38.127  29.619  27.816  1.00  0.00     0.134 A 
ATOM     68  F   UNL A   1      38.317  28.548  31.279  1.00  0.00    -0.206 F 
ATOM     69  C   UNL A   1      36.485  29.330  30.037  1.00  0.00     0.040 A 
ATOM     70  C   UNL A   1      36.777  29.967  27.734  1.00  0.00     0.040 A 
ATOM     71  F   UNL A   1      38.892  29.782  26.727  1.00  0.00    -0.206 F 
ATOM     72  C   UNL A   1      35.950  29.814  28.845  1.00  0.00     0.006 A 
ENDBRANCH  44  65
BRANCH  56  73
ATOM     73  C   UNL A   1      44.480  32.420  31.105  1.00  0.00     0.057 A 
ATOM     74  C   UNL A   1      44.429  32.660  32.485  1.00  0.00     0.134 A 
ATOM     75  C   UNL A   1      44.686  33.520  30.264  1.00  0.00     0.134 A 
ATOM     76  F   UNL A   1      44.222  31.650  33.344  1.00  0.00    -0.206 F 
ATOM     77  C   UNL A   1      44.557  33.947  33.008  1.00  0.00     0.040 A 
ATOM     78  C   UNL A   1      44.841  34.809  30.777  1.00  0.00     0.040 A 
ATOM     79  F   UNL A   1      44.753  33.356  28.934  1.00  0.00    -0.206 F 
ATOM     80  C   UNL A   1      44.765  35.026  32.152  1.00  0.00     0.006 A 
ENDBRANCH  56  73
ENDBRANCH  30  31
ENDBRANCH  23  25
ENDBRANCH  22  23
ENDBRANCH  21  22
ENDBRANCH  20  21
ENDBRANCH   1  20
TORSDOF 16
ENDMDL
MODEL 2
REMARK VINA RESULT:      -9.8      4.848      9.472
REMARK SMILES CCC1CN(c2cccc(F)c2C(=O)OCCOCCOC(=O)c2ccc(-c3c4nc(c(-c5c(F)cccc5F)c5ccc([nH]5)c(-c5c(F)cccc5F)c5nc(c(-c6c(F)cccc6F)c6ccc3[nH]6)C=C5)C=C4)cc2)C1
REMARK SMILES IDX 18 1 17 2 16 3 15 4 13 5 14 6 12 7 6 8 7 9 8 10 10 11 9 12
REMARK SMILES IDX 11 13 5 14 3 15 4 16 78 17 2 18 1 19 19 20 20 21 21 22 22 23
REMARK SMILES IDX 23 24 24 25 25 26 77 27 26 28 76 29 27 30 28 31 29 32 70 33
REMARK SMILES IDX 30 34 75 35 69 36 71 37 31 38 74 39 68 40 67 41 32 43 58 44
REMARK SMILES IDX 41 45 57 46 42 47 45 48 56 49 72 50 43 51 44 52 55 54 73 55
REMARK SMILES IDX 46 56 33 57 34 58 39 59 35 60 36 61 38 62 40 63 37 64 59 65
REMARK SMILES IDX 60 66 65 67 61 68 62 69 64 70 66 71 63 72 47 73 48 74 53 75
REMARK SMILES IDX 49 76 50 77 52 78 54 79 51 80
REMARK H PARENT 71 42 45 53
REMARK Flexibility Score: inf
ROOT
ATOM      1  O   UNL A   1      32.858  30.746  27.588  1.00  0.00    -0.374 OA
ENDROOT
BRANCH   1   2
ATOM      2  C   UNL A   1      33.875  29.990  26.926  1.00  0.00     0.202 C 
BRANCH   2   3
ATOM      3  C   UNL A   1      33.652  28.478  26.845  1.00  0.00     0.261 C 
BRANCH   3   4
ATOM      4  O   UNL A   1      32.410  28.207  26.183  1.00  0.00    -0.460 OA
BRANCH   4   5
ATOM      5  C   UNL A   1      32.064  26.901  26.111  1.00  0.00     0.343 C 
ATOM      6  O   UNL A   1      31.328  26.298  26.879  1.00  0.00    -0.246 OA
BRANCH   5   7
ATOM      7  C   UNL A   1      32.629  26.327  24.877  1.00  0.00     0.119 A 
ATOM      8  C   UNL A   1      32.083  26.670  23.625  1.00  0.00     0.054 A 
ATOM      9  C   UNL A   1      32.587  26.032  22.481  1.00  0.00     0.027 A 
ATOM     10  C   UNL A   1      33.629  25.102  22.575  1.00  0.00     0.005 A 
ATOM     11  C   UNL A   1      33.679  25.412  24.962  1.00  0.00     0.139 A 
ATOM     12  C   UNL A   1      34.184  24.803  23.817  1.00  0.00     0.040 A 
ATOM     13  F   UNL A   1      34.215  25.083  26.146  1.00  0.00    -0.206 F 
BRANCH   8  14
ATOM     14  N   UNL A   1      31.085  27.651  23.514  1.00  0.00    -0.370 N 
ATOM     15  C   UNL A   1      29.671  28.748  22.467  1.00  0.00     0.028 C 
ATOM     16  C   UNL A   1      31.155  28.898  22.822  1.00  0.00     0.122 C 
ATOM     17  C   UNL A   1      29.675  27.501  23.367  1.00  0.00     0.122 C 
BRANCH  15  18
ATOM     18  C   UNL A   1      28.799  29.937  22.851  1.00  0.00     0.004 C 
ATOM     19  C   UNL A   1      28.024  30.451  21.650  1.00  0.00     0.004 C 
ENDBRANCH  15  18
ENDBRANCH   8  14
ENDBRANCH   5   7
ENDBRANCH   4   5
ENDBRANCH   3   4
ENDBRANCH   2   3
ENDBRANCH   1   2
BRANCH   1  20
ATOM     20  C   UNL A   1      31.993  31.535  26.774  1.00  0.00     0.202 C 
BRANCH  20  21
ATOM     21  C   UNL A   1      31.835  33.014  27.141  1.00  0.00     0.261 C 
BRANCH  21  22
ATOM     22  O   UNL A   1      33.085  33.710  27.219  1.00  0.00    -0.460 OA
BRANCH  22  23
ATOM     23  C   UNL A   1      33.240  34.446  28.344  1.00  0.00     0.338 C 
ATOM     24  O   UNL A   1      32.527  35.355  28.746  1.00  0.00    -0.246 OA
BRANCH  23  25
ATOM     25  C   UNL A   1      34.340  33.889  29.146  1.00  0.00     0.060 A 
ATOM     26  C   UNL A   1      35.649  34.201  28.755  1.00  0.00     0.016 A 
ATOM     27  C   UNL A   1      34.098  33.035  30.223  1.00  0.00     0.016 A 
ATOM     28  C   UNL A   1      36.726  33.615  29.413  1.00  0.00     0.010 A 
ATOM     29  C   UNL A   1      35.180  32.442  30.877  1.00  0.00     0.010 A 
ATOM     30  C   UNL A   1      36.494  32.703  30.451  1.00  0.00    -0.014 A 
BRANCH  30  31
ATOM     31  C   UNL A   1      37.621  31.912  30.991  1.00  0.00     0.031 A 
ATOM     32  C   UNL A   1      38.078  32.170  32.399  1.00  0.00     0.074 A 
ATOM     33  C   UNL A   1      38.204  30.957  30.248  1.00  0.00     0.049 A 
ATOM     34  N   UNL A   1      39.064  31.625  33.063  1.00  0.00    -0.248 NA
ATOM     35  C   UNL A   1      37.322  33.177  33.163  1.00  0.00     0.031 C 
ATOM     36  C   UNL A   1      37.811  30.591  28.888  1.00  0.00     0.029 A 
ATOM     37  N   UNL A   1      39.253  30.123  30.535  1.00  0.00    -0.354 N 
ATOM     38  C   UNL A   1      39.050  32.223  34.316  1.00  0.00     0.074 A 
ATOM     39  C   UNL A   1      37.978  33.194  34.313  1.00  0.00     0.031 C 
ATOM     40  C   UNL A   1      38.613  29.603  28.456  1.00  0.00     0.029 A 
ATOM     41  C   UNL A   1      39.594  29.293  29.495  1.00  0.00     0.049 A 
ATOM     42  H   UNL A   1      39.717  30.118  31.403  1.00  0.00     0.167 HD
ATOM     43  C   UNL A   1      39.850  31.972  35.377  1.00  0.00     0.037 A 
ATOM     44  C   UNL A   1      40.597  28.401  29.390  1.00  0.00     0.037 A 
ATOM     45  C   UNL A   1      40.911  30.999  35.372  1.00  0.00     0.049 A 
ATOM     46  C   UNL A   1      41.524  28.195  30.556  1.00  0.00     0.074 A 
ATOM     47  C   UNL A   1      41.773  30.662  36.401  1.00  0.00     0.029 A 
ATOM     48  N   UNL A   1      41.255  30.211  34.285  1.00  0.00    -0.354 N 
ATOM     49  N   UNL A   1      41.500  28.758  31.740  1.00  0.00    -0.248 NA
ATOM     50  C   UNL A   1      42.619  27.230  30.375  1.00  0.00     0.031 C 
ATOM     51  C   UNL A   1      42.670  29.705  35.920  1.00  0.00     0.029 A 
ATOM     52  C   UNL A   1      42.333  29.405  34.610  1.00  0.00     0.049 A 
ATOM     53  H   UNL A   1      40.800  30.222  33.412  1.00  0.00     0.167 HD
ATOM     54  C   UNL A   1      42.555  28.202  32.451  1.00  0.00     0.074 A 
ATOM     55  C   UNL A   1      43.197  27.248  31.569  1.00  0.00     0.031 C 
ATOM     56  C   UNL A   1      42.956  28.457  33.721  1.00  0.00     0.037 A 
BRANCH  43  57
ATOM     57  C   UNL A   1      39.624  32.766  36.628  1.00  0.00     0.057 A 
ATOM     58  C   UNL A   1      38.624  32.396  37.537  1.00  0.00     0.134 A 
ATOM     59  C   UNL A   1      40.348  33.932  36.903  1.00  0.00     0.134 A 
ATOM     60  F   UNL A   1      37.891  31.292  37.331  1.00  0.00    -0.206 F 
ATOM     61  C   UNL A   1      38.343  33.166  38.666  1.00  0.00     0.040 A 
ATOM     62  C   UNL A   1      40.093  34.697  38.043  1.00  0.00     0.040 A 
ATOM     63  F   UNL A   1      41.329  34.333  36.080  1.00  0.00    -0.206 F 
ATOM     64  C   UNL A   1      39.081  34.320  38.923  1.00  0.00     0.006 A 
ENDBRANCH  43  57
BRANCH  44  65
ATOM     65  C   UNL A   1      40.769  27.635  28.129  1.00  0.00     0.057 A 
ATOM     66  C   UNL A   1      40.173  26.381  27.950  1.00  0.00     0.134 A 
ATOM     67  C   UNL A   1      41.555  28.131  27.083  1.00  0.00     0.134 A 
ATOM     68  F   UNL A   1      39.408  25.849  28.915  1.00  0.00    -0.206 F 
ATOM     69  C   UNL A   1      40.366  25.640  26.783  1.00  0.00     0.040 A 
ATOM     70  C   UNL A   1      41.738  27.411  25.902  1.00  0.00     0.040 A 
ATOM     71  F   UNL A   1      42.135  29.336  27.189  1.00  0.00    -0.206 F 
ATOM     72  C   UNL A   1      41.150  26.156  25.753  1.00  0.00     0.006 A 
ENDBRANCH  44  65
BRANCH  56  73
ATOM     73  C   UNL A   1      44.125  27.683  34.253  1.00  0.00     0.057 A 
ATOM     74  C   UNL A   1      43.933  26.448  34.887  1.00  0.00     0.134 A 
ATOM     75  C   UNL A   1      45.426  28.199  34.222  1.00  0.00     0.134 A 
ATOM     76  F   UNL A   1      42.709  25.904  34.962  1.00  0.00    -0.206 F 
ATOM     77  C   UNL A   1      44.990  25.762  35.485  1.00  0.00     0.040 A 
ATOM     78  C   UNL A   1      46.497  27.509  34.794  1.00  0.00     0.040 A 
ATOM     79  F   UNL A   1      45.677  29.373  33.623  1.00  0.00    -0.206 F 
ATOM     80  C   UNL A   1      46.277  26.293  35.438  1.00  0.00     0.006 A 
ENDBRANCH  56  73
ENDBRANCH  30  31
ENDBRANCH  23  25
ENDBRANCH  22  23
ENDBRANCH  21  22
ENDBRANCH  20  21
ENDBRANCH   1  20
TORSDOF 16
ENDMDL
MODEL 3
REMARK VINA RESULT:      -9.7      1.732      2.468
REMARK SMILES CCC1CN(c2cccc(F)c2C(=O)OCCOCCOC(=O)c2ccc(-c3c4nc(c(-c5c(F)cccc5F)c5ccc([nH]5)c(-c5c(F)cccc5F)c5nc(c(-c6c(F)cccc6F)c6ccc3[nH]6)C=C5)C=C4)cc2)C1
REMARK SMILES IDX 18 1 17 2 16 3 15 4 13 5 14 6 12 7 6 8 7 9 8 10 10 11 9 12
REMARK SMILES IDX 11 13 5 14 3 15 4 16 78 17 2 18 1 19 19 20 20 21 21 22 22 23
REMARK SMILES IDX 23 24 24 25 25 26 77 27 26 28 76 29 27 30 28 31 29 32 70 33
REMARK SMILES IDX 30 34 75 35 69 36 71 37 31 38 74 39 68 40 67 41 32 43 58 44
REMARK SMILES IDX 41 45 57 46 42 47 45 48 56 49 72 50 43 51 44 52 55 54 73 55
REMARK SMILES IDX 46 56 33 57 34 58 39 59 35 60 36 61 38 62 40 63 37 64 59 65
REMARK SMILES IDX 60 66 65 67 61 68 62 69 64 70 66 71 63 72 47 73 48 74 53 75
REMARK SMILES IDX 49 76 50 77 52 78 54 79 51 80
REMARK H PARENT 71 42 45 53
REMARK Flexibility Score: inf
ROOT
ATOM      1  O   UNL A   1      38.371  21.294  25.412  1.00  0.00    -0.374 OA
ENDROOT
BRANCH   1   2
ATOM      2  C   UNL A   1      37.380  21.967  24.632  1.00  0.00     0.202 C 
BRANCH   2   3
ATOM      3  C   UNL A   1      36.192  22.550  25.399  1.00  0.00     0.261 C 
BRANCH   3   4
ATOM      4  O   UNL A   1      35.851  23.835  24.861  1.00  0.00    -0.460 OA
BRANCH   4   5
ATOM      5  C   UNL A   1      34.764  23.856  24.056  1.00  0.00     0.343 C 
ATOM      6  O   UNL A   1      34.741  23.619  22.857  1.00  0.00    -0.246 OA
BRANCH   5   7
ATOM      7  C   UNL A   1      33.567  24.101  24.879  1.00  0.00     0.119 A 
ATOM      8  C   UNL A   1      32.662  23.054  25.138  1.00  0.00     0.054 A 
ATOM      9  C   UNL A   1      31.487  23.348  25.848  1.00  0.00     0.027 A 
ATOM     10  C   UNL A   1      31.235  24.642  26.317  1.00  0.00     0.005 A 
ATOM     11  C   UNL A   1      33.318  25.385  25.365  1.00  0.00     0.139 A 
ATOM     12  C   UNL A   1      32.159  25.658  26.086  1.00  0.00     0.040 A 
ATOM     13  F   UNL A   1      34.175  26.390  25.135  1.00  0.00    -0.206 F 
BRANCH   8  14
ATOM     14  N   UNL A   1      32.939  21.739  24.730  1.00  0.00    -0.370 N 
ATOM     15  C   UNL A   1      32.458  19.741  24.460  1.00  0.00     0.028 C 
ATOM     16  C   UNL A   1      33.122  20.587  25.553  1.00  0.00     0.122 C 
ATOM     17  C   UNL A   1      32.455  21.016  23.602  1.00  0.00     0.122 C 
BRANCH  15  18
ATOM     18  C   UNL A   1      33.273  18.538  23.999  1.00  0.00     0.004 C 
ATOM     19  C   UNL A   1      32.585  17.827  22.848  1.00  0.00     0.004 C 
ENDBRANCH  15  18
ENDBRANCH   8  14
ENDBRANCH   5   7
ENDBRANCH   4   5
ENDBRANCH   3   4
ENDBRANCH   2   3
ENDBRANCH   1   2
BRANCH   1  20
ATOM     20  C   UNL A   1      38.617  19.920  25.117  1.00  0.00     0.202 C 
BRANCH  20  21
ATOM     21  C   UNL A   1      39.670  19.196  25.962  1.00  0.00     0.261 C 
BRANCH  21  22
ATOM     22  O   UNL A   1      40.980  19.236  25.382  1.00  0.00    -0.460 OA
BRANCH  22  23
ATOM     23  C   UNL A   1      41.973  19.467  26.272  1.00  0.00     0.338 C 
ATOM     24  O   UNL A   1      42.844  18.690  26.636  1.00  0.00    -0.246 OA
BRANCH  23  25
ATOM     25  C   UNL A   1      41.970  20.888  26.652  1.00  0.00     0.060 A 
ATOM     26  C   UNL A   1      41.812  21.832  25.628  1.00  0.00     0.016 A 
ATOM     27  C   UNL A   1      42.176  21.291  27.972  1.00  0.00     0.016 A 
ATOM     28  C   UNL A   1      41.909  23.189  25.917  1.00  0.00     0.010 A 
ATOM     29  C   UNL A   1      42.281  22.653  28.258  1.00  0.00     0.010 A 
ATOM     30  C   UNL A   1      42.183  23.603  27.226  1.00  0.00    -0.014 A 
BRANCH  30  31
ATOM     31  C   UNL A   1      42.513  25.021  27.489  1.00  0.00     0.031 A 
ATOM     32  C   UNL A   1      43.858  25.543  27.068  1.00  0.00     0.074 A 
ATOM     33  C   UNL A   1      41.613  25.836  28.063  1.00  0.00     0.049 A 
ATOM     34  N   UNL A   1      44.371  26.734  27.230  1.00  0.00    -0.248 NA
ATOM     35  C   UNL A   1      44.742  24.595  26.369  1.00  0.00     0.031 C 
ATOM     36  C   UNL A   1      40.263  25.449  28.469  1.00  0.00     0.029 A 
ATOM     37  N   UNL A   1      41.703  27.161  28.406  1.00  0.00    -0.354 N 
ATOM     38  C   UNL A   1      45.636  26.679  26.660  1.00  0.00     0.074 A 
ATOM     39  C   UNL A   1      45.827  25.329  26.175  1.00  0.00     0.031 C 
ATOM     40  C   UNL A   1      39.649  26.515  29.009  1.00  0.00     0.029 A 
ATOM     41  C   UNL A   1      40.574  27.648  29.018  1.00  0.00     0.049 A 
ATOM     42  H   UNL A   1      42.500  27.711  28.229  1.00  0.00     0.167 HD
ATOM     43  C   UNL A   1      46.549  27.670  26.540  1.00  0.00     0.037 A 
ATOM     44  C   UNL A   1      40.327  28.863  29.541  1.00  0.00     0.037 A 
ATOM     45  C   UNL A   1      46.349  29.011  27.021  1.00  0.00     0.049 A 
ATOM     46  C   UNL A   1      41.388  29.927  29.466  1.00  0.00     0.074 A 
ATOM     47  C   UNL A   1      47.210  30.091  26.939  1.00  0.00     0.029 A 
ATOM     48  N   UNL A   1      45.210  29.453  27.677  1.00  0.00    -0.354 N 
ATOM     49  N   UNL A   1      42.578  29.869  28.919  1.00  0.00    -0.248 NA
ATOM     50  C   UNL A   1      41.074  31.225  30.082  1.00  0.00     0.031 C 
ATOM     51  C   UNL A   1      46.611  31.174  27.589  1.00  0.00     0.029 A 
ATOM     52  C   UNL A   1      45.355  30.784  28.027  1.00  0.00     0.049 A 
ATOM     53  H   UNL A   1      44.416  28.902  27.865  1.00  0.00     0.167 HD
ATOM     54  C   UNL A   1      43.144  31.124  29.101  1.00  0.00     0.074 A 
ATOM     55  C   UNL A   1      42.164  31.928  29.802  1.00  0.00     0.031 C 
ATOM     56  C   UNL A   1      44.366  31.571  28.720  1.00  0.00     0.037 A 
BRANCH  43  57
ATOM     57  C   UNL A   1      47.853  27.343  25.876  1.00  0.00     0.057 A 
ATOM     58  C   UNL A   1      47.977  27.400  24.481  1.00  0.00     0.134 A 
ATOM     59  C   UNL A   1      48.966  26.910  26.606  1.00  0.00     0.134 A 
ATOM     60  F   UNL A   1      46.948  27.804  23.722  1.00  0.00    -0.206 F 
ATOM     61  C   UNL A   1      49.157  27.024  23.838  1.00  0.00     0.040 A 
ATOM     62  C   UNL A   1      50.160  26.555  25.976  1.00  0.00     0.040 A 
ATOM     63  F   UNL A   1      48.917  26.847  27.946  1.00  0.00    -0.206 F 
ATOM     64  C   UNL A   1      50.254  26.602  24.586  1.00  0.00     0.006 A 
ENDBRANCH  43  57
BRANCH  44  65
ATOM     65  C   UNL A   1      39.014  29.134  30.180  1.00  0.00     0.057 A 
ATOM     66  C   UNL A   1      37.952  29.690  29.458  1.00  0.00     0.134 A 
ATOM     67  C   UNL A   1      38.799  28.861  31.536  1.00  0.00     0.134 A 
ATOM     68  F   UNL A   1      38.094  29.975  28.155  1.00  0.00    -0.206 F 
ATOM     69  C   UNL A   1      36.729  29.985  30.065  1.00  0.00     0.040 A 
ATOM     70  C   UNL A   1      37.575  29.130  32.150  1.00  0.00     0.040 A 
ATOM     71  F   UNL A   1      39.773  28.309  32.275  1.00  0.00    -0.206 F 
ATOM     72  C   UNL A   1      36.538  29.702  31.416  1.00  0.00     0.006 A 
ENDBRANCH  44  65
BRANCH  56  73
ATOM     73  C   UNL A   1      44.714  32.998  29.024  1.00  0.00     0.057 A 
ATOM     74  C   UNL A   1      45.288  33.344  30.254  1.00  0.00     0.134 A 
ATOM     75  C   UNL A   1      44.400  34.037  28.141  1.00  0.00     0.134 A 
ATOM     76  F   UNL A   1      45.602  32.396  31.151  1.00  0.00    -0.206 F 
ATOM     77  C   UNL A   1      45.521  34.675  30.603  1.00  0.00     0.040 A 
ATOM     78  C   UNL A   1      44.652  35.372  28.468  1.00  0.00     0.040 A 
ATOM     79  F   UNL A   1      43.856  33.772  26.944  1.00  0.00    -0.206 F 
ATOM     80  C   UNL A   1      45.203  35.693  29.707  1.00  0.00     0.006 A 
ENDBRANCH  56  73
ENDBRANCH  30  31
ENDBRANCH  23  25
ENDBRANCH  22  23
ENDBRANCH  21  22
ENDBRANCH  20  21
ENDBRANCH   1  20
TORSDOF 16
ENDMDL
