MODEL 1
REMARK VINA RESULT:     -12.0      0.000      0.000
REMARK SMILES O=C(OCCOCCOC(=O)[C@H]1C[C@H](O)CN1S(=O)(=O)c1ccc2c(c1)OCCO2)c1ccc(-c2c3nc(c(-c4c(F)cccc4F)c4ccc([nH]4)c(-c4c(F)cccc4F)c4nc(c(-c5c(F)cccc5F)c5ccc2[nH]5)C=C4)C=C3)cc1
REMARK SMILES IDX 6 1 5 2 4 3 3 4 2 5 1 6 31 7 32 8 84 9 33 10 83 11 34 12
REMARK SMILES IDX 35 13 36 14 77 15 37 16 82 17 76 18 78 19 38 20 81 21 75 22
REMARK SMILES IDX 74 23 39 25 65 26 48 27 64 28 49 29 52 30 63 31 79 32 50 33
REMARK SMILES IDX 51 34 62 36 80 37 53 38 40 39 41 40 46 41 42 42 43 43 45 44
REMARK SMILES IDX 47 45 44 46 66 47 67 48 72 49 68 50 69 51 71 52 73 53 70 54
REMARK SMILES IDX 54 55 55 56 60 57 56 58 57 59 59 60 61 61 58 62 7 63 8 64
REMARK SMILES IDX 9 65 10 66 11 67 12 68 13 69 17 70 14 71 16 72 18 73 19 74
REMARK SMILES IDX 20 75 21 76 22 77 26 78 23 79 25 80 24 81 27 82 30 83 28 84
REMARK SMILES IDX 29 85 15 86
REMARK H PARENT 78 24 52 35 15 87
REMARK Flexibility Score: inf
ROOT
ATOM      1  O   UNL A   1      31.423  30.267  25.487  1.00  0.00    -0.374 OA
ENDROOT
BRANCH   1   2
ATOM      2  C   UNL A   1      32.091  30.954  26.545  1.00  0.00     0.202 C 
BRANCH   2   3
ATOM      3  C   UNL A   1      31.486  32.302  26.954  1.00  0.00     0.261 C 
BRANCH   3   4
ATOM      4  O   UNL A   1      32.504  33.322  27.009  1.00  0.00    -0.460 OA
BRANCH   4   5
ATOM      5  C   UNL A   1      33.132  33.841  28.091  1.00  0.00     0.338 C 
ATOM      6  O   UNL A   1      32.674  34.847  28.626  1.00  0.00    -0.246 OA
BRANCH   5   7
ATOM      7  C   UNL A   1      34.383  33.259  28.656  1.00  0.00     0.060 A 
ATOM      8  C   UNL A   1      34.486  31.941  29.076  1.00  0.00     0.016 A 
ATOM      9  C   UNL A   1      35.546  34.041  28.691  1.00  0.00     0.016 A 
ATOM     10  C   UNL A   1      35.660  31.369  29.476  1.00  0.00     0.010 A 
ATOM     11  C   UNL A   1      36.757  33.488  29.128  1.00  0.00     0.010 A 
ATOM     12  C   UNL A   1      36.801  32.142  29.503  1.00  0.00    -0.014 A 
BRANCH  12  13
ATOM     13  C   UNL A   1      37.929  31.477  30.146  1.00  0.00     0.031 A 
ATOM     14  C   UNL A   1      38.072  31.670  31.618  1.00  0.00     0.074 A 
ATOM     15  C   UNL A   1      38.562  30.501  29.473  1.00  0.00     0.049 A 
ATOM     16  N   UNL A   1      38.977  31.203  32.426  1.00  0.00    -0.248 NA
ATOM     17  C   UNL A   1      37.024  32.474  32.278  1.00  0.00     0.031 C 
ATOM     18  C   UNL A   1      38.252  30.081  28.098  1.00  0.00     0.029 A 
ATOM     19  N   UNL A   1      39.545  29.641  29.868  1.00  0.00    -0.354 N 
ATOM     20  C   UNL A   1      38.646  31.703  33.676  1.00  0.00     0.074 A 
ATOM     21  C   UNL A   1      37.440  32.484  33.534  1.00  0.00     0.031 C 
ATOM     22  C   UNL A   1      39.036  29.042  27.770  1.00  0.00     0.029 A 
ATOM     23  C   UNL A   1      39.954  28.791  28.870  1.00  0.00     0.049 A 
ATOM     24  H   UNL A   1      39.923  29.632  30.776  1.00  0.00     0.167 HD
ATOM     25  C   UNL A   1      39.328  31.533  34.829  1.00  0.00     0.037 A 
ATOM     26  C   UNL A   1      41.006  27.955  28.853  1.00  0.00     0.037 A 
ATOM     27  C   UNL A   1      40.525  30.743  34.894  1.00  0.00     0.049 A 
ATOM     28  C   UNL A   1      41.846  27.908  30.100  1.00  0.00     0.074 A 
ATOM     29  C   UNL A   1      41.397  30.568  35.947  1.00  0.00     0.029 A 
ATOM     30  N   UNL A   1      41.012  29.988  33.830  1.00  0.00    -0.354 N 
ATOM     31  N   UNL A   1      41.639  28.498  31.256  1.00  0.00    -0.248 NA
ATOM     32  C   UNL A   1      43.072  27.110  30.040  1.00  0.00     0.031 C 
ATOM     33  C   UNL A   1      42.442  29.750  35.503  1.00  0.00     0.029 A 
ATOM     34  C   UNL A   1      42.186  29.361  34.193  1.00  0.00     0.049 A 
ATOM     35  H   UNL A   1      40.581  29.912  32.948  1.00  0.00     0.167 HD
ATOM     36  C   UNL A   1      42.696  28.128  32.071  1.00  0.00     0.074 A 
ATOM     37  C   UNL A   1      43.532  27.245  31.275  1.00  0.00     0.031 C 
ATOM     38  C   UNL A   1      42.964  28.481  33.353  1.00  0.00     0.037 A 
BRANCH  25  39
ATOM     39  C   UNL A   1      38.856  32.319  36.012  1.00  0.00     0.057 A 
ATOM     40  C   UNL A   1      39.221  33.654  36.231  1.00  0.00     0.134 A 
ATOM     41  C   UNL A   1      38.091  31.691  37.004  1.00  0.00     0.134 A 
ATOM     42  F   UNL A   1      39.992  34.303  35.344  1.00  0.00    -0.206 F 
ATOM     43  C   UNL A   1      38.867  34.325  37.404  1.00  0.00     0.040 A 
ATOM     44  C   UNL A   1      37.710  32.358  38.168  1.00  0.00     0.040 A 
ATOM     45  F   UNL A   1      37.726  30.406  36.870  1.00  0.00    -0.206 F 
ATOM     46  C   UNL A   1      38.106  33.676  38.375  1.00  0.00     0.006 A 
ENDBRANCH  25  39
BRANCH  26  47
ATOM     47  C   UNL A   1      41.370  27.209  27.621  1.00  0.00     0.057 A 
ATOM     48  C   UNL A   1      40.971  25.884  27.420  1.00  0.00     0.134 A 
ATOM     49  C   UNL A   1      42.158  27.797  26.619  1.00  0.00     0.134 A 
ATOM     50  F   UNL A   1      40.229  25.255  28.343  1.00  0.00    -0.206 F 
ATOM     51  C   UNL A   1      41.359  25.164  26.286  1.00  0.00     0.040 A 
ATOM     52  C   UNL A   1      42.528  27.100  25.468  1.00  0.00     0.040 A 
ATOM     53  F   UNL A   1      42.580  29.064  26.742  1.00  0.00    -0.206 F 
ATOM     54  C   UNL A   1      42.138  25.775  25.304  1.00  0.00     0.006 A 
ENDBRANCH  26  47
BRANCH  38  55
ATOM     55  C   UNL A   1      44.180  27.865  33.972  1.00  0.00     0.057 A 
ATOM     56  C   UNL A   1      45.431  28.489  33.927  1.00  0.00     0.134 A 
ATOM     57  C   UNL A   1      44.073  26.655  34.668  1.00  0.00     0.134 A 
ATOM     58  F   UNL A   1      45.594  29.643  33.261  1.00  0.00    -0.206 F 
ATOM     59  C   UNL A   1      46.545  27.916  34.537  1.00  0.00     0.040 A 
ATOM     60  C   UNL A   1      45.173  26.091  35.310  1.00  0.00     0.040 A 
ATOM     61  F   UNL A   1      42.896  26.017  34.752  1.00  0.00    -0.206 F 
ATOM     62  C   UNL A   1      46.414  26.719  35.240  1.00  0.00     0.006 A 
ENDBRANCH  38  55
ENDBRANCH  12  13
ENDBRANCH   5   7
ENDBRANCH   4   5
ENDBRANCH   3   4
ENDBRANCH   2   3
ENDBRANCH   1   2
BRANCH   1  63
ATOM     63  C   UNL A   1      32.067  29.085  24.997  1.00  0.00     0.202 C 
BRANCH  63  64
ATOM     64  C   UNL A   1      31.432  27.929  25.727  1.00  0.00     0.261 C 
BRANCH  64  65
ATOM     65  O   UNL A   1      31.302  26.935  24.710  1.00  0.00    -0.462 OA
BRANCH  65  66
ATOM     66  C   UNL A   1      30.494  25.872  24.839  1.00  0.00     0.324 C 
ATOM     67  O   UNL A   1      29.677  25.695  25.730  1.00  0.00    -0.250 OA
BRANCH  66  68
ATOM     68  C   UNL A   1      30.678  24.959  23.633  1.00  0.00     0.185 C 
ATOM     69  C   UNL A   1      31.387  25.740  22.512  1.00  0.00     0.065 C 
ATOM     70  N   UNL A   1      31.438  23.622  23.738  1.00  0.00    -0.181 NA
ATOM     71  C   UNL A   1      32.776  25.133  22.460  1.00  0.00     0.131 C 
ATOM     72  C   UNL A   1      32.473  23.656  22.661  1.00  0.00     0.135 C 
BRANCH  70  73
ATOM     73  S   UNL A   1      31.992  23.198  25.310  1.00  0.00     0.244 S 
ATOM     74  O   UNL A   1      32.989  24.176  25.715  1.00  0.00    -0.207 OA
ATOM     75  O   UNL A   1      30.822  22.917  26.109  1.00  0.00    -0.207 OA
BRANCH  73  76
ATOM     76  C   UNL A   1      32.844  21.668  25.184  1.00  0.00     0.086 A 
ATOM     77  C   UNL A   1      34.246  21.695  25.133  1.00  0.00     0.026 A 
ATOM     78  C   UNL A   1      32.142  20.493  24.954  1.00  0.00     0.072 A 
ATOM     79  C   UNL A   1      34.950  20.522  24.891  1.00  0.00     0.052 A 
ATOM     80  C   UNL A   1      32.851  19.317  24.786  1.00  0.00     0.162 A 
ATOM     81  C   UNL A   1      34.251  19.331  24.730  1.00  0.00     0.161 A 
ATOM     82  O   UNL A   1      32.106  18.172  24.685  1.00  0.00    -0.486 OA
ATOM     83  O   UNL A   1      35.005  18.206  24.526  1.00  0.00    -0.486 OA
ATOM     84  C   UNL A   1      32.923  17.038  24.989  1.00  0.00     0.271 C 
ATOM     85  C   UNL A   1      34.193  17.087  24.155  1.00  0.00     0.271 C 
ENDBRANCH  73  76
ENDBRANCH  70  73
BRANCH  71  86
ATOM     86  O   UNL A   1      33.441  25.438  21.247  1.00  0.00    -0.392 OA
ATOM     87  H   UNL A   1      33.784  26.345  21.287  1.00  0.00     0.211 HD
ENDBRANCH  71  86
ENDBRANCH  66  68
ENDBRANCH  65  66
ENDBRANCH  64  65
ENDBRANCH  63  64
ENDBRANCH   1  63
TORSDOF 17
ENDMDL
MODEL 2
REMARK VINA RESULT:     -11.6      4.020     10.055
REMARK SMILES O=C(OCCOCCOC(=O)[C@H]1C[C@H](O)CN1S(=O)(=O)c1ccc2c(c1)OCCO2)c1ccc(-c2c3nc(c(-c4c(F)cccc4F)c4ccc([nH]4)c(-c4c(F)cccc4F)c4nc(c(-c5c(F)cccc5F)c5ccc2[nH]5)C=C4)C=C3)cc1
REMARK SMILES IDX 6 1 5 2 4 3 3 4 2 5 1 6 31 7 32 8 84 9 33 10 83 11 34 12
REMARK SMILES IDX 35 13 36 14 77 15 37 16 82 17 76 18 78 19 38 20 81 21 75 22
REMARK SMILES IDX 74 23 39 25 65 26 48 27 64 28 49 29 52 30 63 31 79 32 50 33
REMARK SMILES IDX 51 34 62 36 80 37 53 38 40 39 41 40 46 41 42 42 43 43 45 44
REMARK SMILES IDX 47 45 44 46 66 47 67 48 72 49 68 50 69 51 71 52 73 53 70 54
REMARK SMILES IDX 54 55 55 56 60 57 56 58 57 59 59 60 61 61 58 62 7 63 8 64
REMARK SMILES IDX 9 65 10 66 11 67 12 68 13 69 17 70 14 71 16 72 18 73 19 74
REMARK SMILES IDX 20 75 21 76 22 77 26 78 23 79 25 80 24 81 27 82 30 83 28 84
REMARK SMILES IDX 29 85 15 86
REMARK H PARENT 78 24 52 35 15 87
REMARK Flexibility Score: inf
ROOT
ATOM      1  O   UNL A   1      37.064  21.538  24.485  1.00  0.00    -0.374 OA
ENDROOT
BRANCH   1   2
ATOM      2  C   UNL A   1      37.857  20.922  25.499  1.00  0.00     0.202 C 
BRANCH   2   3
ATOM      3  C   UNL A   1      38.706  19.728  25.050  1.00  0.00     0.261 C 
BRANCH   3   4
ATOM      4  O   UNL A   1      39.713  19.419  26.036  1.00  0.00    -0.460 OA
BRANCH   4   5
ATOM      5  C   UNL A   1      41.002  19.832  26.094  1.00  0.00     0.338 C 
ATOM      6  O   UNL A   1      41.899  19.047  25.800  1.00  0.00    -0.246 OA
BRANCH   5   7
ATOM      7  C   UNL A   1      41.392  21.203  26.530  1.00  0.00     0.060 A 
ATOM      8  C   UNL A   1      41.116  22.344  25.790  1.00  0.00     0.016 A 
ATOM      9  C   UNL A   1      41.990  21.379  27.786  1.00  0.00     0.016 A 
ATOM     10  C   UNL A   1      41.357  23.610  26.240  1.00  0.00     0.010 A 
ATOM     11  C   UNL A   1      42.278  22.666  28.259  1.00  0.00     0.010 A 
ATOM     12  C   UNL A   1      41.940  23.775  27.479  1.00  0.00    -0.014 A 
BRANCH  12  13
ATOM     13  C   UNL A   1      42.337  25.153  27.747  1.00  0.00     0.031 A 
ATOM     14  C   UNL A   1      43.591  25.629  27.095  1.00  0.00     0.074 A 
ATOM     15  C   UNL A   1      41.424  25.989  28.273  1.00  0.00     0.049 A 
ATOM     16  N   UNL A   1      44.167  26.793  27.170  1.00  0.00    -0.248 NA
ATOM     17  C   UNL A   1      44.273  24.669  26.205  1.00  0.00     0.031 C 
ATOM     18  C   UNL A   1      40.058  25.613  28.666  1.00  0.00     0.029 A 
ATOM     19  N   UNL A   1      41.478  27.332  28.504  1.00  0.00    -0.354 N 
ATOM     20  C   UNL A   1      45.308  26.687  26.388  1.00  0.00     0.074 A 
ATOM     21  C   UNL A   1      45.333  25.361  25.820  1.00  0.00     0.031 C 
ATOM     22  C   UNL A   1      39.408  26.707  29.091  1.00  0.00     0.029 A 
ATOM     23  C   UNL A   1      40.335  27.827  29.085  1.00  0.00     0.049 A 
ATOM     24  H   UNL A   1      42.256  27.890  28.278  1.00  0.00     0.167 HD
ATOM     25  C   UNL A   1      46.257  27.629  26.201  1.00  0.00     0.037 A 
ATOM     26  C   UNL A   1      40.116  29.045  29.607  1.00  0.00     0.037 A 
ATOM     27  C   UNL A   1      46.167  28.929  26.802  1.00  0.00     0.049 A 
ATOM     28  C   UNL A   1      41.254  30.025  29.528  1.00  0.00     0.074 A 
ATOM     29  C   UNL A   1      47.093  29.951  26.813  1.00  0.00     0.029 A 
ATOM     30  N   UNL A   1      45.056  29.377  27.511  1.00  0.00    -0.354 N 
ATOM     31  N   UNL A   1      42.414  29.894  28.924  1.00  0.00    -0.248 NA
ATOM     32  C   UNL A   1      41.074  31.303  30.220  1.00  0.00     0.031 C 
ATOM     33  C   UNL A   1      46.563  30.997  27.576  1.00  0.00     0.029 A 
ATOM     34  C   UNL A   1      45.280  30.654  27.985  1.00  0.00     0.049 A 
ATOM     35  H   UNL A   1      44.230  28.860  27.654  1.00  0.00     0.167 HD
ATOM     36  C   UNL A   1      43.097  31.079  29.142  1.00  0.00     0.074 A 
ATOM     37  C   UNL A   1      42.206  31.924  29.921  1.00  0.00     0.031 C 
ATOM     38  C   UNL A   1      44.341  31.445  28.746  1.00  0.00     0.037 A 
BRANCH  25  39
ATOM     39  C   UNL A   1      47.481  27.210  25.447  1.00  0.00     0.057 A 
ATOM     40  C   UNL A   1      48.586  26.612  26.066  1.00  0.00     0.134 A 
ATOM     41  C   UNL A   1      47.588  27.498  24.080  1.00  0.00     0.134 A 
ATOM     42  F   UNL A   1      48.569  26.351  27.383  1.00  0.00    -0.206 F 
ATOM     43  C   UNL A   1      49.761  26.344  25.361  1.00  0.00     0.040 A 
ATOM     44  C   UNL A   1      48.747  27.212  23.359  1.00  0.00     0.040 A 
ATOM     45  F   UNL A   1      46.576  28.092  23.429  1.00  0.00    -0.206 F 
ATOM     46  C   UNL A   1      49.842  26.642  24.002  1.00  0.00     0.006 A 
ENDBRANCH  25  39
BRANCH  26  47
ATOM     47  C   UNL A   1      38.850  29.354  30.320  1.00  0.00     0.057 A 
ATOM     48  C   UNL A   1      37.749  29.907  29.658  1.00  0.00     0.134 A 
ATOM     49  C   UNL A   1      38.717  29.131  31.700  1.00  0.00     0.134 A 
ATOM     50  F   UNL A   1      37.812  30.162  28.343  1.00  0.00    -0.206 F 
ATOM     51  C   UNL A   1      36.577  30.249  30.339  1.00  0.00     0.040 A 
ATOM     52  C   UNL A   1      37.542  29.438  32.388  1.00  0.00     0.040 A 
ATOM     53  F   UNL A   1      39.730  28.603  32.403  1.00  0.00    -0.206 F 
ATOM     54  C   UNL A   1      36.471  30.011  31.708  1.00  0.00     0.006 A 
ENDBRANCH  26  47
BRANCH  38  55
ATOM     55  C   UNL A   1      44.774  32.831  29.110  1.00  0.00     0.057 A 
ATOM     56  C   UNL A   1      44.540  33.925  28.270  1.00  0.00     0.134 A 
ATOM     57  C   UNL A   1      45.385  33.072  30.347  1.00  0.00     0.134 A 
ATOM     58  F   UNL A   1      43.971  33.751  27.066  1.00  0.00    -0.206 F 
ATOM     59  C   UNL A   1      44.921  35.213  28.639  1.00  0.00     0.040 A 
ATOM     60  C   UNL A   1      45.738  34.360  30.740  1.00  0.00     0.040 A 
ATOM     61  F   UNL A   1      45.625  32.062  31.198  1.00  0.00    -0.206 F 
ATOM     62  C   UNL A   1      45.512  35.433  29.883  1.00  0.00     0.006 A 
ENDBRANCH  38  55
ENDBRANCH  12  13
ENDBRANCH   5   7
ENDBRANCH   4   5
ENDBRANCH   3   4
ENDBRANCH   2   3
ENDBRANCH   1   2
BRANCH   1  63
ATOM     63  C   UNL A   1      35.683  21.751  24.805  1.00  0.00     0.202 C 
BRANCH  63  64
ATOM     64  C   UNL A   1      35.202  22.837  23.878  1.00  0.00     0.261 C 
BRANCH  64  65
ATOM     65  O   UNL A   1      33.786  22.818  24.065  1.00  0.00    -0.462 OA
BRANCH  65  66
ATOM     66  C   UNL A   1      32.922  23.031  23.060  1.00  0.00     0.324 C 
ATOM     67  O   UNL A   1      33.156  22.889  21.870  1.00  0.00    -0.250 OA
BRANCH  66  68
ATOM     68  C   UNL A   1      31.558  23.380  23.644  1.00  0.00     0.185 C 
ATOM     69  C   UNL A   1      31.468  22.831  25.080  1.00  0.00     0.065 C 
ATOM     70  N   UNL A   1      31.064  24.837  23.734  1.00  0.00    -0.181 NA
ATOM     71  C   UNL A   1      31.518  24.072  25.952  1.00  0.00     0.131 C 
ATOM     72  C   UNL A   1      30.655  25.040  25.158  1.00  0.00     0.135 C 
BRANCH  70  73
ATOM     73  S   UNL A   1      32.115  26.025  23.070  1.00  0.00     0.244 S 
ATOM     74  O   UNL A   1      33.302  26.097  23.907  1.00  0.00    -0.207 OA
ATOM     75  O   UNL A   1      32.190  25.775  21.649  1.00  0.00    -0.207 OA
BRANCH  73  76
ATOM     76  C   UNL A   1      31.325  27.586  23.223  1.00  0.00     0.086 A 
ATOM     77  C   UNL A   1      31.675  28.400  24.311  1.00  0.00     0.026 A 
ATOM     78  C   UNL A   1      30.257  27.913  22.398  1.00  0.00     0.072 A 
ATOM     79  C   UNL A   1      30.973  29.575  24.548  1.00  0.00     0.052 A 
ATOM     80  C   UNL A   1      29.611  29.121  22.597  1.00  0.00     0.162 A 
ATOM     81  C   UNL A   1      29.949  29.940  23.682  1.00  0.00     0.161 A 
ATOM     82  O   UNL A   1      28.647  29.447  21.680  1.00  0.00    -0.486 OA
ATOM     83  O   UNL A   1      29.318  31.126  23.951  1.00  0.00    -0.486 OA
ATOM     84  C   UNL A   1      28.409  30.857  21.712  1.00  0.00     0.271 C 
ATOM     85  C   UNL A   1      28.149  31.297  23.143  1.00  0.00     0.271 C 
ENDBRANCH  73  76
ENDBRANCH  70  73
BRANCH  71  86
ATOM     86  O   UNL A   1      31.055  23.812  27.265  1.00  0.00    -0.392 OA
ATOM     87  H   UNL A   1      30.659  22.927  27.298  1.00  0.00     0.211 HD
ENDBRANCH  71  86
ENDBRANCH  66  68
ENDBRANCH  65  66
ENDBRANCH  64  65
ENDBRANCH  63  64
ENDBRANCH   1  63
TORSDOF 17
ENDMDL
MODEL 3
REMARK VINA RESULT:     -11.5      1.083      1.854
REMARK SMILES O=C(OCCOCCOC(=O)[C@H]1C[C@H](O)CN1S(=O)(=O)c1ccc2c(c1)OCCO2)c1ccc(-c2c3nc(c(-c4c(F)cccc4F)c4ccc([nH]4)c(-c4c(F)cccc4F)c4nc(c(-c5c(F)cccc5F)c5ccc2[nH]5)C=C4)C=C3)cc1
REMARK SMILES IDX 6 1 5 2 4 3 3 4 2 5 1 6 31 7 32 8 84 9 33 10 83 11 34 12
REMARK SMILES IDX 35 13 36 14 77 15 37 16 82 17 76 18 78 19 38 20 81 21 75 22
REMARK SMILES IDX 74 23 39 25 65 26 48 27 64 28 49 29 52 30 63 31 79 32 50 33
REMARK SMILES IDX 51 34 62 36 80 37 53 38 40 39 41 40 46 41 42 42 43 43 45 44
REMARK SMILES IDX 47 45 44 46 66 47 67 48 72 49 68 50 69 51 71 52 73 53 70 54
REMARK SMILES IDX 54 55 55 56 60 57 56 58 57 59 59 60 61 61 58 62 7 63 8 64
REMARK SMILES IDX 9 65 10 66 11 67 12 68 13 69 17 70 14 71 16 72 18 73 19 74
REMARK SMILES IDX 20 75 21 76 22 77 26 78 23 79 25 80 24 81 27 82 30 83 28 84
REMARK SMILES IDX 29 85 15 86
REMARK H PARENT 78 24 52 35 15 87
REMARK Flexibility Score: inf
ROOT
ATOM      1  O   UNL A   1      32.290  30.100  26.847  1.00  0.00    -0.374 OA
ENDROOT
BRANCH   1   2
ATOM      2  C   UNL A   1      31.682  31.389  26.930  1.00  0.00     0.202 C 
BRANCH   2   3
ATOM      3  C   UNL A   1      32.618  32.584  26.717  1.00  0.00     0.261 C 
BRANCH   3   4
ATOM      4  O   UNL A   1      32.322  33.636  27.659  1.00  0.00    -0.460 OA
BRANCH   4   5
ATOM      5  C   UNL A   1      33.139  34.218  28.569  1.00  0.00     0.338 C 
ATOM      6  O   UNL A   1      32.858  35.331  29.004  1.00  0.00    -0.246 OA
BRANCH   5   7
ATOM      7  C   UNL A   1      34.393  33.575  29.057  1.00  0.00     0.060 A 
ATOM      8  C   UNL A   1      34.418  32.342  29.692  1.00  0.00     0.016 A 
ATOM      9  C   UNL A   1      35.625  34.191  28.794  1.00  0.00     0.016 A 
ATOM     10  C   UNL A   1      35.571  31.692  30.027  1.00  0.00     0.010 A 
ATOM     11  C   UNL A   1      36.822  33.561  29.157  1.00  0.00     0.010 A 
ATOM     12  C   UNL A   1      36.779  32.301  29.761  1.00  0.00    -0.014 A 
BRANCH  12  13
ATOM     13  C   UNL A   1      37.915  31.607  30.356  1.00  0.00     0.031 A 
ATOM     14  C   UNL A   1      38.102  31.763  31.827  1.00  0.00     0.074 A 
ATOM     15  C   UNL A   1      38.516  30.638  29.643  1.00  0.00     0.049 A 
ATOM     16  N   UNL A   1      39.023  31.265  32.598  1.00  0.00    -0.248 NA
ATOM     17  C   UNL A   1      37.084  32.566  32.535  1.00  0.00     0.031 C 
ATOM     18  C   UNL A   1      38.163  30.254  28.269  1.00  0.00     0.029 A 
ATOM     19  N   UNL A   1      39.498  29.756  29.991  1.00  0.00    -0.354 N 
ATOM     20  C   UNL A   1      38.733  31.741  33.869  1.00  0.00     0.074 A 
ATOM     21  C   UNL A   1      37.535  32.540  33.779  1.00  0.00     0.031 C 
ATOM     22  C   UNL A   1      38.922  29.214  27.895  1.00  0.00     0.029 A 
ATOM     23  C   UNL A   1      39.867  28.924  28.962  1.00  0.00     0.049 A 
ATOM     24  H   UNL A   1      39.901  29.721  30.887  1.00  0.00     0.167 HD
ATOM     25  C   UNL A   1      39.444  31.535  34.998  1.00  0.00     0.037 A 
ATOM     26  C   UNL A   1      40.906  28.076  28.896  1.00  0.00     0.037 A 
ATOM     27  C   UNL A   1      40.632  30.728  35.011  1.00  0.00     0.049 A 
ATOM     28  C   UNL A   1      41.780  27.989  30.118  1.00  0.00     0.074 A 
ATOM     29  C   UNL A   1      41.531  30.517  36.035  1.00  0.00     0.029 A 
ATOM     30  N   UNL A   1      41.079  29.992  33.917  1.00  0.00    -0.354 N 
ATOM     31  N   UNL A   1      41.614  28.554  31.293  1.00  0.00    -0.248 NA
ATOM     32  C   UNL A   1      42.993  27.177  30.005  1.00  0.00     0.031 C 
ATOM     33  C   UNL A   1      42.552  29.696  35.542  1.00  0.00     0.029 A 
ATOM     34  C   UNL A   1      42.254  29.342  34.232  1.00  0.00     0.049 A 
ATOM     35  H   UNL A   1      40.623  29.942  33.046  1.00  0.00     0.167 HD
ATOM     36  C   UNL A   1      42.688  28.152  32.069  1.00  0.00     0.074 A 
ATOM     37  C   UNL A   1      43.489  27.276  31.230  1.00  0.00     0.031 C 
ATOM     38  C   UNL A   1      42.997  28.471  33.350  1.00  0.00     0.037 A 
BRANCH  25  39
ATOM     39  C   UNL A   1      39.017  32.300  36.212  1.00  0.00     0.057 A 
ATOM     40  C   UNL A   1      38.116  31.787  37.153  1.00  0.00     0.134 A 
ATOM     41  C   UNL A   1      39.452  33.619  36.391  1.00  0.00     0.134 A 
ATOM     42  F   UNL A   1      37.622  30.546  37.017  1.00  0.00    -0.206 F 
ATOM     43  C   UNL A   1      37.641  32.567  38.210  1.00  0.00     0.040 A 
ATOM     44  C   UNL A   1      39.005  34.400  37.456  1.00  0.00     0.040 A 
ATOM     45  F   UNL A   1      40.298  34.182  35.513  1.00  0.00    -0.206 F 
ATOM     46  C   UNL A   1      38.088  33.878  38.365  1.00  0.00     0.006 A 
ENDBRANCH  25  39
BRANCH  26  47
ATOM     47  C   UNL A   1      41.226  27.354  27.638  1.00  0.00     0.057 A 
ATOM     48  C   UNL A   1      40.762  26.057  27.397  1.00  0.00     0.134 A 
ATOM     49  C   UNL A   1      42.035  27.936  26.649  1.00  0.00     0.134 A 
ATOM     50  F   UNL A   1      39.997  25.435  28.306  1.00  0.00    -0.206 F 
ATOM     51  C   UNL A   1      41.108  25.357  26.237  1.00  0.00     0.040 A 
ATOM     52  C   UNL A   1      42.363  27.261  25.472  1.00  0.00     0.040 A 
ATOM     53  F   UNL A   1      42.518  29.177  26.810  1.00  0.00    -0.206 F 
ATOM     54  C   UNL A   1      41.909  25.962  25.269  1.00  0.00     0.006 A 
ENDBRANCH  26  47
BRANCH  38  55
ATOM     55  C   UNL A   1      44.220  27.825  33.920  1.00  0.00     0.057 A 
ATOM     56  C   UNL A   1      45.471  28.450  33.889  1.00  0.00     0.134 A 
ATOM     57  C   UNL A   1      44.123  26.581  34.556  1.00  0.00     0.134 A 
ATOM     58  F   UNL A   1      45.625  29.636  33.280  1.00  0.00    -0.206 F 
ATOM     59  C   UNL A   1      46.593  27.848  34.454  1.00  0.00     0.040 A 
ATOM     60  C   UNL A   1      45.231  25.987  35.154  1.00  0.00     0.040 A 
ATOM     61  F   UNL A   1      42.946  25.940  34.626  1.00  0.00    -0.206 F 
ATOM     62  C   UNL A   1      46.471  26.617  35.098  1.00  0.00     0.006 A 
ENDBRANCH  38  55
ENDBRANCH  12  13
ENDBRANCH   5   7
ENDBRANCH   4   5
ENDBRANCH   3   4
ENDBRANCH   2   3
ENDBRANCH   1   2
BRANCH   1  63
ATOM     63  C   UNL A   1      33.719  30.082  26.741  1.00  0.00     0.202 C 
BRANCH  63  64
ATOM     64  C   UNL A   1      34.123  28.630  26.776  1.00  0.00     0.261 C 
BRANCH  64  65
ATOM     65  O   UNL A   1      33.916  28.203  25.429  1.00  0.00    -0.462 OA
BRANCH  65  66
ATOM     66  C   UNL A   1      32.839  27.496  25.053  1.00  0.00     0.324 C 
ATOM     67  O   UNL A   1      32.285  27.556  23.966  1.00  0.00    -0.250 OA
BRANCH  66  68
ATOM     68  C   UNL A   1      32.474  26.519  26.164  1.00  0.00     0.185 C 
ATOM     69  C   UNL A   1      30.974  26.654  26.483  1.00  0.00     0.065 C 
ATOM     70  N   UNL A   1      32.724  25.004  26.024  1.00  0.00    -0.181 NA
ATOM     71  C   UNL A   1      30.366  25.374  25.942  1.00  0.00     0.131 C 
ATOM     72  C   UNL A   1      31.417  24.347  26.330  1.00  0.00     0.135 C 
BRANCH  70  73
ATOM     73  S   UNL A   1      33.505  24.505  24.576  1.00  0.00     0.244 S 
ATOM     74  O   UNL A   1      32.549  24.620  23.486  1.00  0.00    -0.207 OA
ATOM     75  O   UNL A   1      34.792  25.161  24.542  1.00  0.00    -0.207 OA
BRANCH  73  76
ATOM     76  C   UNL A   1      33.863  22.792  24.721  1.00  0.00     0.086 A 
ATOM     77  C   UNL A   1      35.178  22.416  25.033  1.00  0.00     0.026 A 
ATOM     78  C   UNL A   1      32.915  21.846  24.354  1.00  0.00     0.072 A 
ATOM     79  C   UNL A   1      35.534  21.074  25.016  1.00  0.00     0.052 A 
ATOM     80  C   UNL A   1      33.258  20.507  24.411  1.00  0.00     0.162 A 
ATOM     81  C   UNL A   1      34.569  20.119  24.717  1.00  0.00     0.161 A 
ATOM     82  O   UNL A   1      32.250  19.615  24.157  1.00  0.00    -0.486 OA
ATOM     83  O   UNL A   1      34.976  18.811  24.750  1.00  0.00    -0.486 OA
ATOM     84  C   UNL A   1      32.592  18.335  24.695  1.00  0.00     0.271 C 
ATOM     85  C   UNL A   1      33.978  17.935  24.216  1.00  0.00     0.271 C 
ENDBRANCH  73  76
ENDBRANCH  70  73
BRANCH  71  86
ATOM     86  O   UNL A   1      29.079  25.132  26.483  1.00  0.00    -0.392 OA
ATOM     87  H   UNL A   1      28.443  25.006  25.761  1.00  0.00     0.211 HD
ENDBRANCH  71  86
ENDBRANCH  66  68
ENDBRANCH  65  66
ENDBRANCH  64  65
ENDBRANCH  63  64
ENDBRANCH   1  63
TORSDOF 17
ENDMDL
