MODEL 1
REMARK VINA RESULT:     -11.9      0.000      0.000
REMARK SMILES O=C(OCCOCCOC(=O)c1cc2c(c(S(=O)(=O)Nc3cc(C(F)(F)F)ccc3-n3cccn3)c1)CCC2)c1ccc(-c2c3nc(c(-c4c(F)cccc4F)c4ccc([nH]4)c(-c4c(F)cccc4F)c4nc(c(-c5c(F)cccc5F)c5ccc2[nH]5)C=C4)C=C3)cc1
REMARK SMILES IDX 7 1 6 2 5 3 4 4 3 5 2 6 1 7 40 8 41 9 93 10 42 11 92 12
REMARK SMILES IDX 43 13 44 14 45 15 86 16 46 17 91 18 85 19 87 20 47 21 90 22
REMARK SMILES IDX 84 23 83 24 48 26 74 27 57 28 73 29 58 30 61 31 72 32 88 33
REMARK SMILES IDX 59 34 60 35 71 37 89 38 62 39 49 40 50 41 55 42 51 43 52 44
REMARK SMILES IDX 54 45 56 46 53 47 75 48 76 49 81 50 77 51 78 52 80 53 82 54
REMARK SMILES IDX 79 55 63 56 64 57 69 58 65 59 66 60 68 61 70 62 67 63 8 64
REMARK SMILES IDX 9 65 10 66 11 67 12 68 13 69 36 70 14 71 16 72 15 73 39 74
REMARK SMILES IDX 37 75 38 76 17 77 18 78 19 79 20 80 21 82 22 83 30 84 23 85
REMARK SMILES IDX 29 86 28 87 31 88 32 89 35 90 33 91 34 92 24 93 25 94 26 95
REMARK SMILES IDX 27 96
REMARK H PARENT 87 25 61 36 20 81
REMARK Flexibility Score: inf
ROOT
ATOM      1  C   UNL A   1      44.077  19.113  24.984  1.00  0.00     0.202 C 
ENDROOT
BRANCH   1   2
ATOM      2  O   UNL A   1      43.928  20.477  24.558  1.00  0.00    -0.374 OA
BRANCH   2   3
ATOM      3  C   UNL A   1      44.819  21.414  25.152  1.00  0.00     0.202 C 
BRANCH   3   4
ATOM      4  C   UNL A   1      44.959  22.765  24.457  1.00  0.00     0.261 C 
BRANCH   4   5
ATOM      5  O   UNL A   1      44.211  23.828  25.083  1.00  0.00    -0.460 OA
BRANCH   5   6
ATOM      6  C   UNL A   1      44.691  25.077  25.286  1.00  0.00     0.338 C 
ATOM      7  O   UNL A   1      45.630  25.513  24.625  1.00  0.00    -0.246 OA
BRANCH   6   8
ATOM      8  C   UNL A   1      43.835  26.013  26.053  1.00  0.00     0.060 A 
ATOM      9  C   UNL A   1      42.878  26.845  25.482  1.00  0.00     0.016 A 
ATOM     10  C   UNL A   1      44.116  26.126  27.426  1.00  0.00     0.016 A 
ATOM     11  C   UNL A   1      42.413  27.935  26.186  1.00  0.00     0.010 A 
ATOM     12  C   UNL A   1      43.595  27.178  28.162  1.00  0.00     0.010 A 
ATOM     13  C   UNL A   1      42.821  28.126  27.507  1.00  0.00    -0.014 A 
BRANCH  13  14
ATOM     14  C   UNL A   1      42.275  29.283  28.191  1.00  0.00     0.031 A 
ATOM     15  C   UNL A   1      43.180  30.459  28.156  1.00  0.00     0.074 A 
ATOM     16  C   UNL A   1      41.066  29.302  28.781  1.00  0.00     0.049 A 
ATOM     17  N   UNL A   1      43.835  30.972  29.142  1.00  0.00    -0.248 NA
ATOM     18  C   UNL A   1      43.540  31.008  26.840  1.00  0.00     0.031 C 
ATOM     19  C   UNL A   1      39.987  28.318  28.687  1.00  0.00     0.029 A 
ATOM     20  N   UNL A   1      40.520  30.282  29.551  1.00  0.00    -0.354 N 
ATOM     21  C   UNL A   1      44.542  32.043  28.609  1.00  0.00     0.074 A 
ATOM     22  C   UNL A   1      44.456  31.917  27.177  1.00  0.00     0.031 C 
ATOM     23  C   UNL A   1      38.847  28.861  29.174  1.00  0.00     0.029 A 
ATOM     24  C   UNL A   1      39.150  30.165  29.742  1.00  0.00     0.049 A 
ATOM     25  H   UNL A   1      41.052  31.012  29.940  1.00  0.00     0.167 HD
ATOM     26  C   UNL A   1      44.935  33.080  29.398  1.00  0.00     0.037 A 
ATOM     27  C   UNL A   1      38.334  31.109  30.275  1.00  0.00     0.037 A 
ATOM     28  C   UNL A   1      44.939  32.702  30.788  1.00  0.00     0.049 A 
ATOM     29  C   UNL A   1      39.183  32.052  31.047  1.00  0.00     0.074 A 
ATOM     30  C   UNL A   1      45.606  31.749  31.535  1.00  0.00     0.029 A 
ATOM     31  N   UNL A   1      43.880  33.108  31.562  1.00  0.00    -0.354 N 
ATOM     32  N   UNL A   1      39.778  31.743  32.164  1.00  0.00    -0.248 NA
ATOM     33  C   UNL A   1      39.741  33.195  30.339  1.00  0.00     0.031 C 
ATOM     34  C   UNL A   1      44.648  31.289  32.485  1.00  0.00     0.029 A 
ATOM     35  C   UNL A   1      43.481  32.034  32.312  1.00  0.00     0.049 A 
ATOM     36  H   UNL A   1      43.480  34.008  31.575  1.00  0.00     0.167 HD
ATOM     37  C   UNL A   1      41.027  32.337  32.071  1.00  0.00     0.074 A 
ATOM     38  C   UNL A   1      40.915  33.291  30.969  1.00  0.00     0.031 C 
ATOM     39  C   UNL A   1      42.111  31.796  32.699  1.00  0.00     0.037 A 
BRANCH  26  40
ATOM     40  C   UNL A   1      44.900  34.522  28.957  1.00  0.00     0.057 A 
ATOM     41  C   UNL A   1      46.034  35.326  29.171  1.00  0.00     0.134 A 
ATOM     42  C   UNL A   1      43.720  35.223  28.636  1.00  0.00     0.134 A 
ATOM     43  F   UNL A   1      47.217  34.780  29.492  1.00  0.00    -0.206 F 
ATOM     44  C   UNL A   1      45.973  36.725  29.161  1.00  0.00     0.040 A 
ATOM     45  C   UNL A   1      43.661  36.617  28.575  1.00  0.00     0.040 A 
ATOM     46  F   UNL A   1      42.541  34.615  28.470  1.00  0.00    -0.206 F 
ATOM     47  C   UNL A   1      44.780  37.374  28.874  1.00  0.00     0.006 A 
ENDBRANCH  26  40
BRANCH  27  48
ATOM     48  C   UNL A   1      36.935  31.437  29.916  1.00  0.00     0.057 A 
ATOM     49  C   UNL A   1      36.024  31.883  30.885  1.00  0.00     0.134 A 
ATOM     50  C   UNL A   1      36.540  31.603  28.577  1.00  0.00     0.134 A 
ATOM     51  F   UNL A   1      36.324  31.805  32.189  1.00  0.00    -0.206 F 
ATOM     52  C   UNL A   1      34.807  32.489  30.542  1.00  0.00     0.040 A 
ATOM     53  C   UNL A   1      35.325  32.200  28.222  1.00  0.00     0.040 A 
ATOM     54  F   UNL A   1      37.359  31.279  27.567  1.00  0.00    -0.206 F 
ATOM     55  C   UNL A   1      34.461  32.661  29.206  1.00  0.00     0.006 A 
ENDBRANCH  27  48
BRANCH  39  56
ATOM     56  C   UNL A   1      41.871  30.708  33.710  1.00  0.00     0.057 A 
ATOM     57  C   UNL A   1      41.757  29.344  33.396  1.00  0.00     0.134 A 
ATOM     58  C   UNL A   1      41.896  31.044  35.067  1.00  0.00     0.134 A 
ATOM     59  F   UNL A   1      41.826  28.914  32.130  1.00  0.00    -0.206 F 
ATOM     60  C   UNL A   1      41.627  28.370  34.390  1.00  0.00     0.040 A 
ATOM     61  C   UNL A   1      41.803  30.077  36.070  1.00  0.00     0.040 A 
ATOM     62  F   UNL A   1      42.058  32.323  35.445  1.00  0.00    -0.206 F 
ATOM     63  C   UNL A   1      41.656  28.735  35.733  1.00  0.00     0.006 A 
ENDBRANCH  39  56
ENDBRANCH  13  14
ENDBRANCH   6   8
ENDBRANCH   5   6
ENDBRANCH   4   5
ENDBRANCH   3   4
ENDBRANCH   2   3
ENDBRANCH   1   2
BRANCH   1  64
ATOM     64  C   UNL A   1      43.086  18.544  26.014  1.00  0.00     0.261 C 
BRANCH  64  65
ATOM     65  O   UNL A   1      42.222  19.553  26.573  1.00  0.00    -0.460 OA
BRANCH  65  66
ATOM     66  C   UNL A   1      40.946  19.602  26.095  1.00  0.00     0.338 C 
ATOM     67  O   UNL A   1      40.274  18.686  25.696  1.00  0.00    -0.246 OA
BRANCH  66  68
ATOM     68  C   UNL A   1      40.423  20.969  26.354  1.00  0.00     0.061 A 
ATOM     69  C   UNL A   1      41.135  21.815  27.196  1.00  0.00     0.019 A 
ATOM     70  C   UNL A   1      39.197  21.381  25.770  1.00  0.00     0.038 A 
ATOM     71  C   UNL A   1      40.594  23.057  27.451  1.00  0.00    -0.043 A 
ATOM     72  C   UNL A   1      38.633  22.643  26.066  1.00  0.00     0.092 A 
ATOM     73  C   UNL A   1      39.329  23.450  26.956  1.00  0.00    -0.024 A 
ATOM     74  C   UNL A   1      41.228  24.149  28.262  1.00  0.00     0.036 C 
ATOM     75  C   UNL A   1      38.989  24.759  27.596  1.00  0.00     0.037 C 
ATOM     76  C   UNL A   1      40.398  25.335  27.774  1.00  0.00     0.010 C 
BRANCH  72  77
ATOM     77  S   UNL A   1      36.987  23.006  25.475  1.00  0.00     0.262 S 
ATOM     78  O   UNL A   1      36.650  24.333  25.957  1.00  0.00    -0.201 OA
ATOM     79  O   UNL A   1      36.983  22.750  24.050  1.00  0.00    -0.201 OA
BRANCH  77  80
ATOM     80  N   UNL A   1      35.761  21.999  26.121  1.00  0.00    -0.277 N 
ATOM     81  H   UNL A   1      35.687  21.914  27.099  1.00  0.00     0.180 HD
BRANCH  80  82
ATOM     82  C   UNL A   1      34.836  21.271  25.297  1.00  0.00     0.075 A 
ATOM     83  C   UNL A   1      35.074  19.904  25.061  1.00  0.00     0.042 A 
ATOM     84  C   UNL A   1      33.653  21.850  24.821  1.00  0.00     0.089 A 
ATOM     85  C   UNL A   1      34.095  19.094  24.446  1.00  0.00     0.058 A 
ATOM     86  C   UNL A   1      32.687  21.057  24.183  1.00  0.00     0.031 A 
ATOM     87  C   UNL A   1      32.910  19.690  23.994  1.00  0.00     0.015 A 
BRANCH  84  88
ATOM     88  N   UNL A   1      33.382  23.225  25.011  1.00  0.00    -0.239 N 
ATOM     89  C   UNL A   1      33.545  24.251  24.108  1.00  0.00     0.115 A 
ATOM     90  N   UNL A   1      33.027  23.692  26.234  1.00  0.00    -0.177 NA
ATOM     91  C   UNL A   1      33.479  25.422  24.821  1.00  0.00     0.042 A 
ATOM     92  C   UNL A   1      33.194  25.015  26.134  1.00  0.00     0.135 A 
ENDBRANCH  84  88
BRANCH  85  93
ATOM     93  C   UNL A   1      34.285  17.595  24.368  1.00  0.00     0.416 C 
ATOM     94  F   UNL A   1      35.540  17.203  24.712  1.00  0.00    -0.166 F 
ATOM     95  F   UNL A   1      33.439  16.929  25.202  1.00  0.00    -0.166 F 
ATOM     96  F   UNL A   1      34.054  17.084  23.127  1.00  0.00    -0.166 F 
ENDBRANCH  85  93
ENDBRANCH  80  82
ENDBRANCH  77  80
ENDBRANCH  72  77
ENDBRANCH  66  68
ENDBRANCH  65  66
ENDBRANCH  64  65
ENDBRANCH   1  64
TORSDOF 19
ENDMDL
MODEL 2
REMARK VINA RESULT:     -11.4      4.436      9.113
REMARK SMILES O=C(OCCOCCOC(=O)c1cc2c(c(S(=O)(=O)Nc3cc(C(F)(F)F)ccc3-n3cccn3)c1)CCC2)c1ccc(-c2c3nc(c(-c4c(F)cccc4F)c4ccc([nH]4)c(-c4c(F)cccc4F)c4nc(c(-c5c(F)cccc5F)c5ccc2[nH]5)C=C4)C=C3)cc1
REMARK SMILES IDX 7 1 6 2 5 3 4 4 3 5 2 6 1 7 40 8 41 9 93 10 42 11 92 12
REMARK SMILES IDX 43 13 44 14 45 15 86 16 46 17 91 18 85 19 87 20 47 21 90 22
REMARK SMILES IDX 84 23 83 24 48 26 74 27 57 28 73 29 58 30 61 31 72 32 88 33
REMARK SMILES IDX 59 34 60 35 71 37 89 38 62 39 49 40 50 41 55 42 51 43 52 44
REMARK SMILES IDX 54 45 56 46 53 47 75 48 76 49 81 50 77 51 78 52 80 53 82 54
REMARK SMILES IDX 79 55 63 56 64 57 69 58 65 59 66 60 68 61 70 62 67 63 8 64
REMARK SMILES IDX 9 65 10 66 11 67 12 68 13 69 36 70 14 71 16 72 15 73 39 74
REMARK SMILES IDX 37 75 38 76 17 77 18 78 19 79 20 80 21 82 22 83 30 84 23 85
REMARK SMILES IDX 29 86 28 87 31 88 32 89 35 90 33 91 34 92 24 93 25 94 26 95
REMARK SMILES IDX 27 96
REMARK H PARENT 87 25 61 36 20 81
REMARK Flexibility Score: inf
ROOT
ATOM      1  C   UNL A   1      33.390  30.944  27.401  1.00  0.00     0.202 C 
ENDROOT
BRANCH   1   2
ATOM      2  O   UNL A   1      33.177  32.344  27.641  1.00  0.00    -0.374 OA
BRANCH   2   3
ATOM      3  C   UNL A   1      34.060  32.956  28.574  1.00  0.00     0.202 C 
BRANCH   3   4
ATOM      4  C   UNL A   1      35.273  33.679  28.000  1.00  0.00     0.261 C 
BRANCH   4   5
ATOM      5  O   UNL A   1      36.506  32.936  28.108  1.00  0.00    -0.460 OA
BRANCH   5   6
ATOM      6  C   UNL A   1      37.469  33.192  29.024  1.00  0.00     0.338 C 
ATOM      7  O   UNL A   1      37.498  34.257  29.636  1.00  0.00    -0.246 OA
BRANCH   6   8
ATOM      8  C   UNL A   1      38.252  32.036  29.522  1.00  0.00     0.060 A 
ATOM      9  C   UNL A   1      39.558  32.121  29.996  1.00  0.00     0.016 A 
ATOM     10  C   UNL A   1      37.650  30.773  29.383  1.00  0.00     0.016 A 
ATOM     11  C   UNL A   1      40.333  30.985  30.069  1.00  0.00     0.010 A 
ATOM     12  C   UNL A   1      38.404  29.620  29.527  1.00  0.00     0.010 A 
ATOM     13  C   UNL A   1      39.764  29.743  29.778  1.00  0.00    -0.014 A 
BRANCH  13  14
ATOM     14  C   UNL A   1      40.634  28.589  29.897  1.00  0.00     0.031 A 
ATOM     15  C   UNL A   1      41.114  28.365  31.284  1.00  0.00     0.074 A 
ATOM     16  C   UNL A   1      40.960  27.788  28.867  1.00  0.00     0.049 A 
ATOM     17  N   UNL A   1      42.313  28.527  31.733  1.00  0.00    -0.248 NA
ATOM     18  C   UNL A   1      40.108  28.115  32.327  1.00  0.00     0.031 C 
ATOM     19  C   UNL A   1      40.380  27.743  27.525  1.00  0.00     0.029 A 
ATOM     20  N   UNL A   1      41.861  26.768  28.846  1.00  0.00    -0.354 N 
ATOM     21  C   UNL A   1      42.259  28.203  33.083  1.00  0.00     0.074 A 
ATOM     22  C   UNL A   1      40.863  28.120  33.426  1.00  0.00     0.031 C 
ATOM     23  C   UNL A   1      40.775  26.605  26.908  1.00  0.00     0.029 A 
ATOM     24  C   UNL A   1      41.743  25.921  27.752  1.00  0.00     0.049 A 
ATOM     25  H   UNL A   1      42.539  26.641  29.547  1.00  0.00     0.167 HD
ATOM     26  C   UNL A   1      43.373  27.791  33.746  1.00  0.00     0.037 A 
ATOM     27  C   UNL A   1      42.358  24.721  27.600  1.00  0.00     0.037 A 
ATOM     28  C   UNL A   1      44.569  28.177  33.040  1.00  0.00     0.049 A 
ATOM     29  C   UNL A   1      43.518  24.691  28.528  1.00  0.00     0.074 A 
ATOM     30  C   UNL A   1      45.122  29.382  32.651  1.00  0.00     0.029 A 
ATOM     31  N   UNL A   1      45.208  27.215  32.297  1.00  0.00    -0.354 N 
ATOM     32  N   UNL A   1      44.591  25.414  28.370  1.00  0.00    -0.248 NA
ATOM     33  C   UNL A   1      43.291  24.198  29.879  1.00  0.00     0.031 C 
ATOM     34  C   UNL A   1      45.697  29.128  31.371  1.00  0.00     0.029 A 
ATOM     35  C   UNL A   1      45.525  27.772  31.087  1.00  0.00     0.049 A 
ATOM     36  H   UNL A   1      45.404  26.293  32.583  1.00  0.00     0.167 HD
ATOM     37  C   UNL A   1      44.915  25.841  29.648  1.00  0.00     0.074 A 
ATOM     38  C   UNL A   1      44.136  24.990  30.545  1.00  0.00     0.031 C 
ATOM     39  C   UNL A   1      45.557  27.029  29.851  1.00  0.00     0.037 A 
BRANCH  26  40
ATOM     40  C   UNL A   1      43.369  26.695  34.782  1.00  0.00     0.057 A 
ATOM     41  C   UNL A   1      43.354  27.047  36.144  1.00  0.00     0.134 A 
ATOM     42  C   UNL A   1      43.702  25.352  34.514  1.00  0.00     0.134 A 
ATOM     43  F   UNL A   1      43.061  28.298  36.530  1.00  0.00    -0.206 F 
ATOM     44  C   UNL A   1      43.733  26.153  37.153  1.00  0.00     0.040 A 
ATOM     45  C   UNL A   1      44.033  24.440  35.518  1.00  0.00     0.040 A 
ATOM     46  F   UNL A   1      43.829  24.873  33.272  1.00  0.00    -0.206 F 
ATOM     47  C   UNL A   1      44.085  24.848  36.839  1.00  0.00     0.006 A 
ENDBRANCH  26  40
BRANCH  27  48
ATOM     48  C   UNL A   1      41.847  23.492  26.953  1.00  0.00     0.057 A 
ATOM     49  C   UNL A   1      42.699  22.649  26.223  1.00  0.00     0.134 A 
ATOM     50  C   UNL A   1      40.586  22.961  27.276  1.00  0.00     0.134 A 
ATOM     51  F   UNL A   1      43.938  23.048  25.900  1.00  0.00    -0.206 F 
ATOM     52  C   UNL A   1      42.332  21.344  25.866  1.00  0.00     0.040 A 
ATOM     53  C   UNL A   1      40.205  21.662  26.921  1.00  0.00     0.040 A 
ATOM     54  F   UNL A   1      39.717  23.648  28.031  1.00  0.00    -0.206 F 
ATOM     55  C   UNL A   1      41.086  20.843  26.227  1.00  0.00     0.006 A 
ENDBRANCH  27  48
BRANCH  39  56
ATOM     56  C   UNL A   1      46.144  27.726  28.654  1.00  0.00     0.057 A 
ATOM     57  C   UNL A   1      45.423  28.570  27.794  1.00  0.00     0.134 A 
ATOM     58  C   UNL A   1      47.526  27.647  28.450  1.00  0.00     0.134 A 
ATOM     59  F   UNL A   1      44.115  28.791  27.972  1.00  0.00    -0.206 F 
ATOM     60  C   UNL A   1      46.047  29.264  26.753  1.00  0.00     0.040 A 
ATOM     61  C   UNL A   1      48.165  28.362  27.437  1.00  0.00     0.040 A 
ATOM     62  F   UNL A   1      48.288  26.903  29.268  1.00  0.00    -0.206 F 
ATOM     63  C   UNL A   1      47.424  29.166  26.575  1.00  0.00     0.006 A 
ENDBRANCH  39  56
ENDBRANCH  13  14
ENDBRANCH   6   8
ENDBRANCH   5   6
ENDBRANCH   4   5
ENDBRANCH   3   4
ENDBRANCH   2   3
ENDBRANCH   1   2
BRANCH   1  64
ATOM     64  C   UNL A   1      32.295  30.138  26.680  1.00  0.00     0.261 C 
BRANCH  64  65
ATOM     65  O   UNL A   1      32.715  28.799  26.351  1.00  0.00    -0.460 OA
BRANCH  65  66
ATOM     66  C   UNL A   1      32.033  27.778  26.944  1.00  0.00     0.338 C 
ATOM     67  O   UNL A   1      31.372  27.823  27.950  1.00  0.00    -0.246 OA
BRANCH  66  68
ATOM     68  C   UNL A   1      32.055  26.622  26.010  1.00  0.00     0.061 A 
ATOM     69  C   UNL A   1      32.138  26.861  24.644  1.00  0.00     0.019 A 
ATOM     70  C   UNL A   1      31.958  25.301  26.518  1.00  0.00     0.038 A 
ATOM     71  C   UNL A   1      32.107  25.766  23.807  1.00  0.00    -0.043 A 
ATOM     72  C   UNL A   1      31.891  24.187  25.650  1.00  0.00     0.092 A 
ATOM     73  C   UNL A   1      31.916  24.449  24.286  1.00  0.00    -0.024 A 
ATOM     74  C   UNL A   1      32.261  25.788  22.315  1.00  0.00     0.036 C 
ATOM     75  C   UNL A   1      31.735  23.565  23.094  1.00  0.00     0.037 C 
ATOM     76  C   UNL A   1      32.600  24.318  22.078  1.00  0.00     0.010 C 
BRANCH  72  77
ATOM     77  S   UNL A   1      31.548  22.578  26.345  1.00  0.00     0.262 S 
ATOM     78  O   UNL A   1      32.095  22.574  27.689  1.00  0.00    -0.201 OA
ATOM     79  O   UNL A   1      30.133  22.330  26.159  1.00  0.00    -0.201 OA
BRANCH  77  80
ATOM     80  N   UNL A   1      32.345  21.279  25.562  1.00  0.00    -0.277 N 
ATOM     81  H   UNL A   1      31.814  20.497  25.288  1.00  0.00     0.180 HD
BRANCH  80  82
ATOM     82  C   UNL A   1      33.755  21.283  25.288  1.00  0.00     0.075 A 
ATOM     83  C   UNL A   1      34.456  22.499  25.380  1.00  0.00     0.042 A 
ATOM     84  C   UNL A   1      34.468  20.100  25.050  1.00  0.00     0.089 A 
ATOM     85  C   UNL A   1      35.867  22.528  25.337  1.00  0.00     0.058 A 
ATOM     86  C   UNL A   1      35.869  20.124  24.977  1.00  0.00     0.031 A 
ATOM     87  C   UNL A   1      36.562  21.330  25.116  1.00  0.00     0.015 A 
BRANCH  84  88
ATOM     88  N   UNL A   1      33.804  18.858  24.925  1.00  0.00    -0.239 N 
ATOM     89  C   UNL A   1      34.031  17.869  23.995  1.00  0.00     0.115 A 
ATOM     90  N   UNL A   1      32.726  18.575  25.698  1.00  0.00    -0.177 NA
ATOM     91  C   UNL A   1      32.954  17.020  24.047  1.00  0.00     0.042 A 
ATOM     92  C   UNL A   1      32.163  17.525  25.091  1.00  0.00     0.135 A 
ENDBRANCH  84  88
BRANCH  85  93
ATOM     93  C   UNL A   1      36.613  23.813  25.624  1.00  0.00     0.416 C 
ATOM     94  F   UNL A   1      37.214  23.813  26.843  1.00  0.00    -0.166 F 
ATOM     95  F   UNL A   1      37.599  24.046  24.715  1.00  0.00    -0.166 F 
ATOM     96  F   UNL A   1      35.817  24.918  25.592  1.00  0.00    -0.166 F 
ENDBRANCH  85  93
ENDBRANCH  80  82
ENDBRANCH  77  80
ENDBRANCH  72  77
ENDBRANCH  66  68
ENDBRANCH  65  66
ENDBRANCH  64  65
ENDBRANCH   1  64
TORSDOF 19
ENDMDL
MODEL 3
REMARK VINA RESULT:     -11.3      3.361      8.600
REMARK SMILES O=C(OCCOCCOC(=O)c1cc2c(c(S(=O)(=O)Nc3cc(C(F)(F)F)ccc3-n3cccn3)c1)CCC2)c1ccc(-c2c3nc(c(-c4c(F)cccc4F)c4ccc([nH]4)c(-c4c(F)cccc4F)c4nc(c(-c5c(F)cccc5F)c5ccc2[nH]5)C=C4)C=C3)cc1
REMARK SMILES IDX 7 1 6 2 5 3 4 4 3 5 2 6 1 7 40 8 41 9 93 10 42 11 92 12
REMARK SMILES IDX 43 13 44 14 45 15 86 16 46 17 91 18 85 19 87 20 47 21 90 22
REMARK SMILES IDX 84 23 83 24 48 26 74 27 57 28 73 29 58 30 61 31 72 32 88 33
REMARK SMILES IDX 59 34 60 35 71 37 89 38 62 39 49 40 50 41 55 42 51 43 52 44
REMARK SMILES IDX 54 45 56 46 53 47 75 48 76 49 81 50 77 51 78 52 80 53 82 54
REMARK SMILES IDX 79 55 63 56 64 57 69 58 65 59 66 60 68 61 70 62 67 63 8 64
REMARK SMILES IDX 9 65 10 66 11 67 12 68 13 69 36 70 14 71 16 72 15 73 39 74
REMARK SMILES IDX 37 75 38 76 17 77 18 78 19 79 20 80 21 82 22 83 30 84 23 85
REMARK SMILES IDX 29 86 28 87 31 88 32 89 35 90 33 91 34 92 24 93 25 94 26 95
REMARK SMILES IDX 27 96
REMARK H PARENT 87 25 61 36 20 81
REMARK Flexibility Score: inf
ROOT
ATOM      1  C   UNL A   1      32.872  29.076  24.276  1.00  0.00     0.202 C 
ENDROOT
BRANCH   1   2
ATOM      2  O   UNL A   1      31.965  30.034  24.842  1.00  0.00    -0.374 OA
BRANCH   2   3
ATOM      3  C   UNL A   1      31.855  30.022  26.261  1.00  0.00     0.202 C 
BRANCH   3   4
ATOM      4  C   UNL A   1      32.673  31.059  27.023  1.00  0.00     0.261 C 
BRANCH   4   5
ATOM      5  O   UNL A   1      34.030  30.652  27.295  1.00  0.00    -0.460 OA
BRANCH   5   6
ATOM      6  C   UNL A   1      35.001  31.489  27.730  1.00  0.00     0.338 C 
ATOM      7  O   UNL A   1      34.789  32.691  27.871  1.00  0.00    -0.246 OA
BRANCH   6   8
ATOM      8  C   UNL A   1      36.188  30.872  28.368  1.00  0.00     0.060 A 
ATOM      9  C   UNL A   1      37.311  31.582  28.782  1.00  0.00     0.016 A 
ATOM     10  C   UNL A   1      36.197  29.468  28.436  1.00  0.00     0.016 A 
ATOM     11  C   UNL A   1      38.498  30.917  28.997  1.00  0.00     0.010 A 
ATOM     12  C   UNL A   1      37.369  28.789  28.724  1.00  0.00     0.010 A 
ATOM     13  C   UNL A   1      38.533  29.523  28.910  1.00  0.00    -0.014 A 
BRANCH  13  14
ATOM     14  C   UNL A   1      39.812  28.891  29.170  1.00  0.00     0.031 A 
ATOM     15  C   UNL A   1      40.151  28.840  30.615  1.00  0.00     0.074 A 
ATOM     16  C   UNL A   1      40.604  28.381  28.210  1.00  0.00     0.049 A 
ATOM     17  N   UNL A   1      41.070  29.509  31.226  1.00  0.00    -0.248 NA
ATOM     18  C   UNL A   1      39.244  28.105  31.508  1.00  0.00     0.031 C 
ATOM     19  C   UNL A   1      40.294  28.145  26.800  1.00  0.00     0.029 A 
ATOM     20  N   UNL A   1      41.866  27.889  28.333  1.00  0.00    -0.354 N 
ATOM     21  C   UNL A   1      40.991  29.127  32.560  1.00  0.00     0.074 A 
ATOM     22  C   UNL A   1      39.758  28.398  32.703  1.00  0.00     0.031 C 
ATOM     23  C   UNL A   1      41.247  27.346  26.263  1.00  0.00     0.029 A 
ATOM     24  C   UNL A   1      42.298  27.139  27.247  1.00  0.00     0.049 A 
ATOM     25  H   UNL A   1      42.426  28.050  29.125  1.00  0.00     0.167 HD
ATOM     26  C   UNL A   1      42.070  29.238  33.381  1.00  0.00     0.037 A 
ATOM     27  C   UNL A   1      43.410  26.363  27.203  1.00  0.00     0.037 A 
ATOM     28  C   UNL A   1      43.037  30.163  32.846  1.00  0.00     0.049 A 
ATOM     29  C   UNL A   1      44.318  26.819  28.286  1.00  0.00     0.074 A 
ATOM     30  C   UNL A   1      43.021  31.506  32.520  1.00  0.00     0.029 A 
ATOM     31  N   UNL A   1      44.139  29.640  32.217  1.00  0.00    -0.354 N 
ATOM     32  N   UNL A   1      44.949  27.959  28.271  1.00  0.00    -0.248 NA
ATOM     33  C   UNL A   1      44.166  26.208  29.599  1.00  0.00     0.031 C 
ATOM     34  C   UNL A   1      43.813  31.608  31.339  1.00  0.00     0.029 A 
ATOM     35  C   UNL A   1      44.323  30.341  31.055  1.00  0.00     0.049 A 
ATOM     36  H   UNL A   1      44.697  28.896  32.542  1.00  0.00     0.167 HD
ATOM     37  C   UNL A   1      44.867  28.421  29.576  1.00  0.00     0.074 A 
ATOM     38  C   UNL A   1      44.454  27.263  30.366  1.00  0.00     0.031 C 
ATOM     39  C   UNL A   1      44.857  29.759  29.848  1.00  0.00     0.037 A 
BRANCH  26  40
ATOM     40  C   UNL A   1      42.433  28.210  34.423  1.00  0.00     0.057 A 
ATOM     41  C   UNL A   1      42.820  26.924  34.005  1.00  0.00     0.134 A 
ATOM     42  C   UNL A   1      42.112  28.324  35.791  1.00  0.00     0.134 A 
ATOM     43  F   UNL A   1      43.141  26.682  32.725  1.00  0.00    -0.206 F 
ATOM     44  C   UNL A   1      42.797  25.818  34.865  1.00  0.00     0.040 A 
ATOM     45  C   UNL A   1      42.135  27.237  36.667  1.00  0.00     0.040 A 
ATOM     46  F   UNL A   1      41.660  29.459  36.336  1.00  0.00    -0.206 F 
ATOM     47  C   UNL A   1      42.442  25.971  36.198  1.00  0.00     0.006 A 
ENDBRANCH  26  40
BRANCH  27  48
ATOM     48  C   UNL A   1      43.613  25.070  26.509  1.00  0.00     0.057 A 
ATOM     49  C   UNL A   1      42.769  23.976  26.756  1.00  0.00     0.134 A 
ATOM     50  C   UNL A   1      44.445  24.964  25.382  1.00  0.00     0.134 A 
ATOM     51  F   UNL A   1      41.909  23.997  27.784  1.00  0.00    -0.206 F 
ATOM     52  C   UNL A   1      42.733  22.857  25.912  1.00  0.00     0.040 A 
ATOM     53  C   UNL A   1      44.423  23.850  24.535  1.00  0.00     0.040 A 
ATOM     54  F   UNL A   1      45.240  25.976  25.009  1.00  0.00    -0.206 F 
ATOM     55  C   UNL A   1      43.552  22.799  24.789  1.00  0.00     0.006 A 
ENDBRANCH  27  48
BRANCH  39  56
ATOM     56  C   UNL A   1      45.211  30.707  28.735  1.00  0.00     0.057 A 
ATOM     57  C   UNL A   1      46.521  31.088  28.404  1.00  0.00     0.134 A 
ATOM     58  C   UNL A   1      44.192  31.138  27.879  1.00  0.00     0.134 A 
ATOM     59  F   UNL A   1      47.573  30.643  29.102  1.00  0.00    -0.206 F 
ATOM     60  C   UNL A   1      46.792  31.901  27.299  1.00  0.00     0.040 A 
ATOM     61  C   UNL A   1      44.454  31.919  26.753  1.00  0.00     0.040 A 
ATOM     62  F   UNL A   1      42.920  30.766  28.101  1.00  0.00    -0.206 F 
ATOM     63  C   UNL A   1      45.757  32.313  26.465  1.00  0.00     0.006 A 
ENDBRANCH  39  56
ENDBRANCH  13  14
ENDBRANCH   6   8
ENDBRANCH   5   6
ENDBRANCH   4   5
ENDBRANCH   3   4
ENDBRANCH   2   3
ENDBRANCH   1   2
BRANCH   1  64
ATOM     64  C   UNL A   1      32.909  28.900  22.747  1.00  0.00     0.261 C 
BRANCH  64  65
ATOM     65  O   UNL A   1      32.413  27.616  22.322  1.00  0.00    -0.460 OA
BRANCH  65  66
ATOM     66  C   UNL A   1      31.138  27.298  22.686  1.00  0.00     0.338 C 
ATOM     67  O   UNL A   1      30.114  27.789  22.283  1.00  0.00    -0.246 OA
BRANCH  66  68
ATOM     68  C   UNL A   1      31.202  26.068  23.518  1.00  0.00     0.061 A 
ATOM     69  C   UNL A   1      30.419  25.987  24.663  1.00  0.00     0.019 A 
ATOM     70  C   UNL A   1      32.080  25.014  23.155  1.00  0.00     0.038 A 
ATOM     71  C   UNL A   1      30.543  24.852  25.435  1.00  0.00    -0.043 A 
ATOM     72  C   UNL A   1      32.225  23.870  23.972  1.00  0.00     0.092 A 
ATOM     73  C   UNL A   1      31.479  23.833  25.143  1.00  0.00    -0.024 A 
ATOM     74  C   UNL A   1      29.741  24.523  26.660  1.00  0.00     0.036 C 
ATOM     75  C   UNL A   1      31.468  22.877  26.293  1.00  0.00     0.037 C 
ATOM     76  C   UNL A   1      30.008  23.021  26.737  1.00  0.00     0.010 C 
BRANCH  72  77
ATOM     77  S   UNL A   1      33.505  22.689  23.574  1.00  0.00     0.262 S 
ATOM     78  O   UNL A   1      32.838  21.477  23.136  1.00  0.00    -0.201 OA
ATOM     79  O   UNL A   1      34.427  23.351  22.675  1.00  0.00    -0.201 OA
BRANCH  77  80
ATOM     80  N   UNL A   1      34.453  22.189  24.910  1.00  0.00    -0.277 N 
ATOM     81  H   UNL A   1      34.555  22.803  25.673  1.00  0.00     0.180 HD
BRANCH  80  82
ATOM     82  C   UNL A   1      35.107  20.911  24.966  1.00  0.00     0.075 A 
ATOM     83  C   UNL A   1      34.345  19.753  24.721  1.00  0.00     0.042 A 
ATOM     84  C   UNL A   1      36.492  20.792  25.139  1.00  0.00     0.089 A 
ATOM     85  C   UNL A   1      34.968  18.498  24.549  1.00  0.00     0.058 A 
ATOM     86  C   UNL A   1      37.116  19.544  24.997  1.00  0.00     0.031 A 
ATOM     87  C   UNL A   1      36.358  18.405  24.708  1.00  0.00     0.015 A 
BRANCH  84  88
ATOM     88  N   UNL A   1      37.295  21.924  25.413  1.00  0.00    -0.239 N 
ATOM     89  C   UNL A   1      38.588  21.948  25.882  1.00  0.00     0.115 A 
ATOM     90  N   UNL A   1      36.769  23.172  25.341  1.00  0.00    -0.177 NA
ATOM     91  C   UNL A   1      38.833  23.230  26.305  1.00  0.00     0.042 A 
ATOM     92  C   UNL A   1      37.663  23.934  25.980  1.00  0.00     0.135 A 
ENDBRANCH  84  88
BRANCH  85  93
ATOM     93  C   UNL A   1      34.159  17.300  24.101  1.00  0.00     0.416 C 
ATOM     94  F   UNL A   1      34.029  17.226  22.751  1.00  0.00    -0.166 F 
ATOM     95  F   UNL A   1      34.726  16.125  24.492  1.00  0.00    -0.166 F 
ATOM     96  F   UNL A   1      32.894  17.283  24.607  1.00  0.00    -0.166 F 
ENDBRANCH  85  93
ENDBRANCH  80  82
ENDBRANCH  77  80
ENDBRANCH  72  77
ENDBRANCH  66  68
ENDBRANCH  65  66
ENDBRANCH  64  65
ENDBRANCH   1  64
TORSDOF 19
ENDMDL
