MODEL 1
REMARK VINA RESULT:     -11.0      0.000      0.000
REMARK SMILES CN1C(=O)[C@H](CC(=O)OCCOCCOC(=O)c2ccc(-c3c4nc(c(-c5c(F)cccc5F)c5ccc([nH]5)c(-c5c(F)cccc5F)c5nc(c(-c6c(F)cccc6F)c6ccc3[nH]6)C=C5)C=C4)cc2)S/C1=[NH+]\N=C\c1ccc(O)cc1O
REMARK SMILES IDX 11 1 10 2 9 3 7 4 8 5 6 6 5 7 1 8 2 9 3 10 73 11 4 12 72 13
REMARK SMILES IDX 74 14 75 16 76 17 77 18 78 19 83 20 79 21 82 22 80 23 84 24
REMARK SMILES IDX 81 26 12 28 13 29 14 30 15 31 16 32 17 33 18 34 19 35 71 36
REMARK SMILES IDX 20 37 70 38 21 39 22 40 23 41 64 42 24 43 69 44 63 45 65 46
REMARK SMILES IDX 25 47 68 48 62 49 61 50 26 52 52 53 35 54 51 55 36 56 39 57
REMARK SMILES IDX 50 58 66 59 37 60 38 61 49 63 67 64 40 65 27 66 28 67 33 68
REMARK SMILES IDX 29 69 30 70 32 71 34 72 31 73 53 74 54 75 59 76 55 77 56 78
REMARK SMILES IDX 58 79 60 80 57 81 41 82 42 83 47 84 43 85 44 86 46 87 48 88
REMARK SMILES IDX 45 89
REMARK H PARENT 74 15 84 25 81 27 65 51 39 62
REMARK Flexibility Score: inf
ROOT
ATOM      1  C   UNL A   1      41.715  20.540  26.794  1.00  0.00     0.202 C 
ENDROOT
BRANCH   1   2
ATOM      2  C   UNL A   1      40.623  21.509  27.267  1.00  0.00     0.261 C 
BRANCH   2   3
ATOM      3  O   UNL A   1      39.955  22.140  26.164  1.00  0.00    -0.463 OA
BRANCH   3   4
ATOM      4  C   UNL A   1      38.836  21.510  25.728  1.00  0.00     0.307 C 
ATOM      5  O   UNL A   1      38.800  20.364  25.296  1.00  0.00    -0.252 OA
BRANCH   4   6
ATOM      6  C   UNL A   1      37.589  22.301  26.013  1.00  0.00     0.150 C 
BRANCH   6   7
ATOM      7  C   UNL A   1      36.575  22.476  24.884  1.00  0.00     0.185 C 
ATOM      8  C   UNL A   1      33.507  20.949  26.415  1.00  0.00     0.301 C 
ATOM      9  N   UNL A   1      34.449  21.857  25.797  1.00  0.00    -0.191 N 
ATOM     10  C   UNL A   1      35.545  21.382  25.107  1.00  0.00     0.324 C 
ATOM     11  C   UNL A   1      34.285  23.214  25.832  1.00  0.00     0.339 C 
ATOM     12  O   UNL A   1      35.737  20.211  24.802  1.00  0.00    -0.245 OA
ATOM     13  S   UNL A   1      35.581  24.000  24.960  1.00  0.00    -0.020 SA
ATOM     14  N   UNL A   1      33.296  23.787  26.444  1.00  0.00    -0.142 N 
ATOM     15  H   UNL A   1      32.633  23.281  26.967  1.00  0.00     0.343 HD
BRANCH  14  16
ATOM     16  N   UNL A   1      33.240  25.169  26.303  1.00  0.00    -0.093 NA
ATOM     17  C   UNL A   1      32.063  25.573  25.938  1.00  0.00     0.170 C 
BRANCH  17  18
ATOM     18  C   UNL A   1      31.791  27.008  25.716  1.00  0.00     0.039 A 
ATOM     19  C   UNL A   1      32.249  27.923  26.671  1.00  0.00     0.017 A 
ATOM     20  C   UNL A   1      31.111  27.469  24.579  1.00  0.00     0.128 A 
ATOM     21  C   UNL A   1      32.031  29.290  26.481  1.00  0.00     0.047 A 
ATOM     22  C   UNL A   1      30.891  28.832  24.393  1.00  0.00     0.093 A 
ATOM     23  C   UNL A   1      31.358  29.731  25.346  1.00  0.00     0.119 A 
BRANCH  20  24
ATOM     24  O   UNL A   1      30.633  26.635  23.602  1.00  0.00    -0.507 OA
ATOM     25  H   UNL A   1      29.721  26.421  23.574  1.00  0.00     0.293 HD
ENDBRANCH  20  24
BRANCH  23  26
ATOM     26  O   UNL A   1      31.176  31.076  25.201  1.00  0.00    -0.508 OA
ATOM     27  H   UNL A   1      31.839  31.597  24.792  1.00  0.00     0.293 HD
ENDBRANCH  23  26
ENDBRANCH  17  18
ENDBRANCH  14  16
ENDBRANCH   6   7
ENDBRANCH   4   6
ENDBRANCH   3   4
ENDBRANCH   2   3
ENDBRANCH   1   2
BRANCH   1  28
ATOM     28  O   UNL A   1      42.380  20.900  25.583  1.00  0.00    -0.374 OA
BRANCH  28  29
ATOM     29  C   UNL A   1      43.786  21.164  25.664  1.00  0.00     0.202 C 
BRANCH  29  30
ATOM     30  C   UNL A   1      44.336  22.176  24.654  1.00  0.00     0.261 C 
BRANCH  30  31
ATOM     31  O   UNL A   1      43.553  23.383  24.645  1.00  0.00    -0.460 OA
BRANCH  31  32
ATOM     32  C   UNL A   1      44.237  24.482  25.033  1.00  0.00     0.338 C 
ATOM     33  O   UNL A   1      45.314  24.876  24.607  1.00  0.00    -0.246 OA
BRANCH  32  34
ATOM     34  C   UNL A   1      43.385  25.319  25.894  1.00  0.00     0.060 A 
ATOM     35  C   UNL A   1      43.804  26.636  26.116  1.00  0.00     0.016 A 
ATOM     36  C   UNL A   1      42.281  24.801  26.571  1.00  0.00     0.016 A 
ATOM     37  C   UNL A   1      43.155  27.423  27.066  1.00  0.00     0.010 A 
ATOM     38  C   UNL A   1      41.630  25.595  27.527  1.00  0.00     0.010 A 
ATOM     39  C   UNL A   1      42.090  26.894  27.810  1.00  0.00    -0.014 A 
BRANCH  39  40
ATOM     40  C   UNL A   1      41.586  27.658  28.981  1.00  0.00     0.031 A 
ATOM     41  C   UNL A   1      42.324  27.567  30.292  1.00  0.00     0.074 A 
ATOM     42  C   UNL A   1      40.535  28.490  28.867  1.00  0.00     0.049 A 
ATOM     43  N   UNL A   1      42.084  28.179  31.425  1.00  0.00    -0.248 NA
ATOM     44  C   UNL A   1      43.493  26.673  30.328  1.00  0.00     0.031 C 
ATOM     45  C   UNL A   1      39.758  28.708  27.648  1.00  0.00     0.029 A 
ATOM     46  N   UNL A   1      39.945  29.315  29.794  1.00  0.00    -0.354 N 
ATOM     47  C   UNL A   1      43.073  27.752  32.303  1.00  0.00     0.074 A 
ATOM     48  C   UNL A   1      43.897  26.804  31.584  1.00  0.00     0.031 C 
ATOM     49  C   UNL A   1      38.791  29.607  27.903  1.00  0.00     0.029 A 
ATOM     50  C   UNL A   1      38.866  30.011  29.306  1.00  0.00     0.049 A 
ATOM     51  H   UNL A   1      40.266  29.399  30.721  1.00  0.00     0.167 HD
ATOM     52  C   UNL A   1      43.287  28.126  33.586  1.00  0.00     0.037 A 
ATOM     53  C   UNL A   1      38.029  30.867  29.924  1.00  0.00     0.037 A 
ATOM     54  C   UNL A   1      42.476  29.067  34.311  1.00  0.00     0.049 A 
ATOM     55  C   UNL A   1      38.246  31.208  31.375  1.00  0.00     0.074 A 
ATOM     56  C   UNL A   1      42.621  29.504  35.617  1.00  0.00     0.029 A 
ATOM     57  N   UNL A   1      41.367  29.716  33.793  1.00  0.00    -0.354 N 
ATOM     58  N   UNL A   1      39.195  30.811  32.186  1.00  0.00    -0.248 NA
ATOM     59  C   UNL A   1      37.273  32.122  31.995  1.00  0.00     0.031 C 
ATOM     60  C   UNL A   1      41.578  30.391  35.901  1.00  0.00     0.029 A 
ATOM     61  C   UNL A   1      40.807  30.535  34.759  1.00  0.00     0.049 A 
ATOM     62  H   UNL A   1      41.029  29.610  32.875  1.00  0.00     0.167 HD
ATOM     63  C   UNL A   1      38.950  31.444  33.399  1.00  0.00     0.074 A 
ATOM     64  C   UNL A   1      37.770  32.262  33.215  1.00  0.00     0.031 C 
ATOM     65  C   UNL A   1      39.641  31.355  34.561  1.00  0.00     0.037 A 
BRANCH  52  66
ATOM     66  C   UNL A   1      44.450  27.505  34.301  1.00  0.00     0.057 A 
ATOM     67  C   UNL A   1      44.322  26.299  35.000  1.00  0.00     0.134 A 
ATOM     68  C   UNL A   1      45.721  28.093  34.244  1.00  0.00     0.134 A 
ATOM     69  F   UNL A   1      43.130  25.695  35.100  1.00  0.00    -0.206 F 
ATOM     70  C   UNL A   1      45.417  25.702  35.628  1.00  0.00     0.040 A 
ATOM     71  C   UNL A   1      46.827  27.495  34.851  1.00  0.00     0.040 A 
ATOM     72  F   UNL A   1      45.909  29.246  33.587  1.00  0.00    -0.206 F 
ATOM     73  C   UNL A   1      46.676  26.297  35.548  1.00  0.00     0.006 A 
ENDBRANCH  52  66
BRANCH  53  74
ATOM     74  C   UNL A   1      36.886  31.458  29.184  1.00  0.00     0.057 A 
ATOM     75  C   UNL A   1      35.752  30.702  28.867  1.00  0.00     0.134 A 
ATOM     76  C   UNL A   1      36.925  32.784  28.734  1.00  0.00     0.134 A 
ATOM     77  F   UNL A   1      35.669  29.419  29.247  1.00  0.00    -0.206 F 
ATOM     78  C   UNL A   1      34.706  31.235  28.111  1.00  0.00     0.040 A 
ATOM     79  C   UNL A   1      35.877  33.337  27.998  1.00  0.00     0.040 A 
ATOM     80  F   UNL A   1      37.986  33.559  29.001  1.00  0.00    -0.206 F 
ATOM     81  C   UNL A   1      34.766  32.558  27.677  1.00  0.00     0.006 A 
ENDBRANCH  53  74
BRANCH  65  82
ATOM     82  C   UNL A   1      39.162  32.185  35.715  1.00  0.00     0.057 A 
ATOM     83  C   UNL A   1      38.323  31.658  36.704  1.00  0.00     0.134 A 
ATOM     84  C   UNL A   1      39.576  33.515  35.858  1.00  0.00     0.134 A 
ATOM     85  F   UNL A   1      37.881  30.394  36.618  1.00  0.00    -0.206 F 
ATOM     86  C   UNL A   1      37.898  32.431  37.787  1.00  0.00     0.040 A 
ATOM     87  C   UNL A   1      39.177  34.291  36.947  1.00  0.00     0.040 A 
ATOM     88  F   UNL A   1      40.388  34.078  34.949  1.00  0.00    -0.206 F 
ATOM     89  C   UNL A   1      38.330  33.750  37.913  1.00  0.00     0.006 A 
ENDBRANCH  65  82
ENDBRANCH  39  40
ENDBRANCH  32  34
ENDBRANCH  31  32
ENDBRANCH  30  31
ENDBRANCH  29  30
ENDBRANCH  28  29
ENDBRANCH   1  28
TORSDOF 19
ENDMDL
MODEL 2
REMARK VINA RESULT:     -10.9      1.866      7.362
REMARK SMILES CN1C(=O)[C@H](CC(=O)OCCOCCOC(=O)c2ccc(-c3c4nc(c(-c5c(F)cccc5F)c5ccc([nH]5)c(-c5c(F)cccc5F)c5nc(c(-c6c(F)cccc6F)c6ccc3[nH]6)C=C5)C=C4)cc2)S/C1=[NH+]\N=C\c1ccc(O)cc1O
REMARK SMILES IDX 11 1 10 2 9 3 7 4 8 5 6 6 5 7 1 8 2 9 3 10 73 11 4 12 72 13
REMARK SMILES IDX 74 14 75 16 76 17 77 18 78 19 83 20 79 21 82 22 80 23 84 24
REMARK SMILES IDX 81 26 12 28 13 29 14 30 15 31 16 32 17 33 18 34 19 35 71 36
REMARK SMILES IDX 20 37 70 38 21 39 22 40 23 41 64 42 24 43 69 44 63 45 65 46
REMARK SMILES IDX 25 47 68 48 62 49 61 50 26 52 52 53 35 54 51 55 36 56 39 57
REMARK SMILES IDX 50 58 66 59 37 60 38 61 49 63 67 64 40 65 27 66 28 67 33 68
REMARK SMILES IDX 29 69 30 70 32 71 34 72 31 73 53 74 54 75 59 76 55 77 56 78
REMARK SMILES IDX 58 79 60 80 57 81 41 82 42 83 47 84 43 85 44 86 46 87 48 88
REMARK SMILES IDX 45 89
REMARK H PARENT 74 15 84 25 81 27 65 51 39 62
REMARK Flexibility Score: inf
ROOT
ATOM      1  C   UNL A   1      40.355  22.133  26.982  1.00  0.00     0.202 C 
ENDROOT
BRANCH   1   2
ATOM      2  C   UNL A   1      39.110  22.872  26.475  1.00  0.00     0.261 C 
BRANCH   2   3
ATOM      3  O   UNL A   1      38.089  21.961  26.039  1.00  0.00    -0.463 OA
BRANCH   3   4
ATOM      4  C   UNL A   1      37.348  22.383  24.984  1.00  0.00     0.307 C 
ATOM      5  O   UNL A   1      37.057  21.696  24.013  1.00  0.00    -0.252 OA
BRANCH   4   6
ATOM      6  C   UNL A   1      36.745  23.741  25.219  1.00  0.00     0.150 C 
BRANCH   6   7
ATOM      7  C   UNL A   1      35.471  23.827  26.056  1.00  0.00     0.185 C 
ATOM      8  C   UNL A   1      32.917  24.617  23.423  1.00  0.00     0.301 C 
ATOM      9  N   UNL A   1      33.660  23.998  24.499  1.00  0.00    -0.191 N 
ATOM     10  C   UNL A   1      34.541  24.731  25.267  1.00  0.00     0.324 C 
ATOM     11  C   UNL A   1      33.503  22.681  24.831  1.00  0.00     0.339 C 
ATOM     12  O   UNL A   1      34.653  25.951  25.246  1.00  0.00    -0.245 OA
ATOM     13  S   UNL A   1      34.523  22.278  26.194  1.00  0.00    -0.020 SA
ATOM     14  N   UNL A   1      32.705  21.885  24.191  1.00  0.00    -0.142 N 
ATOM     15  H   UNL A   1      32.204  22.168  23.392  1.00  0.00     0.343 HD
BRANCH  14  16
ATOM     16  N   UNL A   1      32.607  20.603  24.720  1.00  0.00    -0.093 NA
ATOM     17  C   UNL A   1      33.271  19.736  24.019  1.00  0.00     0.170 C 
BRANCH  17  18
ATOM     18  C   UNL A   1      33.287  18.309  24.399  1.00  0.00     0.039 A 
ATOM     19  C   UNL A   1      33.636  17.369  23.422  1.00  0.00     0.017 A 
ATOM     20  C   UNL A   1      32.984  17.882  25.700  1.00  0.00     0.128 A 
ATOM     21  C   UNL A   1      33.686  16.013  23.752  1.00  0.00     0.047 A 
ATOM     22  C   UNL A   1      33.029  16.528  26.027  1.00  0.00     0.093 A 
ATOM     23  C   UNL A   1      33.385  15.605  25.048  1.00  0.00     0.119 A 
BRANCH  20  24
ATOM     24  O   UNL A   1      32.633  18.741  26.708  1.00  0.00    -0.507 OA
ATOM     25  H   UNL A   1      31.738  18.993  26.819  1.00  0.00     0.293 HD
ENDBRANCH  20  24
BRANCH  23  26
ATOM     26  O   UNL A   1      33.454  14.270  25.324  1.00  0.00    -0.508 OA
ATOM     27  H   UNL A   1      33.164  13.645  24.689  1.00  0.00     0.293 HD
ENDBRANCH  23  26
ENDBRANCH  17  18
ENDBRANCH  14  16
ENDBRANCH   6   7
ENDBRANCH   4   6
ENDBRANCH   3   4
ENDBRANCH   2   3
ENDBRANCH   1   2
BRANCH   1  28
ATOM     28  O   UNL A   1      41.016  21.304  26.028  1.00  0.00    -0.374 OA
BRANCH  28  29
ATOM     29  C   UNL A   1      42.442  21.200  26.127  1.00  0.00     0.202 C 
BRANCH  29  30
ATOM     30  C   UNL A   1      43.244  22.229  25.324  1.00  0.00     0.261 C 
BRANCH  30  31
ATOM     31  O   UNL A   1      44.028  23.072  26.189  1.00  0.00    -0.460 OA
BRANCH  31  32
ATOM     32  C   UNL A   1      44.165  24.338  25.739  1.00  0.00     0.338 C 
ATOM     33  O   UNL A   1      44.656  24.701  24.679  1.00  0.00    -0.246 OA
BRANCH  32  34
ATOM     34  C   UNL A   1      43.403  25.257  26.601  1.00  0.00     0.060 A 
ATOM     35  C   UNL A   1      43.865  26.576  26.690  1.00  0.00     0.016 A 
ATOM     36  C   UNL A   1      42.349  24.817  27.402  1.00  0.00     0.016 A 
ATOM     37  C   UNL A   1      43.311  27.446  27.628  1.00  0.00     0.010 A 
ATOM     38  C   UNL A   1      41.794  25.695  28.345  1.00  0.00     0.010 A 
ATOM     39  C   UNL A   1      42.301  27.000  28.492  1.00  0.00    -0.014 A 
BRANCH  39  40
ATOM     40  C   UNL A   1      41.910  27.859  29.640  1.00  0.00     0.031 A 
ATOM     41  C   UNL A   1      40.706  28.758  29.509  1.00  0.00     0.074 A 
ATOM     42  C   UNL A   1      42.560  27.786  30.816  1.00  0.00     0.049 A 
ATOM     43  N   UNL A   1      40.165  29.555  30.396  1.00  0.00    -0.248 NA
ATOM     44  C   UNL A   1      40.017  28.749  28.209  1.00  0.00     0.031 C 
ATOM     45  C   UNL A   1      43.710  26.929  31.093  1.00  0.00     0.029 A 
ATOM     46  N   UNL A   1      42.335  28.443  32.001  1.00  0.00    -0.354 N 
ATOM     47  C   UNL A   1      39.070  30.134  29.766  1.00  0.00     0.074 A 
ATOM     48  C   UNL A   1      39.043  29.625  28.412  1.00  0.00     0.031 C 
ATOM     49  C   UNL A   1      44.093  27.113  32.369  1.00  0.00     0.029 A 
ATOM     50  C   UNL A   1      43.230  28.116  32.990  1.00  0.00     0.049 A 
ATOM     51  H   UNL A   1      41.602  29.086  32.130  1.00  0.00     0.167 HD
ATOM     52  C   UNL A   1      38.161  31.001  30.271  1.00  0.00     0.037 A 
ATOM     53  C   UNL A   1      43.347  28.582  34.249  1.00  0.00     0.037 A 
ATOM     54  C   UNL A   1      38.178  31.514  31.615  1.00  0.00     0.049 A 
ATOM     55  C   UNL A   1      42.365  29.603  34.763  1.00  0.00     0.074 A 
ATOM     56  C   UNL A   1      37.294  32.398  32.212  1.00  0.00     0.029 A 
ATOM     57  N   UNL A   1      39.127  31.191  32.571  1.00  0.00    -0.354 N 
ATOM     58  N   UNL A   1      41.326  30.128  34.162  1.00  0.00    -0.248 NA
ATOM     59  C   UNL A   1      42.574  30.093  36.135  1.00  0.00     0.031 C 
ATOM     60  C   UNL A   1      37.729  32.638  33.519  1.00  0.00     0.029 A 
ATOM     61  C   UNL A   1      38.861  31.873  33.747  1.00  0.00     0.049 A 
ATOM     62  H   UNL A   1      39.878  30.570  32.434  1.00  0.00     0.167 HD
ATOM     63  C   UNL A   1      40.744  30.986  35.087  1.00  0.00     0.074 A 
ATOM     64  C   UNL A   1      41.537  30.904  36.294  1.00  0.00     0.031 C 
ATOM     65  C   UNL A   1      39.650  31.773  34.947  1.00  0.00     0.037 A 
BRANCH  52  66
ATOM     66  C   UNL A   1      37.064  31.461  29.358  1.00  0.00     0.057 A 
ATOM     67  C   UNL A   1      35.951  30.656  29.085  1.00  0.00     0.134 A 
ATOM     68  C   UNL A   1      37.094  32.742  28.792  1.00  0.00     0.134 A 
ATOM     69  F   UNL A   1      35.870  29.416  29.588  1.00  0.00    -0.206 F 
ATOM     70  C   UNL A   1      34.911  31.105  28.270  1.00  0.00     0.040 A 
ATOM     71  C   UNL A   1      36.051  33.209  27.992  1.00  0.00     0.040 A 
ATOM     72  F   UNL A   1      38.130  33.563  29.020  1.00  0.00    -0.206 F 
ATOM     73  C   UNL A   1      34.956  32.388  27.727  1.00  0.00     0.006 A 
ENDBRANCH  52  66
BRANCH  53  74
ATOM     74  C   UNL A   1      44.449  28.105  35.123  1.00  0.00     0.057 A 
ATOM     75  C   UNL A   1      45.739  28.639  35.027  1.00  0.00     0.134 A 
ATOM     76  C   UNL A   1      44.246  27.068  36.041  1.00  0.00     0.134 A 
ATOM     77  F   UNL A   1      46.002  29.615  34.146  1.00  0.00    -0.206 F 
ATOM     78  C   UNL A   1      46.793  28.145  35.798  1.00  0.00     0.040 A 
ATOM     79  C   UNL A   1      45.284  26.582  36.835  1.00  0.00     0.040 A 
ATOM     80  F   UNL A   1      43.033  26.512  36.177  1.00  0.00    -0.206 F 
ATOM     81  C   UNL A   1      46.566  27.115  36.708  1.00  0.00     0.006 A 
ENDBRANCH  53  74
BRANCH  65  82
ATOM     82  C   UNL A   1      39.224  32.582  36.136  1.00  0.00     0.057 A 
ATOM     83  C   UNL A   1      39.685  33.888  36.342  1.00  0.00     0.134 A 
ATOM     84  C   UNL A   1      38.313  32.063  37.064  1.00  0.00     0.134 A 
ATOM     85  F   UNL A   1      40.569  34.439  35.496  1.00  0.00    -0.206 F 
ATOM     86  C   UNL A   1      39.268  34.643  37.441  1.00  0.00     0.040 A 
ATOM     87  C   UNL A   1      37.872  32.815  38.153  1.00  0.00     0.040 A 
ATOM     88  F   UNL A   1      37.827  30.820  36.919  1.00  0.00    -0.206 F 
ATOM     89  C   UNL A   1      38.355  34.108  38.346  1.00  0.00     0.006 A 
ENDBRANCH  65  82
ENDBRANCH  39  40
ENDBRANCH  32  34
ENDBRANCH  31  32
ENDBRANCH  30  31
ENDBRANCH  29  30
ENDBRANCH  28  29
ENDBRANCH   1  28
TORSDOF 19
ENDMDL
MODEL 3
REMARK VINA RESULT:     -10.8      3.161      8.172
REMARK SMILES CN1C(=O)[C@H](CC(=O)OCCOCCOC(=O)c2ccc(-c3c4nc(c(-c5c(F)cccc5F)c5ccc([nH]5)c(-c5c(F)cccc5F)c5nc(c(-c6c(F)cccc6F)c6ccc3[nH]6)C=C5)C=C4)cc2)S/C1=[NH+]\N=C\c1ccc(O)cc1O
REMARK SMILES IDX 11 1 10 2 9 3 7 4 8 5 6 6 5 7 1 8 2 9 3 10 73 11 4 12 72 13
REMARK SMILES IDX 74 14 75 16 76 17 77 18 78 19 83 20 79 21 82 22 80 23 84 24
REMARK SMILES IDX 81 26 12 28 13 29 14 30 15 31 16 32 17 33 18 34 19 35 71 36
REMARK SMILES IDX 20 37 70 38 21 39 22 40 23 41 64 42 24 43 69 44 63 45 65 46
REMARK SMILES IDX 25 47 68 48 62 49 61 50 26 52 52 53 35 54 51 55 36 56 39 57
REMARK SMILES IDX 50 58 66 59 37 60 38 61 49 63 67 64 40 65 27 66 28 67 33 68
REMARK SMILES IDX 29 69 30 70 32 71 34 72 31 73 53 74 54 75 59 76 55 77 56 78
REMARK SMILES IDX 58 79 60 80 57 81 41 82 42 83 47 84 43 85 44 86 46 87 48 88
REMARK SMILES IDX 45 89
REMARK H PARENT 74 15 84 25 81 27 65 51 39 62
REMARK Flexibility Score: inf
ROOT
ATOM      1  C   UNL A   1      32.784  29.151  27.097  1.00  0.00     0.202 C 
ENDROOT
BRANCH   1   2
ATOM      2  C   UNL A   1      32.493  27.661  26.875  1.00  0.00     0.261 C 
BRANCH   2   3
ATOM      3  O   UNL A   1      33.281  27.117  25.805  1.00  0.00    -0.463 OA
BRANCH   3   4
ATOM      4  C   UNL A   1      33.338  25.762  25.759  1.00  0.00     0.307 C 
ATOM      5  O   UNL A   1      32.540  25.008  26.301  1.00  0.00    -0.252 OA
BRANCH   4   6
ATOM      6  C   UNL A   1      34.385  25.268  24.799  1.00  0.00     0.150 C 
BRANCH   6   7
ATOM      7  C   UNL A   1      34.029  25.207  23.315  1.00  0.00     0.185 C 
ATOM      8  C   UNL A   1      30.725  23.429  23.432  1.00  0.00     0.301 C 
ATOM      9  N   UNL A   1      31.779  24.395  23.205  1.00  0.00    -0.191 N 
ATOM     10  C   UNL A   1      33.102  24.010  23.183  1.00  0.00     0.324 C 
ATOM     11  C   UNL A   1      31.518  25.717  22.967  1.00  0.00     0.339 C 
ATOM     12  O   UNL A   1      33.503  22.852  23.172  1.00  0.00    -0.245 OA
ATOM     13  S   UNL A   1      33.012  26.586  22.701  1.00  0.00    -0.020 SA
ATOM     14  N   UNL A   1      30.317  26.206  22.957  1.00  0.00    -0.142 N 
ATOM     15  H   UNL A   1      29.524  25.665  23.175  1.00  0.00     0.343 HD
BRANCH  14  16
ATOM     16  N   UNL A   1      30.234  27.550  22.612  1.00  0.00    -0.093 NA
ATOM     17  C   UNL A   1      29.185  28.118  23.122  1.00  0.00     0.170 C 
BRANCH  17  18
ATOM     18  C   UNL A   1      28.898  29.544  22.866  1.00  0.00     0.039 A 
ATOM     19  C   UNL A   1      27.810  30.128  23.526  1.00  0.00     0.017 A 
ATOM     20  C   UNL A   1      29.688  30.320  22.005  1.00  0.00     0.128 A 
ATOM     21  C   UNL A   1      27.524  31.481  23.327  1.00  0.00     0.047 A 
ATOM     22  C   UNL A   1      29.399  31.668  21.804  1.00  0.00     0.093 A 
ATOM     23  C   UNL A   1      28.320  32.237  22.472  1.00  0.00     0.119 A 
BRANCH  20  24
ATOM     24  O   UNL A   1      30.767  29.819  21.324  1.00  0.00    -0.507 OA
ATOM     25  H   UNL A   1      31.582  30.282  21.331  1.00  0.00     0.293 HD
ENDBRANCH  20  24
BRANCH  23  26
ATOM     26  O   UNL A   1      28.005  33.556  22.316  1.00  0.00    -0.508 OA
ATOM     27  H   UNL A   1      28.156  34.160  23.016  1.00  0.00     0.293 HD
ENDBRANCH  23  26
ENDBRANCH  17  18
ENDBRANCH  14  16
ENDBRANCH   6   7
ENDBRANCH   4   6
ENDBRANCH   3   4
ENDBRANCH   2   3
ENDBRANCH   1   2
BRANCH   1  28
ATOM     28  O   UNL A   1      31.643  30.008  27.119  1.00  0.00    -0.374 OA
BRANCH  28  29
ATOM     29  C   UNL A   1      31.716  31.213  26.346  1.00  0.00     0.202 C 
BRANCH  29  30
ATOM     30  C   UNL A   1      31.490  32.516  27.118  1.00  0.00     0.261 C 
BRANCH  30  31
ATOM     31  O   UNL A   1      32.517  33.482  26.826  1.00  0.00    -0.460 OA
BRANCH  31  32
ATOM     32  C   UNL A   1      33.065  34.046  27.925  1.00  0.00     0.338 C 
ATOM     33  O   UNL A   1      32.554  34.871  28.669  1.00  0.00    -0.246 OA
BRANCH  32  34
ATOM     34  C   UNL A   1      34.308  33.341  28.277  1.00  0.00     0.060 A 
ATOM     35  C   UNL A   1      34.188  32.014  28.705  1.00  0.00     0.016 A 
ATOM     36  C   UNL A   1      35.542  33.991  28.316  1.00  0.00     0.016 A 
ATOM     37  C   UNL A   1      35.293  31.348  29.233  1.00  0.00     0.010 A 
ATOM     38  C   UNL A   1      36.653  33.319  28.848  1.00  0.00     0.010 A 
ATOM     39  C   UNL A   1      36.524  32.010  29.349  1.00  0.00    -0.014 A 
BRANCH  39  40
ATOM     40  C   UNL A   1      37.609  31.372  30.140  1.00  0.00     0.031 A 
ATOM     41  C   UNL A   1      38.519  30.375  29.470  1.00  0.00     0.074 A 
ATOM     42  C   UNL A   1      37.841  31.732  31.416  1.00  0.00     0.049 A 
ATOM     43  N   UNL A   1      39.551  29.733  29.959  1.00  0.00    -0.248 NA
ATOM     44  C   UNL A   1      38.233  30.067  28.060  1.00  0.00     0.031 C 
ATOM     45  C   UNL A   1      37.067  32.715  32.171  1.00  0.00     0.029 A 
ATOM     46  N   UNL A   1      38.806  31.313  32.299  1.00  0.00    -0.354 N 
ATOM     47  C   UNL A   1      40.040  28.954  28.917  1.00  0.00     0.074 A 
ATOM     48  C   UNL A   1      39.174  29.177  27.780  1.00  0.00     0.031 C 
ATOM     49  C   UNL A   1      37.587  32.822  33.406  1.00  0.00     0.029 A 
ATOM     50  C   UNL A   1      38.714  31.901  33.536  1.00  0.00     0.049 A 
ATOM     51  H   UNL A   1      39.498  30.653  32.066  1.00  0.00     0.167 HD
ATOM     52  C   UNL A   1      41.121  28.139  28.902  1.00  0.00     0.037 A 
ATOM     53  C   UNL A   1      39.449  31.709  34.650  1.00  0.00     0.037 A 
ATOM     54  C   UNL A   1      41.989  27.911  30.026  1.00  0.00     0.049 A 
ATOM     55  C   UNL A   1      40.601  30.740  34.627  1.00  0.00     0.074 A 
ATOM     56  C   UNL A   1      43.109  27.099  30.100  1.00  0.00     0.029 A 
ATOM     57  N   UNL A   1      41.835  28.493  31.274  1.00  0.00    -0.354 N 
ATOM     58  N   UNL A   1      41.063  30.025  33.631  1.00  0.00    -0.248 NA
ATOM     59  C   UNL A   1      41.338  30.554  35.888  1.00  0.00     0.031 C 
ATOM     60  C   UNL A   1      43.612  27.162  31.403  1.00  0.00     0.029 A 
ATOM     61  C   UNL A   1      42.828  28.044  32.129  1.00  0.00     0.049 A 
ATOM     62  H   UNL A   1      41.125  29.131  31.515  1.00  0.00     0.167 HD
ATOM     63  C   UNL A   1      42.154  29.328  34.135  1.00  0.00     0.074 A 
ATOM     64  C   UNL A   1      42.295  29.714  35.522  1.00  0.00     0.031 C 
ATOM     65  C   UNL A   1      42.967  28.446  33.504  1.00  0.00     0.037 A 
BRANCH  52  66
ATOM     66  C   UNL A   1      41.426  27.420  27.622  1.00  0.00     0.057 A 
ATOM     67  C   UNL A   1      42.240  27.991  26.637  1.00  0.00     0.134 A 
ATOM     68  C   UNL A   1      40.946  26.123  27.399  1.00  0.00     0.134 A 
ATOM     69  F   UNL A   1      42.720  29.234  26.787  1.00  0.00    -0.206 F 
ATOM     70  C   UNL A   1      42.559  27.300  25.466  1.00  0.00     0.040 A 
ATOM     71  C   UNL A   1      41.274  25.415  26.241  1.00  0.00     0.040 A 
ATOM     72  F   UNL A   1      40.166  25.520  28.307  1.00  0.00    -0.206 F 
ATOM     73  C   UNL A   1      42.080  26.005  25.269  1.00  0.00     0.006 A 
ENDBRANCH  52  66
BRANCH  53  74
ATOM     74  C   UNL A   1      39.114  32.438  35.899  1.00  0.00     0.057 A 
ATOM     75  C   UNL A   1      39.624  33.715  36.158  1.00  0.00     0.134 A 
ATOM     76  C   UNL A   1      38.313  31.850  36.886  1.00  0.00     0.134 A 
ATOM     77  F   UNL A   1      40.419  34.318  35.264  1.00  0.00    -0.206 F 
ATOM     78  C   UNL A   1      39.367  34.374  37.362  1.00  0.00     0.040 A 
ATOM     79  C   UNL A   1      38.029  32.506  38.083  1.00  0.00     0.040 A 
ATOM     80  F   UNL A   1      37.798  30.626  36.699  1.00  0.00    -0.206 F 
ATOM     81  C   UNL A   1      38.564  33.770  38.328  1.00  0.00     0.006 A 
ENDBRANCH  53  74
BRANCH  65  82
ATOM     82  C   UNL A   1      44.100  27.862  34.295  1.00  0.00     0.057 A 
ATOM     83  C   UNL A   1      45.322  28.531  34.434  1.00  0.00     0.134 A 
ATOM     84  C   UNL A   1      43.952  26.637  34.955  1.00  0.00     0.134 A 
ATOM     85  F   UNL A   1      45.531  29.703  33.816  1.00  0.00    -0.206 F 
ATOM     86  C   UNL A   1      46.366  27.990  35.189  1.00  0.00     0.040 A 
ATOM     87  C   UNL A   1      44.979  26.097  35.731  1.00  0.00     0.040 A 
ATOM     88  F   UNL A   1      42.802  25.950  34.869  1.00  0.00    -0.206 F 
ATOM     89  C   UNL A   1      46.192  26.773  35.845  1.00  0.00     0.006 A 
ENDBRANCH  65  82
ENDBRANCH  39  40
ENDBRANCH  32  34
ENDBRANCH  31  32
ENDBRANCH  30  31
ENDBRANCH  29  30
ENDBRANCH  28  29
ENDBRANCH   1  28
TORSDOF 19
ENDMDL
