MODEL 1
REMARK VINA RESULT:     -10.5      0.000      0.000
REMARK SMILES CC(C)C[C@H](NC(=O)[C@H](Cc1ccccc1)NC(=O)CNC(=O)C[NH3+])C(=O)OCCOCCOC(=O)c1ccc(-c2c3nc(c(-c4c(F)cccc4F)c4ccc([nH]4)c(-c4c(F)cccc4F)c4nc(c(-c5c(F)cccc5F)c5ccc2[nH]5)C=C4)C=C3)cc1
REMARK SMILES IDX 29 1 28 2 26 3 27 4 5 5 4 6 2 7 1 8 3 9 6 10 7 11 8 13 9 14
REMARK SMILES IDX 17 15 18 16 19 18 20 19 21 20 22 21 23 23 24 24 25 25 10 29
REMARK SMILES IDX 11 30 12 31 16 32 13 33 15 34 14 35 30 36 31 37 32 38 33 39
REMARK SMILES IDX 34 40 35 41 36 42 37 43 38 44 90 45 39 46 89 47 40 48 41 49
REMARK SMILES IDX 42 50 83 51 43 52 88 53 82 54 84 55 44 56 87 57 81 58 80 59
REMARK SMILES IDX 45 61 71 62 54 63 70 64 55 65 58 66 69 67 85 68 56 69 57 70
REMARK SMILES IDX 68 72 86 73 59 74 46 75 47 76 52 77 48 78 49 79 51 80 53 81
REMARK SMILES IDX 50 82 72 83 73 84 78 85 74 86 75 87 77 88 79 89 76 90 60 91
REMARK SMILES IDX 61 92 66 93 62 94 63 95 65 96 67 97 64 98
REMARK H PARENT 6 12 17 17 21 22 25 26 25 27 25 28 84 60 58 71
REMARK Flexibility Score: inf
ROOT
ATOM      1  C   UNL A   1      34.514  21.328  24.823  1.00  0.00     0.261 C 
ENDROOT
BRANCH   1   2
ATOM      2  O   UNL A   1      34.371  22.361  23.845  1.00  0.00    -0.462 OA
BRANCH   2   3
ATOM      3  C   UNL A   1      33.088  22.491  23.388  1.00  0.00     0.328 C 
ATOM      4  O   UNL A   1      32.583  21.795  22.516  1.00  0.00    -0.250 OA
BRANCH   3   5
ATOM      5  C   UNL A   1      32.442  23.766  23.929  1.00  0.00     0.192 C 
BRANCH   5   6
ATOM      6  C   UNL A   1      33.451  24.882  23.622  1.00  0.00     0.040 C 
BRANCH   6   7
ATOM      7  C   UNL A   1      32.958  26.087  22.778  1.00  0.00    -0.015 C 
ATOM      8  C   UNL A   1      33.823  27.349  22.865  1.00  0.00     0.007 C 
ATOM      9  C   UNL A   1      32.806  25.698  21.304  1.00  0.00     0.007 C 
ENDBRANCH   6   7
ENDBRANCH   5   6
BRANCH   5  10
ATOM     10  N   UNL A   1      32.152  23.680  25.376  1.00  0.00    -0.341 N 
ATOM     11  C   UNL A   1      31.458  24.504  26.229  1.00  0.00     0.243 C 
ATOM     12  H   UNL A   1      32.528  22.881  25.812  1.00  0.00     0.164 HD
ATOM     13  O   UNL A   1      31.313  24.102  27.388  1.00  0.00    -0.273 OA
BRANCH  11  14
ATOM     14  C   UNL A   1      30.961  25.907  25.790  1.00  0.00     0.175 C 
BRANCH  14  15
ATOM     15  N   UNL A   1      29.683  25.836  25.102  1.00  0.00    -0.342 N 
ATOM     16  C   UNL A   1      29.241  26.670  24.117  1.00  0.00     0.240 C 
ATOM     17  H   UNL A   1      29.075  25.112  25.373  1.00  0.00     0.164 HD
ATOM     18  O   UNL A   1      28.091  26.492  23.705  1.00  0.00    -0.273 OA
BRANCH  16  19
ATOM     19  C   UNL A   1      30.194  27.677  23.415  1.00  0.00     0.216 C 
BRANCH  19  20
ATOM     20  N   UNL A   1      29.960  29.117  23.490  1.00  0.00    -0.342 N 
ATOM     21  C   UNL A   1      28.929  29.944  23.151  1.00  0.00     0.275 C 
ATOM     22  H   UNL A   1      30.725  29.604  23.875  1.00  0.00     0.164 HD
ATOM     23  O   UNL A   1      28.900  31.063  23.679  1.00  0.00    -0.268 OA
BRANCH  21  24
ATOM     24  C   UNL A   1      27.827  29.595  22.148  1.00  0.00     0.360 C 
BRANCH  24  25
ATOM     25  N   UNL A   1      26.737  28.812  22.758  1.00  0.00    -0.350 N 
ATOM     26  H   UNL A   1      25.854  29.309  22.638  1.00  0.00     0.344 HD
ATOM     27  H   UNL A   1      26.925  28.686  23.752  1.00  0.00     0.344 HD
ATOM     28  H   UNL A   1      26.678  27.901  22.304  1.00  0.00     0.344 HD
ENDBRANCH  24  25
ENDBRANCH  21  24
ENDBRANCH  19  20
ENDBRANCH  16  19
ENDBRANCH  14  15
BRANCH  14  29
ATOM     29  C   UNL A   1      30.929  26.919  26.973  1.00  0.00     0.070 C 
BRANCH  29  30
ATOM     30  C   UNL A   1      32.057  27.942  26.976  1.00  0.00    -0.045 A 
ATOM     31  C   UNL A   1      33.356  27.585  26.590  1.00  0.00     0.004 A 
ATOM     32  C   UNL A   1      31.810  29.287  27.298  1.00  0.00     0.004 A 
ATOM     33  C   UNL A   1      34.352  28.559  26.440  1.00  0.00     0.000 A 
ATOM     34  C   UNL A   1      32.801  30.260  27.137  1.00  0.00     0.000 A 
ATOM     35  C   UNL A   1      34.068  29.899  26.689  1.00  0.00     0.000 A 
ENDBRANCH  29  30
ENDBRANCH  14  29
ENDBRANCH  11  14
ENDBRANCH   5  10
ENDBRANCH   3   5
ENDBRANCH   2   3
ENDBRANCH   1   2
BRANCH   1  36
ATOM     36  C   UNL A   1      35.948  20.829  24.998  1.00  0.00     0.202 C 
BRANCH  36  37
ATOM     37  O   UNL A   1      36.819  21.562  25.848  1.00  0.00    -0.374 OA
BRANCH  37  38
ATOM     38  C   UNL A   1      38.125  21.909  25.387  1.00  0.00     0.202 C 
BRANCH  38  39
ATOM     39  C   UNL A   1      39.338  21.366  26.147  1.00  0.00     0.261 C 
BRANCH  39  40
ATOM     40  O   UNL A   1      39.808  20.113  25.616  1.00  0.00    -0.460 OA
BRANCH  40  41
ATOM     41  C   UNL A   1      41.016  19.730  26.078  1.00  0.00     0.338 C 
ATOM     42  O   UNL A   1      41.496  18.595  26.064  1.00  0.00    -0.246 OA
BRANCH  41  43
ATOM     43  C   UNL A   1      41.821  20.892  26.468  1.00  0.00     0.060 A 
ATOM     44  C   UNL A   1      41.830  21.256  27.822  1.00  0.00     0.016 A 
ATOM     45  C   UNL A   1      42.419  21.705  25.505  1.00  0.00     0.016 A 
ATOM     46  C   UNL A   1      42.377  22.472  28.212  1.00  0.00     0.010 A 
ATOM     47  C   UNL A   1      42.958  22.935  25.896  1.00  0.00     0.010 A 
ATOM     48  C   UNL A   1      42.893  23.341  27.241  1.00  0.00    -0.014 A 
BRANCH  48  49
ATOM     49  C   UNL A   1      43.176  24.746  27.613  1.00  0.00     0.031 A 
ATOM     50  C   UNL A   1      44.599  25.232  27.573  1.00  0.00     0.074 A 
ATOM     51  C   UNL A   1      42.178  25.586  27.934  1.00  0.00     0.049 A 
ATOM     52  N   UNL A   1      45.085  26.404  27.885  1.00  0.00    -0.248 NA
ATOM     53  C   UNL A   1      45.609  24.262  27.117  1.00  0.00     0.031 C 
ATOM     54  C   UNL A   1      40.758  25.243  27.953  1.00  0.00     0.029 A 
ATOM     55  N   UNL A   1      42.214  26.905  28.311  1.00  0.00    -0.354 N 
ATOM     56  C   UNL A   1      46.455  26.313  27.672  1.00  0.00     0.074 A 
ATOM     57  C   UNL A   1      46.728  24.963  27.228  1.00  0.00     0.031 C 
ATOM     58  C   UNL A   1      40.055  26.323  28.336  1.00  0.00     0.029 A 
ATOM     59  C   UNL A   1      40.981  27.420  28.618  1.00  0.00     0.049 A 
ATOM     60  H   UNL A   1      43.046  27.430  28.357  1.00  0.00     0.167 HD
ATOM     61  C   UNL A   1      47.400  27.270  27.824  1.00  0.00     0.037 A 
ATOM     62  C   UNL A   1      40.643  28.633  29.096  1.00  0.00     0.037 A 
ATOM     63  C   UNL A   1      47.124  28.612  28.264  1.00  0.00     0.049 A 
ATOM     64  C   UNL A   1      41.721  29.657  29.330  1.00  0.00     0.074 A 
ATOM     65  C   UNL A   1      48.009  29.662  28.440  1.00  0.00     0.029 A 
ATOM     66  N   UNL A   1      45.866  29.086  28.603  1.00  0.00    -0.354 N 
ATOM     67  N   UNL A   1      43.011  29.567  29.114  1.00  0.00    -0.248 NA
ATOM     68  C   UNL A   1      41.294  30.954  29.875  1.00  0.00     0.031 C 
ATOM     69  C   UNL A   1      47.291  30.759  28.930  1.00  0.00     0.029 A 
ATOM     70  C   UNL A   1      45.953  30.406  29.012  1.00  0.00     0.049 A 
ATOM     71  H   UNL A   1      45.034  28.561  28.560  1.00  0.00     0.167 HD
ATOM     72  C   UNL A   1      43.546  30.798  29.470  1.00  0.00     0.074 A 
ATOM     73  C   UNL A   1      42.438  31.624  29.905  1.00  0.00     0.031 C 
ATOM     74  C   UNL A   1      44.837  31.212  29.437  1.00  0.00     0.037 A 
BRANCH  61  75
ATOM     75  C   UNL A   1      48.823  26.888  27.542  1.00  0.00     0.057 A 
ATOM     76  C   UNL A   1      49.665  26.381  28.540  1.00  0.00     0.134 A 
ATOM     77  C   UNL A   1      49.350  27.007  26.250  1.00  0.00     0.134 A 
ATOM     78  F   UNL A   1      49.227  26.258  29.801  1.00  0.00    -0.206 F 
ATOM     79  C   UNL A   1      50.988  26.026  28.267  1.00  0.00     0.040 A 
ATOM     80  C   UNL A   1      50.663  26.633  25.960  1.00  0.00     0.040 A 
ATOM     81  F   UNL A   1      48.596  27.483  25.248  1.00  0.00    -0.206 F 
ATOM     82  C   UNL A   1      51.488  26.146  26.972  1.00  0.00     0.006 A 
ENDBRANCH  61  75
BRANCH  62  83
ATOM     83  C   UNL A   1      39.224  28.941  29.400  1.00  0.00     0.057 A 
ATOM     84  C   UNL A   1      38.676  28.673  30.659  1.00  0.00     0.134 A 
ATOM     85  C   UNL A   1      38.377  29.495  28.431  1.00  0.00     0.134 A 
ATOM     86  F   UNL A   1      39.432  28.122  31.621  1.00  0.00    -0.206 F 
ATOM     87  C   UNL A   1      37.333  28.930  30.941  1.00  0.00     0.040 A 
ATOM     88  C   UNL A   1      37.039  29.779  28.707  1.00  0.00     0.040 A 
ATOM     89  F   UNL A   1      38.843  29.775  27.206  1.00  0.00    -0.206 F 
ATOM     90  C   UNL A   1      36.512  29.491  29.964  1.00  0.00     0.006 A 
ENDBRANCH  62  83
BRANCH  74  91
ATOM     91  C   UNL A   1      45.115  32.626  29.853  1.00  0.00     0.057 A 
ATOM     92  C   UNL A   1      45.481  32.952  31.164  1.00  0.00     0.134 A 
ATOM     93  C   UNL A   1      45.059  33.667  28.917  1.00  0.00     0.134 A 
ATOM     94  F   UNL A   1      45.541  32.003  32.110  1.00  0.00    -0.206 F 
ATOM     95  C   UNL A   1      45.760  34.269  31.536  1.00  0.00     0.040 A 
ATOM     96  C   UNL A   1      45.360  34.983  29.271  1.00  0.00     0.040 A 
ATOM     97  F   UNL A   1      44.725  33.420  27.642  1.00  0.00    -0.206 F 
ATOM     98  C   UNL A   1      45.707  35.287  30.586  1.00  0.00     0.006 A 
ENDBRANCH  74  91
ENDBRANCH  48  49
ENDBRANCH  41  43
ENDBRANCH  40  41
ENDBRANCH  39  40
ENDBRANCH  38  39
ENDBRANCH  37  38
ENDBRANCH  36  37
ENDBRANCH   1  36
TORSDOF 25
ENDMDL
MODEL 2
REMARK VINA RESULT:     -10.4      0.753      5.864
REMARK SMILES CC(C)C[C@H](NC(=O)[C@H](Cc1ccccc1)NC(=O)CNC(=O)C[NH3+])C(=O)OCCOCCOC(=O)c1ccc(-c2c3nc(c(-c4c(F)cccc4F)c4ccc([nH]4)c(-c4c(F)cccc4F)c4nc(c(-c5c(F)cccc5F)c5ccc2[nH]5)C=C4)C=C3)cc1
REMARK SMILES IDX 29 1 28 2 26 3 27 4 5 5 4 6 2 7 1 8 3 9 6 10 7 11 8 13 9 14
REMARK SMILES IDX 17 15 18 16 19 18 20 19 21 20 22 21 23 23 24 24 25 25 10 29
REMARK SMILES IDX 11 30 12 31 16 32 13 33 15 34 14 35 30 36 31 37 32 38 33 39
REMARK SMILES IDX 34 40 35 41 36 42 37 43 38 44 90 45 39 46 89 47 40 48 41 49
REMARK SMILES IDX 42 50 83 51 43 52 88 53 82 54 84 55 44 56 87 57 81 58 80 59
REMARK SMILES IDX 45 61 71 62 54 63 70 64 55 65 58 66 69 67 85 68 56 69 57 70
REMARK SMILES IDX 68 72 86 73 59 74 46 75 47 76 52 77 48 78 49 79 51 80 53 81
REMARK SMILES IDX 50 82 72 83 73 84 78 85 74 86 75 87 77 88 79 89 76 90 60 91
REMARK SMILES IDX 61 92 66 93 62 94 63 95 65 96 67 97 64 98
REMARK H PARENT 6 12 17 17 21 22 25 26 25 27 25 28 84 60 58 71
REMARK Flexibility Score: inf
ROOT
ATOM      1  C   UNL A   1      35.022  21.699  24.580  1.00  0.00     0.261 C 
ENDROOT
BRANCH   1   2
ATOM      2  O   UNL A   1      34.735  22.831  23.755  1.00  0.00    -0.462 OA
BRANCH   2   3
ATOM      3  C   UNL A   1      33.430  22.880  23.350  1.00  0.00     0.328 C 
ATOM      4  O   UNL A   1      32.931  22.142  22.508  1.00  0.00    -0.250 OA
BRANCH   3   5
ATOM      5  C   UNL A   1      32.732  24.124  23.898  1.00  0.00     0.192 C 
BRANCH   5   6
ATOM      6  C   UNL A   1      33.755  25.257  23.731  1.00  0.00     0.040 C 
BRANCH   6   7
ATOM      7  C   UNL A   1      33.652  26.139  22.458  1.00  0.00    -0.015 C 
ATOM      8  C   UNL A   1      32.463  25.832  21.540  1.00  0.00     0.007 C 
ATOM      9  C   UNL A   1      33.617  27.626  22.823  1.00  0.00     0.007 C 
ENDBRANCH   6   7
ENDBRANCH   5   6
BRANCH   5  10
ATOM     10  N   UNL A   1      32.326  23.965  25.311  1.00  0.00    -0.341 N 
ATOM     11  C   UNL A   1      31.488  24.696  26.118  1.00  0.00     0.243 C 
ATOM     12  H   UNL A   1      32.733  23.188  25.759  1.00  0.00     0.164 HD
ATOM     13  O   UNL A   1      31.279  24.244  27.249  1.00  0.00    -0.273 OA
BRANCH  11  14
ATOM     14  C   UNL A   1      30.906  26.064  25.671  1.00  0.00     0.175 C 
BRANCH  14  15
ATOM     15  N   UNL A   1      29.585  25.922  25.085  1.00  0.00    -0.342 N 
ATOM     16  C   UNL A   1      29.034  26.712  24.118  1.00  0.00     0.240 C 
ATOM     17  H   UNL A   1      29.031  25.180  25.418  1.00  0.00     0.164 HD
ATOM     18  O   UNL A   1      27.864  26.476  23.799  1.00  0.00    -0.273 OA
BRANCH  16  19
ATOM     19  C   UNL A   1      29.887  27.739  23.324  1.00  0.00     0.216 C 
BRANCH  19  20
ATOM     20  N   UNL A   1      29.868  29.160  23.662  1.00  0.00    -0.342 N 
ATOM     21  C   UNL A   1      29.264  30.267  23.141  1.00  0.00     0.275 C 
ATOM     22  H   UNL A   1      30.421  29.367  24.451  1.00  0.00     0.164 HD
ATOM     23  O   UNL A   1      29.157  31.256  23.877  1.00  0.00    -0.268 OA
BRANCH  21  24
ATOM     24  C   UNL A   1      28.734  30.376  21.710  1.00  0.00     0.360 C 
BRANCH  24  25
ATOM     25  N   UNL A   1      28.784  31.755  21.193  1.00  0.00    -0.350 N 
ATOM     26  H   UNL A   1      29.734  31.969  20.886  1.00  0.00     0.344 HD
ATOM     27  H   UNL A   1      28.510  32.405  21.930  1.00  0.00     0.344 HD
ATOM     28  H   UNL A   1      28.144  31.846  20.404  1.00  0.00     0.344 HD
ENDBRANCH  24  25
ENDBRANCH  21  24
ENDBRANCH  19  20
ENDBRANCH  16  19
ENDBRANCH  14  15
BRANCH  14  29
ATOM     29  C   UNL A   1      30.923  27.116  26.819  1.00  0.00     0.070 C 
BRANCH  29  30
ATOM     30  C   UNL A   1      32.037  28.151  26.728  1.00  0.00    -0.045 A 
ATOM     31  C   UNL A   1      31.791  29.503  27.001  1.00  0.00     0.004 A 
ATOM     32  C   UNL A   1      33.356  27.765  26.436  1.00  0.00     0.004 A 
ATOM     33  C   UNL A   1      32.845  30.422  27.073  1.00  0.00     0.000 A 
ATOM     34  C   UNL A   1      34.409  28.681  26.520  1.00  0.00     0.000 A 
ATOM     35  C   UNL A   1      34.156  30.007  26.858  1.00  0.00     0.000 A 
ENDBRANCH  29  30
ENDBRANCH  14  29
ENDBRANCH  11  14
ENDBRANCH   5  10
ENDBRANCH   3   5
ENDBRANCH   2   3
ENDBRANCH   1   2
BRANCH   1  36
ATOM     36  C   UNL A   1      36.514  21.446  24.795  1.00  0.00     0.202 C 
BRANCH  36  37
ATOM     37  O   UNL A   1      37.200  22.229  25.762  1.00  0.00    -0.374 OA
BRANCH  37  38
ATOM     38  C   UNL A   1      38.621  22.348  25.693  1.00  0.00     0.202 C 
BRANCH  38  39
ATOM     39  C   UNL A   1      39.477  21.369  26.501  1.00  0.00     0.261 C 
BRANCH  39  40
ATOM     40  O   UNL A   1      40.068  20.344  25.680  1.00  0.00    -0.460 OA
BRANCH  40  41
ATOM     41  C   UNL A   1      41.260  19.893  26.123  1.00  0.00     0.338 C 
ATOM     42  O   UNL A   1      41.643  18.724  26.175  1.00  0.00    -0.246 OA
BRANCH  41  43
ATOM     43  C   UNL A   1      42.174  21.008  26.394  1.00  0.00     0.060 A 
ATOM     44  C   UNL A   1      42.533  21.248  27.728  1.00  0.00     0.016 A 
ATOM     45  C   UNL A   1      42.537  21.898  25.383  1.00  0.00     0.016 A 
ATOM     46  C   UNL A   1      43.200  22.419  28.068  1.00  0.00     0.010 A 
ATOM     47  C   UNL A   1      43.197  23.082  25.728  1.00  0.00     0.010 A 
ATOM     48  C   UNL A   1      43.484  23.366  27.076  1.00  0.00    -0.014 A 
BRANCH  48  49
ATOM     49  C   UNL A   1      43.897  24.729  27.481  1.00  0.00     0.031 A 
ATOM     50  C   UNL A   1      42.833  25.725  27.854  1.00  0.00     0.074 A 
ATOM     51  C   UNL A   1      45.196  25.058  27.562  1.00  0.00     0.049 A 
ATOM     52  N   UNL A   1      42.955  26.978  28.207  1.00  0.00    -0.248 NA
ATOM     53  C   UNL A   1      41.442  25.240  27.825  1.00  0.00     0.031 C 
ATOM     54  C   UNL A   1      46.314  24.161  27.279  1.00  0.00     0.029 A 
ATOM     55  N   UNL A   1      45.791  26.246  27.903  1.00  0.00    -0.354 N 
ATOM     56  C   UNL A   1      41.662  27.433  28.434  1.00  0.00     0.074 A 
ATOM     57  C   UNL A   1      40.767  26.331  28.155  1.00  0.00     0.031 C 
ATOM     58  C   UNL A   1      47.465  24.835  27.447  1.00  0.00     0.029 A 
ATOM     59  C   UNL A   1      47.160  26.217  27.816  1.00  0.00     0.049 A 
ATOM     60  H   UNL A   1      45.285  27.042  28.183  1.00  0.00     0.167 HD
ATOM     61  C   UNL A   1      41.258  28.657  28.848  1.00  0.00     0.037 A 
ATOM     62  C   UNL A   1      48.061  27.202  27.994  1.00  0.00     0.037 A 
ATOM     63  C   UNL A   1      42.151  29.750  29.126  1.00  0.00     0.049 A 
ATOM     64  C   UNL A   1      47.581  28.576  28.378  1.00  0.00     0.074 A 
ATOM     65  C   UNL A   1      41.844  31.028  29.561  1.00  0.00     0.029 A 
ATOM     66  N   UNL A   1      43.530  29.693  28.989  1.00  0.00    -0.354 N 
ATOM     67  N   UNL A   1      46.359  28.994  28.604  1.00  0.00    -0.248 NA
ATOM     68  C   UNL A   1      48.609  29.616  28.533  1.00  0.00     0.031 C 
ATOM     69  C   UNL A   1      43.035  31.758  29.643  1.00  0.00     0.029 A 
ATOM     70  C   UNL A   1      44.087  30.920  29.307  1.00  0.00     0.049 A 
ATOM     71  H   UNL A   1      44.037  28.898  28.708  1.00  0.00     0.167 HD
ATOM     72  C   UNL A   1      46.472  30.334  28.952  1.00  0.00     0.074 A 
ATOM     73  C   UNL A   1      47.884  30.656  28.920  1.00  0.00     0.031 C 
ATOM     74  C   UNL A   1      45.496  31.220  29.273  1.00  0.00     0.037 A 
BRANCH  61  75
ATOM     75  C   UNL A   1      39.782  28.885  28.992  1.00  0.00     0.057 A 
ATOM     76  C   UNL A   1      39.125  28.733  30.220  1.00  0.00     0.134 A 
ATOM     77  C   UNL A   1      39.012  29.284  27.892  1.00  0.00     0.134 A 
ATOM     78  F   UNL A   1      39.802  28.337  31.308  1.00  0.00    -0.206 F 
ATOM     79  C   UNL A   1      37.751  28.949  30.345  1.00  0.00     0.040 A 
ATOM     80  C   UNL A   1      37.643  29.526  28.010  1.00  0.00     0.040 A 
ATOM     81  F   UNL A   1      39.579  29.450  26.688  1.00  0.00    -0.206 F 
ATOM     82  C   UNL A   1      37.007  29.353  29.238  1.00  0.00     0.006 A 
ENDBRANCH  61  75
BRANCH  62  83
ATOM     83  C   UNL A   1      49.505  26.930  27.793  1.00  0.00     0.057 A 
ATOM     84  C   UNL A   1      50.333  26.575  28.863  1.00  0.00     0.134 A 
ATOM     85  C   UNL A   1      50.095  27.037  26.527  1.00  0.00     0.134 A 
ATOM     86  F   UNL A   1      49.831  26.479  30.103  1.00  0.00    -0.206 F 
ATOM     87  C   UNL A   1      51.700  26.350  28.686  1.00  0.00     0.040 A 
ATOM     88  C   UNL A   1      51.455  26.791  26.331  1.00  0.00     0.040 A 
ATOM     89  F   UNL A   1      49.355  27.373  25.461  1.00  0.00    -0.206 F 
ATOM     90  C   UNL A   1      52.263  26.452  27.415  1.00  0.00     0.006 A 
ENDBRANCH  62  83
BRANCH  74  91
ATOM     91  C   UNL A   1      45.924  32.608  29.645  1.00  0.00     0.057 A 
ATOM     92  C   UNL A   1      46.237  32.957  30.964  1.00  0.00     0.134 A 
ATOM     93  C   UNL A   1      46.065  33.596  28.662  1.00  0.00     0.134 A 
ATOM     94  F   UNL A   1      46.110  32.060  31.953  1.00  0.00    -0.206 F 
ATOM     95  C   UNL A   1      46.656  34.247  31.296  1.00  0.00     0.040 A 
ATOM     96  C   UNL A   1      46.507  34.882  28.978  1.00  0.00     0.040 A 
ATOM     97  F   UNL A   1      45.790  33.324  27.377  1.00  0.00    -0.206 F 
ATOM     98  C   UNL A   1      46.798  35.211  30.300  1.00  0.00     0.006 A 
ENDBRANCH  74  91
ENDBRANCH  48  49
ENDBRANCH  41  43
ENDBRANCH  40  41
ENDBRANCH  39  40
ENDBRANCH  38  39
ENDBRANCH  37  38
ENDBRANCH  36  37
ENDBRANCH   1  36
TORSDOF 25
ENDMDL
MODEL 3
REMARK VINA RESULT:     -10.4      4.276      9.524
REMARK SMILES CC(C)C[C@H](NC(=O)[C@H](Cc1ccccc1)NC(=O)CNC(=O)C[NH3+])C(=O)OCCOCCOC(=O)c1ccc(-c2c3nc(c(-c4c(F)cccc4F)c4ccc([nH]4)c(-c4c(F)cccc4F)c4nc(c(-c5c(F)cccc5F)c5ccc2[nH]5)C=C4)C=C3)cc1
REMARK SMILES IDX 29 1 28 2 26 3 27 4 5 5 4 6 2 7 1 8 3 9 6 10 7 11 8 13 9 14
REMARK SMILES IDX 17 15 18 16 19 18 20 19 21 20 22 21 23 23 24 24 25 25 10 29
REMARK SMILES IDX 11 30 12 31 16 32 13 33 15 34 14 35 30 36 31 37 32 38 33 39
REMARK SMILES IDX 34 40 35 41 36 42 37 43 38 44 90 45 39 46 89 47 40 48 41 49
REMARK SMILES IDX 42 50 83 51 43 52 88 53 82 54 84 55 44 56 87 57 81 58 80 59
REMARK SMILES IDX 45 61 71 62 54 63 70 64 55 65 58 66 69 67 85 68 56 69 57 70
REMARK SMILES IDX 68 72 86 73 59 74 46 75 47 76 52 77 48 78 49 79 51 80 53 81
REMARK SMILES IDX 50 82 72 83 73 84 78 85 74 86 75 87 77 88 79 89 76 90 60 91
REMARK SMILES IDX 61 92 66 93 62 94 63 95 65 96 67 97 64 98
REMARK H PARENT 6 12 17 17 21 22 25 26 25 27 25 28 84 60 58 71
REMARK Flexibility Score: inf
ROOT
ATOM      1  C   UNL A   1      33.558  28.548  27.301  1.00  0.00     0.261 C 
ENDROOT
BRANCH   1   2
ATOM      2  O   UNL A   1      32.495  27.778  26.734  1.00  0.00    -0.462 OA
BRANCH   2   3
ATOM      3  C   UNL A   1      32.940  26.778  25.913  1.00  0.00     0.328 C 
ATOM      4  O   UNL A   1      34.108  26.612  25.583  1.00  0.00    -0.250 OA
BRANCH   3   5
ATOM      5  C   UNL A   1      31.768  26.040  25.267  1.00  0.00     0.192 C 
BRANCH   5   6
ATOM      6  C   UNL A   1      30.812  27.147  24.800  1.00  0.00     0.040 C 
BRANCH   6   7
ATOM      7  C   UNL A   1      30.927  27.623  23.327  1.00  0.00    -0.015 C 
ATOM      8  C   UNL A   1      31.797  28.865  23.104  1.00  0.00     0.007 C 
ATOM      9  C   UNL A   1      31.441  26.497  22.425  1.00  0.00     0.007 C 
ENDBRANCH   6   7
ENDBRANCH   5   6
BRANCH   5  10
ATOM     10  N   UNL A   1      31.102  25.110  26.204  1.00  0.00    -0.341 N 
ATOM     11  C   UNL A   1      31.444  23.862  26.665  1.00  0.00     0.243 C 
ATOM     12  H   UNL A   1      30.252  25.449  26.567  1.00  0.00     0.164 HD
ATOM     13  O   UNL A   1      30.709  23.372  27.529  1.00  0.00    -0.273 OA
BRANCH  11  14
ATOM     14  C   UNL A   1      32.635  23.065  26.068  1.00  0.00     0.175 C 
BRANCH  14  15
ATOM     15  N   UNL A   1      32.731  23.236  24.628  1.00  0.00    -0.342 N 
ATOM     16  C   UNL A   1      32.557  22.271  23.680  1.00  0.00     0.240 C 
ATOM     17  H   UNL A   1      32.943  24.140  24.304  1.00  0.00     0.164 HD
ATOM     18  O   UNL A   1      32.753  22.596  22.505  1.00  0.00    -0.273 OA
BRANCH  16  19
ATOM     19  C   UNL A   1      31.962  20.880  24.035  1.00  0.00     0.216 C 
BRANCH  19  20
ATOM     20  N   UNL A   1      32.384  19.674  23.327  1.00  0.00    -0.342 N 
ATOM     21  C   UNL A   1      32.921  18.476  23.699  1.00  0.00     0.275 C 
ATOM     22  H   UNL A   1      32.250  19.742  22.354  1.00  0.00     0.164 HD
ATOM     23  O   UNL A   1      32.821  17.535  22.902  1.00  0.00    -0.268 OA
BRANCH  21  24
ATOM     24  C   UNL A   1      33.657  18.225  25.018  1.00  0.00     0.360 C 
BRANCH  24  25
ATOM     25  N   UNL A   1      32.735  18.048  26.154  1.00  0.00    -0.350 N 
ATOM     26  H   UNL A   1      32.485  18.962  26.533  1.00  0.00     0.344 HD
ATOM     27  H   UNL A   1      33.188  17.491  26.877  1.00  0.00     0.344 HD
ATOM     28  H   UNL A   1      31.891  17.571  25.835  1.00  0.00     0.344 HD
ENDBRANCH  24  25
ENDBRANCH  21  24
ENDBRANCH  19  20
ENDBRANCH  16  19
ENDBRANCH  14  15
BRANCH  14  29
ATOM     29  C   UNL A   1      33.980  23.389  26.783  1.00  0.00     0.070 C 
BRANCH  29  30
ATOM     30  C   UNL A   1      35.227  22.891  26.065  1.00  0.00    -0.045 A 
ATOM     31  C   UNL A   1      36.251  23.775  25.698  1.00  0.00     0.004 A 
ATOM     32  C   UNL A   1      35.416  21.522  25.814  1.00  0.00     0.004 A 
ATOM     33  C   UNL A   1      37.462  23.295  25.185  1.00  0.00     0.000 A 
ATOM     34  C   UNL A   1      36.630  21.042  25.313  1.00  0.00     0.000 A 
ATOM     35  C   UNL A   1      37.661  21.927  25.016  1.00  0.00     0.000 A 
ENDBRANCH  29  30
ENDBRANCH  14  29
ENDBRANCH  11  14
ENDBRANCH   5  10
ENDBRANCH   3   5
ENDBRANCH   2   3
ENDBRANCH   1   2
BRANCH   1  36
ATOM     36  C   UNL A   1      33.320  30.058  27.268  1.00  0.00     0.202 C 
BRANCH  36  37
ATOM     37  O   UNL A   1      32.438  30.582  26.284  1.00  0.00    -0.374 OA
BRANCH  37  38
ATOM     38  C   UNL A   1      31.403  31.484  26.675  1.00  0.00     0.202 C 
BRANCH  38  39
ATOM     39  C   UNL A   1      31.755  32.959  26.878  1.00  0.00     0.261 C 
BRANCH  39  40
ATOM     40  O   UNL A   1      33.120  33.149  27.298  1.00  0.00    -0.460 OA
BRANCH  40  41
ATOM     41  C   UNL A   1      33.281  34.077  28.263  1.00  0.00     0.338 C 
ATOM     42  O   UNL A   1      32.548  35.037  28.507  1.00  0.00    -0.246 OA
BRANCH  41  43
ATOM     43  C   UNL A   1      34.387  33.717  29.157  1.00  0.00     0.060 A 
ATOM     44  C   UNL A   1      35.679  34.123  28.793  1.00  0.00     0.016 A 
ATOM     45  C   UNL A   1      34.183  32.859  30.239  1.00  0.00     0.016 A 
ATOM     46  C   UNL A   1      36.782  33.616  29.469  1.00  0.00     0.010 A 
ATOM     47  C   UNL A   1      35.295  32.340  30.909  1.00  0.00     0.010 A 
ATOM     48  C   UNL A   1      36.595  32.678  30.493  1.00  0.00    -0.014 A 
BRANCH  48  49
ATOM     49  C   UNL A   1      37.762  31.910  30.985  1.00  0.00     0.031 A 
ATOM     50  C   UNL A   1      38.331  32.246  32.336  1.00  0.00     0.074 A 
ATOM     51  C   UNL A   1      38.274  30.900  30.262  1.00  0.00     0.049 A 
ATOM     52  N   UNL A   1      39.362  31.732  32.954  1.00  0.00    -0.248 NA
ATOM     53  C   UNL A   1      37.640  33.304  33.093  1.00  0.00     0.031 C 
ATOM     54  C   UNL A   1      37.772  30.450  28.966  1.00  0.00     0.029 A 
ATOM     55  N   UNL A   1      39.339  30.075  30.520  1.00  0.00    -0.354 N 
ATOM     56  C   UNL A   1      39.450  32.408  34.166  1.00  0.00     0.074 A 
ATOM     57  C   UNL A   1      38.384  33.385  34.186  1.00  0.00     0.031 C 
ATOM     58  C   UNL A   1      38.538  29.433  28.533  1.00  0.00     0.029 A 
ATOM     59  C   UNL A   1      39.600  29.187  29.507  1.00  0.00     0.049 A 
ATOM     60  H   UNL A   1      39.865  30.117  31.351  1.00  0.00     0.167 HD
ATOM     61  C   UNL A   1      40.335  32.223  35.174  1.00  0.00     0.037 A 
ATOM     62  C   UNL A   1      40.599  28.293  29.375  1.00  0.00     0.037 A 
ATOM     63  C   UNL A   1      41.393  31.248  35.150  1.00  0.00     0.049 A 
ATOM     64  C   UNL A   1      41.617  28.160  30.477  1.00  0.00     0.074 A 
ATOM     65  C   UNL A   1      42.336  30.973  36.124  1.00  0.00     0.029 A 
ATOM     66  N   UNL A   1      41.649  30.392  34.090  1.00  0.00    -0.354 N 
ATOM     67  N   UNL A   1      41.685  28.792  31.623  1.00  0.00    -0.248 NA
ATOM     68  C   UNL A   1      42.697  27.185  30.264  1.00  0.00     0.031 C 
ATOM     69  C   UNL A   1      43.192  29.980  35.634  1.00  0.00     0.029 A 
ATOM     70  C   UNL A   1      42.751  29.604  34.374  1.00  0.00     0.049 A 
ATOM     71  H   UNL A   1      41.125  30.350  33.257  1.00  0.00     0.167 HD
ATOM     72  C   UNL A   1      42.795  28.277  32.279  1.00  0.00     0.074 A 
ATOM     73  C   UNL A   1      43.365  27.269  31.406  1.00  0.00     0.031 C 
ATOM     74  C   UNL A   1      43.299  28.603  33.494  1.00  0.00     0.037 A 
BRANCH  61  75
ATOM     75  C   UNL A   1      40.213  33.117  36.372  1.00  0.00     0.057 A 
ATOM     76  C   UNL A   1      40.999  34.267  36.522  1.00  0.00     0.134 A 
ATOM     77  C   UNL A   1      39.281  32.836  37.379  1.00  0.00     0.134 A 
ATOM     78  F   UNL A   1      41.922  34.583  35.601  1.00  0.00    -0.206 F 
ATOM     79  C   UNL A   1      40.878  35.094  37.640  1.00  0.00     0.040 A 
ATOM     80  C   UNL A   1      39.133  33.668  38.489  1.00  0.00     0.040 A 
ATOM     81  F   UNL A   1      38.495  31.752  37.296  1.00  0.00    -0.206 F 
ATOM     82  C   UNL A   1      39.937  34.798  38.625  1.00  0.00     0.006 A 
ENDBRANCH  61  75
BRANCH  62  83
ATOM     83  C   UNL A   1      40.696  27.467  28.147  1.00  0.00     0.057 A 
ATOM     84  C   UNL A   1      40.088  26.210  28.067  1.00  0.00     0.134 A 
ATOM     85  C   UNL A   1      41.416  27.910  27.029  1.00  0.00     0.134 A 
ATOM     86  F   UNL A   1      39.405  25.723  29.113  1.00  0.00    -0.206 F 
ATOM     87  C   UNL A   1      40.204  25.414  26.925  1.00  0.00     0.040 A 
ATOM     88  C   UNL A   1      41.519  27.135  25.873  1.00  0.00     0.040 A 
ATOM     89  F   UNL A   1      42.020  29.106  27.043  1.00  0.00    -0.206 F 
ATOM     90  C   UNL A   1      40.917  25.880  25.821  1.00  0.00     0.006 A 
ENDBRANCH  62  83
BRANCH  74  91
ATOM     91  C   UNL A   1      44.504  27.845  33.965  1.00  0.00     0.057 A 
ATOM     92  C   UNL A   1      44.393  26.618  34.630  1.00  0.00     0.134 A 
ATOM     93  C   UNL A   1      45.794  28.329  33.710  1.00  0.00     0.134 A 
ATOM     94  F   UNL A   1      43.185  26.106  34.914  1.00  0.00    -0.206 F 
ATOM     95  C   UNL A   1      45.521  25.908  35.044  1.00  0.00     0.040 A 
ATOM     96  C   UNL A   1      46.931  27.616  34.097  1.00  0.00     0.040 A 
ATOM     97  F   UNL A   1      45.971  29.494  33.068  1.00  0.00    -0.206 F 
ATOM     98  C   UNL A   1      46.795  26.405  34.771  1.00  0.00     0.006 A 
ENDBRANCH  74  91
ENDBRANCH  48  49
ENDBRANCH  41  43
ENDBRANCH  40  41
ENDBRANCH  39  40
ENDBRANCH  38  39
ENDBRANCH  37  38
ENDBRANCH  36  37
ENDBRANCH   1  36
TORSDOF 25
ENDMDL
