MODEL 1
REMARK VINA RESULT:     -11.9      0.000      0.000
REMARK SMILES CN1C(=O)C[C@H](C(=O)OCCOCCOC(=O)c2ccc(-c3c4nc(c(-c5c(F)cccc5F)c5ccc([nH]5)c(-c5c(F)cccc5F)c5nc(c(-c6c(F)cccc6F)c6ccc3[nH]6)C=C5)C=C4)cc2)C12CC[NH+](Cc1ccc(Cl)c(F)c1)CC2
REMARK SMILES IDX 12 1 11 2 10 3 9 4 7 5 8 6 6 7 1 8 2 9 3 10 72 11 4 12 5 13
REMARK SMILES IDX 73 14 86 15 74 16 85 17 75 18 76 20 77 21 78 22 84 23 79 24
REMARK SMILES IDX 82 25 80 26 83 27 81 28 13 29 14 30 15 31 16 32 17 33 18 34
REMARK SMILES IDX 19 35 71 36 20 37 70 38 21 39 22 40 23 41 64 42 24 43 69 44
REMARK SMILES IDX 63 45 65 46 25 47 68 48 62 49 61 50 26 52 52 53 35 54 51 55
REMARK SMILES IDX 36 56 39 57 50 58 66 59 37 60 38 61 49 63 67 64 40 65 27 66
REMARK SMILES IDX 28 67 33 68 29 69 30 70 32 71 34 72 31 73 53 74 54 75 59 76
REMARK SMILES IDX 55 77 56 78 58 79 60 80 57 81 41 82 42 83 47 84 43 85 44 86
REMARK SMILES IDX 46 87 48 88 45 89
REMARK H PARENT 75 19 65 51 39 62
REMARK Flexibility Score: inf
ROOT
ATOM      1  O   UNL A   1      32.390  30.897  26.517  1.00  0.00    -0.374 OA
ENDROOT
BRANCH   1   2
ATOM      2  C   UNL A   1      32.285  29.731  27.325  1.00  0.00     0.202 C 
BRANCH   2   3
ATOM      3  C   UNL A   1      32.714  28.403  26.696  1.00  0.00     0.261 C 
BRANCH   3   4
ATOM      4  O   UNL A   1      31.750  27.920  25.748  1.00  0.00    -0.463 OA
BRANCH   4   5
ATOM      5  C   UNL A   1      31.313  26.646  25.965  1.00  0.00     0.311 C 
ATOM      6  O   UNL A   1      31.442  26.042  27.019  1.00  0.00    -0.252 OA
BRANCH   5   7
ATOM      7  C   UNL A   1      30.734  26.068  24.686  1.00  0.00     0.134 C 
ATOM      8  C   UNL A   1      32.189  26.230  21.184  1.00  0.00     0.147 C 
ATOM      9  N   UNL A   1      31.444  26.318  22.431  1.00  0.00    -0.339 N 
ATOM     10  C   UNL A   1      30.491  27.295  22.618  1.00  0.00     0.223 C 
ATOM     11  C   UNL A   1      31.721  25.486  23.620  1.00  0.00     0.067 C 
ATOM     12  O   UNL A   1      30.106  28.106  21.790  1.00  0.00    -0.275 OA
ATOM     13  C   UNL A   1      29.986  27.229  24.020  1.00  0.00     0.118 C 
ATOM     14  C   UNL A   1      31.378  24.005  23.279  1.00  0.00     0.091 C 
ATOM     15  C   UNL A   1      33.214  25.547  23.983  1.00  0.00     0.091 C 
ATOM     16  C   UNL A   1      31.900  22.973  24.280  1.00  0.00     0.265 C 
ATOM     17  C   UNL A   1      33.631  24.529  25.045  1.00  0.00     0.265 C 
ATOM     18  N   UNL A   1      33.278  23.151  24.715  1.00  0.00    -0.331 N 
ATOM     19  H   UNL A   1      33.283  22.673  25.616  1.00  0.00     0.348 HD
BRANCH  18  20
ATOM     20  C   UNL A   1      34.312  22.363  24.022  1.00  0.00     0.299 C 
BRANCH  20  21
ATOM     21  C   UNL A   1      35.630  22.201  24.751  1.00  0.00     0.009 A 
ATOM     22  C   UNL A   1      36.264  20.954  24.830  1.00  0.00     0.011 A 
ATOM     23  C   UNL A   1      36.289  23.328  25.275  1.00  0.00     0.050 A 
ATOM     24  C   UNL A   1      37.572  20.854  25.315  1.00  0.00     0.024 A 
ATOM     25  C   UNL A   1      37.606  23.230  25.713  1.00  0.00     0.142 A 
ATOM     26  C   UNL A   1      38.257  22.001  25.716  1.00  0.00     0.076 A 
ATOM     27  F   UNL A   1      38.253  24.354  26.057  1.00  0.00    -0.205 F 
ATOM     28  Cl  UNL A   1      39.918  21.889  26.151  1.00  0.00    -0.081 Cl
ENDBRANCH  20  21
ENDBRANCH  18  20
ENDBRANCH   5   7
ENDBRANCH   4   5
ENDBRANCH   3   4
ENDBRANCH   2   3
ENDBRANCH   1   2
BRANCH   1  29
ATOM     29  C   UNL A   1      31.461  31.956  26.753  1.00  0.00     0.202 C 
BRANCH  29  30
ATOM     30  C   UNL A   1      32.009  33.380  26.864  1.00  0.00     0.261 C 
BRANCH  30  31
ATOM     31  O   UNL A   1      32.339  33.704  28.226  1.00  0.00    -0.460 OA
BRANCH  31  32
ATOM     32  C   UNL A   1      33.439  34.471  28.376  1.00  0.00     0.338 C 
ATOM     33  O   UNL A   1      33.491  35.689  28.492  1.00  0.00    -0.246 OA
BRANCH  32  34
ATOM     34  C   UNL A   1      34.601  33.604  28.617  1.00  0.00     0.060 A 
ATOM     35  C   UNL A   1      34.354  32.316  29.111  1.00  0.00     0.016 A 
ATOM     36  C   UNL A   1      35.905  34.059  28.416  1.00  0.00     0.016 A 
ATOM     37  C   UNL A   1      35.415  31.492  29.461  1.00  0.00     0.010 A 
ATOM     38  C   UNL A   1      36.971  33.238  28.786  1.00  0.00     0.010 A 
ATOM     39  C   UNL A   1      36.724  31.973  29.349  1.00  0.00    -0.014 A 
BRANCH  39  40
ATOM     40  C   UNL A   1      37.817  31.233  30.012  1.00  0.00     0.031 A 
ATOM     41  C   UNL A   1      38.085  31.512  31.464  1.00  0.00     0.074 A 
ATOM     42  C   UNL A   1      38.525  30.308  29.344  1.00  0.00     0.049 A 
ATOM     43  N   UNL A   1      39.017  31.033  32.245  1.00  0.00    -0.248 NA
ATOM     44  C   UNL A   1      37.178  32.466  32.124  1.00  0.00     0.031 C 
ATOM     45  C   UNL A   1      38.308  29.923  27.950  1.00  0.00     0.029 A 
ATOM     46  N   UNL A   1      39.577  29.531  29.752  1.00  0.00    -0.354 N 
ATOM     47  C   UNL A   1      38.816  31.633  33.481  1.00  0.00     0.074 A 
ATOM     48  C   UNL A   1      37.693  32.533  33.342  1.00  0.00     0.031 C 
ATOM     49  C   UNL A   1      39.214  28.989  27.613  1.00  0.00     0.029 A 
ATOM     50  C   UNL A   1      40.091  28.739  28.755  1.00  0.00     0.049 A 
ATOM     51  H   UNL A   1      39.929  29.538  30.671  1.00  0.00     0.167 HD
ATOM     52  C   UNL A   1      39.503  31.442  34.631  1.00  0.00     0.037 A 
ATOM     53  C   UNL A   1      41.167  27.931  28.765  1.00  0.00     0.037 A 
ATOM     54  C   UNL A   1      40.620  30.542  34.753  1.00  0.00     0.049 A 
ATOM     55  C   UNL A   1      41.964  27.793  30.035  1.00  0.00     0.074 A 
ATOM     56  C   UNL A   1      41.383  30.263  35.871  1.00  0.00     0.029 A 
ATOM     57  N   UNL A   1      41.133  29.781  33.713  1.00  0.00    -0.354 N 
ATOM     58  N   UNL A   1      41.761  28.353  31.204  1.00  0.00    -0.248 NA
ATOM     59  C   UNL A   1      43.137  26.911  29.987  1.00  0.00     0.031 C 
ATOM     60  C   UNL A   1      42.393  29.371  35.495  1.00  0.00     0.029 A 
ATOM     61  C   UNL A   1      42.223  29.051  34.156  1.00  0.00     0.049 A 
ATOM     62  H   UNL A   1      40.777  29.763  32.796  1.00  0.00     0.167 HD
ATOM     63  C   UNL A   1      42.762  27.869  32.038  1.00  0.00     0.074 A 
ATOM     64  C   UNL A   1      43.562  26.961  31.242  1.00  0.00     0.031 C 
ATOM     65  C   UNL A   1      42.999  28.148  33.344  1.00  0.00     0.037 A 
BRANCH  52  66
ATOM     66  C   UNL A   1      39.089  32.246  35.828  1.00  0.00     0.057 A 
ATOM     67  C   UNL A   1      38.237  31.729  36.813  1.00  0.00     0.134 A 
ATOM     68  C   UNL A   1      39.561  33.552  36.005  1.00  0.00     0.134 A 
ATOM     69  F   UNL A   1      37.732  30.491  36.694  1.00  0.00    -0.206 F 
ATOM     70  C   UNL A   1      37.852  32.490  37.919  1.00  0.00     0.040 A 
ATOM     71  C   UNL A   1      39.206  34.313  37.121  1.00  0.00     0.040 A 
ATOM     72  F   UNL A   1      40.378  34.110  35.100  1.00  0.00    -0.206 F 
ATOM     73  C   UNL A   1      38.344  33.784  38.079  1.00  0.00     0.006 A 
ENDBRANCH  52  66
BRANCH  53  74
ATOM     74  C   UNL A   1      41.562  27.204  27.532  1.00  0.00     0.057 A 
ATOM     75  C   UNL A   1      41.158  25.885  27.303  1.00  0.00     0.134 A 
ATOM     76  C   UNL A   1      42.366  27.810  26.557  1.00  0.00     0.134 A 
ATOM     77  F   UNL A   1      40.405  25.244  28.209  1.00  0.00    -0.206 F 
ATOM     78  C   UNL A   1      41.552  25.186  26.161  1.00  0.00     0.040 A 
ATOM     79  C   UNL A   1      42.746  27.132  25.397  1.00  0.00     0.040 A 
ATOM     80  F   UNL A   1      42.785  29.074  26.714  1.00  0.00    -0.206 F 
ATOM     81  C   UNL A   1      42.344  25.813  25.201  1.00  0.00     0.006 A 
ENDBRANCH  53  74
BRANCH  65  82
ATOM     82  C   UNL A   1      44.145  27.435  34.000  1.00  0.00     0.057 A 
ATOM     83  C   UNL A   1      43.996  26.168  34.578  1.00  0.00     0.134 A 
ATOM     84  C   UNL A   1      45.423  28.007  34.017  1.00  0.00     0.134 A 
ATOM     85  F   UNL A   1      42.795  25.569  34.606  1.00  0.00    -0.206 F 
ATOM     86  C   UNL A   1      45.073  25.506  35.170  1.00  0.00     0.040 A 
ATOM     87  C   UNL A   1      46.513  27.344  34.579  1.00  0.00     0.040 A 
ATOM     88  F   UNL A   1      45.636  29.214  33.470  1.00  0.00    -0.206 F 
ATOM     89  C   UNL A   1      46.338  26.091  35.164  1.00  0.00     0.006 A 
ENDBRANCH  65  82
ENDBRANCH  39  40
ENDBRANCH  32  34
ENDBRANCH  31  32
ENDBRANCH  30  31
ENDBRANCH  29  30
ENDBRANCH   1  29
TORSDOF 16
ENDMDL
MODEL 2
REMARK VINA RESULT:     -11.8      1.500      1.803
REMARK SMILES CN1C(=O)C[C@H](C(=O)OCCOCCOC(=O)c2ccc(-c3c4nc(c(-c5c(F)cccc5F)c5ccc([nH]5)c(-c5c(F)cccc5F)c5nc(c(-c6c(F)cccc6F)c6ccc3[nH]6)C=C5)C=C4)cc2)C12CC[NH+](Cc1ccc(Cl)c(F)c1)CC2
REMARK SMILES IDX 12 1 11 2 10 3 9 4 7 5 8 6 6 7 1 8 2 9 3 10 72 11 4 12 5 13
REMARK SMILES IDX 73 14 86 15 74 16 85 17 75 18 76 20 77 21 78 22 84 23 79 24
REMARK SMILES IDX 82 25 80 26 83 27 81 28 13 29 14 30 15 31 16 32 17 33 18 34
REMARK SMILES IDX 19 35 71 36 20 37 70 38 21 39 22 40 23 41 64 42 24 43 69 44
REMARK SMILES IDX 63 45 65 46 25 47 68 48 62 49 61 50 26 52 52 53 35 54 51 55
REMARK SMILES IDX 36 56 39 57 50 58 66 59 37 60 38 61 49 63 67 64 40 65 27 66
REMARK SMILES IDX 28 67 33 68 29 69 30 70 32 71 34 72 31 73 53 74 54 75 59 76
REMARK SMILES IDX 55 77 56 78 58 79 60 80 57 81 41 82 42 83 47 84 43 85 44 86
REMARK SMILES IDX 46 87 48 88 45 89
REMARK H PARENT 75 19 65 51 39 62
REMARK Flexibility Score: inf
ROOT
ATOM      1  O   UNL A   1      31.879  30.918  27.252  1.00  0.00    -0.374 OA
ENDROOT
BRANCH   1   2
ATOM      2  C   UNL A   1      32.786  30.071  26.556  1.00  0.00     0.202 C 
BRANCH   2   3
ATOM      3  C   UNL A   1      32.647  28.564  26.779  1.00  0.00     0.261 C 
BRANCH   3   4
ATOM      4  O   UNL A   1      32.007  27.913  25.671  1.00  0.00    -0.463 OA
BRANCH   4   5
ATOM      5  C   UNL A   1      31.370  26.745  25.974  1.00  0.00     0.311 C 
ATOM      6  O   UNL A   1      31.407  26.202  27.067  1.00  0.00    -0.252 OA
BRANCH   5   7
ATOM      7  C   UNL A   1      30.696  26.181  24.736  1.00  0.00     0.134 C 
ATOM      8  C   UNL A   1      32.021  26.118  21.180  1.00  0.00     0.147 C 
ATOM      9  N   UNL A   1      31.336  26.305  22.450  1.00  0.00    -0.339 N 
ATOM     10  C   UNL A   1      30.476  27.364  22.640  1.00  0.00     0.223 C 
ATOM     11  C   UNL A   1      31.587  25.487  23.655  1.00  0.00     0.067 C 
ATOM     12  O   UNL A   1      30.129  28.181  21.800  1.00  0.00    -0.275 OA
ATOM     13  C   UNL A   1      30.022  27.382  24.061  1.00  0.00     0.118 C 
ATOM     14  C   UNL A   1      31.109  24.032  23.373  1.00  0.00     0.091 C 
ATOM     15  C   UNL A   1      33.094  25.431  23.960  1.00  0.00     0.091 C 
ATOM     16  C   UNL A   1      31.580  22.988  24.388  1.00  0.00     0.265 C 
ATOM     17  C   UNL A   1      33.464  24.412  25.039  1.00  0.00     0.265 C 
ATOM     18  N   UNL A   1      32.985  23.060  24.767  1.00  0.00    -0.331 N 
ATOM     19  H   UNL A   1      32.984  22.610  25.682  1.00  0.00     0.348 HD
BRANCH  18  20
ATOM     20  C   UNL A   1      33.921  22.167  24.062  1.00  0.00     0.299 C 
BRANCH  20  21
ATOM     21  C   UNL A   1      33.706  20.682  24.262  1.00  0.00     0.009 A 
ATOM     22  C   UNL A   1      32.482  20.079  23.945  1.00  0.00     0.011 A 
ATOM     23  C   UNL A   1      34.774  19.864  24.676  1.00  0.00     0.050 A 
ATOM     24  C   UNL A   1      32.361  18.686  23.930  1.00  0.00     0.024 A 
ATOM     25  C   UNL A   1      34.661  18.479  24.616  1.00  0.00     0.142 A 
ATOM     26  C   UNL A   1      33.466  17.887  24.224  1.00  0.00     0.076 A 
ATOM     27  F   UNL A   1      35.749  17.735  24.867  1.00  0.00    -0.205 F 
ATOM     28  Cl  UNL A   1      33.351  16.180  24.041  1.00  0.00    -0.081 Cl
ENDBRANCH  20  21
ENDBRANCH  18  20
ENDBRANCH   5   7
ENDBRANCH   4   5
ENDBRANCH   3   4
ENDBRANCH   2   3
ENDBRANCH   1   2
BRANCH   1  29
ATOM     29  C   UNL A   1      31.373  32.061  26.562  1.00  0.00     0.202 C 
BRANCH  29  30
ATOM     30  C   UNL A   1      32.095  33.395  26.757  1.00  0.00     0.261 C 
BRANCH  30  31
ATOM     31  O   UNL A   1      32.358  33.644  28.149  1.00  0.00    -0.460 OA
BRANCH  31  32
ATOM     32  C   UNL A   1      33.435  34.421  28.392  1.00  0.00     0.338 C 
ATOM     33  O   UNL A   1      33.457  35.630  28.582  1.00  0.00    -0.246 OA
BRANCH  32  34
ATOM     34  C   UNL A   1      34.603  33.562  28.634  1.00  0.00     0.060 A 
ATOM     35  C   UNL A   1      34.365  32.277  29.143  1.00  0.00     0.016 A 
ATOM     36  C   UNL A   1      35.903  34.021  28.421  1.00  0.00     0.016 A 
ATOM     37  C   UNL A   1      35.433  31.462  29.493  1.00  0.00     0.010 A 
ATOM     38  C   UNL A   1      36.975  33.209  28.792  1.00  0.00     0.010 A 
ATOM     39  C   UNL A   1      36.739  31.948  29.368  1.00  0.00    -0.014 A 
BRANCH  39  40
ATOM     40  C   UNL A   1      37.840  31.220  30.032  1.00  0.00     0.031 A 
ATOM     41  C   UNL A   1      38.112  31.512  31.480  1.00  0.00     0.074 A 
ATOM     42  C   UNL A   1      38.550  30.295  29.367  1.00  0.00     0.049 A 
ATOM     43  N   UNL A   1      39.051  31.044  32.260  1.00  0.00    -0.248 NA
ATOM     44  C   UNL A   1      37.202  32.465  32.137  1.00  0.00     0.031 C 
ATOM     45  C   UNL A   1      38.329  29.898  27.977  1.00  0.00     0.029 A 
ATOM     46  N   UNL A   1      39.608  29.527  29.775  1.00  0.00    -0.354 N 
ATOM     47  C   UNL A   1      38.852  31.652  33.492  1.00  0.00     0.074 A 
ATOM     48  C   UNL A   1      37.723  32.544  33.352  1.00  0.00     0.031 C 
ATOM     49  C   UNL A   1      39.239  28.968  27.642  1.00  0.00     0.029 A 
ATOM     50  C   UNL A   1      40.123  28.732  28.781  1.00  0.00     0.049 A 
ATOM     51  H   UNL A   1      39.965  29.544  30.693  1.00  0.00     0.167 HD
ATOM     52  C   UNL A   1      39.546  31.474  34.641  1.00  0.00     0.037 A 
ATOM     53  C   UNL A   1      41.204  27.930  28.792  1.00  0.00     0.037 A 
ATOM     54  C   UNL A   1      40.669  30.581  34.764  1.00  0.00     0.049 A 
ATOM     55  C   UNL A   1      42.008  27.807  30.060  1.00  0.00     0.074 A 
ATOM     56  C   UNL A   1      41.440  30.315  35.881  1.00  0.00     0.029 A 
ATOM     57  N   UNL A   1      41.182  29.816  33.727  1.00  0.00    -0.354 N 
ATOM     58  N   UNL A   1      41.807  28.373  31.225  1.00  0.00    -0.248 NA
ATOM     59  C   UNL A   1      43.186  26.932  30.012  1.00  0.00     0.031 C 
ATOM     60  C   UNL A   1      42.453  29.427  35.506  1.00  0.00     0.029 A 
ATOM     61  C   UNL A   1      42.278  29.096  34.170  1.00  0.00     0.049 A 
ATOM     62  H   UNL A   1      40.821  29.789  32.812  1.00  0.00     0.167 HD
ATOM     63  C   UNL A   1      42.815  27.902  32.058  1.00  0.00     0.074 A 
ATOM     64  C   UNL A   1      43.617  26.993  31.265  1.00  0.00     0.031 C 
ATOM     65  C   UNL A   1      43.056  28.193  33.361  1.00  0.00     0.037 A 
BRANCH  52  66
ATOM     66  C   UNL A   1      39.132  32.283  35.834  1.00  0.00     0.057 A 
ATOM     67  C   UNL A   1      38.255  31.783  36.805  1.00  0.00     0.134 A 
ATOM     68  C   UNL A   1      39.631  33.579  36.021  1.00  0.00     0.134 A 
ATOM     69  F   UNL A   1      37.724  30.557  36.675  1.00  0.00    -0.206 F 
ATOM     70  C   UNL A   1      37.871  32.549  37.907  1.00  0.00     0.040 A 
ATOM     71  C   UNL A   1      39.277  34.344  37.134  1.00  0.00     0.040 A 
ATOM     72  F   UNL A   1      40.473  34.121  35.130  1.00  0.00    -0.206 F 
ATOM     73  C   UNL A   1      38.390  33.832  38.078  1.00  0.00     0.006 A 
ENDBRANCH  52  66
BRANCH  53  74
ATOM     74  C   UNL A   1      41.598  27.197  27.562  1.00  0.00     0.057 A 
ATOM     75  C   UNL A   1      41.210  25.870  27.350  1.00  0.00     0.134 A 
ATOM     76  C   UNL A   1      42.385  27.804  26.574  1.00  0.00     0.134 A 
ATOM     77  F   UNL A   1      40.473  25.228  28.269  1.00  0.00    -0.206 F 
ATOM     78  C   UNL A   1      41.603  25.166  26.211  1.00  0.00     0.040 A 
ATOM     79  C   UNL A   1      42.763  27.120  25.418  1.00  0.00     0.040 A 
ATOM     80  F   UNL A   1      42.788  29.075  26.716  1.00  0.00    -0.206 F 
ATOM     81  C   UNL A   1      42.378  25.794  25.238  1.00  0.00     0.006 A 
ENDBRANCH  53  74
BRANCH  65  82
ATOM     82  C   UNL A   1      44.209  27.491  34.017  1.00  0.00     0.057 A 
ATOM     83  C   UNL A   1      44.070  26.231  34.611  1.00  0.00     0.134 A 
ATOM     84  C   UNL A   1      45.486  28.068  34.016  1.00  0.00     0.134 A 
ATOM     85  F   UNL A   1      42.871  25.628  34.656  1.00  0.00    -0.206 F 
ATOM     86  C   UNL A   1      45.154  25.579  35.203  1.00  0.00     0.040 A 
ATOM     87  C   UNL A   1      46.583  27.415  34.578  1.00  0.00     0.040 A 
ATOM     88  F   UNL A   1      45.690  29.269  33.453  1.00  0.00    -0.206 F 
ATOM     89  C   UNL A   1      46.417  26.169  35.180  1.00  0.00     0.006 A 
ENDBRANCH  65  82
ENDBRANCH  39  40
ENDBRANCH  32  34
ENDBRANCH  31  32
ENDBRANCH  30  31
ENDBRANCH  29  30
ENDBRANCH   1  29
TORSDOF 16
ENDMDL
MODEL 3
REMARK VINA RESULT:     -11.7      1.652      6.330
REMARK SMILES CN1C(=O)C[C@H](C(=O)OCCOCCOC(=O)c2ccc(-c3c4nc(c(-c5c(F)cccc5F)c5ccc([nH]5)c(-c5c(F)cccc5F)c5nc(c(-c6c(F)cccc6F)c6ccc3[nH]6)C=C5)C=C4)cc2)C12CC[NH+](Cc1ccc(Cl)c(F)c1)CC2
REMARK SMILES IDX 12 1 11 2 10 3 9 4 7 5 8 6 6 7 1 8 2 9 3 10 72 11 4 12 5 13
REMARK SMILES IDX 73 14 86 15 74 16 85 17 75 18 76 20 77 21 78 22 84 23 79 24
REMARK SMILES IDX 82 25 80 26 83 27 81 28 13 29 14 30 15 31 16 32 17 33 18 34
REMARK SMILES IDX 19 35 71 36 20 37 70 38 21 39 22 40 23 41 64 42 24 43 69 44
REMARK SMILES IDX 63 45 65 46 25 47 68 48 62 49 61 50 26 52 52 53 35 54 51 55
REMARK SMILES IDX 36 56 39 57 50 58 66 59 37 60 38 61 49 63 67 64 40 65 27 66
REMARK SMILES IDX 28 67 33 68 29 69 30 70 32 71 34 72 31 73 53 74 54 75 59 76
REMARK SMILES IDX 55 77 56 78 58 79 60 80 57 81 41 82 42 83 47 84 43 85 44 86
REMARK SMILES IDX 46 87 48 88 45 89
REMARK H PARENT 75 19 65 51 39 62
REMARK Flexibility Score: inf
ROOT
ATOM      1  O   UNL A   1      32.301  30.865  27.385  1.00  0.00    -0.374 OA
ENDROOT
BRANCH   1   2
ATOM      2  C   UNL A   1      32.354  29.573  26.792  1.00  0.00     0.202 C 
BRANCH   2   3
ATOM      3  C   UNL A   1      32.325  29.504  25.264  1.00  0.00     0.261 C 
BRANCH   3   4
ATOM      4  O   UNL A   1      31.867  28.228  24.792  1.00  0.00    -0.463 OA
BRANCH   4   5
ATOM      5  C   UNL A   1      32.667  27.633  23.861  1.00  0.00     0.311 C 
ATOM      6  O   UNL A   1      33.801  27.999  23.590  1.00  0.00    -0.252 OA
BRANCH   5   7
ATOM      7  C   UNL A   1      31.912  26.521  23.156  1.00  0.00     0.134 C 
ATOM      8  C   UNL A   1      33.280  23.226  21.861  1.00  0.00     0.147 C 
ATOM      9  N   UNL A   1      32.717  24.544  22.108  1.00  0.00    -0.339 N 
ATOM     10  C   UNL A   1      32.626  25.475  21.097  1.00  0.00     0.223 C 
ATOM     11  C   UNL A   1      32.327  25.041  23.445  1.00  0.00     0.067 C 
ATOM     12  O   UNL A   1      32.903  25.302  19.920  1.00  0.00    -0.275 OA
ATOM     13  C   UNL A   1      32.136  26.767  21.659  1.00  0.00     0.118 C 
ATOM     14  C   UNL A   1      31.117  24.200  23.951  1.00  0.00     0.091 C 
ATOM     15  C   UNL A   1      33.479  24.848  24.445  1.00  0.00     0.091 C 
ATOM     16  C   UNL A   1      30.791  24.366  25.436  1.00  0.00     0.265 C 
ATOM     17  C   UNL A   1      33.079  25.106  25.899  1.00  0.00     0.265 C 
ATOM     18  N   UNL A   1      31.928  24.327  26.345  1.00  0.00    -0.331 N 
ATOM     19  H   UNL A   1      31.578  24.843  27.151  1.00  0.00     0.348 HD
BRANCH  18  20
ATOM     20  C   UNL A   1      32.227  23.040  26.997  1.00  0.00     0.299 C 
BRANCH  20  21
ATOM     21  C   UNL A   1      32.911  21.998  26.137  1.00  0.00     0.009 A 
ATOM     22  C   UNL A   1      34.299  21.813  26.191  1.00  0.00     0.011 A 
ATOM     23  C   UNL A   1      32.144  21.126  25.343  1.00  0.00     0.050 A 
ATOM     24  C   UNL A   1      34.892  20.715  25.560  1.00  0.00     0.024 A 
ATOM     25  C   UNL A   1      32.733  20.011  24.755  1.00  0.00     0.142 A 
ATOM     26  C   UNL A   1      34.100  19.790  24.878  1.00  0.00     0.076 A 
ATOM     27  F   UNL A   1      31.943  19.119  24.138  1.00  0.00    -0.205 F 
ATOM     28  Cl  UNL A   1      34.818  18.359  24.250  1.00  0.00    -0.081 Cl
ENDBRANCH  20  21
ENDBRANCH  18  20
ENDBRANCH   5   7
ENDBRANCH   4   5
ENDBRANCH   3   4
ENDBRANCH   2   3
ENDBRANCH   1   2
BRANCH   1  29
ATOM     29  C   UNL A   1      31.605  31.894  26.679  1.00  0.00     0.202 C 
BRANCH  29  30
ATOM     30  C   UNL A   1      32.140  33.323  26.784  1.00  0.00     0.261 C 
BRANCH  30  31
ATOM     31  O   UNL A   1      32.164  33.770  28.150  1.00  0.00    -0.460 OA
BRANCH  31  32
ATOM     32  C   UNL A   1      33.196  34.584  28.462  1.00  0.00     0.338 C 
ATOM     33  O   UNL A   1      33.166  35.795  28.634  1.00  0.00    -0.246 OA
BRANCH  32  34
ATOM     34  C   UNL A   1      34.367  33.765  28.804  1.00  0.00     0.060 A 
ATOM     35  C   UNL A   1      34.141  32.582  29.522  1.00  0.00     0.016 A 
ATOM     36  C   UNL A   1      35.661  34.172  28.479  1.00  0.00     0.016 A 
ATOM     37  C   UNL A   1      35.217  31.825  29.967  1.00  0.00     0.010 A 
ATOM     38  C   UNL A   1      36.742  33.422  28.943  1.00  0.00     0.010 A 
ATOM     39  C   UNL A   1      36.520  32.273  29.724  1.00  0.00    -0.014 A 
BRANCH  39  40
ATOM     40  C   UNL A   1      37.639  31.653  30.462  1.00  0.00     0.031 A 
ATOM     41  C   UNL A   1      38.486  30.638  29.747  1.00  0.00     0.074 A 
ATOM     42  C   UNL A   1      37.914  32.017  31.725  1.00  0.00     0.049 A 
ATOM     43  N   UNL A   1      39.483  29.923  30.197  1.00  0.00    -0.248 NA
ATOM     44  C   UNL A   1      38.160  30.396  28.332  1.00  0.00     0.031 C 
ATOM     45  C   UNL A   1      37.188  33.031  32.489  1.00  0.00     0.029 A 
ATOM     46  N   UNL A   1      38.876  31.565  32.588  1.00  0.00    -0.354 N 
ATOM     47  C   UNL A   1      39.895  29.140  29.127  1.00  0.00     0.074 A 
ATOM     48  C   UNL A   1      39.025  29.445  28.013  1.00  0.00     0.031 C 
ATOM     49  C   UNL A   1      37.725  33.113  33.718  1.00  0.00     0.029 A 
ATOM     50  C   UNL A   1      38.804  32.135  33.835  1.00  0.00     0.049 A 
ATOM     51  H   UNL A   1      39.555  30.896  32.339  1.00  0.00     0.167 HD
ATOM     52  C   UNL A   1      40.916  28.252  29.077  1.00  0.00     0.037 A 
ATOM     53  C   UNL A   1      39.514  31.870  34.947  1.00  0.00     0.037 A 
ATOM     54  C   UNL A   1      41.774  27.960  30.195  1.00  0.00     0.049 A 
ATOM     55  C   UNL A   1      40.594  30.822  34.890  1.00  0.00     0.074 A 
ATOM     56  C   UNL A   1      42.844  27.086  30.254  1.00  0.00     0.029 A 
ATOM     57  N   UNL A   1      41.650  28.533  31.452  1.00  0.00    -0.354 N 
ATOM     58  N   UNL A   1      40.988  30.095  33.871  1.00  0.00    -0.248 NA
ATOM     59  C   UNL A   1      41.328  30.559  36.134  1.00  0.00     0.031 C 
ATOM     60  C   UNL A   1      43.336  27.092  31.564  1.00  0.00     0.029 A 
ATOM     61  C   UNL A   1      42.608  28.012  32.304  1.00  0.00     0.049 A 
ATOM     62  H   UNL A   1      40.980  29.210  31.701  1.00  0.00     0.167 HD
ATOM     63  C   UNL A   1      42.034  29.310  34.343  1.00  0.00     0.074 A 
ATOM     64  C   UNL A   1      42.220  29.662  35.737  1.00  0.00     0.031 C 
ATOM     65  C   UNL A   1      42.776  28.384  33.686  1.00  0.00     0.037 A 
BRANCH  52  66
ATOM     66  C   UNL A   1      41.131  27.515  27.788  1.00  0.00     0.057 A 
ATOM     67  C   UNL A   1      41.983  28.000  26.787  1.00  0.00     0.134 A 
ATOM     68  C   UNL A   1      40.487  26.294  27.552  1.00  0.00     0.134 A 
ATOM     69  F   UNL A   1      42.615  29.173  26.940  1.00  0.00    -0.206 F 
ATOM     70  C   UNL A   1      42.169  27.307  25.588  1.00  0.00     0.040 A 
ATOM     71  C   UNL A   1      40.687  25.579  26.370  1.00  0.00     0.040 A 
ATOM     72  F   UNL A   1      39.656  25.773  28.467  1.00  0.00    -0.206 F 
ATOM     73  C   UNL A   1      41.526  26.088  25.381  1.00  0.00     0.006 A 
ENDBRANCH  52  66
BRANCH  53  74
ATOM     74  C   UNL A   1      39.217  32.592  36.210  1.00  0.00     0.057 A 
ATOM     75  C   UNL A   1      38.316  32.079  37.148  1.00  0.00     0.134 A 
ATOM     76  C   UNL A   1      39.819  33.824  36.502  1.00  0.00     0.134 A 
ATOM     77  F   UNL A   1      37.692  30.914  36.916  1.00  0.00    -0.206 F 
ATOM     78  C   UNL A   1      38.009  32.768  38.322  1.00  0.00     0.040 A 
ATOM     79  C   UNL A   1      39.542  34.511  37.684  1.00  0.00     0.040 A 
ATOM     80  F   UNL A   1      40.694  34.370  35.646  1.00  0.00    -0.206 F 
ATOM     81  C   UNL A   1      38.628  33.986  38.595  1.00  0.00     0.006 A 
ENDBRANCH  53  74
BRANCH  65  82
ATOM     82  C   UNL A   1      43.878  27.717  34.456  1.00  0.00     0.057 A 
ATOM     83  C   UNL A   1      43.686  26.500  35.123  1.00  0.00     0.134 A 
ATOM     84  C   UNL A   1      45.159  28.281  34.496  1.00  0.00     0.134 A 
ATOM     85  F   UNL A   1      42.479  25.913  35.133  1.00  0.00    -0.206 F 
ATOM     86  C   UNL A   1      44.723  25.880  35.821  1.00  0.00     0.040 A 
ATOM     87  C   UNL A   1      46.211  27.657  35.165  1.00  0.00     0.040 A 
ATOM     88  F   UNL A   1      45.413  29.440  33.868  1.00  0.00    -0.206 F 
ATOM     89  C   UNL A   1      45.993  26.456  35.837  1.00  0.00     0.006 A 
ENDBRANCH  65  82
ENDBRANCH  39  40
ENDBRANCH  32  34
ENDBRANCH  31  32
ENDBRANCH  30  31
ENDBRANCH  29  30
ENDBRANCH   1  29
TORSDOF 16
ENDMDL
