MODEL 1
REMARK VINA RESULT:     -11.1      0.000      0.000
REMARK SMILES C[C@@H](Cc1cnn(-c2ccccc2)n1)C(=O)OCCOCCOC(=O)c1ccc(-c2c3nc(c(-c4c(F)cccc4F)c4ccc([nH]4)c(-c4c(F)cccc4F)c4nc(c(-c5c(F)cccc5F)c5ccc2[nH]5)C=C4)C=C3)cc1
REMARK SMILES IDX 19 1 18 2 17 3 15 4 16 5 2 6 1 7 3 8 4 9 5 10 14 11 6 12
REMARK SMILES IDX 7 13 8 14 9 15 13 16 10 17 12 18 11 19 20 20 21 21 22 22
REMARK SMILES IDX 23 23 24 24 25 25 26 26 27 27 79 28 28 29 78 30 29 31 30 32
REMARK SMILES IDX 31 33 72 34 32 35 77 36 71 37 73 38 33 39 76 40 70 41 69 42
REMARK SMILES IDX 34 44 60 45 43 46 59 47 44 48 47 49 58 50 74 51 45 52 46 53
REMARK SMILES IDX 57 55 75 56 48 57 35 58 36 59 41 60 37 61 38 62 40 63 42 64
REMARK SMILES IDX 39 65 61 66 62 67 67 68 63 69 64 70 66 71 68 72 65 73 49 74
REMARK SMILES IDX 50 75 55 76 51 77 52 78 54 79 56 80 53 81
REMARK H PARENT 73 43 47 54
REMARK Flexibility Score: inf
ROOT
ATOM      1  C   UNL A   1      40.103  20.592  26.064  1.00  0.00     0.202 C 
ENDROOT
BRANCH   1   2
ATOM      2  C   UNL A   1      39.418  21.955  26.154  1.00  0.00     0.261 C 
BRANCH   2   3
ATOM      3  O   UNL A   1      38.234  22.023  25.340  1.00  0.00    -0.463 OA
BRANCH   3   4
ATOM      4  C   UNL A   1      37.394  23.065  25.588  1.00  0.00     0.309 C 
ATOM      5  O   UNL A   1      37.330  23.684  26.641  1.00  0.00    -0.252 OA
BRANCH   4   6
ATOM      6  C   UNL A   1      36.508  23.390  24.395  1.00  0.00     0.102 C 
ATOM      7  C   UNL A   1      36.693  22.476  23.182  1.00  0.00     0.020 C 
BRANCH   6   8
ATOM      8  C   UNL A   1      35.051  23.534  24.850  1.00  0.00     0.075 C 
BRANCH   8   9
ATOM      9  C   UNL A   1      34.198  22.327  24.657  1.00  0.00     0.084 A 
ATOM     10  C   UNL A   1      33.010  22.151  23.926  1.00  0.00     0.161 A 
ATOM     11  N   UNL A   1      34.544  21.153  25.201  1.00  0.00    -0.153 NA
ATOM     12  N   UNL A   1      32.723  20.855  23.822  1.00  0.00    -0.157 NA
ATOM     13  N   UNL A   1      33.666  20.295  24.619  1.00  0.00    -0.151 N 
BRANCH  13  14
ATOM     14  C   UNL A   1      33.720  18.904  24.831  1.00  0.00     0.086 A 
ATOM     15  C   UNL A   1      34.836  18.183  24.387  1.00  0.00     0.030 A 
ATOM     16  C   UNL A   1      32.652  18.255  25.459  1.00  0.00     0.030 A 
ATOM     17  C   UNL A   1      34.883  16.804  24.580  1.00  0.00     0.002 A 
ATOM     18  C   UNL A   1      32.682  16.867  25.592  1.00  0.00     0.002 A 
ATOM     19  C   UNL A   1      33.799  16.146  25.162  1.00  0.00     0.000 A 
ENDBRANCH  13  14
ENDBRANCH   8   9
ENDBRANCH   6   8
ENDBRANCH   4   6
ENDBRANCH   3   4
ENDBRANCH   2   3
ENDBRANCH   1   2
BRANCH   1  20
ATOM     20  O   UNL A   1      41.513  20.576  25.851  1.00  0.00    -0.374 OA
BRANCH  20  21
ATOM     21  C   UNL A   1      42.287  19.515  26.394  1.00  0.00     0.202 C 
BRANCH  21  22
ATOM     22  C   UNL A   1      43.174  18.723  25.443  1.00  0.00     0.261 C 
BRANCH  22  23
ATOM     23  O   UNL A   1      44.530  19.156  25.446  1.00  0.00    -0.460 OA
BRANCH  23  24
ATOM     24  C   UNL A   1      44.871  19.846  24.329  1.00  0.00     0.338 C 
ATOM     25  O   UNL A   1      45.258  19.386  23.273  1.00  0.00    -0.246 OA
BRANCH  24  26
ATOM     26  C   UNL A   1      44.934  21.277  24.658  1.00  0.00     0.060 A 
ATOM     27  C   UNL A   1      45.662  21.599  25.803  1.00  0.00     0.016 A 
ATOM     28  C   UNL A   1      44.065  22.195  24.048  1.00  0.00     0.016 A 
ATOM     29  C   UNL A   1      45.353  22.768  26.460  1.00  0.00     0.010 A 
ATOM     30  C   UNL A   1      43.753  23.362  24.711  1.00  0.00     0.010 A 
ATOM     31  C   UNL A   1      44.343  23.596  25.948  1.00  0.00    -0.014 A 
BRANCH  31  32
ATOM     32  C   UNL A   1      44.082  24.826  26.665  1.00  0.00     0.031 A 
ATOM     33  C   UNL A   1      45.185  25.791  26.478  1.00  0.00     0.074 A 
ATOM     34  C   UNL A   1      42.979  25.072  27.396  1.00  0.00     0.049 A 
ATOM     35  N   UNL A   1      46.115  26.063  27.328  1.00  0.00    -0.248 NA
ATOM     36  C   UNL A   1      45.423  26.323  25.127  1.00  0.00     0.031 C 
ATOM     37  C   UNL A   1      41.732  24.312  27.455  1.00  0.00     0.029 A 
ATOM     38  N   UNL A   1      42.731  26.130  28.217  1.00  0.00    -0.354 N 
ATOM     39  C   UNL A   1      46.932  26.990  26.696  1.00  0.00     0.074 A 
ATOM     40  C   UNL A   1      46.592  26.942  25.299  1.00  0.00     0.031 C 
ATOM     41  C   UNL A   1      40.788  25.052  28.089  1.00  0.00     0.029 A 
ATOM     42  C   UNL A   1      41.401  26.266  28.602  1.00  0.00     0.049 A 
ATOM     43  H   UNL A   1      43.437  26.749  28.514  1.00  0.00     0.167 HD
ATOM     44  C   UNL A   1      47.595  27.921  27.432  1.00  0.00     0.037 A 
ATOM     45  C   UNL A   1      40.862  27.332  29.251  1.00  0.00     0.037 A 
ATOM     46  C   UNL A   1      47.678  27.511  28.815  1.00  0.00     0.049 A 
ATOM     47  C   UNL A   1      41.977  28.071  29.897  1.00  0.00     0.074 A 
ATOM     48  C   UNL A   1      48.215  26.426  29.482  1.00  0.00     0.029 A 
ATOM     49  N   UNL A   1      46.798  28.095  29.690  1.00  0.00    -0.354 N 
ATOM     50  N   UNL A   1      42.644  27.622  30.921  1.00  0.00    -0.248 NA
ATOM     51  C   UNL A   1      42.643  29.104  29.120  1.00  0.00     0.031 C 
ATOM     52  C   UNL A   1      47.303  26.153  30.544  1.00  0.00     0.029 A 
ATOM     53  C   UNL A   1      46.302  27.125  30.517  1.00  0.00     0.049 A 
ATOM     54  H   UNL A   1      46.563  29.051  29.719  1.00  0.00     0.167 HD
ATOM     55  C   UNL A   1      43.962  27.957  30.648  1.00  0.00     0.074 A 
ATOM     56  C   UNL A   1      43.889  28.950  29.578  1.00  0.00     0.031 C 
ATOM     57  C   UNL A   1      44.985  27.181  31.109  1.00  0.00     0.037 A 
BRANCH  44  58
ATOM     58  C   UNL A   1      47.731  29.366  27.012  1.00  0.00     0.057 A 
ATOM     59  C   UNL A   1      48.986  29.987  27.148  1.00  0.00     0.134 A 
ATOM     60  C   UNL A   1      46.652  30.249  26.795  1.00  0.00     0.134 A 
ATOM     61  F   UNL A   1      50.094  29.261  27.362  1.00  0.00    -0.206 F 
ATOM     62  C   UNL A   1      49.138  31.378  27.171  1.00  0.00     0.040 A 
ATOM     63  C   UNL A   1      46.801  31.638  26.766  1.00  0.00     0.040 A 
ATOM     64  F   UNL A   1      45.382  29.843  26.699  1.00  0.00    -0.206 F 
ATOM     65  C   UNL A   1      48.041  32.209  26.993  1.00  0.00     0.006 A 
ENDBRANCH  44  58
BRANCH  45  66
ATOM     66  C   UNL A   1      39.516  27.943  29.128  1.00  0.00     0.057 A 
ATOM     67  C   UNL A   1      38.661  28.039  30.239  1.00  0.00     0.134 A 
ATOM     68  C   UNL A   1      39.164  28.722  28.014  1.00  0.00     0.134 A 
ATOM     69  F   UNL A   1      38.930  27.365  31.367  1.00  0.00    -0.206 F 
ATOM     70  C   UNL A   1      37.548  28.891  30.256  1.00  0.00     0.040 A 
ATOM     71  C   UNL A   1      38.052  29.573  28.017  1.00  0.00     0.040 A 
ATOM     72  F   UNL A   1      39.942  28.760  26.923  1.00  0.00    -0.206 F 
ATOM     73  C   UNL A   1      37.249  29.674  29.147  1.00  0.00     0.006 A 
ENDBRANCH  45  66
BRANCH  57  74
ATOM     74  C   UNL A   1      44.675  26.163  32.171  1.00  0.00     0.057 A 
ATOM     75  C   UNL A   1      44.408  24.806  31.931  1.00  0.00     0.134 A 
ATOM     76  C   UNL A   1      44.779  26.560  33.510  1.00  0.00     0.134 A 
ATOM     77  F   UNL A   1      44.382  24.309  30.687  1.00  0.00    -0.206 F 
ATOM     78  C   UNL A   1      44.211  23.900  32.979  1.00  0.00     0.040 A 
ATOM     79  C   UNL A   1      44.623  25.658  34.564  1.00  0.00     0.040 A 
ATOM     80  F   UNL A   1      45.080  27.833  33.815  1.00  0.00    -0.206 F 
ATOM     81  C   UNL A   1      44.326  24.325  34.301  1.00  0.00     0.006 A 
ENDBRANCH  57  74
ENDBRANCH  31  32
ENDBRANCH  24  26
ENDBRANCH  23  24
ENDBRANCH  22  23
ENDBRANCH  21  22
ENDBRANCH  20  21
ENDBRANCH   1  20
TORSDOF 17
ENDMDL
MODEL 2
REMARK VINA RESULT:     -10.8      5.617     10.817
REMARK SMILES C[C@@H](Cc1cnn(-c2ccccc2)n1)C(=O)OCCOCCOC(=O)c1ccc(-c2c3nc(c(-c4c(F)cccc4F)c4ccc([nH]4)c(-c4c(F)cccc4F)c4nc(c(-c5c(F)cccc5F)c5ccc2[nH]5)C=C4)C=C3)cc1
REMARK SMILES IDX 19 1 18 2 17 3 15 4 16 5 2 6 1 7 3 8 4 9 5 10 14 11 6 12
REMARK SMILES IDX 7 13 8 14 9 15 13 16 10 17 12 18 11 19 20 20 21 21 22 22
REMARK SMILES IDX 23 23 24 24 25 25 26 26 27 27 79 28 28 29 78 30 29 31 30 32
REMARK SMILES IDX 31 33 72 34 32 35 77 36 71 37 73 38 33 39 76 40 70 41 69 42
REMARK SMILES IDX 34 44 60 45 43 46 59 47 44 48 47 49 58 50 74 51 45 52 46 53
REMARK SMILES IDX 57 55 75 56 48 57 35 58 36 59 41 60 37 61 38 62 40 63 42 64
REMARK SMILES IDX 39 65 61 66 62 67 67 68 63 69 64 70 66 71 68 72 65 73 49 74
REMARK SMILES IDX 50 75 55 76 51 77 52 78 54 79 56 80 53 81
REMARK H PARENT 73 43 47 54
REMARK Flexibility Score: inf
ROOT
ATOM      1  C   UNL A   1      33.946  33.356  28.003  1.00  0.00     0.202 C 
ENDROOT
BRANCH   1   2
ATOM      2  C   UNL A   1      33.972  31.843  28.219  1.00  0.00     0.261 C 
BRANCH   2   3
ATOM      3  O   UNL A   1      33.193  31.141  27.234  1.00  0.00    -0.463 OA
BRANCH   3   4
ATOM      4  C   UNL A   1      33.706  29.959  26.795  1.00  0.00     0.309 C 
ATOM      5  O   UNL A   1      34.706  29.415  27.241  1.00  0.00    -0.252 OA
BRANCH   4   6
ATOM      6  C   UNL A   1      32.894  29.365  25.654  1.00  0.00     0.102 C 
ATOM      7  C   UNL A   1      31.506  29.979  25.457  1.00  0.00     0.020 C 
BRANCH   6   8
ATOM      8  C   UNL A   1      33.742  29.320  24.377  1.00  0.00     0.075 C 
BRANCH   8   9
ATOM      9  C   UNL A   1      33.595  28.087  23.553  1.00  0.00     0.084 A 
ATOM     10  C   UNL A   1      33.770  27.879  22.174  1.00  0.00     0.161 A 
ATOM     11  N   UNL A   1      33.275  26.919  24.125  1.00  0.00    -0.153 NA
ATOM     12  N   UNL A   1      33.779  26.575  21.904  1.00  0.00    -0.157 NA
ATOM     13  N   UNL A   1      33.461  26.038  23.108  1.00  0.00    -0.151 N 
BRANCH  13  14
ATOM     14  C   UNL A   1      33.328  24.647  23.282  1.00  0.00     0.086 A 
ATOM     15  C   UNL A   1      34.438  23.895  23.689  1.00  0.00     0.030 A 
ATOM     16  C   UNL A   1      32.100  24.029  23.024  1.00  0.00     0.030 A 
ATOM     17  C   UNL A   1      34.312  22.516  23.845  1.00  0.00     0.002 A 
ATOM     18  C   UNL A   1      32.002  22.642  23.123  1.00  0.00     0.002 A 
ATOM     19  C   UNL A   1      33.102  21.890  23.542  1.00  0.00     0.000 A 
ENDBRANCH  13  14
ENDBRANCH   8   9
ENDBRANCH   6   8
ENDBRANCH   4   6
ENDBRANCH   3   4
ENDBRANCH   2   3
ENDBRANCH   1   2
BRANCH   1  20
ATOM     20  O   UNL A   1      33.112  34.130  28.862  1.00  0.00    -0.374 OA
BRANCH  20  21
ATOM     21  C   UNL A   1      33.309  35.535  28.941  1.00  0.00     0.202 C 
BRANCH  21  22
ATOM     22  C   UNL A   1      32.877  36.242  30.219  1.00  0.00     0.261 C 
BRANCH  22  23
ATOM     23  O   UNL A   1      32.511  35.345  31.262  1.00  0.00    -0.460 OA
BRANCH  23  24
ATOM     24  C   UNL A   1      33.029  35.691  32.468  1.00  0.00     0.338 C 
ATOM     25  O   UNL A   1      32.764  36.679  33.123  1.00  0.00    -0.246 OA
BRANCH  24  26
ATOM     26  C   UNL A   1      34.158  34.801  32.771  1.00  0.00     0.060 A 
ATOM     27  C   UNL A   1      35.408  35.415  32.838  1.00  0.00     0.016 A 
ATOM     28  C   UNL A   1      34.021  33.407  32.680  1.00  0.00     0.016 A 
ATOM     29  C   UNL A   1      36.522  34.647  32.594  1.00  0.00     0.010 A 
ATOM     30  C   UNL A   1      35.138  32.640  32.430  1.00  0.00     0.010 A 
ATOM     31  C   UNL A   1      36.366  33.282  32.312  1.00  0.00    -0.014 A 
BRANCH  31  32
ATOM     32  C   UNL A   1      37.575  32.518  32.092  1.00  0.00     0.031 A 
ATOM     33  C   UNL A   1      38.378  32.433  33.330  1.00  0.00     0.074 A 
ATOM     34  C   UNL A   1      37.924  31.947  30.924  1.00  0.00     0.049 A 
ATOM     35  N   UNL A   1      39.438  33.114  33.602  1.00  0.00    -0.248 NA
ATOM     36  C   UNL A   1      37.814  31.703  34.476  1.00  0.00     0.031 C 
ATOM     37  C   UNL A   1      37.115  31.753  29.723  1.00  0.00     0.029 A 
ATOM     38  N   UNL A   1      39.104  31.351  30.597  1.00  0.00    -0.354 N 
ATOM     39  C   UNL A   1      39.811  32.719  34.879  1.00  0.00     0.074 A 
ATOM     40  C   UNL A   1      38.677  32.034  35.438  1.00  0.00     0.031 C 
ATOM     41  C   UNL A   1      37.753  30.894  28.889  1.00  0.00     0.029 A 
ATOM     42  C   UNL A   1      39.068  30.593  29.431  1.00  0.00     0.049 A 
ATOM     43  H   UNL A   1      39.918  31.449  31.143  1.00  0.00     0.167 HD
ATOM     44  C   UNL A   1      41.124  32.732  35.234  1.00  0.00     0.037 A 
ATOM     45  C   UNL A   1      40.042  29.753  28.993  1.00  0.00     0.037 A 
ATOM     46  C   UNL A   1      41.883  33.580  34.345  1.00  0.00     0.049 A 
ATOM     47  C   UNL A   1      41.304  30.141  29.673  1.00  0.00     0.074 A 
ATOM     48  C   UNL A   1      41.841  34.917  33.997  1.00  0.00     0.029 A 
ATOM     49  N   UNL A   1      42.615  32.957  33.366  1.00  0.00    -0.354 N 
ATOM     50  N   UNL A   1      41.957  31.238  29.416  1.00  0.00    -0.248 NA
ATOM     51  C   UNL A   1      41.596  29.527  30.959  1.00  0.00     0.031 C 
ATOM     52  C   UNL A   1      42.158  34.950  32.607  1.00  0.00     0.029 A 
ATOM     53  C   UNL A   1      42.451  33.649  32.197  1.00  0.00     0.049 A 
ATOM     54  H   UNL A   1      43.167  32.150  33.484  1.00  0.00     0.167 HD
ATOM     55  C   UNL A   1      42.366  31.696  30.659  1.00  0.00     0.074 A 
ATOM     56  C   UNL A   1      42.201  30.555  31.559  1.00  0.00     0.031 C 
ATOM     57  C   UNL A   1      42.515  33.032  30.892  1.00  0.00     0.037 A 
BRANCH  44  58
ATOM     58  C   UNL A   1      41.772  31.636  36.049  1.00  0.00     0.057 A 
ATOM     59  C   UNL A   1      42.636  32.005  37.096  1.00  0.00     0.134 A 
ATOM     60  C   UNL A   1      41.847  30.281  35.667  1.00  0.00     0.134 A 
ATOM     61  F   UNL A   1      42.667  33.266  37.553  1.00  0.00    -0.206 F 
ATOM     62  C   UNL A   1      43.573  31.121  37.644  1.00  0.00     0.040 A 
ATOM     63  C   UNL A   1      42.744  29.378  36.242  1.00  0.00     0.040 A 
ATOM     64  F   UNL A   1      41.141  29.766  34.654  1.00  0.00    -0.206 F 
ATOM     65  C   UNL A   1      43.638  29.805  37.207  1.00  0.00     0.006 A 
ENDBRANCH  44  58
BRANCH  45  66
ATOM     66  C   UNL A   1      39.935  28.463  28.269  1.00  0.00     0.057 A 
ATOM     67  C   UNL A   1      40.577  28.272  27.033  1.00  0.00     0.134 A 
ATOM     68  C   UNL A   1      39.475  27.301  28.907  1.00  0.00     0.134 A 
ATOM     69  F   UNL A   1      41.086  29.315  26.360  1.00  0.00    -0.206 F 
ATOM     70  C   UNL A   1      40.786  26.999  26.487  1.00  0.00     0.040 A 
ATOM     71  C   UNL A   1      39.673  26.023  28.370  1.00  0.00     0.040 A 
ATOM     72  F   UNL A   1      38.907  27.356  30.120  1.00  0.00    -0.206 F 
ATOM     73  C   UNL A   1      40.347  25.866  27.163  1.00  0.00     0.006 A 
ENDBRANCH  45  66
BRANCH  57  74
ATOM     74  C   UNL A   1      42.545  33.956  29.706  1.00  0.00     0.057 A 
ATOM     75  C   UNL A   1      41.449  34.698  29.237  1.00  0.00     0.134 A 
ATOM     76  C   UNL A   1      43.781  34.195  29.092  1.00  0.00     0.134 A 
ATOM     77  F   UNL A   1      40.246  34.610  29.821  1.00  0.00    -0.206 F 
ATOM     78  C   UNL A   1      41.575  35.603  28.177  1.00  0.00     0.040 A 
ATOM     79  C   UNL A   1      43.927  35.123  28.060  1.00  0.00     0.040 A 
ATOM     80  F   UNL A   1      44.882  33.557  29.520  1.00  0.00    -0.206 F 
ATOM     81  C   UNL A   1      42.820  35.822  27.591  1.00  0.00     0.006 A 
ENDBRANCH  57  74
ENDBRANCH  31  32
ENDBRANCH  24  26
ENDBRANCH  23  24
ENDBRANCH  22  23
ENDBRANCH  21  22
ENDBRANCH  20  21
ENDBRANCH   1  20
TORSDOF 17
ENDMDL
MODEL 3
REMARK VINA RESULT:     -10.8      6.349     11.413
REMARK SMILES C[C@@H](Cc1cnn(-c2ccccc2)n1)C(=O)OCCOCCOC(=O)c1ccc(-c2c3nc(c(-c4c(F)cccc4F)c4ccc([nH]4)c(-c4c(F)cccc4F)c4nc(c(-c5c(F)cccc5F)c5ccc2[nH]5)C=C4)C=C3)cc1
REMARK SMILES IDX 19 1 18 2 17 3 15 4 16 5 2 6 1 7 3 8 4 9 5 10 14 11 6 12
REMARK SMILES IDX 7 13 8 14 9 15 13 16 10 17 12 18 11 19 20 20 21 21 22 22
REMARK SMILES IDX 23 23 24 24 25 25 26 26 27 27 79 28 28 29 78 30 29 31 30 32
REMARK SMILES IDX 31 33 72 34 32 35 77 36 71 37 73 38 33 39 76 40 70 41 69 42
REMARK SMILES IDX 34 44 60 45 43 46 59 47 44 48 47 49 58 50 74 51 45 52 46 53
REMARK SMILES IDX 57 55 75 56 48 57 35 58 36 59 41 60 37 61 38 62 40 63 42 64
REMARK SMILES IDX 39 65 61 66 62 67 67 68 63 69 64 70 66 71 68 72 65 73 49 74
REMARK SMILES IDX 50 75 55 76 51 77 52 78 54 79 56 80 53 81
REMARK H PARENT 73 43 47 54
REMARK Flexibility Score: inf
ROOT
ATOM      1  C   UNL A   1      33.667  32.965  28.251  1.00  0.00     0.202 C 
ENDROOT
BRANCH   1   2
ATOM      2  C   UNL A   1      34.439  31.752  27.731  1.00  0.00     0.261 C 
BRANCH   2   3
ATOM      3  O   UNL A   1      33.564  30.674  27.354  1.00  0.00    -0.463 OA
BRANCH   3   4
ATOM      4  C   UNL A   1      34.152  29.459  27.178  1.00  0.00     0.309 C 
ATOM      5  O   UNL A   1      35.356  29.245  27.219  1.00  0.00    -0.252 OA
BRANCH   4   6
ATOM      6  C   UNL A   1      33.137  28.359  26.910  1.00  0.00     0.102 C 
ATOM      7  C   UNL A   1      31.709  28.669  27.367  1.00  0.00     0.020 C 
BRANCH   6   8
ATOM      8  C   UNL A   1      33.237  27.900  25.450  1.00  0.00     0.075 C 
BRANCH   8   9
ATOM      9  C   UNL A   1      31.992  28.050  24.644  1.00  0.00     0.084 A 
ATOM     10  C   UNL A   1      30.967  27.132  24.360  1.00  0.00     0.161 A 
ATOM     11  N   UNL A   1      31.685  29.224  24.076  1.00  0.00    -0.153 NA
ATOM     12  N   UNL A   1      29.927  27.759  23.814  1.00  0.00    -0.157 NA
ATOM     13  N   UNL A   1      30.413  29.014  23.648  1.00  0.00    -0.151 N 
BRANCH  13  14
ATOM     14  C   UNL A   1      29.639  30.032  23.059  1.00  0.00     0.086 A 
ATOM     15  C   UNL A   1      28.996  30.969  23.878  1.00  0.00     0.030 A 
ATOM     16  C   UNL A   1      29.500  30.082  21.668  1.00  0.00     0.030 A 
ATOM     17  C   UNL A   1      28.216  31.967  23.297  1.00  0.00     0.002 A 
ATOM     18  C   UNL A   1      28.668  31.047  21.101  1.00  0.00     0.002 A 
ATOM     19  C   UNL A   1      28.036  31.991  21.914  1.00  0.00     0.000 A 
ENDBRANCH  13  14
ENDBRANCH   8   9
ENDBRANCH   6   8
ENDBRANCH   4   6
ENDBRANCH   3   4
ENDBRANCH   2   3
ENDBRANCH   1   2
BRANCH   1  20
ATOM     20  O   UNL A   1      34.421  34.020  28.846  1.00  0.00    -0.374 OA
BRANCH  20  21
ATOM     21  C   UNL A   1      33.946  35.356  28.749  1.00  0.00     0.202 C 
BRANCH  21  22
ATOM     22  C   UNL A   1      32.822  35.780  29.684  1.00  0.00     0.261 C 
BRANCH  22  23
ATOM     23  O   UNL A   1      33.282  36.192  30.966  1.00  0.00    -0.460 OA
BRANCH  23  24
ATOM     24  C   UNL A   1      32.909  35.350  31.963  1.00  0.00     0.338 C 
ATOM     25  O   UNL A   1      31.856  35.353  32.569  1.00  0.00    -0.246 OA
BRANCH  24  26
ATOM     26  C   UNL A   1      34.078  34.563  32.379  1.00  0.00     0.060 A 
ATOM     27  C   UNL A   1      35.272  35.274  32.495  1.00  0.00     0.016 A 
ATOM     28  C   UNL A   1      34.050  33.160  32.346  1.00  0.00     0.016 A 
ATOM     29  C   UNL A   1      36.454  34.583  32.360  1.00  0.00     0.010 A 
ATOM     30  C   UNL A   1      35.235  32.471  32.205  1.00  0.00     0.010 A 
ATOM     31  C   UNL A   1      36.417  33.199  32.133  1.00  0.00    -0.014 A 
BRANCH  31  32
ATOM     32  C   UNL A   1      37.692  32.521  32.027  1.00  0.00     0.031 A 
ATOM     33  C   UNL A   1      38.419  32.560  33.313  1.00  0.00     0.074 A 
ATOM     34  C   UNL A   1      38.155  31.922  30.915  1.00  0.00     0.049 A 
ATOM     35  N   UNL A   1      39.406  33.334  33.610  1.00  0.00    -0.248 NA
ATOM     36  C   UNL A   1      37.840  31.846  34.462  1.00  0.00     0.031 C 
ATOM     37  C   UNL A   1      37.440  31.606  29.680  1.00  0.00     0.029 A 
ATOM     38  N   UNL A   1      39.394  31.404  30.692  1.00  0.00    -0.354 N 
ATOM     39  C   UNL A   1      39.726  33.033  34.926  1.00  0.00     0.074 A 
ATOM     40  C   UNL A   1      38.613  32.291  35.454  1.00  0.00     0.031 C 
ATOM     41  C   UNL A   1      38.191  30.759  28.934  1.00  0.00     0.029 A 
ATOM     42  C   UNL A   1      39.488  30.588  29.568  1.00  0.00     0.049 A 
ATOM     43  H   UNL A   1      40.162  31.591  31.278  1.00  0.00     0.167 HD
ATOM     44  C   UNL A   1      41.009  33.165  35.358  1.00  0.00     0.037 A 
ATOM     45  C   UNL A   1      40.548  29.805  29.235  1.00  0.00     0.037 A 
ATOM     46  C   UNL A   1      41.758  34.025  34.470  1.00  0.00     0.049 A 
ATOM     47  C   UNL A   1      41.732  30.323  29.966  1.00  0.00     0.074 A 
ATOM     48  C   UNL A   1      41.639  35.335  34.048  1.00  0.00     0.029 A 
ATOM     49  N   UNL A   1      42.595  33.413  33.571  1.00  0.00    -0.354 N 
ATOM     50  N   UNL A   1      42.317  31.453  29.689  1.00  0.00    -0.248 NA
ATOM     51  C   UNL A   1      41.987  29.798  31.298  1.00  0.00     0.031 C 
ATOM     52  C   UNL A   1      42.039  35.323  32.679  1.00  0.00     0.029 A 
ATOM     53  C   UNL A   1      42.453  34.030  32.359  1.00  0.00     0.049 A 
ATOM     54  H   UNL A   1      43.196  32.657  33.766  1.00  0.00     0.167 HD
ATOM     55  C   UNL A   1      42.611  32.003  30.927  1.00  0.00     0.074 A 
ATOM     56  C   UNL A   1      42.474  30.899  31.876  1.00  0.00     0.031 C 
ATOM     57  C   UNL A   1      42.646  33.356  31.095  1.00  0.00     0.037 A 
BRANCH  44  58
ATOM     58  C   UNL A   1      41.684  32.165  36.268  1.00  0.00     0.057 A 
ATOM     59  C   UNL A   1      42.419  32.650  37.365  1.00  0.00     0.134 A 
ATOM     60  C   UNL A   1      41.916  30.811  35.950  1.00  0.00     0.134 A 
ATOM     61  F   UNL A   1      42.294  33.923  37.769  1.00  0.00    -0.206 F 
ATOM     62  C   UNL A   1      43.384  31.879  38.024  1.00  0.00     0.040 A 
ATOM     63  C   UNL A   1      42.840  30.017  36.633  1.00  0.00     0.040 A 
ATOM     64  F   UNL A   1      41.349  30.197  34.906  1.00  0.00    -0.206 F 
ATOM     65  C   UNL A   1      43.606  30.561  37.649  1.00  0.00     0.006 A 
ENDBRANCH  44  58
BRANCH  45  66
ATOM     66  C   UNL A   1      40.582  28.476  28.577  1.00  0.00     0.057 A 
ATOM     67  C   UNL A   1      39.885  27.382  29.117  1.00  0.00     0.134 A 
ATOM     68  C   UNL A   1      41.029  28.326  27.254  1.00  0.00     0.134 A 
ATOM     69  F   UNL A   1      39.383  27.440  30.360  1.00  0.00    -0.206 F 
ATOM     70  C   UNL A   1      39.611  26.227  28.373  1.00  0.00     0.040 A 
ATOM     71  C   UNL A   1      40.768  27.174  26.502  1.00  0.00     0.040 A 
ATOM     72  F   UNL A   1      41.648  29.328  26.615  1.00  0.00    -0.206 F 
ATOM     73  C   UNL A   1      40.040  26.126  27.054  1.00  0.00     0.006 A 
ENDBRANCH  45  66
BRANCH  57  74
ATOM     74  C   UNL A   1      42.682  34.219  29.865  1.00  0.00     0.057 A 
ATOM     75  C   UNL A   1      43.832  34.490  29.106  1.00  0.00     0.134 A 
ATOM     76  C   UNL A   1      41.464  34.692  29.360  1.00  0.00     0.134 A 
ATOM     77  F   UNL A   1      45.029  34.001  29.456  1.00  0.00    -0.206 F 
ATOM     78  C   UNL A   1      43.771  35.235  27.923  1.00  0.00     0.040 A 
ATOM     79  C   UNL A   1      41.386  35.403  28.161  1.00  0.00     0.040 A 
ATOM     80  F   UNL A   1      40.317  34.431  30.007  1.00  0.00    -0.206 F 
ATOM     81  C   UNL A   1      42.544  35.687  27.444  1.00  0.00     0.006 A 
ENDBRANCH  57  74
ENDBRANCH  31  32
ENDBRANCH  24  26
ENDBRANCH  23  24
ENDBRANCH  22  23
ENDBRANCH  21  22
ENDBRANCH  20  21
ENDBRANCH   1  20
TORSDOF 17
ENDMDL
