MODEL 1
REMARK VINA RESULT:     -10.9      0.000      0.000
REMARK SMILES C=Cc1cncc(-c2ccc([C@@H](C)C(=O)OCCOCCOC(=O)c3ccc(-c4c5nc(c(-c6c(F)cccc6F)c6ccc([nH]6)c(-c6c(F)cccc6F)c6nc(c(-c7c(F)cccc7F)c7ccc4[nH]7)C=C6)C=C5)cc3)cc2)c1
REMARK SMILES IDX 18 1 17 2 16 3 14 4 15 5 12 6 13 7 11 8 8 9 9 10 80 11 10 12
REMARK SMILES IDX 79 13 7 14 3 15 4 16 81 17 5 18 6 19 2 20 1 21 19 22 20 23
REMARK SMILES IDX 21 24 22 25 23 26 24 27 25 28 26 29 78 30 27 31 77 32 28 33
REMARK SMILES IDX 29 34 30 35 71 36 31 37 76 38 70 39 72 40 32 41 75 42 69 43
REMARK SMILES IDX 68 44 33 46 59 47 42 48 58 49 43 50 46 51 57 52 73 53 44 54
REMARK SMILES IDX 45 55 56 57 74 58 47 59 34 60 35 61 40 62 36 63 37 64 39 65
REMARK SMILES IDX 41 66 38 67 60 68 61 69 66 70 62 71 63 72 65 73 67 74 64 75
REMARK SMILES IDX 48 76 49 77 54 78 50 79 51 80 53 81 55 82 52 83
REMARK H PARENT 72 45 46 56
REMARK Flexibility Score: inf
ROOT
ATOM      1  C   UNL A   1      33.006  36.230  31.731  1.00  0.00     0.202 C 
ENDROOT
BRANCH   1   2
ATOM      2  C   UNL A   1      32.905  35.909  30.238  1.00  0.00     0.261 C 
BRANCH   2   3
ATOM      3  O   UNL A   1      33.344  34.563  29.975  1.00  0.00    -0.463 OA
BRANCH   3   4
ATOM      4  C   UNL A   1      34.083  34.381  28.851  1.00  0.00     0.313 C 
ATOM      5  O   UNL A   1      34.033  35.111  27.865  1.00  0.00    -0.252 OA
BRANCH   4   6
ATOM      6  C   UNL A   1      34.971  33.146  28.890  1.00  0.00     0.126 C 
ATOM      7  C   UNL A   1      36.396  33.545  28.514  1.00  0.00     0.025 C 
BRANCH   6   8
ATOM      8  C   UNL A   1      34.505  31.911  28.121  1.00  0.00    -0.034 A 
ATOM      9  C   UNL A   1      33.501  29.561  26.862  1.00  0.00    -0.017 A 
ATOM     10  C   UNL A   1      34.826  29.633  27.319  1.00  0.00     0.009 A 
ATOM     11  C   UNL A   1      32.697  30.698  27.010  1.00  0.00     0.009 A 
ATOM     12  C   UNL A   1      35.321  30.788  27.939  1.00  0.00     0.005 A 
ATOM     13  C   UNL A   1      33.189  31.855  27.631  1.00  0.00     0.005 A 
BRANCH   9  14
ATOM     14  C   UNL A   1      32.962  28.314  26.302  1.00  0.00     0.001 A 
ATOM     15  C   UNL A   1      33.142  25.952  25.730  1.00  0.00    -0.007 A 
ATOM     16  C   UNL A   1      31.860  26.046  25.194  1.00  0.00     0.119 A 
ATOM     17  C   UNL A   1      33.695  27.118  26.277  1.00  0.00     0.020 A 
ATOM     18  N   UNL A   1      31.114  27.174  25.191  1.00  0.00    -0.263 NA
ATOM     19  C   UNL A   1      31.683  28.271  25.743  1.00  0.00     0.119 A 
BRANCH  15  20
ATOM     20  C   UNL A   1      33.866  24.679  25.655  1.00  0.00     0.002 C 
ATOM     21  C   UNL A   1      35.055  24.526  25.060  1.00  0.00     0.009 C 
ENDBRANCH  15  20
ENDBRANCH   9  14
ENDBRANCH   6   8
ENDBRANCH   4   6
ENDBRANCH   3   4
ENDBRANCH   2   3
ENDBRANCH   1   2
BRANCH   1  22
ATOM     22  O   UNL A   1      33.404  35.145  32.569  1.00  0.00    -0.374 OA
BRANCH  22  23
ATOM     23  C   UNL A   1      34.679  35.243  33.203  1.00  0.00     0.202 C 
BRANCH  23  24
ATOM     24  C   UNL A   1      35.816  34.455  32.544  1.00  0.00     0.261 C 
BRANCH  24  25
ATOM     25  O   UNL A   1      35.619  33.033  32.644  1.00  0.00    -0.460 OA
BRANCH  25  26
ATOM     26  C   UNL A   1      36.553  32.383  33.371  1.00  0.00     0.338 C 
ATOM     27  O   UNL A   1      36.646  32.338  34.591  1.00  0.00    -0.246 OA
BRANCH  26  28
ATOM     28  C   UNL A   1      37.412  31.565  32.497  1.00  0.00     0.060 A 
ATOM     29  C   UNL A   1      38.576  31.031  33.065  1.00  0.00     0.016 A 
ATOM     30  C   UNL A   1      37.148  31.399  31.134  1.00  0.00     0.016 A 
ATOM     31  C   UNL A   1      39.514  30.390  32.261  1.00  0.00     0.010 A 
ATOM     32  C   UNL A   1      38.097  30.758  30.326  1.00  0.00     0.010 A 
ATOM     33  C   UNL A   1      39.303  30.291  30.879  1.00  0.00    -0.014 A 
BRANCH  33  34
ATOM     34  C   UNL A   1      40.427  29.845  30.019  1.00  0.00     0.031 A 
ATOM     35  C   UNL A   1      41.554  30.800  29.733  1.00  0.00     0.074 A 
ATOM     36  C   UNL A   1      40.488  28.580  29.564  1.00  0.00     0.049 A 
ATOM     37  N   UNL A   1      42.668  30.598  29.074  1.00  0.00    -0.248 NA
ATOM     38  C   UNL A   1      41.411  32.164  30.267  1.00  0.00     0.031 C 
ATOM     39  C   UNL A   1      39.478  27.550  29.797  1.00  0.00     0.029 A 
ATOM     40  N   UNL A   1      41.452  27.947  28.822  1.00  0.00    -0.354 N 
ATOM     41  C   UNL A   1      43.358  31.804  29.117  1.00  0.00     0.074 A 
ATOM     42  C   UNL A   1      42.523  32.743  29.835  1.00  0.00     0.031 C 
ATOM     43  C   UNL A   1      39.878  26.409  29.209  1.00  0.00     0.029 A 
ATOM     44  C   UNL A   1      41.162  26.634  28.549  1.00  0.00     0.049 A 
ATOM     45  H   UNL A   1      42.274  28.393  28.513  1.00  0.00     0.167 HD
ATOM     46  C   UNL A   1      44.581  32.100  28.618  1.00  0.00     0.037 A 
ATOM     47  C   UNL A   1      41.856  25.718  27.845  1.00  0.00     0.037 A 
ATOM     48  C   UNL A   1      45.415  31.171  27.904  1.00  0.00     0.049 A 
ATOM     49  C   UNL A   1      43.192  26.085  27.259  1.00  0.00     0.074 A 
ATOM     50  C   UNL A   1      46.676  31.377  27.369  1.00  0.00     0.029 A 
ATOM     51  N   UNL A   1      45.071  29.859  27.618  1.00  0.00    -0.354 N 
ATOM     52  N   UNL A   1      43.846  27.219  27.335  1.00  0.00    -0.248 NA
ATOM     53  C   UNL A   1      43.891  25.039  26.497  1.00  0.00     0.031 C 
ATOM     54  C   UNL A   1      47.078  30.201  26.727  1.00  0.00     0.029 A 
ATOM     55  C   UNL A   1      46.086  29.249  26.900  1.00  0.00     0.049 A 
ATOM     56  H   UNL A   1      44.229  29.425  27.887  1.00  0.00     0.167 HD
ATOM     57  C   UNL A   1      45.043  27.014  26.657  1.00  0.00     0.074 A 
ATOM     58  C   UNL A   1      45.029  25.645  26.188  1.00  0.00     0.031 C 
ATOM     59  C   UNL A   1      46.062  27.883  26.445  1.00  0.00     0.037 A 
BRANCH  46  60
ATOM     60  C   UNL A   1      45.083  33.499  28.818  1.00  0.00     0.057 A 
ATOM     61  C   UNL A   1      45.862  33.852  29.927  1.00  0.00     0.134 A 
ATOM     62  C   UNL A   1      44.806  34.498  27.877  1.00  0.00     0.134 A 
ATOM     63  F   UNL A   1      46.150  32.944  30.872  1.00  0.00    -0.206 F 
ATOM     64  C   UNL A   1      46.330  35.155  30.104  1.00  0.00     0.040 A 
ATOM     65  C   UNL A   1      45.288  35.799  28.031  1.00  0.00     0.040 A 
ATOM     66  F   UNL A   1      44.068  34.225  26.791  1.00  0.00    -0.206 F 
ATOM     67  C   UNL A   1      46.047  36.132  29.151  1.00  0.00     0.006 A 
ENDBRANCH  46  60
BRANCH  47  68
ATOM     68  C   UNL A   1      41.304  24.352  27.661  1.00  0.00     0.057 A 
ATOM     69  C   UNL A   1      41.792  23.266  28.396  1.00  0.00     0.134 A 
ATOM     70  C   UNL A   1      40.292  24.099  26.727  1.00  0.00     0.134 A 
ATOM     71  F   UNL A   1      42.778  23.442  29.288  1.00  0.00    -0.206 F 
ATOM     72  C   UNL A   1      41.305  21.973  28.197  1.00  0.00     0.040 A 
ATOM     73  C   UNL A   1      39.781  22.816  26.535  1.00  0.00     0.040 A 
ATOM     74  F   UNL A   1      39.784  25.099  25.993  1.00  0.00    -0.206 F 
ATOM     75  C   UNL A   1      40.293  21.747  27.267  1.00  0.00     0.006 A 
ENDBRANCH  47  68
BRANCH  59  76
ATOM     76  C   UNL A   1      47.260  27.367  25.703  1.00  0.00     0.057 A 
ATOM     77  C   UNL A   1      48.299  26.692  26.354  1.00  0.00     0.134 A 
ATOM     78  C   UNL A   1      47.360  27.526  24.314  1.00  0.00     0.134 A 
ATOM     79  F   UNL A   1      48.269  26.517  27.684  1.00  0.00    -0.206 F 
ATOM     80  C   UNL A   1      49.411  26.217  25.656  1.00  0.00     0.040 A 
ATOM     81  C   UNL A   1      48.455  27.034  23.602  1.00  0.00     0.040 A 
ATOM     82  F   UNL A   1      46.395  28.155  23.628  1.00  0.00    -0.206 F 
ATOM     83  C   UNL A   1      49.488  26.384  24.273  1.00  0.00     0.006 A 
ENDBRANCH  59  76
ENDBRANCH  33  34
ENDBRANCH  26  28
ENDBRANCH  25  26
ENDBRANCH  24  25
ENDBRANCH  23  24
ENDBRANCH  22  23
ENDBRANCH   1  22
TORSDOF 17
ENDMDL
MODEL 2
REMARK VINA RESULT:     -10.9      5.176     10.644
REMARK SMILES C=Cc1cncc(-c2ccc([C@@H](C)C(=O)OCCOCCOC(=O)c3ccc(-c4c5nc(c(-c6c(F)cccc6F)c6ccc([nH]6)c(-c6c(F)cccc6F)c6nc(c(-c7c(F)cccc7F)c7ccc4[nH]7)C=C6)C=C5)cc3)cc2)c1
REMARK SMILES IDX 18 1 17 2 16 3 14 4 15 5 12 6 13 7 11 8 8 9 9 10 80 11 10 12
REMARK SMILES IDX 79 13 7 14 3 15 4 16 81 17 5 18 6 19 2 20 1 21 19 22 20 23
REMARK SMILES IDX 21 24 22 25 23 26 24 27 25 28 26 29 78 30 27 31 77 32 28 33
REMARK SMILES IDX 29 34 30 35 71 36 31 37 76 38 70 39 72 40 32 41 75 42 69 43
REMARK SMILES IDX 68 44 33 46 59 47 42 48 58 49 43 50 46 51 57 52 73 53 44 54
REMARK SMILES IDX 45 55 56 57 74 58 47 59 34 60 35 61 40 62 36 63 37 64 39 65
REMARK SMILES IDX 41 66 38 67 60 68 61 69 66 70 62 71 63 72 65 73 67 74 64 75
REMARK SMILES IDX 48 76 49 77 54 78 50 79 51 80 53 81 55 82 52 83
REMARK H PARENT 72 45 46 56
REMARK Flexibility Score: inf
ROOT
ATOM      1  C   UNL A   1      42.230  20.570  26.573  1.00  0.00     0.202 C 
ENDROOT
BRANCH   1   2
ATOM      2  C   UNL A   1      40.991  21.373  26.977  1.00  0.00     0.261 C 
BRANCH   2   3
ATOM      3  O   UNL A   1      39.866  21.026  26.148  1.00  0.00    -0.463 OA
BRANCH   3   4
ATOM      4  C   UNL A   1      38.859  21.934  26.092  1.00  0.00     0.313 C 
ATOM      5  O   UNL A   1      38.993  23.132  26.328  1.00  0.00    -0.252 OA
BRANCH   4   6
ATOM      6  C   UNL A   1      37.504  21.332  25.745  1.00  0.00     0.126 C 
ATOM      7  C   UNL A   1      37.717  20.099  24.871  1.00  0.00     0.025 C 
BRANCH   6   8
ATOM      8  C   UNL A   1      36.441  22.263  25.167  1.00  0.00    -0.034 A 
ATOM      9  C   UNL A   1      34.619  24.153  24.059  1.00  0.00    -0.017 A 
ATOM     10  C   UNL A   1      34.575  23.810  25.419  1.00  0.00     0.009 A 
ATOM     11  C   UNL A   1      35.564  23.504  23.253  1.00  0.00     0.009 A 
ATOM     12  C   UNL A   1      35.471  22.882  25.966  1.00  0.00     0.005 A 
ATOM     13  C   UNL A   1      36.462  22.575  23.798  1.00  0.00     0.005 A 
BRANCH   9  14
ATOM     14  C   UNL A   1      33.742  25.198  23.514  1.00  0.00     0.001 A 
ATOM     15  C   UNL A   1      32.926  27.492  23.415  1.00  0.00    -0.007 A 
ATOM     16  C   UNL A   1      32.025  27.065  22.443  1.00  0.00     0.119 A 
ATOM     17  C   UNL A   1      33.783  26.527  23.961  1.00  0.00     0.020 A 
ATOM     18  N   UNL A   1      31.942  25.798  21.980  1.00  0.00    -0.263 NA
ATOM     19  C   UNL A   1      32.799  24.903  22.526  1.00  0.00     0.119 A 
BRANCH  15  20
ATOM     20  C   UNL A   1      32.907  28.890  23.855  1.00  0.00     0.002 C 
ATOM     21  C   UNL A   1      33.165  29.286  25.108  1.00  0.00     0.009 C 
ENDBRANCH  15  20
ENDBRANCH   9  14
ENDBRANCH   6   8
ENDBRANCH   4   6
ENDBRANCH   3   4
ENDBRANCH   2   3
ENDBRANCH   1   2
BRANCH   1  22
ATOM     22  O   UNL A   1      42.841  20.958  25.342  1.00  0.00    -0.374 OA
BRANCH  22  23
ATOM     23  C   UNL A   1      44.217  21.336  25.387  1.00  0.00     0.202 C 
BRANCH  23  24
ATOM     24  C   UNL A   1      44.645  22.421  24.394  1.00  0.00     0.261 C 
BRANCH  24  25
ATOM     25  O   UNL A   1      43.816  23.594  24.481  1.00  0.00    -0.460 OA
BRANCH  25  26
ATOM     26  C   UNL A   1      44.436  24.689  24.974  1.00  0.00     0.338 C 
ATOM     27  O   UNL A   1      45.539  25.120  24.664  1.00  0.00    -0.246 OA
BRANCH  26  28
ATOM     28  C   UNL A   1      43.533  25.436  25.868  1.00  0.00     0.060 A 
ATOM     29  C   UNL A   1      43.819  26.791  26.074  1.00  0.00     0.016 A 
ATOM     30  C   UNL A   1      42.493  24.816  26.566  1.00  0.00     0.016 A 
ATOM     31  C   UNL A   1      43.112  27.516  27.029  1.00  0.00     0.010 A 
ATOM     32  C   UNL A   1      41.786  25.546  27.532  1.00  0.00     0.010 A 
ATOM     33  C   UNL A   1      42.123  26.886  27.797  1.00  0.00    -0.014 A 
BRANCH  33  34
ATOM     34  C   UNL A   1      41.576  27.602  28.976  1.00  0.00     0.031 A 
ATOM     35  C   UNL A   1      42.285  27.486  30.298  1.00  0.00     0.074 A 
ATOM     36  C   UNL A   1      40.509  28.413  28.857  1.00  0.00     0.049 A 
ATOM     37  N   UNL A   1      42.029  28.082  31.435  1.00  0.00    -0.248 NA
ATOM     38  C   UNL A   1      43.444  26.579  30.344  1.00  0.00     0.031 C 
ATOM     39  C   UNL A   1      39.753  28.637  27.627  1.00  0.00     0.029 A 
ATOM     40  N   UNL A   1      39.888  29.208  29.786  1.00  0.00    -0.354 N 
ATOM     41  C   UNL A   1      42.993  27.630  32.327  1.00  0.00     0.074 A 
ATOM     42  C   UNL A   1      43.817  26.680  31.612  1.00  0.00     0.031 C 
ATOM     43  C   UNL A   1      38.767  29.517  27.877  1.00  0.00     0.029 A 
ATOM     44  C   UNL A   1      38.816  29.904  29.285  1.00  0.00     0.049 A 
ATOM     45  H   UNL A   1      40.182  29.273  30.723  1.00  0.00     0.167 HD
ATOM     46  C   UNL A   1      43.184  27.981  33.621  1.00  0.00     0.037 A 
ATOM     47  C   UNL A   1      37.970  30.757  29.896  1.00  0.00     0.037 A 
ATOM     48  C   UNL A   1      42.367  28.924  34.337  1.00  0.00     0.049 A 
ATOM     49  C   UNL A   1      38.175  31.096  31.348  1.00  0.00     0.074 A 
ATOM     50  C   UNL A   1      42.491  29.352  35.648  1.00  0.00     0.029 A 
ATOM     51  N   UNL A   1      41.270  29.582  33.804  1.00  0.00    -0.354 N 
ATOM     52  N   UNL A   1      39.110  30.684  32.171  1.00  0.00    -0.248 NA
ATOM     53  C   UNL A   1      37.211  32.028  31.953  1.00  0.00     0.031 C 
ATOM     54  C   UNL A   1      41.445  30.242  35.919  1.00  0.00     0.029 A 
ATOM     55  C   UNL A   1      40.696  30.400  34.764  1.00  0.00     0.049 A 
ATOM     56  H   UNL A   1      40.947  29.484  32.880  1.00  0.00     0.167 HD
ATOM     57  C   UNL A   1      38.863  31.327  33.379  1.00  0.00     0.074 A 
ATOM     58  C   UNL A   1      37.700  32.165  33.178  1.00  0.00     0.031 C 
ATOM     59  C   UNL A   1      39.542  31.233  34.549  1.00  0.00     0.037 A 
BRANCH  46  60
ATOM     60  C   UNL A   1      44.319  27.326  34.350  1.00  0.00     0.057 A 
ATOM     61  C   UNL A   1      45.590  27.910  34.414  1.00  0.00     0.134 A 
ATOM     62  C   UNL A   1      44.132  26.109  35.016  1.00  0.00     0.134 A 
ATOM     63  F   UNL A   1      45.838  29.068  33.784  1.00  0.00    -0.206 F 
ATOM     64  C   UNL A   1      46.641  27.297  35.098  1.00  0.00     0.040 A 
ATOM     65  C   UNL A   1      45.169  25.497  35.723  1.00  0.00     0.040 A 
ATOM     66  F   UNL A   1      42.938  25.498  34.995  1.00  0.00    -0.206 F 
ATOM     67  C   UNL A   1      46.430  26.089  35.760  1.00  0.00     0.006 A 
ENDBRANCH  46  60
BRANCH  47  68
ATOM     68  C   UNL A   1      36.851  31.364  29.133  1.00  0.00     0.057 A 
ATOM     69  C   UNL A   1      35.728  30.612  28.770  1.00  0.00     0.134 A 
ATOM     70  C   UNL A   1      36.892  32.704  28.730  1.00  0.00     0.134 A 
ATOM     71  F   UNL A   1      35.643  29.318  29.108  1.00  0.00    -0.206 F 
ATOM     72  C   UNL A   1      34.692  31.168  28.018  1.00  0.00     0.040 A 
ATOM     73  C   UNL A   1      35.853  33.277  27.997  1.00  0.00     0.040 A 
ATOM     74  F   UNL A   1      37.942  33.475  29.047  1.00  0.00    -0.206 F 
ATOM     75  C   UNL A   1      34.751  32.506  27.633  1.00  0.00     0.006 A 
ENDBRANCH  47  68
BRANCH  59  76
ATOM     76  C   UNL A   1      39.064  32.084  35.689  1.00  0.00     0.057 A 
ATOM     77  C   UNL A   1      38.218  31.579  36.684  1.00  0.00     0.134 A 
ATOM     78  C   UNL A   1      39.476  33.418  35.804  1.00  0.00     0.134 A 
ATOM     79  F   UNL A   1      37.778  30.314  36.626  1.00  0.00    -0.206 F 
ATOM     80  C   UNL A   1      37.776  32.379  37.740  1.00  0.00     0.040 A 
ATOM     81  C   UNL A   1      39.061  34.220  36.867  1.00  0.00     0.040 A 
ATOM     82  F   UNL A   1      40.294  33.960  34.889  1.00  0.00    -0.206 F 
ATOM     83  C   UNL A   1      38.203  33.704  37.836  1.00  0.00     0.006 A 
ENDBRANCH  59  76
ENDBRANCH  33  34
ENDBRANCH  26  28
ENDBRANCH  25  26
ENDBRANCH  24  25
ENDBRANCH  23  24
ENDBRANCH  22  23
ENDBRANCH   1  22
TORSDOF 17
ENDMDL
MODEL 3
REMARK VINA RESULT:     -10.4      1.299      1.987
REMARK SMILES C=Cc1cncc(-c2ccc([C@@H](C)C(=O)OCCOCCOC(=O)c3ccc(-c4c5nc(c(-c6c(F)cccc6F)c6ccc([nH]6)c(-c6c(F)cccc6F)c6nc(c(-c7c(F)cccc7F)c7ccc4[nH]7)C=C6)C=C5)cc3)cc2)c1
REMARK SMILES IDX 18 1 17 2 16 3 14 4 15 5 12 6 13 7 11 8 8 9 9 10 80 11 10 12
REMARK SMILES IDX 79 13 7 14 3 15 4 16 81 17 5 18 6 19 2 20 1 21 19 22 20 23
REMARK SMILES IDX 21 24 22 25 23 26 24 27 25 28 26 29 78 30 27 31 77 32 28 33
REMARK SMILES IDX 29 34 30 35 71 36 31 37 76 38 70 39 72 40 32 41 75 42 69 43
REMARK SMILES IDX 68 44 33 46 59 47 42 48 58 49 43 50 46 51 57 52 73 53 44 54
REMARK SMILES IDX 45 55 56 57 74 58 47 59 34 60 35 61 40 62 36 63 37 64 39 65
REMARK SMILES IDX 41 66 38 67 60 68 61 69 66 70 62 71 63 72 65 73 67 74 64 75
REMARK SMILES IDX 48 76 49 77 54 78 50 79 51 80 53 81 55 82 52 83
REMARK H PARENT 72 45 46 56
REMARK Flexibility Score: inf
ROOT
ATOM      1  C   UNL A   1      33.990  35.355  31.311  1.00  0.00     0.202 C 
ENDROOT
BRANCH   1   2
ATOM      2  C   UNL A   1      34.287  34.054  30.561  1.00  0.00     0.261 C 
BRANCH   2   3
ATOM      3  O   UNL A   1      33.639  34.048  29.275  1.00  0.00    -0.463 OA
BRANCH   3   4
ATOM      4  C   UNL A   1      34.354  33.527  28.245  1.00  0.00     0.313 C 
ATOM      5  O   UNL A   1      34.850  34.194  27.341  1.00  0.00    -0.252 OA
BRANCH   4   6
ATOM      6  C   UNL A   1      34.462  32.009  28.274  1.00  0.00     0.126 C 
ATOM      7  C   UNL A   1      35.916  31.609  28.036  1.00  0.00     0.025 C 
BRANCH   6   8
ATOM      8  C   UNL A   1      33.501  31.212  27.395  1.00  0.00    -0.034 A 
ATOM      9  C   UNL A   1      31.844  29.769  25.581  1.00  0.00    -0.017 A 
ATOM     10  C   UNL A   1      31.425  30.986  26.140  1.00  0.00     0.009 A 
ATOM     11  C   UNL A   1      33.091  29.266  25.975  1.00  0.00     0.009 A 
ATOM     12  C   UNL A   1      32.239  31.697  27.032  1.00  0.00     0.005 A 
ATOM     13  C   UNL A   1      33.908  29.975  26.866  1.00  0.00     0.005 A 
BRANCH   9  14
ATOM     14  C   UNL A   1      31.028  29.079  24.572  1.00  0.00     0.001 A 
ATOM     15  C   UNL A   1      29.273  29.034  22.882  1.00  0.00    -0.007 A 
ATOM     16  C   UNL A   1      29.536  27.675  22.733  1.00  0.00     0.119 A 
ATOM     17  C   UNL A   1      30.030  29.732  23.833  1.00  0.00     0.020 A 
ATOM     18  N   UNL A   1      30.482  26.999  23.422  1.00  0.00    -0.263 NA
ATOM     19  C   UNL A   1      31.199  27.717  24.318  1.00  0.00     0.119 A 
BRANCH  15  20
ATOM     20  C   UNL A   1      28.204  29.656  22.095  1.00  0.00     0.002 C 
ATOM     21  C   UNL A   1      28.388  30.690  21.264  1.00  0.00     0.009 C 
ENDBRANCH  15  20
ENDBRANCH   9  14
ENDBRANCH   6   8
ENDBRANCH   4   6
ENDBRANCH   3   4
ENDBRANCH   2   3
ENDBRANCH   1   2
BRANCH   1  22
ATOM     22  O   UNL A   1      33.671  35.209  32.695  1.00  0.00    -0.374 OA
BRANCH  22  23
ATOM     23  C   UNL A   1      34.763  35.127  33.612  1.00  0.00     0.202 C 
BRANCH  23  24
ATOM     24  C   UNL A   1      35.203  33.712  34.002  1.00  0.00     0.261 C 
BRANCH  24  25
ATOM     25  O   UNL A   1      36.357  33.279  33.258  1.00  0.00    -0.460 OA
BRANCH  25  26
ATOM     26  C   UNL A   1      37.067  32.291  33.844  1.00  0.00     0.338 C 
ATOM     27  O   UNL A   1      37.035  31.948  35.018  1.00  0.00    -0.246 OA
BRANCH  26  28
ATOM     28  C   UNL A   1      37.821  31.527  32.833  1.00  0.00     0.060 A 
ATOM     29  C   UNL A   1      38.851  30.700  33.297  1.00  0.00     0.016 A 
ATOM     30  C   UNL A   1      37.600  31.683  31.462  1.00  0.00     0.016 A 
ATOM     31  C   UNL A   1      39.708  30.079  32.393  1.00  0.00     0.010 A 
ATOM     32  C   UNL A   1      38.468  31.061  30.553  1.00  0.00     0.010 A 
ATOM     33  C   UNL A   1      39.552  30.294  31.017  1.00  0.00    -0.014 A 
BRANCH  33  34
ATOM     34  C   UNL A   1      40.626  29.840  30.100  1.00  0.00     0.031 A 
ATOM     35  C   UNL A   1      41.762  30.776  29.784  1.00  0.00     0.074 A 
ATOM     36  C   UNL A   1      40.638  28.584  29.618  1.00  0.00     0.049 A 
ATOM     37  N   UNL A   1      42.841  30.563  29.073  1.00  0.00    -0.248 NA
ATOM     38  C   UNL A   1      41.674  32.131  30.350  1.00  0.00     0.031 C 
ATOM     39  C   UNL A   1      39.616  27.572  29.875  1.00  0.00     0.029 A 
ATOM     40  N   UNL A   1      41.554  27.945  28.822  1.00  0.00    -0.354 N 
ATOM     41  C   UNL A   1      43.559  31.752  29.110  1.00  0.00     0.074 A 
ATOM     42  C   UNL A   1      42.778  32.694  29.881  1.00  0.00     0.031 C 
ATOM     43  C   UNL A   1      39.964  26.435  29.248  1.00  0.00     0.029 A 
ATOM     44  C   UNL A   1      41.223  26.645  28.536  1.00  0.00     0.049 A 
ATOM     45  H   UNL A   1      42.373  28.379  28.486  1.00  0.00     0.167 HD
ATOM     46  C   UNL A   1      44.766  32.031  28.563  1.00  0.00     0.037 A 
ATOM     47  C   UNL A   1      41.864  25.728  27.785  1.00  0.00     0.037 A 
ATOM     48  C   UNL A   1      45.547  31.099  27.795  1.00  0.00     0.049 A 
ATOM     49  C   UNL A   1      43.181  26.078  27.148  1.00  0.00     0.074 A 
ATOM     50  C   UNL A   1      46.788  31.288  27.209  1.00  0.00     0.029 A 
ATOM     51  N   UNL A   1      45.161  29.801  27.499  1.00  0.00    -0.354 N 
ATOM     52  N   UNL A   1      43.865  27.195  27.218  1.00  0.00    -0.248 NA
ATOM     53  C   UNL A   1      43.823  25.032  26.336  1.00  0.00     0.031 C 
ATOM     54  C   UNL A   1      47.135  30.116  26.528  1.00  0.00     0.029 A 
ATOM     55  C   UNL A   1      46.129  29.183  26.725  1.00  0.00     0.049 A 
ATOM     56  H   UNL A   1      44.322  29.381  27.796  1.00  0.00     0.167 HD
ATOM     57  C   UNL A   1      45.026  26.978  26.484  1.00  0.00     0.074 A 
ATOM     58  C   UNL A   1      44.960  25.619  25.990  1.00  0.00     0.031 C 
ATOM     59  C   UNL A   1      46.054  27.828  26.245  1.00  0.00     0.037 A 
BRANCH  46  60
ATOM     60  C   UNL A   1      45.309  33.415  28.768  1.00  0.00     0.057 A 
ATOM     61  C   UNL A   1      46.144  33.727  29.848  1.00  0.00     0.134 A 
ATOM     62  C   UNL A   1      45.013  34.439  27.860  1.00  0.00     0.134 A 
ATOM     63  F   UNL A   1      46.454  32.793  30.760  1.00  0.00    -0.206 F 
ATOM     64  C   UNL A   1      46.650  35.015  30.030  1.00  0.00     0.040 A 
ATOM     65  C   UNL A   1      45.531  35.726  28.019  1.00  0.00     0.040 A 
ATOM     66  F   UNL A   1      44.221  34.205  26.804  1.00  0.00    -0.206 F 
ATOM     67  C   UNL A   1      46.347  36.018  29.110  1.00  0.00     0.006 A 
ENDBRANCH  46  60
BRANCH  47  68
ATOM     68  C   UNL A   1      41.274  24.379  27.599  1.00  0.00     0.057 A 
ATOM     69  C   UNL A   1      41.771  23.267  28.288  1.00  0.00     0.134 A 
ATOM     70  C   UNL A   1      40.214  24.169  26.708  1.00  0.00     0.134 A 
ATOM     71  F   UNL A   1      42.800  23.402  29.136  1.00  0.00    -0.206 F 
ATOM     72  C   UNL A   1      41.246  21.990  28.085  1.00  0.00     0.040 A 
ATOM     73  C   UNL A   1      39.666  22.901  26.513  1.00  0.00     0.040 A 
ATOM     74  F   UNL A   1      39.695  25.195  26.019  1.00  0.00    -0.206 F 
ATOM     75  C   UNL A   1      40.187  21.805  27.198  1.00  0.00     0.006 A 
ENDBRANCH  47  68
BRANCH  59  76
ATOM     76  C   UNL A   1      47.207  27.301  25.441  1.00  0.00     0.057 A 
ATOM     77  C   UNL A   1      48.192  26.483  26.009  1.00  0.00     0.134 A 
ATOM     78  C   UNL A   1      47.317  27.595  24.076  1.00  0.00     0.134 A 
ATOM     79  F   UNL A   1      48.150  26.174  27.313  1.00  0.00    -0.206 F 
ATOM     80  C   UNL A   1      49.262  25.999  25.253  1.00  0.00     0.040 A 
ATOM     81  C   UNL A   1      48.368  27.097  23.305  1.00  0.00     0.040 A 
ATOM     82  F   UNL A   1      46.402  28.365  23.469  1.00  0.00    -0.206 F 
ATOM     83  C   UNL A   1      49.349  26.302  23.895  1.00  0.00     0.006 A 
ENDBRANCH  59  76
ENDBRANCH  33  34
ENDBRANCH  26  28
ENDBRANCH  25  26
ENDBRANCH  24  25
ENDBRANCH  23  24
ENDBRANCH  22  23
ENDBRANCH   1  22
TORSDOF 17
ENDMDL
