MODEL 1
REMARK VINA RESULT:     -12.2      0.000      0.000
REMARK SMILES O=C(COc1ccc(/C=C2\SC(=O)N(Cc3cc4c(cc3Cl)OCO4)C2=O)cc1)OCCOCCOC(=O)c1ccc(-c2c3nc(c(-c4c(F)cccc4F)c4ccc([nH]4)c(-c4c(F)cccc4F)c4nc(c(-c5c(F)cccc5F)c5ccc2[nH]5)C=C4)C=C3)cc1
REMARK SMILES IDX 31 1 30 2 2 3 1 4 3 5 4 6 5 7 6 8 29 9 7 10 28 11 8 12 9 13
REMARK SMILES IDX 10 14 11 15 26 16 12 17 14 18 27 19 13 20 15 21 16 22 17 23
REMARK SMILES IDX 21 24 18 25 20 26 22 27 19 28 25 29 23 30 24 31 32 32 33 33
REMARK SMILES IDX 34 34 35 35 36 36 37 37 38 38 39 39 40 40 92 41 41 42 91 43
REMARK SMILES IDX 42 44 43 45 44 46 85 47 45 48 90 49 84 50 86 51 46 52 89 53
REMARK SMILES IDX 83 54 82 55 47 57 73 58 56 59 72 60 57 61 60 62 71 63 87 64
REMARK SMILES IDX 58 65 59 66 70 68 88 69 61 70 48 71 49 72 54 73 50 74 51 75
REMARK SMILES IDX 53 76 55 77 52 78 74 79 75 80 80 81 76 82 77 83 79 84 81 85
REMARK SMILES IDX 78 86 62 87 63 88 68 89 64 90 65 91 67 92 69 93 66 94
REMARK H PARENT 86 56 60 67
REMARK Flexibility Score: inf
ROOT
ATOM      1  C   UNL A   1      33.025  36.478  30.070  1.00  0.00     0.261 C 
ENDROOT
BRANCH   1   2
ATOM      2  O   UNL A   1      32.817  35.568  28.983  1.00  0.00    -0.461 OA
BRANCH   2   3
ATOM      3  C   UNL A   1      33.795  34.790  28.451  1.00  0.00     0.344 C 
ATOM      4  O   UNL A   1      34.794  35.324  27.966  1.00  0.00    -0.248 OA
BRANCH   3   5
ATOM      5  C   UNL A   1      33.610  33.269  28.410  1.00  0.00     0.351 C 
BRANCH   5   6
ATOM      6  O   UNL A   1      34.575  32.442  27.766  1.00  0.00    -0.482 OA
BRANCH   6   7
ATOM      7  C   UNL A   1      34.095  31.170  27.628  1.00  0.00     0.120 A 
ATOM      8  C   UNL A   1      32.730  31.007  27.415  1.00  0.00     0.047 A 
ATOM      9  C   UNL A   1      34.951  30.073  27.654  1.00  0.00     0.047 A 
ATOM     10  C   UNL A   1      32.241  29.747  27.067  1.00  0.00     0.012 A 
ATOM     11  C   UNL A   1      34.475  28.835  27.279  1.00  0.00     0.012 A 
ATOM     12  C   UNL A   1      33.127  28.671  26.958  1.00  0.00    -0.024 A 
BRANCH  12  13
ATOM     13  C   UNL A   1      32.754  27.416  26.324  1.00  0.00     0.029 C 
ATOM     14  C   UNL A   1      32.796  27.174  25.011  1.00  0.00     0.083 C 
ATOM     15  S   UNL A   1      33.579  28.008  23.734  1.00  0.00    -0.022 SA
ATOM     16  C   UNL A   1      32.132  25.978  24.475  1.00  0.00     0.268 C 
ATOM     17  C   UNL A   1      33.426  26.610  22.670  1.00  0.00     0.293 C 
ATOM     18  N   UNL A   1      32.759  25.611  23.320  1.00  0.00    -0.264 N 
ATOM     19  O   UNL A   1      31.129  25.482  24.964  1.00  0.00    -0.268 OA
ATOM     20  O   UNL A   1      33.853  26.597  21.526  1.00  0.00    -0.261 OA
BRANCH  18  21
ATOM     21  C   UNL A   1      32.638  24.265  22.810  1.00  0.00     0.167 C 
BRANCH  21  22
ATOM     22  C   UNL A   1      33.543  23.327  23.600  1.00  0.00    -0.005 A 
ATOM     23  C   UNL A   1      34.921  23.319  23.301  1.00  0.00     0.057 A 
ATOM     24  C   UNL A   1      33.076  22.489  24.653  1.00  0.00     0.050 A 
ATOM     25  C   UNL A   1      35.745  22.489  24.033  1.00  0.00     0.166 A 
ATOM     26  C   UNL A   1      33.956  21.745  25.443  1.00  0.00     0.071 A 
ATOM     27  Cl  UNL A   1      31.408  22.220  24.987  1.00  0.00    -0.084 Cl
ATOM     28  C   UNL A   1      35.278  21.745  25.089  1.00  0.00     0.167 A 
ATOM     29  O   UNL A   1      37.068  22.265  23.805  1.00  0.00    -0.454 OA
ATOM     30  O   UNL A   1      36.248  20.989  25.667  1.00  0.00    -0.454 OA
ATOM     31  C   UNL A   1      37.299  21.152  24.697  1.00  0.00     0.468 C 
ENDBRANCH  21  22
ENDBRANCH  18  21
ENDBRANCH  12  13
ENDBRANCH   6   7
ENDBRANCH   5   6
ENDBRANCH   3   5
ENDBRANCH   2   3
ENDBRANCH   1   2
BRANCH   1  32
ATOM     32  C   UNL A   1      32.231  36.174  31.341  1.00  0.00     0.202 C 
BRANCH  32  33
ATOM     33  O   UNL A   1      32.534  34.994  32.070  1.00  0.00    -0.374 OA
BRANCH  33  34
ATOM     34  C   UNL A   1      33.899  34.609  32.251  1.00  0.00     0.202 C 
BRANCH  34  35
ATOM     35  C   UNL A   1      34.215  33.215  32.787  1.00  0.00     0.261 C 
BRANCH  35  36
ATOM     36  O   UNL A   1      35.225  32.553  32.012  1.00  0.00    -0.460 OA
BRANCH  36  37
ATOM     37  C   UNL A   1      36.491  32.952  32.274  1.00  0.00     0.338 C 
ATOM     38  O   UNL A   1      36.853  33.852  33.011  1.00  0.00    -0.246 OA
BRANCH  37  39
ATOM     39  C   UNL A   1      37.430  32.005  31.656  1.00  0.00     0.060 A 
ATOM     40  C   UNL A   1      38.212  31.202  32.497  1.00  0.00     0.016 A 
ATOM     41  C   UNL A   1      37.603  31.989  30.273  1.00  0.00     0.016 A 
ATOM     42  C   UNL A   1      39.227  30.420  31.957  1.00  0.00     0.010 A 
ATOM     43  C   UNL A   1      38.627  31.216  29.735  1.00  0.00     0.010 A 
ATOM     44  C   UNL A   1      39.467  30.469  30.580  1.00  0.00    -0.014 A 
BRANCH  44  45
ATOM     45  C   UNL A   1      40.710  29.908  30.015  1.00  0.00     0.031 A 
ATOM     46  C   UNL A   1      41.853  30.845  29.758  1.00  0.00     0.074 A 
ATOM     47  C   UNL A   1      40.782  28.613  29.674  1.00  0.00     0.049 A 
ATOM     48  N   UNL A   1      42.957  30.646  29.090  1.00  0.00    -0.248 NA
ATOM     49  C   UNL A   1      41.717  32.201  30.315  1.00  0.00     0.031 C 
ATOM     50  C   UNL A   1      39.738  27.620  29.912  1.00  0.00     0.029 A 
ATOM     51  N   UNL A   1      41.766  27.928  29.012  1.00  0.00    -0.354 N 
ATOM     52  C   UNL A   1      43.632  31.859  29.117  1.00  0.00     0.074 A 
ATOM     53  C   UNL A   1      42.808  32.792  29.853  1.00  0.00     0.031 C 
ATOM     54  C   UNL A   1      40.118  26.456  29.359  1.00  0.00     0.029 A 
ATOM     55  C   UNL A   1      41.408  26.642  28.697  1.00  0.00     0.049 A 
ATOM     56  H   UNL A   1      42.641  28.318  28.784  1.00  0.00     0.167 HD
ATOM     57  C   UNL A   1      44.832  32.165  28.567  1.00  0.00     0.037 A 
ATOM     58  C   UNL A   1      42.031  25.738  27.919  1.00  0.00     0.037 A 
ATOM     59  C   UNL A   1      45.633  31.221  27.833  1.00  0.00     0.049 A 
ATOM     60  C   UNL A   1      43.343  26.105  27.279  1.00  0.00     0.074 A 
ATOM     61  C   UNL A   1      46.879  31.404  27.264  1.00  0.00     0.029 A 
ATOM     62  N   UNL A   1      45.251  29.915  27.560  1.00  0.00    -0.354 N 
ATOM     63  N   UNL A   1      43.994  27.243  27.328  1.00  0.00    -0.248 NA
ATOM     64  C   UNL A   1      44.005  25.066  26.482  1.00  0.00     0.031 C 
ATOM     65  C   UNL A   1      47.230  30.223  26.601  1.00  0.00     0.029 A 
ATOM     66  C   UNL A   1      46.227  29.286  26.806  1.00  0.00     0.049 A 
ATOM     67  H   UNL A   1      44.411  29.497  27.857  1.00  0.00     0.167 HD
ATOM     68  C   UNL A   1      45.157  27.050  26.591  1.00  0.00     0.074 A 
ATOM     69  C   UNL A   1      45.119  25.684  26.108  1.00  0.00     0.031 C 
ATOM     70  C   UNL A   1      46.167  27.920  26.344  1.00  0.00     0.037 A 
BRANCH  57  71
ATOM     71  C   UNL A   1      45.308  33.581  28.702  1.00  0.00     0.057 A 
ATOM     72  C   UNL A   1      44.937  34.584  27.798  1.00  0.00     0.134 A 
ATOM     73  C   UNL A   1      46.169  33.943  29.747  1.00  0.00     0.134 A 
ATOM     74  F   UNL A   1      44.128  34.303  26.764  1.00  0.00    -0.206 F 
ATOM     75  C   UNL A   1      45.433  35.885  27.903  1.00  0.00     0.040 A 
ATOM     76  C   UNL A   1      46.648  35.247  29.880  1.00  0.00     0.040 A 
ATOM     77  F   UNL A   1      46.565  33.035  30.650  1.00  0.00    -0.206 F 
ATOM     78  C   UNL A   1      46.289  36.220  28.950  1.00  0.00     0.006 A 
ENDBRANCH  57  71
BRANCH  58  79
ATOM     79  C   UNL A   1      41.401  24.415  27.695  1.00  0.00     0.057 A 
ATOM     80  C   UNL A   1      40.381  24.250  26.755  1.00  0.00     0.134 A 
ATOM     81  C   UNL A   1      41.843  23.275  28.379  1.00  0.00     0.134 A 
ATOM     82  F   UNL A   1      39.907  25.309  26.081  1.00  0.00    -0.206 F 
ATOM     83  C   UNL A   1      39.820  22.998  26.499  1.00  0.00     0.040 A 
ATOM     84  C   UNL A   1      41.306  22.014  28.118  1.00  0.00     0.040 A 
ATOM     85  F   UNL A   1      42.826  23.368  29.287  1.00  0.00    -0.206 F 
ATOM     86  C   UNL A   1      40.289  21.874  27.176  1.00  0.00     0.006 A 
ENDBRANCH  58  79
BRANCH  70  87
ATOM     87  C   UNL A   1      47.336  27.413  25.554  1.00  0.00     0.057 A 
ATOM     88  C   UNL A   1      48.384  26.703  26.152  1.00  0.00     0.134 A 
ATOM     89  C   UNL A   1      47.374  27.577  24.162  1.00  0.00     0.134 A 
ATOM     90  F   UNL A   1      48.413  26.522  27.481  1.00  0.00    -0.206 F 
ATOM     91  C   UNL A   1      49.436  26.185  25.393  1.00  0.00     0.040 A 
ATOM     92  C   UNL A   1      48.405  27.041  23.393  1.00  0.00     0.040 A 
ATOM     93  F   UNL A   1      46.394  28.238  23.528  1.00  0.00    -0.206 F 
ATOM     94  C   UNL A   1      49.443  26.345  24.009  1.00  0.00     0.006 A 
ENDBRANCH  70  87
ENDBRANCH  44  45
ENDBRANCH  37  39
ENDBRANCH  36  37
ENDBRANCH  35  36
ENDBRANCH  34  35
ENDBRANCH  33  34
ENDBRANCH  32  33
ENDBRANCH   1  32
TORSDOF 19
ENDMDL
MODEL 2
REMARK VINA RESULT:     -11.9      1.461      6.200
REMARK SMILES O=C(COc1ccc(/C=C2\SC(=O)N(Cc3cc4c(cc3Cl)OCO4)C2=O)cc1)OCCOCCOC(=O)c1ccc(-c2c3nc(c(-c4c(F)cccc4F)c4ccc([nH]4)c(-c4c(F)cccc4F)c4nc(c(-c5c(F)cccc5F)c5ccc2[nH]5)C=C4)C=C3)cc1
REMARK SMILES IDX 31 1 30 2 2 3 1 4 3 5 4 6 5 7 6 8 29 9 7 10 28 11 8 12 9 13
REMARK SMILES IDX 10 14 11 15 26 16 12 17 14 18 27 19 13 20 15 21 16 22 17 23
REMARK SMILES IDX 21 24 18 25 20 26 22 27 19 28 25 29 23 30 24 31 32 32 33 33
REMARK SMILES IDX 34 34 35 35 36 36 37 37 38 38 39 39 40 40 92 41 41 42 91 43
REMARK SMILES IDX 42 44 43 45 44 46 85 47 45 48 90 49 84 50 86 51 46 52 89 53
REMARK SMILES IDX 83 54 82 55 47 57 73 58 56 59 72 60 57 61 60 62 71 63 87 64
REMARK SMILES IDX 58 65 59 66 70 68 88 69 61 70 48 71 49 72 54 73 50 74 51 75
REMARK SMILES IDX 53 76 55 77 52 78 74 79 75 80 80 81 76 82 77 83 79 84 81 85
REMARK SMILES IDX 78 86 62 87 63 88 68 89 64 90 65 91 67 92 69 93 66 94
REMARK H PARENT 86 56 60 67
REMARK Flexibility Score: inf
ROOT
ATOM      1  C   UNL A   1      33.636  35.289  31.379  1.00  0.00     0.261 C 
ENDROOT
BRANCH   1   2
ATOM      2  O   UNL A   1      34.104  34.841  30.102  1.00  0.00    -0.461 OA
BRANCH   2   3
ATOM      3  C   UNL A   1      33.319  34.754  28.997  1.00  0.00     0.344 C 
ATOM      4  O   UNL A   1      32.522  35.660  28.751  1.00  0.00    -0.248 OA
BRANCH   3   5
ATOM      5  C   UNL A   1      33.396  33.503  28.114  1.00  0.00     0.351 C 
BRANCH   5   6
ATOM      6  O   UNL A   1      34.201  32.393  28.505  1.00  0.00    -0.482 OA
BRANCH   6   7
ATOM      7  C   UNL A   1      33.959  31.321  27.691  1.00  0.00     0.120 A 
ATOM      8  C   UNL A   1      34.965  30.370  27.548  1.00  0.00     0.047 A 
ATOM      9  C   UNL A   1      32.728  31.161  27.062  1.00  0.00     0.047 A 
ATOM     10  C   UNL A   1      34.679  29.170  26.896  1.00  0.00     0.012 A 
ATOM     11  C   UNL A   1      32.434  29.963  26.447  1.00  0.00     0.012 A 
ATOM     12  C   UNL A   1      33.397  28.953  26.385  1.00  0.00    -0.024 A 
BRANCH  12  13
ATOM     13  C   UNL A   1      32.938  27.640  25.962  1.00  0.00     0.029 C 
ATOM     14  C   UNL A   1      32.868  27.218  24.696  1.00  0.00     0.083 C 
ATOM     15  S   UNL A   1      33.572  27.837  23.260  1.00  0.00    -0.022 SA
ATOM     16  C   UNL A   1      32.129  25.987  24.383  1.00  0.00     0.268 C 
ATOM     17  C   UNL A   1      33.293  26.314  22.416  1.00  0.00     0.293 C 
ATOM     18  N   UNL A   1      32.651  25.441  23.247  1.00  0.00    -0.264 N 
ATOM     19  O   UNL A   1      31.154  25.604  25.010  1.00  0.00    -0.268 OA
ATOM     20  O   UNL A   1      33.627  26.128  21.257  1.00  0.00    -0.261 OA
BRANCH  18  21
ATOM     21  C   UNL A   1      32.450  24.044  22.941  1.00  0.00     0.167 C 
BRANCH  21  22
ATOM     22  C   UNL A   1      33.443  23.192  23.724  1.00  0.00    -0.005 A 
ATOM     23  C   UNL A   1      34.803  23.249  23.361  1.00  0.00     0.057 A 
ATOM     24  C   UNL A   1      33.073  22.376  24.830  1.00  0.00     0.050 A 
ATOM     25  C   UNL A   1      35.707  22.498  24.085  1.00  0.00     0.166 A 
ATOM     26  C   UNL A   1      34.029  21.716  25.607  1.00  0.00     0.071 A 
ATOM     27  Cl  UNL A   1      31.439  22.028  25.254  1.00  0.00    -0.084 Cl
ATOM     28  C   UNL A   1      35.332  21.775  25.192  1.00  0.00     0.167 A 
ATOM     29  O   UNL A   1      37.029  22.339  23.804  1.00  0.00    -0.454 OA
ATOM     30  O   UNL A   1      36.368  21.100  25.753  1.00  0.00    -0.454 OA
ATOM     31  C   UNL A   1      37.364  21.280  24.728  1.00  0.00     0.468 C 
ENDBRANCH  21  22
ENDBRANCH  18  21
ENDBRANCH  12  13
ENDBRANCH   6   7
ENDBRANCH   5   6
ENDBRANCH   3   5
ENDBRANCH   2   3
ENDBRANCH   1   2
BRANCH   1  32
ATOM     32  C   UNL A   1      33.946  34.359  32.554  1.00  0.00     0.202 C 
BRANCH  32  33
ATOM     33  O   UNL A   1      34.058  32.965  32.311  1.00  0.00    -0.374 OA
BRANCH  33  34
ATOM     34  C   UNL A   1      35.321  32.318  32.487  1.00  0.00     0.202 C 
BRANCH  34  35
ATOM     35  C   UNL A   1      36.256  32.169  31.289  1.00  0.00     0.261 C 
BRANCH  35  36
ATOM     36  O   UNL A   1      36.169  30.868  30.693  1.00  0.00    -0.460 OA
BRANCH  36  37
ATOM     37  C   UNL A   1      36.983  29.938  31.245  1.00  0.00     0.338 C 
ATOM     38  O   UNL A   1      36.687  29.068  32.045  1.00  0.00    -0.246 OA
BRANCH  37  39
ATOM     39  C   UNL A   1      38.299  30.005  30.594  1.00  0.00     0.060 A 
ATOM     40  C   UNL A   1      38.347  30.016  29.193  1.00  0.00     0.016 A 
ATOM     41  C   UNL A   1      39.463  29.954  31.358  1.00  0.00     0.016 A 
ATOM     42  C   UNL A   1      39.572  29.908  28.544  1.00  0.00     0.010 A 
ATOM     43  C   UNL A   1      40.687  29.834  30.708  1.00  0.00     0.010 A 
ATOM     44  C   UNL A   1      40.737  29.764  29.304  1.00  0.00    -0.014 A 
BRANCH  44  45
ATOM     45  C   UNL A   1      42.000  29.340  28.667  1.00  0.00     0.031 A 
ATOM     46  C   UNL A   1      42.140  27.900  28.271  1.00  0.00     0.074 A 
ATOM     47  C   UNL A   1      43.015  30.203  28.521  1.00  0.00     0.049 A 
ATOM     48  N   UNL A   1      43.203  27.242  27.891  1.00  0.00    -0.248 NA
ATOM     49  C   UNL A   1      40.914  27.088  28.333  1.00  0.00     0.031 C 
ATOM     50  C   UNL A   1      42.964  31.626  28.847  1.00  0.00     0.029 A 
ATOM     51  N   UNL A   1      44.301  29.991  28.101  1.00  0.00    -0.354 N 
ATOM     52  C   UNL A   1      42.781  25.932  27.702  1.00  0.00     0.074 A 
ATOM     53  C   UNL A   1      41.372  25.885  28.023  1.00  0.00     0.031 C 
ATOM     54  C   UNL A   1      44.185  32.154  28.659  1.00  0.00     0.029 A 
ATOM     55  C   UNL A   1      45.102  31.096  28.241  1.00  0.00     0.049 A 
ATOM     56  H   UNL A   1      44.619  29.134  27.736  1.00  0.00     0.167 HD
ATOM     57  C   UNL A   1      43.512  24.865  27.303  1.00  0.00     0.037 A 
ATOM     58  C   UNL A   1      46.434  31.220  28.096  1.00  0.00     0.037 A 
ATOM     59  C   UNL A   1      44.916  24.934  26.994  1.00  0.00     0.049 A 
ATOM     60  C   UNL A   1      47.241  30.016  27.694  1.00  0.00     0.074 A 
ATOM     61  C   UNL A   1      45.752  23.929  26.545  1.00  0.00     0.029 A 
ATOM     62  N   UNL A   1      45.690  26.079  27.119  1.00  0.00    -0.354 N 
ATOM     63  N   UNL A   1      46.838  28.784  27.488  1.00  0.00    -0.248 NA
ATOM     64  C   UNL A   1      48.683  30.218  27.501  1.00  0.00     0.031 C 
ATOM     65  C   UNL A   1      47.045  24.455  26.445  1.00  0.00     0.029 A 
ATOM     66  C   UNL A   1      47.002  25.801  26.778  1.00  0.00     0.049 A 
ATOM     67  H   UNL A   1      45.356  26.959  27.406  1.00  0.00     0.167 HD
ATOM     68  C   UNL A   1      47.969  28.069  27.114  1.00  0.00     0.074 A 
ATOM     69  C   UNL A   1      49.074  29.008  27.122  1.00  0.00     0.031 C 
ATOM     70  C   UNL A   1      48.082  26.758  26.787  1.00  0.00     0.037 A 
BRANCH  57  71
ATOM     71  C   UNL A   1      42.811  23.540  27.233  1.00  0.00     0.057 A 
ATOM     72  C   UNL A   1      42.535  22.778  28.375  1.00  0.00     0.134 A 
ATOM     73  C   UNL A   1      42.421  23.009  25.996  1.00  0.00     0.134 A 
ATOM     74  F   UNL A   1      42.896  23.220  29.591  1.00  0.00    -0.206 F 
ATOM     75  C   UNL A   1      41.933  21.521  28.289  1.00  0.00     0.040 A 
ATOM     76  C   UNL A   1      41.792  21.766  25.899  1.00  0.00     0.040 A 
ATOM     77  F   UNL A   1      42.653  23.683  24.860  1.00  0.00    -0.206 F 
ATOM     78  C   UNL A   1      41.556  21.014  27.048  1.00  0.00     0.006 A 
ENDBRANCH  57  71
BRANCH  58  79
ATOM     79  C   UNL A   1      47.073  32.532  28.357  1.00  0.00     0.057 A 
ATOM     80  C   UNL A   1      47.147  33.511  27.362  1.00  0.00     0.134 A 
ATOM     81  C   UNL A   1      47.577  32.856  29.624  1.00  0.00     0.134 A 
ATOM     82  F   UNL A   1      46.694  33.252  26.126  1.00  0.00    -0.206 F 
ATOM     83  C   UNL A   1      47.698  34.768  27.615  1.00  0.00     0.040 A 
ATOM     84  C   UNL A   1      48.111  34.116  29.896  1.00  0.00     0.040 A 
ATOM     85  F   UNL A   1      47.527  31.962  30.621  1.00  0.00    -0.206 F 
ATOM     86  C   UNL A   1      48.174  35.076  28.888  1.00  0.00     0.006 A 
ENDBRANCH  58  79
BRANCH  70  87
ATOM     87  C   UNL A   1      49.436  26.266  26.367  1.00  0.00     0.057 A 
ATOM     88  C   UNL A   1      49.883  26.365  25.044  1.00  0.00     0.134 A 
ATOM     89  C   UNL A   1      50.329  25.754  27.317  1.00  0.00     0.134 A 
ATOM     90  F   UNL A   1      49.072  26.836  24.085  1.00  0.00    -0.206 F 
ATOM     91  C   UNL A   1      51.168  25.960  24.680  1.00  0.00     0.040 A 
ATOM     92  C   UNL A   1      51.623  25.370  26.969  1.00  0.00     0.040 A 
ATOM     93  F   UNL A   1      49.964  25.643  28.604  1.00  0.00    -0.206 F 
ATOM     94  C   UNL A   1      52.045  25.469  25.645  1.00  0.00     0.006 A 
ENDBRANCH  70  87
ENDBRANCH  44  45
ENDBRANCH  37  39
ENDBRANCH  36  37
ENDBRANCH  35  36
ENDBRANCH  34  35
ENDBRANCH  33  34
ENDBRANCH  32  33
ENDBRANCH   1  32
TORSDOF 19
ENDMDL
MODEL 3
REMARK VINA RESULT:     -11.3      2.782      4.126
REMARK SMILES O=C(COc1ccc(/C=C2\SC(=O)N(Cc3cc4c(cc3Cl)OCO4)C2=O)cc1)OCCOCCOC(=O)c1ccc(-c2c3nc(c(-c4c(F)cccc4F)c4ccc([nH]4)c(-c4c(F)cccc4F)c4nc(c(-c5c(F)cccc5F)c5ccc2[nH]5)C=C4)C=C3)cc1
REMARK SMILES IDX 31 1 30 2 2 3 1 4 3 5 4 6 5 7 6 8 29 9 7 10 28 11 8 12 9 13
REMARK SMILES IDX 10 14 11 15 26 16 12 17 14 18 27 19 13 20 15 21 16 22 17 23
REMARK SMILES IDX 21 24 18 25 20 26 22 27 19 28 25 29 23 30 24 31 32 32 33 33
REMARK SMILES IDX 34 34 35 35 36 36 37 37 38 38 39 39 40 40 92 41 41 42 91 43
REMARK SMILES IDX 42 44 43 45 44 46 85 47 45 48 90 49 84 50 86 51 46 52 89 53
REMARK SMILES IDX 83 54 82 55 47 57 73 58 56 59 72 60 57 61 60 62 71 63 87 64
REMARK SMILES IDX 58 65 59 66 70 68 88 69 61 70 48 71 49 72 54 73 50 74 51 75
REMARK SMILES IDX 53 76 55 77 52 78 74 79 75 80 80 81 76 82 77 83 79 84 81 85
REMARK SMILES IDX 78 86 62 87 63 88 68 89 64 90 65 91 67 92 69 93 66 94
REMARK H PARENT 86 56 60 67
REMARK Flexibility Score: inf
ROOT
ATOM      1  C   UNL A   1      29.897  32.299  24.445  1.00  0.00     0.261 C 
ENDROOT
BRANCH   1   2
ATOM      2  O   UNL A   1      28.848  31.403  24.058  1.00  0.00    -0.461 OA
BRANCH   2   3
ATOM      3  C   UNL A   1      28.249  31.422  22.840  1.00  0.00     0.344 C 
ATOM      4  O   UNL A   1      27.749  32.470  22.430  1.00  0.00    -0.248 OA
BRANCH   3   5
ATOM      5  C   UNL A   1      28.154  30.126  22.026  1.00  0.00     0.351 C 
BRANCH   5   6
ATOM      6  O   UNL A   1      29.325  29.364  21.745  1.00  0.00    -0.482 OA
BRANCH   6   7
ATOM      7  C   UNL A   1      29.607  28.525  22.786  1.00  0.00     0.120 A 
ATOM      8  C   UNL A   1      28.583  27.713  23.266  1.00  0.00     0.047 A 
ATOM      9  C   UNL A   1      30.889  28.449  23.321  1.00  0.00     0.047 A 
ATOM     10  C   UNL A   1      28.885  26.705  24.182  1.00  0.00     0.012 A 
ATOM     11  C   UNL A   1      31.197  27.433  24.201  1.00  0.00     0.012 A 
ATOM     12  C   UNL A   1      30.205  26.542  24.614  1.00  0.00    -0.024 A 
BRANCH  12  13
ATOM     13  C   UNL A   1      30.650  25.354  25.325  1.00  0.00     0.029 C 
ATOM     14  C   UNL A   1      30.865  24.158  24.768  1.00  0.00     0.083 C 
ATOM     15  S   UNL A   1      31.058  23.695  23.129  1.00  0.00    -0.022 SA
ATOM     16  C   UNL A   1      31.037  22.980  25.629  1.00  0.00     0.268 C 
ATOM     17  C   UNL A   1      31.778  22.157  23.603  1.00  0.00     0.293 C 
ATOM     18  N   UNL A   1      31.796  22.060  24.965  1.00  0.00    -0.264 N 
ATOM     19  O   UNL A   1      30.495  22.848  26.715  1.00  0.00    -0.268 OA
ATOM     20  O   UNL A   1      32.168  21.330  22.794  1.00  0.00    -0.261 OA
BRANCH  18  21
ATOM     21  C   UNL A   1      32.495  21.022  25.685  1.00  0.00     0.167 C 
BRANCH  21  22
ATOM     22  C   UNL A   1      34.000  21.205  25.530  1.00  0.00    -0.005 A 
ATOM     23  C   UNL A   1      34.575  22.413  25.974  1.00  0.00     0.057 A 
ATOM     24  C   UNL A   1      34.862  20.203  25.000  1.00  0.00     0.050 A 
ATOM     25  C   UNL A   1      35.942  22.571  25.857  1.00  0.00     0.166 A 
ATOM     26  C   UNL A   1      36.251  20.355  24.998  1.00  0.00     0.071 A 
ATOM     27  Cl  UNL A   1      34.295  18.777  24.217  1.00  0.00    -0.084 Cl
ATOM     28  C   UNL A   1      36.756  21.560  25.408  1.00  0.00     0.167 A 
ATOM     29  O   UNL A   1      36.646  23.705  26.121  1.00  0.00    -0.454 OA
ATOM     30  O   UNL A   1      38.064  21.922  25.359  1.00  0.00    -0.454 OA
ATOM     31  C   UNL A   1      37.936  23.339  25.582  1.00  0.00     0.468 C 
ENDBRANCH  21  22
ENDBRANCH  18  21
ENDBRANCH  12  13
ENDBRANCH   6   7
ENDBRANCH   5   6
ENDBRANCH   3   5
ENDBRANCH   2   3
ENDBRANCH   1   2
BRANCH   1  32
ATOM     32  C   UNL A   1      30.663  31.905  25.709  1.00  0.00     0.202 C 
BRANCH  32  33
ATOM     33  O   UNL A   1      31.192  30.591  25.805  1.00  0.00    -0.374 OA
BRANCH  33  34
ATOM     34  C   UNL A   1      32.585  30.410  26.075  1.00  0.00     0.202 C 
BRANCH  34  35
ATOM     35  C   UNL A   1      33.221  31.157  27.245  1.00  0.00     0.261 C 
BRANCH  35  36
ATOM     36  O   UNL A   1      34.103  30.321  28.006  1.00  0.00    -0.460 OA
BRANCH  36  37
ATOM     37  C   UNL A   1      35.073  30.983  28.676  1.00  0.00     0.338 C 
ATOM     38  O   UNL A   1      34.971  32.022  29.303  1.00  0.00    -0.246 OA
BRANCH  37  39
ATOM     39  C   UNL A   1      36.291  30.160  28.694  1.00  0.00     0.060 A 
ATOM     40  C   UNL A   1      36.673  29.567  29.905  1.00  0.00     0.016 A 
ATOM     41  C   UNL A   1      37.092  30.066  27.557  1.00  0.00     0.016 A 
ATOM     42  C   UNL A   1      37.903  28.926  30.002  1.00  0.00     0.010 A 
ATOM     43  C   UNL A   1      38.327  29.434  27.658  1.00  0.00     0.010 A 
ATOM     44  C   UNL A   1      38.752  28.906  28.891  1.00  0.00    -0.014 A 
BRANCH  44  45
ATOM     45  C   UNL A   1      40.169  28.518  29.037  1.00  0.00     0.031 A 
ATOM     46  C   UNL A   1      41.154  29.579  29.429  1.00  0.00     0.074 A 
ATOM     47  C   UNL A   1      40.568  27.271  28.751  1.00  0.00     0.049 A 
ATOM     48  N   UNL A   1      42.459  29.545  29.422  1.00  0.00    -0.248 NA
ATOM     49  C   UNL A   1      40.582  30.864  29.867  1.00  0.00     0.031 C 
ATOM     50  C   UNL A   1      39.685  26.164  28.392  1.00  0.00     0.029 A 
ATOM     51  N   UNL A   1      41.830  26.743  28.676  1.00  0.00    -0.354 N 
ATOM     52  C   UNL A   1      42.866  30.811  29.823  1.00  0.00     0.074 A 
ATOM     53  C   UNL A   1      41.672  31.594  30.049  1.00  0.00     0.031 C 
ATOM     54  C   UNL A   1      40.437  25.094  28.087  1.00  0.00     0.029 A 
ATOM     55  C   UNL A   1      41.849  25.459  28.191  1.00  0.00     0.049 A 
ATOM     56  H   UNL A   1      42.641  27.233  28.942  1.00  0.00     0.167 HD
ATOM     57  C   UNL A   1      44.128  31.277  29.979  1.00  0.00     0.037 A 
ATOM     58  C   UNL A   1      42.890  24.689  27.826  1.00  0.00     0.037 A 
ATOM     59  C   UNL A   1      45.303  30.481  29.742  1.00  0.00     0.049 A 
ATOM     60  C   UNL A   1      44.286  25.234  27.964  1.00  0.00     0.074 A 
ATOM     61  C   UNL A   1      46.631  30.832  29.903  1.00  0.00     0.029 A 
ATOM     62  N   UNL A   1      45.284  29.172  29.280  1.00  0.00    -0.354 N 
ATOM     63  N   UNL A   1      44.671  26.422  28.369  1.00  0.00    -0.248 NA
ATOM     64  C   UNL A   1      45.388  24.336  27.600  1.00  0.00     0.031 C 
ATOM     65  C   UNL A   1      47.417  29.750  29.489  1.00  0.00     0.029 A 
ATOM     66  C   UNL A   1      46.578  28.708  29.125  1.00  0.00     0.049 A 
ATOM     67  H   UNL A   1      44.471  28.652  29.091  1.00  0.00     0.167 HD
ATOM     68  C   UNL A   1      46.061  26.405  28.335  1.00  0.00     0.074 A 
ATOM     69  C   UNL A   1      46.447  25.088  27.869  1.00  0.00     0.031 C 
ATOM     70  C   UNL A   1      46.935  27.387  28.666  1.00  0.00     0.037 A 
BRANCH  57  71
ATOM     71  C   UNL A   1      44.285  32.716  30.374  1.00  0.00     0.057 A 
ATOM     72  C   UNL A   1      44.365  33.747  29.428  1.00  0.00     0.134 A 
ATOM     73  C   UNL A   1      44.376  33.075  31.725  1.00  0.00     0.134 A 
ATOM     74  F   UNL A   1      44.303  33.472  28.116  1.00  0.00    -0.206 F 
ATOM     75  C   UNL A   1      44.569  35.075  29.809  1.00  0.00     0.040 A 
ATOM     76  C   UNL A   1      44.549  34.403  32.119  1.00  0.00     0.040 A 
ATOM     77  F   UNL A   1      44.306  32.141  32.685  1.00  0.00    -0.206 F 
ATOM     78  C   UNL A   1      44.657  35.406  31.159  1.00  0.00     0.006 A 
ENDBRANCH  57  71
BRANCH  58  79
ATOM     79  C   UNL A   1      42.636  23.336  27.278  1.00  0.00     0.057 A 
ATOM     80  C   UNL A   1      42.707  23.087  25.905  1.00  0.00     0.134 A 
ATOM     81  C   UNL A   1      42.368  22.249  28.121  1.00  0.00     0.134 A 
ATOM     82  F   UNL A   1      42.945  24.091  25.049  1.00  0.00    -0.206 F 
ATOM     83  C   UNL A   1      42.523  21.805  25.386  1.00  0.00     0.040 A 
ATOM     84  C   UNL A   1      42.203  20.958  27.617  1.00  0.00     0.040 A 
ATOM     85  F   UNL A   1      42.296  22.424  29.449  1.00  0.00    -0.206 F 
ATOM     86  C   UNL A   1      42.279  20.734  26.244  1.00  0.00     0.006 A 
ENDBRANCH  58  79
BRANCH  70  87
ATOM     87  C   UNL A   1      48.397  27.064  28.581  1.00  0.00     0.057 A 
ATOM     88  C   UNL A   1      49.135  27.266  27.409  1.00  0.00     0.134 A 
ATOM     89  C   UNL A   1      49.089  26.613  29.713  1.00  0.00     0.134 A 
ATOM     90  F   UNL A   1      48.530  27.686  26.287  1.00  0.00    -0.206 F 
ATOM     91  C   UNL A   1      50.509  27.018  27.363  1.00  0.00     0.040 A 
ATOM     92  C   UNL A   1      50.465  26.387  29.686  1.00  0.00     0.040 A 
ATOM     93  F   UNL A   1      48.441  26.410  30.871  1.00  0.00    -0.206 F 
ATOM     94  C   UNL A   1      51.178  26.587  28.506  1.00  0.00     0.006 A 
ENDBRANCH  70  87
ENDBRANCH  44  45
ENDBRANCH  37  39
ENDBRANCH  36  37
ENDBRANCH  35  36
ENDBRANCH  34  35
ENDBRANCH  33  34
ENDBRANCH  32  33
ENDBRANCH   1  32
TORSDOF 19
ENDMDL
