MODEL 1
REMARK VINA RESULT:     -12.2      0.000      0.000
REMARK SMILES O=C(OCCOCCOC(=O)c1ccccc1-c1ccc(/C=C2/SC(=S)N(Cc3ccccc3)C2=O)o1)c1ccc(-c2c3nc(c(-c4c(F)cccc4F)c4ccc([nH]4)c(-c4c(F)cccc4F)c4nc(c(-c5c(F)cccc5F)c5ccc2[nH]5)C=C4)C=C3)cc1
REMARK SMILES IDX 7 1 6 2 5 3 4 4 3 5 2 6 1 7 38 8 39 9 91 10 40 11 90 12
REMARK SMILES IDX 41 13 42 14 43 15 84 16 44 17 89 18 83 19 85 20 45 21 88 22
REMARK SMILES IDX 82 23 81 24 46 26 72 27 55 28 71 29 56 30 59 31 70 32 86 33
REMARK SMILES IDX 57 34 58 35 69 37 87 38 60 39 47 40 48 41 53 42 49 43 50 44
REMARK SMILES IDX 52 45 54 46 51 47 73 48 74 49 79 50 75 51 76 52 78 53 80 54
REMARK SMILES IDX 77 55 61 56 62 57 67 58 63 59 64 60 66 61 68 62 65 63 8 64
REMARK SMILES IDX 9 65 10 66 11 67 12 68 13 69 17 70 14 71 16 72 15 73 18 74
REMARK SMILES IDX 19 75 37 76 20 77 21 78 22 79 23 80 24 81 35 82 25 83 27 84
REMARK SMILES IDX 36 85 26 86 28 87 29 88 30 89 34 90 31 91 33 92 32 93
REMARK H PARENT 85 25 59 36
REMARK Flexibility Score: inf
ROOT
ATOM      1  C   UNL A   1      33.067  29.314  26.902  1.00  0.00     0.202 C 
ENDROOT
BRANCH   1   2
ATOM      2  O   UNL A   1      32.237  30.428  27.247  1.00  0.00    -0.374 OA
BRANCH   2   3
ATOM      3  C   UNL A   1      32.837  31.717  27.110  1.00  0.00     0.202 C 
BRANCH   3   4
ATOM      4  C   UNL A   1      31.828  32.861  27.251  1.00  0.00     0.261 C 
BRANCH   4   5
ATOM      5  O   UNL A   1      32.495  34.096  27.555  1.00  0.00    -0.460 OA
BRANCH   5   6
ATOM      6  C   UNL A   1      33.080  34.484  28.710  1.00  0.00     0.338 C 
ATOM      7  O   UNL A   1      32.549  35.394  29.348  1.00  0.00    -0.246 OA
BRANCH   6   8
ATOM      8  C   UNL A   1      34.337  33.896  29.273  1.00  0.00     0.060 A 
ATOM      9  C   UNL A   1      34.415  32.948  30.296  1.00  0.00     0.016 A 
ATOM     10  C   UNL A   1      35.535  34.259  28.632  1.00  0.00     0.016 A 
ATOM     11  C   UNL A   1      35.599  32.319  30.632  1.00  0.00     0.010 A 
ATOM     12  C   UNL A   1      36.749  33.679  28.998  1.00  0.00     0.010 A 
ATOM     13  C   UNL A   1      36.769  32.704  29.999  1.00  0.00    -0.014 A 
BRANCH  13  14
ATOM     14  C   UNL A   1      38.020  32.227  30.583  1.00  0.00     0.031 A 
ATOM     15  C   UNL A   1      38.685  31.080  29.902  1.00  0.00     0.074 A 
ATOM     16  C   UNL A   1      38.579  32.891  31.604  1.00  0.00     0.049 A 
ATOM     17  N   UNL A   1      39.715  30.378  30.275  1.00  0.00    -0.248 NA
ATOM     18  C   UNL A   1      38.105  30.672  28.608  1.00  0.00     0.031 C 
ATOM     19  C   UNL A   1      38.060  34.128  32.191  1.00  0.00     0.029 A 
ATOM     20  N   UNL A   1      39.707  32.619  32.324  1.00  0.00    -0.354 N 
ATOM     21  C   UNL A   1      39.878  29.415  29.289  1.00  0.00     0.074 A 
ATOM     22  C   UNL A   1      38.855  29.630  28.293  1.00  0.00     0.031 C 
ATOM     23  C   UNL A   1      38.855  34.490  33.211  1.00  0.00     0.029 A 
ATOM     24  C   UNL A   1      39.887  33.474  33.383  1.00  0.00     0.049 A 
ATOM     25  H   UNL A   1      40.326  31.886  32.106  1.00  0.00     0.167 HD
ATOM     26  C   UNL A   1      40.793  28.424  29.253  1.00  0.00     0.037 A 
ATOM     27  C   UNL A   1      40.754  33.383  34.406  1.00  0.00     0.037 A 
ATOM     28  C   UNL A   1      41.771  28.248  30.291  1.00  0.00     0.049 A 
ATOM     29  C   UNL A   1      41.698  32.210  34.412  1.00  0.00     0.074 A 
ATOM     30  C   UNL A   1      42.720  27.257  30.433  1.00  0.00     0.029 A 
ATOM     31  N   UNL A   1      41.905  29.102  31.382  1.00  0.00    -0.354 N 
ATOM     32  N   UNL A   1      41.811  31.242  33.530  1.00  0.00    -0.248 NA
ATOM     33  C   UNL A   1      42.618  32.101  35.548  1.00  0.00     0.031 C 
ATOM     34  C   UNL A   1      43.390  27.480  31.641  1.00  0.00     0.029 A 
ATOM     35  C   UNL A   1      42.906  28.649  32.216  1.00  0.00     0.049 A 
ATOM     36  H   UNL A   1      41.365  29.910  31.535  1.00  0.00     0.167 HD
ATOM     37  C   UNL A   1      42.832  30.422  33.988  1.00  0.00     0.074 A 
ATOM     38  C   UNL A   1      43.302  31.009  35.229  1.00  0.00     0.031 C 
ATOM     39  C   UNL A   1      43.342  29.292  33.436  1.00  0.00     0.037 A 
BRANCH  26  40
ATOM     40  C   UNL A   1      40.665  27.428  28.138  1.00  0.00     0.057 A 
ATOM     41  C   UNL A   1      39.908  26.254  28.258  1.00  0.00     0.134 A 
ATOM     42  C   UNL A   1      41.401  27.600  26.960  1.00  0.00     0.134 A 
ATOM     43  F   UNL A   1      39.209  26.005  29.375  1.00  0.00    -0.206 F 
ATOM     44  C   UNL A   1      39.930  25.267  27.268  1.00  0.00     0.040 A 
ATOM     45  C   UNL A   1      41.406  26.635  25.951  1.00  0.00     0.040 A 
ATOM     46  F   UNL A   1      42.157  28.694  26.781  1.00  0.00    -0.206 F 
ATOM     47  C   UNL A   1      40.682  25.457  26.111  1.00  0.00     0.006 A 
ENDBRANCH  26  40
BRANCH  27  48
ATOM     48  C   UNL A   1      40.704  34.380  35.504  1.00  0.00     0.057 A 
ATOM     49  C   UNL A   1      41.464  35.552  35.467  1.00  0.00     0.134 A 
ATOM     50  C   UNL A   1      39.848  34.205  36.602  1.00  0.00     0.134 A 
ATOM     51  F   UNL A   1      42.312  35.774  34.451  1.00  0.00    -0.206 F 
ATOM     52  C   UNL A   1      41.375  36.515  36.476  1.00  0.00     0.040 A 
ATOM     53  C   UNL A   1      39.730  35.170  37.605  1.00  0.00     0.040 A 
ATOM     54  F   UNL A   1      39.085  33.106  36.699  1.00  0.00    -0.206 F 
ATOM     55  C   UNL A   1      40.499  36.329  37.543  1.00  0.00     0.006 A 
ENDBRANCH  27  48
BRANCH  39  56
ATOM     56  C   UNL A   1      44.499  28.653  34.138  1.00  0.00     0.057 A 
ATOM     57  C   UNL A   1      45.817  29.067  33.921  1.00  0.00     0.134 A 
ATOM     58  C   UNL A   1      44.269  27.692  35.131  1.00  0.00     0.134 A 
ATOM     59  F   UNL A   1      46.099  29.977  32.977  1.00  0.00    -0.206 F 
ATOM     60  C   UNL A   1      46.871  28.544  34.670  1.00  0.00     0.040 A 
ATOM     61  C   UNL A   1      45.309  27.183  35.904  1.00  0.00     0.040 A 
ATOM     62  F   UNL A   1      43.023  27.267  35.390  1.00  0.00    -0.206 F 
ATOM     63  C   UNL A   1      46.615  27.610  35.674  1.00  0.00     0.006 A 
ENDBRANCH  39  56
ENDBRANCH  13  14
ENDBRANCH   6   8
ENDBRANCH   5   6
ENDBRANCH   4   5
ENDBRANCH   3   4
ENDBRANCH   2   3
ENDBRANCH   1   2
BRANCH   1  64
ATOM     64  C   UNL A   1      33.176  29.261  25.393  1.00  0.00     0.261 C 
BRANCH  64  65
ATOM     65  O   UNL A   1      31.835  29.331  24.913  1.00  0.00    -0.460 OA
BRANCH  65  66
ATOM     66  C   UNL A   1      31.567  28.841  23.678  1.00  0.00     0.338 C 
ATOM     67  O   UNL A   1      32.261  28.894  22.690  1.00  0.00    -0.246 OA
BRANCH  66  68
ATOM     68  C   UNL A   1      30.286  28.096  23.782  1.00  0.00     0.071 A 
ATOM     69  C   UNL A   1      29.143  28.746  23.297  1.00  0.00     0.016 A 
ATOM     70  C   UNL A   1      30.219  26.771  24.261  1.00  0.00     0.032 A 
ATOM     71  C   UNL A   1      27.926  28.072  23.267  1.00  0.00     0.001 A 
ATOM     72  C   UNL A   1      28.983  26.113  24.235  1.00  0.00     0.013 A 
ATOM     73  C   UNL A   1      27.846  26.761  23.739  1.00  0.00     0.001 A 
BRANCH  70  74
ATOM     74  C   UNL A   1      31.413  26.095  24.749  1.00  0.00     0.135 A 
ATOM     75  C   UNL A   1      31.792  25.682  26.009  1.00  0.00     0.051 A 
ATOM     76  O   UNL A   1      32.469  26.006  23.887  1.00  0.00    -0.457 OA
ATOM     77  C   UNL A   1      33.185  25.514  25.950  1.00  0.00     0.051 A 
ATOM     78  C   UNL A   1      33.554  25.576  24.610  1.00  0.00     0.128 A 
BRANCH  78  79
ATOM     79  C   UNL A   1      34.803  25.175  24.066  1.00  0.00     0.068 C 
ATOM     80  C   UNL A   1      35.061  23.860  23.997  1.00  0.00     0.084 C 
ATOM     81  S   UNL A   1      36.612  23.142  23.846  1.00  0.00    -0.054 SA
ATOM     82  C   UNL A   1      34.061  22.791  24.269  1.00  0.00     0.266 C 
ATOM     83  C   UNL A   1      36.050  21.634  24.601  1.00  0.00     0.148 C 
ATOM     84  N   UNL A   1      34.688  21.686  24.792  1.00  0.00    -0.288 N 
ATOM     85  O   UNL A   1      32.867  22.875  24.015  1.00  0.00    -0.268 OA
ATOM     86  S   UNL A   1      37.094  20.390  24.975  1.00  0.00    -0.052 S 
BRANCH  84  87
ATOM     87  C   UNL A   1      33.849  20.657  25.407  1.00  0.00     0.163 C 
BRANCH  87  88
ATOM     88  C   UNL A   1      33.581  19.488  24.474  1.00  0.00    -0.028 A 
ATOM     89  C   UNL A   1      32.526  19.537  23.553  1.00  0.00     0.005 A 
ATOM     90  C   UNL A   1      34.354  18.316  24.535  1.00  0.00     0.005 A 
ATOM     91  C   UNL A   1      32.258  18.448  22.716  1.00  0.00     0.000 A 
ATOM     92  C   UNL A   1      34.102  17.238  23.681  1.00  0.00     0.000 A 
ATOM     93  C   UNL A   1      33.049  17.303  22.774  1.00  0.00     0.000 A 
ENDBRANCH  87  88
ENDBRANCH  84  87
ENDBRANCH  78  79
ENDBRANCH  70  74
ENDBRANCH  66  68
ENDBRANCH  65  66
ENDBRANCH  64  65
ENDBRANCH   1  64
TORSDOF 18
ENDMDL
MODEL 2
REMARK VINA RESULT:     -11.6      1.540      2.583
REMARK SMILES O=C(OCCOCCOC(=O)c1ccccc1-c1ccc(/C=C2/SC(=S)N(Cc3ccccc3)C2=O)o1)c1ccc(-c2c3nc(c(-c4c(F)cccc4F)c4ccc([nH]4)c(-c4c(F)cccc4F)c4nc(c(-c5c(F)cccc5F)c5ccc2[nH]5)C=C4)C=C3)cc1
REMARK SMILES IDX 7 1 6 2 5 3 4 4 3 5 2 6 1 7 38 8 39 9 91 10 40 11 90 12
REMARK SMILES IDX 41 13 42 14 43 15 84 16 44 17 89 18 83 19 85 20 45 21 88 22
REMARK SMILES IDX 82 23 81 24 46 26 72 27 55 28 71 29 56 30 59 31 70 32 86 33
REMARK SMILES IDX 57 34 58 35 69 37 87 38 60 39 47 40 48 41 53 42 49 43 50 44
REMARK SMILES IDX 52 45 54 46 51 47 73 48 74 49 79 50 75 51 76 52 78 53 80 54
REMARK SMILES IDX 77 55 61 56 62 57 67 58 63 59 64 60 66 61 68 62 65 63 8 64
REMARK SMILES IDX 9 65 10 66 11 67 12 68 13 69 17 70 14 71 16 72 15 73 18 74
REMARK SMILES IDX 19 75 37 76 20 77 21 78 22 79 23 80 24 81 35 82 25 83 27 84
REMARK SMILES IDX 36 85 26 86 28 87 29 88 30 89 34 90 31 91 33 92 32 93
REMARK H PARENT 85 25 59 36
REMARK Flexibility Score: inf
ROOT
ATOM      1  C   UNL A   1      34.098  29.186  26.397  1.00  0.00     0.202 C 
ENDROOT
BRANCH   1   2
ATOM      2  O   UNL A   1      32.966  29.916  26.882  1.00  0.00    -0.374 OA
BRANCH   2   3
ATOM      3  C   UNL A   1      33.258  31.138  27.562  1.00  0.00     0.202 C 
BRANCH   3   4
ATOM      4  C   UNL A   1      32.642  32.362  26.878  1.00  0.00     0.261 C 
BRANCH   4   5
ATOM      5  O   UNL A   1      32.326  33.381  27.841  1.00  0.00    -0.460 OA
BRANCH   5   6
ATOM      6  C   UNL A   1      33.161  34.209  28.505  1.00  0.00     0.338 C 
ATOM      7  O   UNL A   1      32.879  35.408  28.538  1.00  0.00    -0.246 OA
BRANCH   6   8
ATOM      8  C   UNL A   1      34.417  33.783  29.200  1.00  0.00     0.060 A 
ATOM      9  C   UNL A   1      35.718  34.146  28.843  1.00  0.00     0.016 A 
ATOM     10  C   UNL A   1      34.252  33.038  30.382  1.00  0.00     0.016 A 
ATOM     11  C   UNL A   1      36.810  33.863  29.642  1.00  0.00     0.010 A 
ATOM     12  C   UNL A   1      35.349  32.692  31.170  1.00  0.00     0.010 A 
ATOM     13  C   UNL A   1      36.626  33.115  30.793  1.00  0.00    -0.014 A 
BRANCH  13  14
ATOM     14  C   UNL A   1      37.830  32.600  31.442  1.00  0.00     0.031 A 
ATOM     15  C   UNL A   1      38.526  31.469  30.765  1.00  0.00     0.074 A 
ATOM     16  C   UNL A   1      38.325  33.219  32.522  1.00  0.00     0.049 A 
ATOM     17  N   UNL A   1      39.521  30.741  31.181  1.00  0.00    -0.248 NA
ATOM     18  C   UNL A   1      38.032  31.117  29.421  1.00  0.00     0.031 C 
ATOM     19  C   UNL A   1      37.780  34.441  33.119  1.00  0.00     0.029 A 
ATOM     20  N   UNL A   1      39.398  32.907  33.306  1.00  0.00    -0.354 N 
ATOM     21  C   UNL A   1      39.740  29.812  30.173  1.00  0.00     0.074 A 
ATOM     22  C   UNL A   1      38.790  30.077  29.119  1.00  0.00     0.031 C 
ATOM     23  C   UNL A   1      38.508  34.755  34.202  1.00  0.00     0.029 A 
ATOM     24  C   UNL A   1      39.515  33.719  34.406  1.00  0.00     0.049 A 
ATOM     25  H   UNL A   1      40.023  32.174  33.104  1.00  0.00     0.167 HD
ATOM     26  C   UNL A   1      40.645  28.811  30.162  1.00  0.00     0.037 A 
ATOM     27  C   UNL A   1      40.310  33.580  35.481  1.00  0.00     0.037 A 
ATOM     28  C   UNL A   1      41.548  28.585  31.256  1.00  0.00     0.049 A 
ATOM     29  C   UNL A   1      41.238  32.395  35.508  1.00  0.00     0.074 A 
ATOM     30  C   UNL A   1      42.474  27.576  31.426  1.00  0.00     0.029 A 
ATOM     31  N   UNL A   1      41.617  29.396  32.385  1.00  0.00    -0.354 N 
ATOM     32  N   UNL A   1      41.401  31.458  34.600  1.00  0.00    -0.248 NA
ATOM     33  C   UNL A   1      42.078  32.233  36.698  1.00  0.00     0.031 C 
ATOM     34  C   UNL A   1      43.063  27.747  32.683  1.00  0.00     0.029 A 
ATOM     35  C   UNL A   1      42.554  28.900  33.268  1.00  0.00     0.049 A 
ATOM     36  H   UNL A   1      41.076  30.206  32.531  1.00  0.00     0.167 HD
ATOM     37  C   UNL A   1      42.379  30.608  35.095  1.00  0.00     0.074 A 
ATOM     38  C   UNL A   1      42.770  31.144  36.386  1.00  0.00     0.031 C 
ATOM     39  C   UNL A   1      42.913  29.493  34.537  1.00  0.00     0.037 A 
BRANCH  26  40
ATOM     40  C   UNL A   1      40.582  27.859  29.005  1.00  0.00     0.057 A 
ATOM     41  C   UNL A   1      41.339  28.037  27.838  1.00  0.00     0.134 A 
ATOM     42  C   UNL A   1      39.665  26.801  29.019  1.00  0.00     0.134 A 
ATOM     43  F   UNL A   1      42.209  29.053  27.740  1.00  0.00    -0.206 F 
ATOM     44  C   UNL A   1      41.148  27.230  26.713  1.00  0.00     0.040 A 
ATOM     45  C   UNL A   1      39.488  25.969  27.912  1.00  0.00     0.040 A 
ATOM     46  F   UNL A   1      38.899  26.577  30.097  1.00  0.00    -0.206 F 
ATOM     47  C   UNL A   1      40.220  26.192  26.749  1.00  0.00     0.006 A 
ENDBRANCH  26  40
BRANCH  27  48
ATOM     48  C   UNL A   1      40.196  34.537  36.610  1.00  0.00     0.057 A 
ATOM     49  C   UNL A   1      40.952  35.711  36.655  1.00  0.00     0.134 A 
ATOM     50  C   UNL A   1      39.282  34.322  37.653  1.00  0.00     0.134 A 
ATOM     51  F   UNL A   1      41.853  35.971  35.696  1.00  0.00    -0.206 F 
ATOM     52  C   UNL A   1      40.805  36.637  37.692  1.00  0.00     0.040 A 
ATOM     53  C   UNL A   1      39.106  35.250  38.681  1.00  0.00     0.040 A 
ATOM     54  F   UNL A   1      38.519  33.218  37.669  1.00  0.00    -0.206 F 
ATOM     55  C   UNL A   1      39.873  36.412  38.703  1.00  0.00     0.006 A 
ENDBRANCH  27  48
BRANCH  39  56
ATOM     56  C   UNL A   1      44.013  28.814  35.292  1.00  0.00     0.057 A 
ATOM     57  C   UNL A   1      45.355  29.172  35.127  1.00  0.00     0.134 A 
ATOM     58  C   UNL A   1      43.702  27.871  36.280  1.00  0.00     0.134 A 
ATOM     59  F   UNL A   1      45.712  30.062  34.190  1.00  0.00    -0.206 F 
ATOM     60  C   UNL A   1      46.354  28.613  35.923  1.00  0.00     0.040 A 
ATOM     61  C   UNL A   1      44.687  27.326  37.100  1.00  0.00     0.040 A 
ATOM     62  F   UNL A   1      42.430  27.499  36.490  1.00  0.00    -0.206 F 
ATOM     63  C   UNL A   1      46.018  27.698  36.922  1.00  0.00     0.006 A 
ENDBRANCH  39  56
ENDBRANCH  13  14
ENDBRANCH   6   8
ENDBRANCH   5   6
ENDBRANCH   4   5
ENDBRANCH   3   4
ENDBRANCH   2   3
ENDBRANCH   1   2
BRANCH   1  64
ATOM     64  C   UNL A   1      33.753  27.713  26.429  1.00  0.00     0.261 C 
BRANCH  64  65
ATOM     65  O   UNL A   1      32.341  27.657  26.611  1.00  0.00    -0.460 OA
BRANCH  65  66
ATOM     66  C   UNL A   1      31.633  26.755  25.888  1.00  0.00     0.338 C 
ATOM     67  O   UNL A   1      31.284  25.645  26.218  1.00  0.00    -0.246 OA
BRANCH  66  68
ATOM     68  C   UNL A   1      31.242  27.432  24.624  1.00  0.00     0.071 A 
ATOM     69  C   UNL A   1      30.600  28.671  24.751  1.00  0.00     0.016 A 
ATOM     70  C   UNL A   1      31.570  26.911  23.355  1.00  0.00     0.032 A 
ATOM     71  C   UNL A   1      30.296  29.410  23.611  1.00  0.00     0.001 A 
ATOM     72  C   UNL A   1      31.246  27.663  22.220  1.00  0.00     0.013 A 
ATOM     73  C   UNL A   1      30.614  28.905  22.350  1.00  0.00     0.001 A 
BRANCH  70  74
ATOM     74  C   UNL A   1      32.253  25.630  23.230  1.00  0.00     0.135 A 
ATOM     75  C   UNL A   1      33.590  25.290  23.231  1.00  0.00     0.051 A 
ATOM     76  O   UNL A   1      31.495  24.561  22.844  1.00  0.00    -0.457 OA
ATOM     77  C   UNL A   1      33.658  24.019  22.638  1.00  0.00     0.051 A 
ATOM     78  C   UNL A   1      32.357  23.534  22.545  1.00  0.00     0.128 A 
BRANCH  78  79
ATOM     79  C   UNL A   1      31.981  22.190  22.280  1.00  0.00     0.068 C 
ATOM     80  C   UNL A   1      32.218  21.277  23.234  1.00  0.00     0.084 C 
ATOM     81  S   UNL A   1      32.311  19.579  23.005  1.00  0.00    -0.054 SA
ATOM     82  C   UNL A   1      32.668  21.600  24.616  1.00  0.00     0.266 C 
ATOM     83  C   UNL A   1      33.351  19.385  24.433  1.00  0.00     0.148 C 
ATOM     84  N   UNL A   1      33.454  20.583  25.102  1.00  0.00    -0.288 N 
ATOM     85  O   UNL A   1      32.339  22.602  25.238  1.00  0.00    -0.268 OA
ATOM     86  S   UNL A   1      34.045  17.923  24.829  1.00  0.00    -0.052 S 
BRANCH  84  87
ATOM     87  C   UNL A   1      34.237  20.849  26.309  1.00  0.00     0.163 C 
BRANCH  87  88
ATOM     88  C   UNL A   1      35.482  21.674  26.028  1.00  0.00    -0.028 A 
ATOM     89  C   UNL A   1      35.532  23.031  26.376  1.00  0.00     0.005 A 
ATOM     90  C   UNL A   1      36.596  21.113  25.382  1.00  0.00     0.005 A 
ATOM     91  C   UNL A   1      36.665  23.800  26.089  1.00  0.00     0.000 A 
ATOM     92  C   UNL A   1      37.739  21.875  25.119  1.00  0.00     0.000 A 
ATOM     93  C   UNL A   1      37.770  23.222  25.468  1.00  0.00     0.000 A 
ENDBRANCH  87  88
ENDBRANCH  84  87
ENDBRANCH  78  79
ENDBRANCH  70  74
ENDBRANCH  66  68
ENDBRANCH  65  66
ENDBRANCH  64  65
ENDBRANCH   1  64
TORSDOF 18
ENDMDL
MODEL 3
REMARK VINA RESULT:     -11.5      4.207      5.932
REMARK SMILES O=C(OCCOCCOC(=O)c1ccccc1-c1ccc(/C=C2/SC(=S)N(Cc3ccccc3)C2=O)o1)c1ccc(-c2c3nc(c(-c4c(F)cccc4F)c4ccc([nH]4)c(-c4c(F)cccc4F)c4nc(c(-c5c(F)cccc5F)c5ccc2[nH]5)C=C4)C=C3)cc1
REMARK SMILES IDX 7 1 6 2 5 3 4 4 3 5 2 6 1 7 38 8 39 9 91 10 40 11 90 12
REMARK SMILES IDX 41 13 42 14 43 15 84 16 44 17 89 18 83 19 85 20 45 21 88 22
REMARK SMILES IDX 82 23 81 24 46 26 72 27 55 28 71 29 56 30 59 31 70 32 86 33
REMARK SMILES IDX 57 34 58 35 69 37 87 38 60 39 47 40 48 41 53 42 49 43 50 44
REMARK SMILES IDX 52 45 54 46 51 47 73 48 74 49 79 50 75 51 76 52 78 53 80 54
REMARK SMILES IDX 77 55 61 56 62 57 67 58 63 59 64 60 66 61 68 62 65 63 8 64
REMARK SMILES IDX 9 65 10 66 11 67 12 68 13 69 17 70 14 71 16 72 15 73 18 74
REMARK SMILES IDX 19 75 37 76 20 77 21 78 22 79 23 80 24 81 35 82 25 83 27 84
REMARK SMILES IDX 36 85 26 86 28 87 29 88 30 89 34 90 31 91 33 92 32 93
REMARK H PARENT 85 25 59 36
REMARK Flexibility Score: inf
ROOT
ATOM      1  C   UNL A   1      34.039  30.078  26.966  1.00  0.00     0.202 C 
ENDROOT
BRANCH   1   2
ATOM      2  O   UNL A   1      33.760  31.168  27.851  1.00  0.00    -0.374 OA
BRANCH   2   3
ATOM      3  C   UNL A   1      34.895  31.905  28.308  1.00  0.00     0.202 C 
BRANCH   3   4
ATOM      4  C   UNL A   1      34.796  32.295  29.786  1.00  0.00     0.261 C 
BRANCH   4   5
ATOM      5  O   UNL A   1      36.011  31.976  30.482  1.00  0.00    -0.460 OA
BRANCH   5   6
ATOM      6  C   UNL A   1      36.536  30.763  30.762  1.00  0.00     0.338 C 
ATOM      7  O   UNL A   1      35.865  29.988  31.445  1.00  0.00    -0.246 OA
BRANCH   6   8
ATOM      8  C   UNL A   1      37.883  30.287  30.313  1.00  0.00     0.060 A 
ATOM      9  C   UNL A   1      38.921  29.856  31.144  1.00  0.00     0.016 A 
ATOM     10  C   UNL A   1      38.070  30.167  28.925  1.00  0.00     0.016 A 
ATOM     11  C   UNL A   1      40.065  29.260  30.647  1.00  0.00     0.010 A 
ATOM     12  C   UNL A   1      39.243  29.622  28.404  1.00  0.00     0.010 A 
ATOM     13  C   UNL A   1      40.235  29.166  29.276  1.00  0.00    -0.014 A 
BRANCH  13  14
ATOM     14  C   UNL A   1      41.567  28.799  28.801  1.00  0.00     0.031 A 
ATOM     15  C   UNL A   1      41.752  27.395  28.338  1.00  0.00     0.074 A 
ATOM     16  C   UNL A   1      42.517  29.737  28.683  1.00  0.00     0.049 A 
ATOM     17  N   UNL A   1      42.842  26.771  28.000  1.00  0.00    -0.248 NA
ATOM     18  C   UNL A   1      40.526  26.582  28.235  1.00  0.00     0.031 C 
ATOM     19  C   UNL A   1      42.333  31.164  28.954  1.00  0.00     0.029 A 
ATOM     20  N   UNL A   1      43.824  29.629  28.303  1.00  0.00    -0.354 N 
ATOM     21  C   UNL A   1      42.443  25.478  27.692  1.00  0.00     0.074 A 
ATOM     22  C   UNL A   1      41.011  25.409  27.864  1.00  0.00     0.031 C 
ATOM     23  C   UNL A   1      43.502  31.796  28.762  1.00  0.00     0.029 A 
ATOM     24  C   UNL A   1      44.519  30.805  28.428  1.00  0.00     0.049 A 
ATOM     25  H   UNL A   1      44.226  28.793  27.975  1.00  0.00     0.167 HD
ATOM     26  C   UNL A   1      43.227  24.442  27.326  1.00  0.00     0.037 A 
ATOM     27  C   UNL A   1      45.844  31.019  28.344  1.00  0.00     0.037 A 
ATOM     28  C   UNL A   1      44.652  24.570  27.197  1.00  0.00     0.049 A 
ATOM     29  C   UNL A   1      46.720  29.832  28.044  1.00  0.00     0.074 A 
ATOM     30  C   UNL A   1      45.589  23.601  26.901  1.00  0.00     0.029 A 
ATOM     31  N   UNL A   1      45.342  25.765  27.373  1.00  0.00    -0.354 N 
ATOM     32  N   UNL A   1      46.367  28.584  27.831  1.00  0.00    -0.248 NA
ATOM     33  C   UNL A   1      48.165  30.068  27.987  1.00  0.00     0.031 C 
ATOM     34  C   UNL A   1      46.851  24.201  26.955  1.00  0.00     0.029 A 
ATOM     35  C   UNL A   1      46.697  25.557  27.216  1.00  0.00     0.049 A 
ATOM     36  H   UNL A   1      44.924  26.632  27.580  1.00  0.00     0.167 HD
ATOM     37  C   UNL A   1      47.542  27.888  27.588  1.00  0.00     0.074 A 
ATOM     38  C   UNL A   1      48.618  28.858  27.684  1.00  0.00     0.031 C 
ATOM     39  C   UNL A   1      47.722  26.573  27.306  1.00  0.00     0.037 A 
BRANCH  26  40
ATOM     40  C   UNL A   1      42.556  23.108  27.183  1.00  0.00     0.057 A 
ATOM     41  C   UNL A   1      42.270  22.536  25.934  1.00  0.00     0.134 A 
ATOM     42  C   UNL A   1      42.092  22.433  28.319  1.00  0.00     0.134 A 
ATOM     43  F   UNL A   1      42.651  23.148  24.803  1.00  0.00    -0.206 F 
ATOM     44  C   UNL A   1      41.506  21.372  25.822  1.00  0.00     0.040 A 
ATOM     45  C   UNL A   1      41.354  21.252  28.220  1.00  0.00     0.040 A 
ATOM     46  F   UNL A   1      42.318  22.926  29.545  1.00  0.00    -0.206 F 
ATOM     47  C   UNL A   1      41.045  20.727  26.967  1.00  0.00     0.006 A 
ENDBRANCH  26  40
BRANCH  27  48
ATOM     48  C   UNL A   1      46.390  32.372  28.615  1.00  0.00     0.057 A 
ATOM     49  C   UNL A   1      46.554  33.314  27.595  1.00  0.00     0.134 A 
ATOM     50  C   UNL A   1      46.714  32.775  29.919  1.00  0.00     0.134 A 
ATOM     51  F   UNL A   1      46.275  32.989  26.325  1.00  0.00    -0.206 F 
ATOM     52  C   UNL A   1      47.018  34.606  27.860  1.00  0.00     0.040 A 
ATOM     53  C   UNL A   1      47.154  34.070  30.202  1.00  0.00     0.040 A 
ATOM     54  F   UNL A   1      46.575  31.923  30.946  1.00  0.00    -0.206 F 
ATOM     55  C   UNL A   1      47.310  34.990  29.168  1.00  0.00     0.006 A 
ENDBRANCH  27  48
BRANCH  39  56
ATOM     56  C   UNL A   1      49.121  26.122  27.025  1.00  0.00     0.057 A 
ATOM     57  C   UNL A   1      49.666  26.158  25.738  1.00  0.00     0.134 A 
ATOM     58  C   UNL A   1      49.963  25.759  28.084  1.00  0.00     0.134 A 
ATOM     59  F   UNL A   1      48.905  26.489  24.684  1.00  0.00    -0.206 F 
ATOM     60  C   UNL A   1      51.007  25.847  25.513  1.00  0.00     0.040 A 
ATOM     61  C   UNL A   1      51.310  25.473  27.875  1.00  0.00     0.040 A 
ATOM     62  F   UNL A   1      49.496  25.718  29.342  1.00  0.00    -0.206 F 
ATOM     63  C   UNL A   1      51.835  25.517  26.586  1.00  0.00     0.006 A 
ENDBRANCH  39  56
ENDBRANCH  13  14
ENDBRANCH   6   8
ENDBRANCH   5   6
ENDBRANCH   4   5
ENDBRANCH   3   4
ENDBRANCH   2   3
ENDBRANCH   1   2
BRANCH   1  64
ATOM     64  C   UNL A   1      32.786  29.237  26.849  1.00  0.00     0.261 C 
BRANCH  64  65
ATOM     65  O   UNL A   1      32.049  29.803  25.767  1.00  0.00    -0.460 OA
BRANCH  65  66
ATOM     66  C   UNL A   1      32.194  29.258  24.535  1.00  0.00     0.338 C 
ATOM     67  O   UNL A   1      33.192  29.211  23.854  1.00  0.00    -0.246 OA
BRANCH  66  68
ATOM     68  C   UNL A   1      30.904  28.599  24.204  1.00  0.00     0.071 A 
ATOM     69  C   UNL A   1      29.876  29.432  23.742  1.00  0.00     0.016 A 
ATOM     70  C   UNL A   1      30.733  27.200  24.264  1.00  0.00     0.032 A 
ATOM     71  C   UNL A   1      28.674  28.872  23.317  1.00  0.00     0.001 A 
ATOM     72  C   UNL A   1      29.513  26.657  23.844  1.00  0.00     0.013 A 
ATOM     73  C   UNL A   1      28.492  27.490  23.372  1.00  0.00     0.001 A 
BRANCH  70  74
ATOM     74  C   UNL A   1      31.812  26.338  24.730  1.00  0.00     0.135 A 
ATOM     75  C   UNL A   1      32.069  25.760  25.956  1.00  0.00     0.051 A 
ATOM     76  O   UNL A   1      32.895  26.205  23.909  1.00  0.00    -0.457 OA
ATOM     77  C   UNL A   1      33.434  25.430  25.939  1.00  0.00     0.051 A 
ATOM     78  C   UNL A   1      33.881  25.577  24.630  1.00  0.00     0.128 A 
BRANCH  78  79
ATOM     79  C   UNL A   1      35.103  25.082  24.101  1.00  0.00     0.068 C 
ATOM     80  C   UNL A   1      35.257  23.751  24.027  1.00  0.00     0.084 C 
ATOM     81  S   UNL A   1      36.748  22.913  23.894  1.00  0.00    -0.054 SA
ATOM     82  C   UNL A   1      34.171  22.763  24.278  1.00  0.00     0.266 C 
ATOM     83  C   UNL A   1      36.058  21.451  24.631  1.00  0.00     0.148 C 
ATOM     84  N   UNL A   1      34.702  21.609  24.802  1.00  0.00    -0.288 N 
ATOM     85  O   UNL A   1      32.992  22.942  24.007  1.00  0.00    -0.268 OA
ATOM     86  S   UNL A   1      36.995  20.126  25.012  1.00  0.00    -0.052 S 
BRANCH  84  87
ATOM     87  C   UNL A   1      33.775  20.647  25.398  1.00  0.00     0.163 C 
BRANCH  87  88
ATOM     88  C   UNL A   1      33.465  19.482  24.472  1.00  0.00    -0.028 A 
ATOM     89  C   UNL A   1      34.147  18.265  24.602  1.00  0.00     0.005 A 
ATOM     90  C   UNL A   1      32.519  19.606  23.440  1.00  0.00     0.005 A 
ATOM     91  C   UNL A   1      33.886  17.203  23.729  1.00  0.00     0.000 A 
ATOM     92  C   UNL A   1      32.239  18.536  22.584  1.00  0.00     0.000 A 
ATOM     93  C   UNL A   1      32.928  17.335  22.726  1.00  0.00     0.000 A 
ENDBRANCH  87  88
ENDBRANCH  84  87
ENDBRANCH  78  79
ENDBRANCH  70  74
ENDBRANCH  66  68
ENDBRANCH  65  66
ENDBRANCH  64  65
ENDBRANCH   1  64
TORSDOF 18
ENDMDL
