MODEL 1
REMARK VINA RESULT:     -10.4      0.000      0.000
REMARK SMILES CC[C@@](C)(NS(=O)(=O)c1ccc(F)c(F)c1)C(=O)OCCOCCOC(=O)c1ccc(-c2c3nc(c(-c4c(F)cccc4F)c4ccc([nH]4)c(-c4c(F)cccc4F)c4nc(c(-c5c(F)cccc5F)c5ccc2[nH]5)C=C4)C=C3)cc1
REMARK SMILES IDX 21 1 20 2 19 3 17 4 18 5 3 6 4 7 2 8 1 9 5 10 6 12 7 13 8 14
REMARK SMILES IDX 9 15 10 16 16 17 11 18 14 19 12 20 15 21 13 22 22 23 23 24
REMARK SMILES IDX 24 25 25 26 26 27 27 28 28 29 29 30 81 31 30 32 80 33 31 34
REMARK SMILES IDX 32 35 33 36 74 37 34 38 79 39 73 40 75 41 35 42 78 43 72 44
REMARK SMILES IDX 71 45 36 47 62 48 45 49 61 50 46 51 49 52 60 53 76 54 47 55
REMARK SMILES IDX 48 56 59 58 77 59 50 60 37 61 38 62 43 63 39 64 40 65 42 66
REMARK SMILES IDX 44 67 41 68 63 69 64 70 69 71 65 72 66 73 68 74 70 75 67 76
REMARK SMILES IDX 51 77 52 78 57 79 53 80 54 81 56 82 58 83 55 84
REMARK H PARENT 5 11 75 46 49 57
REMARK Flexibility Score: inf
ROOT
ATOM      1  C   UNL A   1      33.830  19.546  24.814  1.00  0.00     0.202 C 
ENDROOT
BRANCH   1   2
ATOM      2  C   UNL A   1      32.584  20.174  24.176  1.00  0.00     0.261 C 
BRANCH   2   3
ATOM      3  O   UNL A   1      32.823  21.579  24.011  1.00  0.00    -0.462 OA
BRANCH   3   4
ATOM      4  C   UNL A   1      32.180  22.427  24.851  1.00  0.00     0.327 C 
ATOM      5  O   UNL A   1      31.111  22.171  25.391  1.00  0.00    -0.250 OA
BRANCH   4   6
ATOM      6  C   UNL A   1      33.022  23.690  25.117  1.00  0.00     0.127 C 
ATOM      7  C   UNL A   1      33.702  23.544  26.478  1.00  0.00     0.042 C 
BRANCH   6   8
ATOM      8  C   UNL A   1      34.089  23.804  23.981  1.00  0.00     0.032 C 
ATOM      9  C   UNL A   1      35.544  23.980  24.402  1.00  0.00     0.006 C 
ENDBRANCH   6   8
BRANCH   6  10
ATOM     10  N   UNL A   1      32.255  24.972  25.024  1.00  0.00    -0.194 NA
ATOM     11  H   UNL A   1      31.278  24.681  24.999  1.00  0.00     0.142 HD
BRANCH  10  12
ATOM     12  S   UNL A   1      32.266  26.285  26.049  1.00  0.00     0.241 S 
ATOM     13  O   UNL A   1      31.505  25.974  27.232  1.00  0.00    -0.207 OA
ATOM     14  O   UNL A   1      33.657  26.681  26.132  1.00  0.00    -0.207 OA
BRANCH  12  15
ATOM     15  C   UNL A   1      31.445  27.585  25.177  1.00  0.00     0.085 A 
ATOM     16  C   UNL A   1      31.632  28.902  25.595  1.00  0.00     0.025 A 
ATOM     17  C   UNL A   1      30.591  27.298  24.112  1.00  0.00     0.064 A 
ATOM     18  C   UNL A   1      31.047  29.950  24.886  1.00  0.00     0.044 A 
ATOM     19  C   UNL A   1      29.974  28.352  23.444  1.00  0.00     0.160 A 
ATOM     20  C   UNL A   1      30.221  29.669  23.811  1.00  0.00     0.158 A 
ATOM     21  F   UNL A   1      29.129  28.090  22.438  1.00  0.00    -0.204 F 
ATOM     22  F   UNL A   1      29.647  30.683  23.150  1.00  0.00    -0.204 F 
ENDBRANCH  12  15
ENDBRANCH  10  12
ENDBRANCH   6  10
ENDBRANCH   4   6
ENDBRANCH   3   4
ENDBRANCH   2   3
ENDBRANCH   1   2
BRANCH   1  23
ATOM     23  O   UNL A   1      34.932  20.456  24.860  1.00  0.00    -0.374 OA
BRANCH  23  24
ATOM     24  C   UNL A   1      36.228  19.868  25.021  1.00  0.00     0.202 C 
BRANCH  24  25
ATOM     25  C   UNL A   1      37.381  20.785  24.602  1.00  0.00     0.261 C 
BRANCH  25  26
ATOM     26  O   UNL A   1      37.863  21.553  25.729  1.00  0.00    -0.460 OA
BRANCH  26  27
ATOM     27  C   UNL A   1      39.164  21.373  26.063  1.00  0.00     0.338 C 
ATOM     28  O   UNL A   1      39.866  20.427  25.743  1.00  0.00    -0.246 OA
BRANCH  27  29
ATOM     29  C   UNL A   1      39.706  22.559  26.781  1.00  0.00     0.060 A 
ATOM     30  C   UNL A   1      39.101  23.795  26.513  1.00  0.00     0.016 A 
ATOM     31  C   UNL A   1      40.771  22.497  27.690  1.00  0.00     0.016 A 
ATOM     32  C   UNL A   1      39.565  24.960  27.127  1.00  0.00     0.010 A 
ATOM     33  C   UNL A   1      41.241  23.674  28.305  1.00  0.00     0.010 A 
ATOM     34  C   UNL A   1      40.663  24.919  28.000  1.00  0.00    -0.014 A 
BRANCH  34  35
ATOM     35  C   UNL A   1      41.326  26.211  28.340  1.00  0.00     0.031 A 
ATOM     36  C   UNL A   1      42.726  26.427  27.831  1.00  0.00     0.074 A 
ATOM     37  C   UNL A   1      40.695  27.225  28.962  1.00  0.00     0.049 A 
ATOM     38  N   UNL A   1      43.428  27.528  27.767  1.00  0.00    -0.248 NA
ATOM     39  C   UNL A   1      43.414  25.238  27.304  1.00  0.00     0.031 C 
ATOM     40  C   UNL A   1      39.340  27.180  29.498  1.00  0.00     0.029 A 
ATOM     41  N   UNL A   1      41.114  28.509  29.225  1.00  0.00    -0.354 N 
ATOM     42  C   UNL A   1      44.619  27.173  27.149  1.00  0.00     0.074 A 
ATOM     43  C   UNL A   1      44.572  25.747  26.915  1.00  0.00     0.031 C 
ATOM     44  C   UNL A   1      39.030  28.382  30.017  1.00  0.00     0.029 A 
ATOM     45  C   UNL A   1      40.163  29.289  29.843  1.00  0.00     0.049 A 
ATOM     46  H   UNL A   1      42.012  28.840  28.994  1.00  0.00     0.167 HD
ATOM     47  C   UNL A   1      45.657  27.962  26.785  1.00  0.00     0.037 A 
ATOM     48  C   UNL A   1      40.198  30.587  30.206  1.00  0.00     0.037 A 
ATOM     49  C   UNL A   1      45.750  29.369  27.060  1.00  0.00     0.049 A 
ATOM     50  C   UNL A   1      41.410  31.426  29.882  1.00  0.00     0.074 A 
ATOM     51  C   UNL A   1      46.775  30.244  26.747  1.00  0.00     0.029 A 
ATOM     52  N   UNL A   1      44.790  30.102  27.741  1.00  0.00    -0.354 N 
ATOM     53  N   UNL A   1      42.491  31.101  29.215  1.00  0.00    -0.248 NA
ATOM     54  C   UNL A   1      41.394  32.823  30.345  1.00  0.00     0.031 C 
ATOM     55  C   UNL A   1      46.459  31.497  27.284  1.00  0.00     0.029 A 
ATOM     56  C   UNL A   1      45.213  31.413  27.884  1.00  0.00     0.049 A 
ATOM     57  H   UNL A   1      43.936  29.743  28.075  1.00  0.00     0.167 HD
ATOM     58  C   UNL A   1      43.256  32.260  29.136  1.00  0.00     0.074 A 
ATOM     59  C   UNL A   1      42.514  33.298  29.820  1.00  0.00     0.031 C 
ATOM     60  C   UNL A   1      44.460  32.449  28.542  1.00  0.00     0.037 A 
BRANCH  47  61
ATOM     61  C   UNL A   1      46.787  27.292  26.068  1.00  0.00     0.057 A 
ATOM     62  C   UNL A   1      46.878  27.307  24.669  1.00  0.00     0.134 A 
ATOM     63  C   UNL A   1      47.778  26.605  26.776  1.00  0.00     0.134 A 
ATOM     64  F   UNL A   1      45.944  27.929  23.933  1.00  0.00    -0.206 F 
ATOM     65  C   UNL A   1      47.902  26.637  23.999  1.00  0.00     0.040 A 
ATOM     66  C   UNL A   1      48.821  25.952  26.119  1.00  0.00     0.040 A 
ATOM     67  F   UNL A   1      47.744  26.552  28.116  1.00  0.00    -0.206 F 
ATOM     68  C   UNL A   1      48.879  25.960  24.726  1.00  0.00     0.006 A 
ENDBRANCH  47  61
BRANCH  48  69
ATOM     69  C   UNL A   1      39.041  31.212  30.903  1.00  0.00     0.057 A 
ATOM     70  C   UNL A   1      38.032  31.874  30.191  1.00  0.00     0.134 A 
ATOM     71  C   UNL A   1      38.960  31.234  32.300  1.00  0.00     0.134 A 
ATOM     72  F   UNL A   1      38.070  31.916  28.851  1.00  0.00    -0.206 F 
ATOM     73  C   UNL A   1      37.004  32.560  30.842  1.00  0.00     0.040 A 
ATOM     74  C   UNL A   1      37.924  31.896  32.964  1.00  0.00     0.040 A 
ATOM     75  F   UNL A   1      39.898  30.628  33.042  1.00  0.00    -0.206 F 
ATOM     76  C   UNL A   1      36.948  32.571  32.233  1.00  0.00     0.006 A 
ENDBRANCH  48  69
BRANCH  60  77
ATOM     77  C   UNL A   1      45.033  33.838  28.546  1.00  0.00     0.057 A 
ATOM     78  C   UNL A   1      45.917  34.278  29.539  1.00  0.00     0.134 A 
ATOM     79  C   UNL A   1      44.731  34.730  27.509  1.00  0.00     0.134 A 
ATOM     80  F   UNL A   1      46.241  33.478  30.566  1.00  0.00    -0.206 F 
ATOM     81  C   UNL A   1      46.460  35.565  29.513  1.00  0.00     0.040 A 
ATOM     82  C   UNL A   1      45.290  36.008  27.457  1.00  0.00     0.040 A 
ATOM     83  F   UNL A   1      43.901  34.370  26.519  1.00  0.00    -0.206 F 
ATOM     84  C   UNL A   1      46.153  36.431  28.465  1.00  0.00     0.006 A 
ENDBRANCH  60  77
ENDBRANCH  34  35
ENDBRANCH  27  29
ENDBRANCH  26  27
ENDBRANCH  25  26
ENDBRANCH  24  25
ENDBRANCH  23  24
ENDBRANCH   1  23
TORSDOF 18
ENDMDL
MODEL 2
REMARK VINA RESULT:     -10.3      2.451      3.388
REMARK SMILES CC[C@@](C)(NS(=O)(=O)c1ccc(F)c(F)c1)C(=O)OCCOCCOC(=O)c1ccc(-c2c3nc(c(-c4c(F)cccc4F)c4ccc([nH]4)c(-c4c(F)cccc4F)c4nc(c(-c5c(F)cccc5F)c5ccc2[nH]5)C=C4)C=C3)cc1
REMARK SMILES IDX 21 1 20 2 19 3 17 4 18 5 3 6 4 7 2 8 1 9 5 10 6 12 7 13 8 14
REMARK SMILES IDX 9 15 10 16 16 17 11 18 14 19 12 20 15 21 13 22 22 23 23 24
REMARK SMILES IDX 24 25 25 26 26 27 27 28 28 29 29 30 81 31 30 32 80 33 31 34
REMARK SMILES IDX 32 35 33 36 74 37 34 38 79 39 73 40 75 41 35 42 78 43 72 44
REMARK SMILES IDX 71 45 36 47 62 48 45 49 61 50 46 51 49 52 60 53 76 54 47 55
REMARK SMILES IDX 48 56 59 58 77 59 50 60 37 61 38 62 43 63 39 64 40 65 42 66
REMARK SMILES IDX 44 67 41 68 63 69 64 70 69 71 65 72 66 73 68 74 70 75 67 76
REMARK SMILES IDX 51 77 52 78 57 79 53 80 54 81 56 82 58 83 55 84
REMARK H PARENT 5 11 75 46 49 57
REMARK Flexibility Score: inf
ROOT
ATOM      1  C   UNL A   1      36.816  21.848  24.247  1.00  0.00     0.202 C 
ENDROOT
BRANCH   1   2
ATOM      2  C   UNL A   1      36.494  23.308  23.904  1.00  0.00     0.261 C 
BRANCH   2   3
ATOM      3  O   UNL A   1      35.079  23.417  23.688  1.00  0.00    -0.462 OA
BRANCH   3   4
ATOM      4  C   UNL A   1      34.296  23.655  24.768  1.00  0.00     0.327 C 
ATOM      5  O   UNL A   1      34.666  24.281  25.753  1.00  0.00    -0.250 OA
BRANCH   4   6
ATOM      6  C   UNL A   1      32.864  23.133  24.542  1.00  0.00     0.127 C 
ATOM      7  C   UNL A   1      32.864  22.231  23.308  1.00  0.00     0.042 C 
BRANCH   6   8
ATOM      8  C   UNL A   1      32.441  22.324  25.810  1.00  0.00     0.032 C 
ATOM      9  C   UNL A   1      31.625  23.058  26.869  1.00  0.00     0.006 C 
ENDBRANCH   6   8
BRANCH   6  10
ATOM     10  N   UNL A   1      31.827  24.207  24.433  1.00  0.00    -0.194 NA
ATOM     11  H   UNL A   1      31.609  24.445  25.400  1.00  0.00     0.142 HD
BRANCH  10  12
ATOM     12  S   UNL A   1      31.909  25.678  23.656  1.00  0.00     0.241 S 
ATOM     13  O   UNL A   1      32.971  25.646  22.684  1.00  0.00    -0.207 OA
ATOM     14  O   UNL A   1      30.543  25.971  23.271  1.00  0.00    -0.207 OA
BRANCH  12  15
ATOM     15  C   UNL A   1      32.323  26.860  24.904  1.00  0.00     0.085 A 
ATOM     16  C   UNL A   1      33.551  27.515  24.833  1.00  0.00     0.025 A 
ATOM     17  C   UNL A   1      31.453  27.105  25.967  1.00  0.00     0.064 A 
ATOM     18  C   UNL A   1      33.875  28.497  25.767  1.00  0.00     0.044 A 
ATOM     19  C   UNL A   1      31.812  28.053  26.922  1.00  0.00     0.160 A 
ATOM     20  C   UNL A   1      33.002  28.762  26.808  1.00  0.00     0.158 A 
ATOM     21  F   UNL A   1      31.001  28.278  27.963  1.00  0.00    -0.204 F 
ATOM     22  F   UNL A   1      33.333  29.693  27.714  1.00  0.00    -0.204 F 
ENDBRANCH  12  15
ENDBRANCH  10  12
ENDBRANCH   6  10
ENDBRANCH   4   6
ENDBRANCH   3   4
ENDBRANCH   2   3
ENDBRANCH   1   2
BRANCH   1  23
ATOM     23  O   UNL A   1      37.183  21.682  25.619  1.00  0.00    -0.374 OA
BRANCH  23  24
ATOM     24  C   UNL A   1      38.585  21.578  25.888  1.00  0.00     0.202 C 
BRANCH  24  25
ATOM     25  C   UNL A   1      39.239  20.325  25.297  1.00  0.00     0.261 C 
BRANCH  25  26
ATOM     26  O   UNL A   1      40.151  19.724  26.245  1.00  0.00    -0.460 OA
BRANCH  26  27
ATOM     27  C   UNL A   1      41.472  19.852  25.968  1.00  0.00     0.338 C 
ATOM     28  O   UNL A   1      42.143  19.090  25.290  1.00  0.00    -0.246 OA
BRANCH  27  29
ATOM     29  C   UNL A   1      42.010  21.137  26.491  1.00  0.00     0.060 A 
ATOM     30  C   UNL A   1      42.046  21.292  27.883  1.00  0.00     0.016 A 
ATOM     31  C   UNL A   1      42.471  22.176  25.671  1.00  0.00     0.016 A 
ATOM     32  C   UNL A   1      42.515  22.477  28.454  1.00  0.00     0.010 A 
ATOM     33  C   UNL A   1      42.940  23.373  26.248  1.00  0.00     0.010 A 
ATOM     34  C   UNL A   1      42.931  23.544  27.643  1.00  0.00    -0.014 A 
BRANCH  34  35
ATOM     35  C   UNL A   1      43.080  24.883  28.283  1.00  0.00     0.031 A 
ATOM     36  C   UNL A   1      44.476  25.354  28.589  1.00  0.00     0.074 A 
ATOM     37  C   UNL A   1      42.049  25.726  28.482  1.00  0.00     0.049 A 
ATOM     38  N   UNL A   1      44.902  26.549  28.906  1.00  0.00    -0.248 NA
ATOM     39  C   UNL A   1      45.537  24.338  28.501  1.00  0.00     0.031 C 
ATOM     40  C   UNL A   1      40.647  25.428  28.224  1.00  0.00     0.029 A 
ATOM     41  N   UNL A   1      42.035  27.028  28.929  1.00  0.00    -0.354 N 
ATOM     42  C   UNL A   1      46.281  26.439  29.008  1.00  0.00     0.074 A 
ATOM     43  C   UNL A   1      46.616  25.051  28.780  1.00  0.00     0.031 C 
ATOM     44  C   UNL A   1      39.904  26.514  28.504  1.00  0.00     0.029 A 
ATOM     45  C   UNL A   1      40.781  27.593  28.955  1.00  0.00     0.049 A 
ATOM     46  H   UNL A   1      42.848  27.510  29.205  1.00  0.00     0.167 HD
ATOM     47  C   UNL A   1      47.198  27.406  29.245  1.00  0.00     0.037 A 
ATOM     48  C   UNL A   1      40.391  28.842  29.285  1.00  0.00     0.037 A 
ATOM     49  C   UNL A   1      46.882  28.777  29.531  1.00  0.00     0.049 A 
ATOM     50  C   UNL A   1      41.424  29.880  29.649  1.00  0.00     0.074 A 
ATOM     51  C   UNL A   1      47.746  29.823  29.806  1.00  0.00     0.029 A 
ATOM     52  N   UNL A   1      45.596  29.290  29.606  1.00  0.00    -0.354 N 
ATOM     53  N   UNL A   1      42.732  29.786  29.650  1.00  0.00    -0.248 NA
ATOM     54  C   UNL A   1      40.922  31.209  30.036  1.00  0.00     0.031 C 
ATOM     55  C   UNL A   1      46.981  30.957  30.098  1.00  0.00     0.029 A 
ATOM     56  C   UNL A   1      45.643  30.630  29.952  1.00  0.00     0.049 A 
ATOM     57  H   UNL A   1      44.773  28.776  29.439  1.00  0.00     0.167 HD
ATOM     58  C   UNL A   1      43.206  31.050  29.988  1.00  0.00     0.074 A 
ATOM     59  C   UNL A   1      42.046  31.895  30.181  1.00  0.00     0.031 C 
ATOM     60  C   UNL A   1      44.487  31.473  30.117  1.00  0.00     0.037 A 
BRANCH  47  61
ATOM     61  C   UNL A   1      48.634  26.984  29.230  1.00  0.00     0.057 A 
ATOM     62  C   UNL A   1      49.276  26.529  30.390  1.00  0.00     0.134 A 
ATOM     63  C   UNL A   1      49.389  27.056  28.055  1.00  0.00     0.134 A 
ATOM     64  F   UNL A   1      48.611  26.461  31.554  1.00  0.00    -0.206 F 
ATOM     65  C   UNL A   1      50.629  26.187  30.387  1.00  0.00     0.040 A 
ATOM     66  C   UNL A   1      50.736  26.694  28.033  1.00  0.00     0.040 A 
ATOM     67  F   UNL A   1      48.832  27.486  26.913  1.00  0.00    -0.206 F 
ATOM     68  C   UNL A   1      51.361  26.266  29.204  1.00  0.00     0.006 A 
ENDBRANCH  47  61
BRANCH  48  69
ATOM     69  C   UNL A   1      38.950  29.216  29.269  1.00  0.00     0.057 A 
ATOM     70  C   UNL A   1      38.156  29.106  30.418  1.00  0.00     0.134 A 
ATOM     71  C   UNL A   1      38.316  29.612  28.085  1.00  0.00     0.134 A 
ATOM     72  F   UNL A   1      38.698  28.701  31.576  1.00  0.00    -0.206 F 
ATOM     73  C   UNL A   1      36.781  29.346  30.384  1.00  0.00     0.040 A 
ATOM     74  C   UNL A   1      36.945  29.878  28.043  1.00  0.00     0.040 A 
ATOM     75  F   UNL A   1      39.016  29.727  26.948  1.00  0.00    -0.206 F 
ATOM     76  C   UNL A   1      36.172  29.734  29.193  1.00  0.00     0.006 A 
ENDBRANCH  48  69
BRANCH  60  77
ATOM     77  C   UNL A   1      44.718  32.926  30.425  1.00  0.00     0.057 A 
ATOM     78  C   UNL A   1      44.855  33.399  31.736  1.00  0.00     0.134 A 
ATOM     79  C   UNL A   1      44.853  33.856  29.386  1.00  0.00     0.134 A 
ATOM     80  F   UNL A   1      44.727  32.564  32.778  1.00  0.00    -0.206 F 
ATOM     81  C   UNL A   1      45.094  34.749  32.002  1.00  0.00     0.040 A 
ATOM     82  C   UNL A   1      45.120  35.202  29.639  1.00  0.00     0.040 A 
ATOM     83  F   UNL A   1      44.744  33.469  28.106  1.00  0.00    -0.206 F 
ATOM     84  C   UNL A   1      45.236  35.654  30.951  1.00  0.00     0.006 A 
ENDBRANCH  60  77
ENDBRANCH  34  35
ENDBRANCH  27  29
ENDBRANCH  26  27
ENDBRANCH  25  26
ENDBRANCH  24  25
ENDBRANCH  23  24
ENDBRANCH   1  23
TORSDOF 18
ENDMDL
MODEL 3
REMARK VINA RESULT:     -10.2      4.511      9.643
REMARK SMILES CC[C@@](C)(NS(=O)(=O)c1ccc(F)c(F)c1)C(=O)OCCOCCOC(=O)c1ccc(-c2c3nc(c(-c4c(F)cccc4F)c4ccc([nH]4)c(-c4c(F)cccc4F)c4nc(c(-c5c(F)cccc5F)c5ccc2[nH]5)C=C4)C=C3)cc1
REMARK SMILES IDX 21 1 20 2 19 3 17 4 18 5 3 6 4 7 2 8 1 9 5 10 6 12 7 13 8 14
REMARK SMILES IDX 9 15 10 16 16 17 11 18 14 19 12 20 15 21 13 22 22 23 23 24
REMARK SMILES IDX 24 25 25 26 26 27 27 28 28 29 29 30 81 31 30 32 80 33 31 34
REMARK SMILES IDX 32 35 33 36 74 37 34 38 79 39 73 40 75 41 35 42 78 43 72 44
REMARK SMILES IDX 71 45 36 47 62 48 45 49 61 50 46 51 49 52 60 53 76 54 47 55
REMARK SMILES IDX 48 56 59 58 77 59 50 60 37 61 38 62 43 63 39 64 40 65 42 66
REMARK SMILES IDX 44 67 41 68 63 69 64 70 69 71 65 72 66 73 68 74 70 75 67 76
REMARK SMILES IDX 51 77 52 78 57 79 53 80 54 81 56 82 58 83 55 84
REMARK H PARENT 5 11 75 46 49 57
REMARK Flexibility Score: inf
ROOT
ATOM      1  C   UNL A   1      32.571  29.604  27.247  1.00  0.00     0.202 C 
ENDROOT
BRANCH   1   2
ATOM      2  C   UNL A   1      31.822  28.280  27.048  1.00  0.00     0.261 C 
BRANCH   2   3
ATOM      3  O   UNL A   1      31.512  28.144  25.653  1.00  0.00    -0.462 OA
BRANCH   3   4
ATOM      4  C   UNL A   1      31.546  26.898  25.122  1.00  0.00     0.327 C 
ATOM      5  O   UNL A   1      30.888  25.958  25.548  1.00  0.00    -0.250 OA
BRANCH   4   6
ATOM      6  C   UNL A   1      32.426  26.857  23.857  1.00  0.00     0.127 C 
ATOM      7  C   UNL A   1      31.524  26.999  22.632  1.00  0.00     0.042 C 
BRANCH   6   8
ATOM      8  C   UNL A   1      33.435  28.048  23.935  1.00  0.00     0.032 C 
ATOM      9  C   UNL A   1      34.038  28.542  22.625  1.00  0.00     0.006 C 
ENDBRANCH   6   8
BRANCH   6  10
ATOM     10  N   UNL A   1      33.301  25.647  23.755  1.00  0.00    -0.194 NA
ATOM     11  H   UNL A   1      33.399  25.324  24.717  1.00  0.00     0.142 HD
BRANCH  10  12
ATOM     12  S   UNL A   1      33.072  24.250  22.875  1.00  0.00     0.241 S 
ATOM     13  O   UNL A   1      31.722  23.784  23.063  1.00  0.00    -0.207 OA
ATOM     14  O   UNL A   1      33.586  24.554  21.555  1.00  0.00    -0.207 OA
BRANCH  12  15
ATOM     15  C   UNL A   1      34.181  23.059  23.564  1.00  0.00     0.085 A 
ATOM     16  C   UNL A   1      35.551  23.211  23.353  1.00  0.00     0.025 A 
ATOM     17  C   UNL A   1      33.695  21.962  24.273  1.00  0.00     0.064 A 
ATOM     18  C   UNL A   1      36.451  22.321  23.937  1.00  0.00     0.044 A 
ATOM     19  C   UNL A   1      34.603  21.053  24.810  1.00  0.00     0.160 A 
ATOM     20  C   UNL A   1      35.971  21.246  24.665  1.00  0.00     0.158 A 
ATOM     21  F   UNL A   1      34.150  19.979  25.469  1.00  0.00    -0.204 F 
ATOM     22  F   UNL A   1      36.845  20.385  25.205  1.00  0.00    -0.204 F 
ENDBRANCH  12  15
ENDBRANCH  10  12
ENDBRANCH   6  10
ENDBRANCH   4   6
ENDBRANCH   3   4
ENDBRANCH   2   3
ENDBRANCH   1   2
BRANCH   1  23
ATOM     23  O   UNL A   1      32.199  30.589  26.280  1.00  0.00    -0.374 OA
BRANCH  23  24
ATOM     24  C   UNL A   1      31.526  31.747  26.787  1.00  0.00     0.202 C 
BRANCH  24  25
ATOM     25  C   UNL A   1      32.432  32.972  26.940  1.00  0.00     0.261 C 
BRANCH  25  26
ATOM     26  O   UNL A   1      32.338  33.518  28.277  1.00  0.00    -0.460 OA
BRANCH  26  27
ATOM     27  C   UNL A   1      33.252  34.465  28.602  1.00  0.00     0.338 C 
ATOM     28  O   UNL A   1      33.129  35.669  28.445  1.00  0.00    -0.246 OA
BRANCH  27  29
ATOM     29  C   UNL A   1      34.413  33.870  29.317  1.00  0.00     0.060 A 
ATOM     30  C   UNL A   1      35.672  34.431  29.063  1.00  0.00     0.016 A 
ATOM     31  C   UNL A   1      34.307  32.797  30.213  1.00  0.00     0.016 A 
ATOM     32  C   UNL A   1      36.817  33.916  29.676  1.00  0.00     0.010 A 
ATOM     33  C   UNL A   1      35.463  32.275  30.827  1.00  0.00     0.010 A 
ATOM     34  C   UNL A   1      36.730  32.810  30.535  1.00  0.00    -0.014 A 
BRANCH  34  35
ATOM     35  C   UNL A   1      37.994  32.095  30.871  1.00  0.00     0.031 A 
ATOM     36  C   UNL A   1      38.589  32.341  32.232  1.00  0.00     0.074 A 
ATOM     37  C   UNL A   1      38.550  31.160  30.076  1.00  0.00     0.049 A 
ATOM     38  N   UNL A   1      39.522  31.678  32.866  1.00  0.00    -0.248 NA
ATOM     39  C   UNL A   1      38.037  33.478  32.985  1.00  0.00     0.031 C 
ATOM     40  C   UNL A   1      38.087  30.796  28.744  1.00  0.00     0.029 A 
ATOM     41  N   UNL A   1      39.622  30.325  30.296  1.00  0.00    -0.354 N 
ATOM     42  C   UNL A   1      39.632  32.288  34.108  1.00  0.00     0.074 A 
ATOM     43  C   UNL A   1      38.719  33.409  34.116  1.00  0.00     0.031 C 
ATOM     44  C   UNL A   1      38.859  29.804  28.263  1.00  0.00     0.029 A 
ATOM     45  C   UNL A   1      39.869  29.454  29.260  1.00  0.00     0.049 A 
ATOM     46  H   UNL A   1      40.162  30.349  31.118  1.00  0.00     0.167 HD
ATOM     47  C   UNL A   1      40.406  31.938  35.162  1.00  0.00     0.037 A 
ATOM     48  C   UNL A   1      40.790  28.476  29.140  1.00  0.00     0.037 A 
ATOM     49  C   UNL A   1      41.361  30.866  35.154  1.00  0.00     0.049 A 
ATOM     50  C   UNL A   1      41.715  28.170  30.292  1.00  0.00     0.074 A 
ATOM     51  C   UNL A   1      42.204  30.453  36.171  1.00  0.00     0.029 A 
ATOM     52  N   UNL A   1      41.619  30.050  34.063  1.00  0.00    -0.354 N 
ATOM     53  N   UNL A   1      41.747  28.694  31.494  1.00  0.00    -0.248 NA
ATOM     54  C   UNL A   1      42.722  27.118  30.075  1.00  0.00     0.031 C 
ATOM     55  C   UNL A   1      43.010  29.421  35.678  1.00  0.00     0.029 A 
ATOM     56  C   UNL A   1      42.630  29.156  34.373  1.00  0.00     0.049 A 
ATOM     57  H   UNL A   1      41.154  30.101  33.197  1.00  0.00     0.167 HD
ATOM     58  C   UNL A   1      42.736  28.003  32.187  1.00  0.00     0.074 A 
ATOM     59  C   UNL A   1      43.279  27.021  31.273  1.00  0.00     0.031 C 
ATOM     60  C   UNL A   1      43.150  28.163  33.468  1.00  0.00     0.037 A 
BRANCH  47  61
ATOM     61  C   UNL A   1      40.255  32.761  36.403  1.00  0.00     0.057 A 
ATOM     62  C   UNL A   1      41.148  33.799  36.707  1.00  0.00     0.134 A 
ATOM     63  C   UNL A   1      39.228  32.500  37.315  1.00  0.00     0.134 A 
ATOM     64  F   UNL A   1      42.168  34.081  35.882  1.00  0.00    -0.206 F 
ATOM     65  C   UNL A   1      41.038  34.530  37.890  1.00  0.00     0.040 A 
ATOM     66  C   UNL A   1      39.093  33.239  38.490  1.00  0.00     0.040 A 
ATOM     67  F   UNL A   1      38.345  31.517  37.083  1.00  0.00    -0.206 F 
ATOM     68  C   UNL A   1      40.006  34.252  38.784  1.00  0.00     0.006 A 
ENDBRANCH  47  61
BRANCH  48  69
ATOM     69  C   UNL A   1      40.889  27.675  27.889  1.00  0.00     0.057 A 
ATOM     70  C   UNL A   1      40.266  26.426  27.773  1.00  0.00     0.134 A 
ATOM     71  C   UNL A   1      41.677  28.102  26.814  1.00  0.00     0.134 A 
ATOM     72  F   UNL A   1      39.523  25.946  28.782  1.00  0.00    -0.206 F 
ATOM     73  C   UNL A   1      40.446  25.618  26.648  1.00  0.00     0.040 A 
ATOM     74  C   UNL A   1      41.847  27.315  25.673  1.00  0.00     0.040 A 
ATOM     75  F   UNL A   1      42.309  29.283  26.865  1.00  0.00    -0.206 F 
ATOM     76  C   UNL A   1      41.239  26.063  25.593  1.00  0.00     0.006 A 
ENDBRANCH  48  69
BRANCH  60  77
ATOM     77  C   UNL A   1      44.199  27.222  33.988  1.00  0.00     0.057 A 
ATOM     78  C   UNL A   1      43.878  25.974  34.535  1.00  0.00     0.134 A 
ATOM     79  C   UNL A   1      45.557  27.554  33.893  1.00  0.00     0.134 A 
ATOM     80  F   UNL A   1      42.597  25.597  34.665  1.00  0.00    -0.206 F 
ATOM     81  C   UNL A   1      44.869  25.101  34.991  1.00  0.00     0.040 A 
ATOM     82  C   UNL A   1      46.556  26.679  34.319  1.00  0.00     0.040 A 
ATOM     83  F   UNL A   1      45.936  28.730  33.369  1.00  0.00    -0.206 F 
ATOM     84  C   UNL A   1      46.213  25.449  34.876  1.00  0.00     0.006 A 
ENDBRANCH  60  77
ENDBRANCH  34  35
ENDBRANCH  27  29
ENDBRANCH  26  27
ENDBRANCH  25  26
ENDBRANCH  24  25
ENDBRANCH  23  24
ENDBRANCH   1  23
TORSDOF 18
ENDMDL
