MODEL 1
REMARK VINA RESULT:     -10.6      0.000      0.000
REMARK SMILES CC1(C(=O)N2CC(CC(=O)OCCOCCOC(=O)c3ccc(-c4c5nc(c(-c6c(F)cccc6F)c6ccc([nH]6)c(-c6c(F)cccc6F)c6nc(c(-c7c(F)cccc7F)c7ccc4[nH]7)C=C6)C=C5)cc3)C2)CCCC1
REMARK SMILES IDX 14 1 13 2 12 3 11 4 9 5 10 6 8 7 7 8 3 9 4 10 5 11 6 12
REMARK SMILES IDX 74 13 2 14 1 15 75 16 78 17 76 18 77 19 15 20 16 21 17 22
REMARK SMILES IDX 18 23 19 24 20 25 21 26 73 27 22 28 72 29 23 30 24 31 25 32
REMARK SMILES IDX 66 33 26 34 71 35 65 36 67 37 27 38 70 39 64 40 63 41 28 43
REMARK SMILES IDX 54 44 37 45 53 46 38 47 41 48 52 49 68 50 39 51 40 52 51 54
REMARK SMILES IDX 69 55 42 56 29 57 30 58 35 59 31 60 32 61 34 62 36 63 33 64
REMARK SMILES IDX 55 65 56 66 61 67 57 68 58 69 60 70 62 71 59 72 43 73 44 74
REMARK SMILES IDX 49 75 45 76 46 77 48 78 50 79 47 80
REMARK H PARENT 67 42 41 53
REMARK Flexibility Score: inf
ROOT
ATOM      1  O   UNL A   1      34.471  36.055  33.510  1.00  0.00    -0.374 OA
ENDROOT
BRANCH   1   2
ATOM      2  C   UNL A   1      33.269  35.562  32.919  1.00  0.00     0.202 C 
BRANCH   2   3
ATOM      3  C   UNL A   1      32.968  36.040  31.497  1.00  0.00     0.261 C 
BRANCH   3   4
ATOM      4  O   UNL A   1      33.052  34.960  30.544  1.00  0.00    -0.463 OA
BRANCH   4   5
ATOM      5  C   UNL A   1      33.145  35.340  29.244  1.00  0.00     0.306 C 
ATOM      6  O   UNL A   1      32.432  36.174  28.702  1.00  0.00    -0.252 OA
BRANCH   5   7
ATOM      7  C   UNL A   1      34.216  34.601  28.485  1.00  0.00     0.130 C 
BRANCH   7   8
ATOM      8  C   UNL A   1      34.364  33.107  28.743  1.00  0.00     0.039 C 
ATOM      9  C   UNL A   1      34.345  30.075  27.450  1.00  0.00     0.228 C 
ATOM     10  O   UNL A   1      35.348  29.520  27.897  1.00  0.00    -0.274 OA
ATOM     11  N   UNL A   1      34.186  31.442  27.507  1.00  0.00    -0.342 N 
ATOM     12  C   UNL A   1      35.257  32.407  27.716  1.00  0.00     0.125 C 
ATOM     13  C   UNL A   1      33.215  32.186  28.308  1.00  0.00     0.125 C 
BRANCH   9  14
ATOM     14  C   UNL A   1      33.257  29.320  26.668  1.00  0.00     0.047 C 
ATOM     15  C   UNL A   1      32.470  30.241  25.728  1.00  0.00     0.022 C 
ATOM     16  C   UNL A   1      32.302  28.580  27.624  1.00  0.00     0.016 C 
ATOM     17  C   UNL A   1      33.896  28.141  25.912  1.00  0.00     0.016 C 
ATOM     18  C   UNL A   1      31.752  27.405  26.822  1.00  0.00     0.001 C 
ATOM     19  C   UNL A   1      32.799  27.093  25.758  1.00  0.00     0.001 C 
ENDBRANCH   9  14
ENDBRANCH   7   8
ENDBRANCH   5   7
ENDBRANCH   4   5
ENDBRANCH   3   4
ENDBRANCH   2   3
ENDBRANCH   1   2
BRANCH   1  20
ATOM     20  C   UNL A   1      35.601  35.185  33.525  1.00  0.00     0.202 C 
BRANCH  20  21
ATOM     21  C   UNL A   1      35.397  33.811  34.179  1.00  0.00     0.261 C 
BRANCH  21  22
ATOM     22  O   UNL A   1      36.241  32.793  33.610  1.00  0.00    -0.460 OA
BRANCH  22  23
ATOM     23  C   UNL A   1      35.690  32.111  32.576  1.00  0.00     0.338 C 
ATOM     24  O   UNL A   1      34.537  32.177  32.174  1.00  0.00    -0.246 OA
BRANCH  23  25
ATOM     25  C   UNL A   1      36.731  31.372  31.839  1.00  0.00     0.060 A 
ATOM     26  C   UNL A   1      37.696  30.690  32.593  1.00  0.00     0.016 A 
ATOM     27  C   UNL A   1      36.814  31.407  30.446  1.00  0.00     0.016 A 
ATOM     28  C   UNL A   1      38.771  30.070  31.959  1.00  0.00     0.010 A 
ATOM     29  C   UNL A   1      37.901  30.793  29.812  1.00  0.00     0.010 A 
ATOM     30  C   UNL A   1      38.897  30.147  30.564  1.00  0.00    -0.014 A 
BRANCH  30  31
ATOM     31  C   UNL A   1      40.138  29.659  29.914  1.00  0.00     0.031 A 
ATOM     32  C   UNL A   1      41.299  30.599  29.746  1.00  0.00     0.074 A 
ATOM     33  C   UNL A   1      40.241  28.383  29.499  1.00  0.00     0.049 A 
ATOM     34  N   UNL A   1      42.456  30.394  29.169  1.00  0.00    -0.248 NA
ATOM     35  C   UNL A   1      41.133  31.950  30.303  1.00  0.00     0.031 C 
ATOM     36  C   UNL A   1      39.207  27.361  29.646  1.00  0.00     0.029 A 
ATOM     37  N   UNL A   1      41.268  27.734  28.862  1.00  0.00    -0.354 N 
ATOM     38  C   UNL A   1      43.154  31.589  29.290  1.00  0.00     0.074 A 
ATOM     39  C   UNL A   1      42.283  32.521  29.972  1.00  0.00     0.031 C 
ATOM     40  C   UNL A   1      39.648  26.214  29.102  1.00  0.00     0.029 A 
ATOM     41  C   UNL A   1      40.981  26.431  28.541  1.00  0.00     0.049 A 
ATOM     42  H   UNL A   1      42.130  28.163  28.655  1.00  0.00     0.167 HD
ATOM     43  C   UNL A   1      44.411  31.880  28.878  1.00  0.00     0.037 A 
ATOM     44  C   UNL A   1      41.702  25.524  27.854  1.00  0.00     0.037 A 
ATOM     45  C   UNL A   1      45.280  30.954  28.200  1.00  0.00     0.049 A 
ATOM     46  C   UNL A   1      43.063  25.898  27.333  1.00  0.00     0.074 A 
ATOM     47  C   UNL A   1      46.577  31.153  27.761  1.00  0.00     0.029 A 
ATOM     48  N   UNL A   1      44.936  29.656  27.857  1.00  0.00    -0.354 N 
ATOM     49  N   UNL A   1      43.722  27.023  27.469  1.00  0.00    -0.248 NA
ATOM     50  C   UNL A   1      43.782  24.874  26.558  1.00  0.00     0.031 C 
ATOM     51  C   UNL A   1      47.003  29.989  27.112  1.00  0.00     0.029 A 
ATOM     52  C   UNL A   1      45.985  29.051  27.186  1.00  0.00     0.049 A 
ATOM     53  H   UNL A   1      44.072  29.228  28.059  1.00  0.00     0.167 HD
ATOM     54  C   UNL A   1      44.937  26.836  26.823  1.00  0.00     0.074 A 
ATOM     55  C   UNL A   1      44.931  25.485  26.301  1.00  0.00     0.031 C 
ATOM     56  C   UNL A   1      45.967  27.704  26.676  1.00  0.00     0.037 A 
BRANCH  43  57
ATOM     57  C   UNL A   1      44.914  33.270  29.129  1.00  0.00     0.057 A 
ATOM     58  C   UNL A   1      44.636  34.326  28.252  1.00  0.00     0.134 A 
ATOM     59  C   UNL A   1      45.655  33.562  30.280  1.00  0.00     0.134 A 
ATOM     60  F   UNL A   1      43.942  34.109  27.125  1.00  0.00    -0.206 F 
ATOM     61  C   UNL A   1      45.095  35.621  28.502  1.00  0.00     0.040 A 
ATOM     62  C   UNL A   1      46.100  34.857  30.553  1.00  0.00     0.040 A 
ATOM     63  F   UNL A   1      45.951  32.596  31.163  1.00  0.00    -0.206 F 
ATOM     64  C   UNL A   1      45.824  35.889  29.659  1.00  0.00     0.006 A 
ENDBRANCH  43  57
BRANCH  44  65
ATOM     65  C   UNL A   1      41.143  24.174  27.596  1.00  0.00     0.057 A 
ATOM     66  C   UNL A   1      41.625  23.048  28.270  1.00  0.00     0.134 A 
ATOM     67  C   UNL A   1      40.129  23.976  26.650  1.00  0.00     0.134 A 
ATOM     68  F   UNL A   1      42.613  23.171  29.169  1.00  0.00    -0.206 F 
ATOM     69  C   UNL A   1      41.129  21.770  28.007  1.00  0.00     0.040 A 
ATOM     70  C   UNL A   1      39.607  22.707  26.393  1.00  0.00     0.040 A 
ATOM     71  F   UNL A   1      39.625  25.016  25.969  1.00  0.00    -0.206 F 
ATOM     72  C   UNL A   1      40.112  21.598  27.068  1.00  0.00     0.006 A 
ENDBRANCH  44  65
BRANCH  56  73
ATOM     73  C   UNL A   1      47.185  27.216  25.948  1.00  0.00     0.057 A 
ATOM     74  C   UNL A   1      47.354  27.422  24.574  1.00  0.00     0.134 A 
ATOM     75  C   UNL A   1      48.220  26.575  26.640  1.00  0.00     0.134 A 
ATOM     76  F   UNL A   1      46.394  28.019  23.852  1.00  0.00    -0.206 F 
ATOM     77  C   UNL A   1      48.506  26.995  23.909  1.00  0.00     0.040 A 
ATOM     78  C   UNL A   1      49.386  26.163  25.991  1.00  0.00     0.040 A 
ATOM     79  F   UNL A   1      48.123  26.353  27.960  1.00  0.00    -0.206 F 
ATOM     80  C   UNL A   1      49.529  26.369  24.621  1.00  0.00     0.006 A 
ENDBRANCH  56  73
ENDBRANCH  30  31
ENDBRANCH  23  25
ENDBRANCH  22  23
ENDBRANCH  21  22
ENDBRANCH  20  21
ENDBRANCH   1  20
TORSDOF 16
ENDMDL
MODEL 2
REMARK VINA RESULT:     -10.4      4.200      7.245
REMARK SMILES CC1(C(=O)N2CC(CC(=O)OCCOCCOC(=O)c3ccc(-c4c5nc(c(-c6c(F)cccc6F)c6ccc([nH]6)c(-c6c(F)cccc6F)c6nc(c(-c7c(F)cccc7F)c7ccc4[nH]7)C=C6)C=C5)cc3)C2)CCCC1
REMARK SMILES IDX 14 1 13 2 12 3 11 4 9 5 10 6 8 7 7 8 3 9 4 10 5 11 6 12
REMARK SMILES IDX 74 13 2 14 1 15 75 16 78 17 76 18 77 19 15 20 16 21 17 22
REMARK SMILES IDX 18 23 19 24 20 25 21 26 73 27 22 28 72 29 23 30 24 31 25 32
REMARK SMILES IDX 66 33 26 34 71 35 65 36 67 37 27 38 70 39 64 40 63 41 28 43
REMARK SMILES IDX 54 44 37 45 53 46 38 47 41 48 52 49 68 50 39 51 40 52 51 54
REMARK SMILES IDX 69 55 42 56 29 57 30 58 35 59 31 60 32 61 34 62 36 63 33 64
REMARK SMILES IDX 55 65 56 66 61 67 57 68 58 69 60 70 62 71 59 72 43 73 44 74
REMARK SMILES IDX 49 75 45 76 46 77 48 78 50 79 47 80
REMARK H PARENT 67 42 41 53
REMARK Flexibility Score: inf
ROOT
ATOM      1  O   UNL A   1      32.556  30.987  26.872  1.00  0.00    -0.374 OA
ENDROOT
BRANCH   1   2
ATOM      2  C   UNL A   1      32.126  29.669  26.530  1.00  0.00     0.202 C 
BRANCH   2   3
ATOM      3  C   UNL A   1      32.327  29.247  25.073  1.00  0.00     0.261 C 
BRANCH   3   4
ATOM      4  O   UNL A   1      31.072  28.935  24.432  1.00  0.00    -0.463 OA
BRANCH   4   5
ATOM      5  C   UNL A   1      31.131  27.964  23.485  1.00  0.00     0.306 C 
ATOM      6  O   UNL A   1      32.105  27.724  22.782  1.00  0.00    -0.252 OA
BRANCH   5   7
ATOM      7  C   UNL A   1      29.843  27.197  23.342  1.00  0.00     0.130 C 
BRANCH   7   8
ATOM      8  C   UNL A   1      29.660  25.954  24.202  1.00  0.00     0.039 C 
ATOM      9  C   UNL A   1      31.022  23.881  26.373  1.00  0.00     0.228 C 
ATOM     10  O   UNL A   1      30.188  23.746  27.267  1.00  0.00    -0.274 OA
ATOM     11  N   UNL A   1      30.947  24.911  25.461  1.00  0.00    -0.342 N 
ATOM     12  C   UNL A   1      30.174  26.133  25.632  1.00  0.00     0.125 C 
ATOM     13  C   UNL A   1      30.664  24.806  24.031  1.00  0.00     0.125 C 
BRANCH   9  14
ATOM     14  C   UNL A   1      32.288  23.012  26.280  1.00  0.00     0.047 C 
ATOM     15  C   UNL A   1      32.107  21.821  25.332  1.00  0.00     0.022 C 
ATOM     16  C   UNL A   1      32.731  22.530  27.675  1.00  0.00     0.016 C 
ATOM     17  C   UNL A   1      33.483  23.891  25.873  1.00  0.00     0.016 C 
ATOM     18  C   UNL A   1      34.235  22.301  27.568  1.00  0.00     0.001 C 
ATOM     19  C   UNL A   1      34.723  23.212  26.446  1.00  0.00     0.001 C 
ENDBRANCH   9  14
ENDBRANCH   7   8
ENDBRANCH   5   7
ENDBRANCH   4   5
ENDBRANCH   3   4
ENDBRANCH   2   3
ENDBRANCH   1   2
BRANCH   1  20
ATOM     20  C   UNL A   1      31.575  32.022  26.859  1.00  0.00     0.202 C 
BRANCH  20  21
ATOM     21  C   UNL A   1      32.102  33.462  26.923  1.00  0.00     0.261 C 
BRANCH  21  22
ATOM     22  O   UNL A   1      32.249  33.942  28.273  1.00  0.00    -0.460 OA
BRANCH  22  23
ATOM     23  C   UNL A   1      33.356  34.694  28.490  1.00  0.00     0.338 C 
ATOM     24  O   UNL A   1      33.421  35.913  28.573  1.00  0.00    -0.246 OA
BRANCH  23  25
ATOM     25  C   UNL A   1      34.508  33.830  28.804  1.00  0.00     0.060 A 
ATOM     26  C   UNL A   1      34.249  32.623  29.468  1.00  0.00     0.016 A 
ATOM     27  C   UNL A   1      35.819  34.221  28.529  1.00  0.00     0.016 A 
ATOM     28  C   UNL A   1      35.304  31.818  29.895  1.00  0.00     0.010 A 
ATOM     29  C   UNL A   1      36.878  33.416  28.969  1.00  0.00     0.010 A 
ATOM     30  C   UNL A   1      36.627  32.228  29.677  1.00  0.00    -0.014 A 
BRANCH  30  31
ATOM     31  C   UNL A   1      37.740  31.472  30.303  1.00  0.00     0.031 A 
ATOM     32  C   UNL A   1      38.088  31.733  31.742  1.00  0.00     0.074 A 
ATOM     33  C   UNL A   1      38.418  30.543  29.605  1.00  0.00     0.049 A 
ATOM     34  N   UNL A   1      39.047  31.219  32.469  1.00  0.00    -0.248 NA
ATOM     35  C   UNL A   1      37.242  32.702  32.455  1.00  0.00     0.031 C 
ATOM     36  C   UNL A   1      38.148  30.164  28.220  1.00  0.00     0.029 A 
ATOM     37  N   UNL A   1      39.480  29.756  29.970  1.00  0.00    -0.354 N 
ATOM     38  C   UNL A   1      38.923  31.803  33.723  1.00  0.00     0.074 A 
ATOM     39  C   UNL A   1      37.812  32.729  33.651  1.00  0.00     0.031 C 
ATOM     40  C   UNL A   1      39.032  29.223  27.846  1.00  0.00     0.029 A 
ATOM     41  C   UNL A   1      39.948  28.958  28.954  1.00  0.00     0.049 A 
ATOM     42  H   UNL A   1      39.871  29.762  30.874  1.00  0.00     0.167 HD
ATOM     43  C   UNL A   1      39.662  31.582  34.837  1.00  0.00     0.037 A 
ATOM     44  C   UNL A   1      41.008  28.127  28.918  1.00  0.00     0.037 A 
ATOM     45  C   UNL A   1      40.766  30.661  34.912  1.00  0.00     0.049 A 
ATOM     46  C   UNL A   1      41.864  27.961  30.144  1.00  0.00     0.074 A 
ATOM     47  C   UNL A   1      41.561  30.357  36.002  1.00  0.00     0.029 A 
ATOM     48  N   UNL A   1      41.234  29.903  33.850  1.00  0.00    -0.354 N 
ATOM     49  N   UNL A   1      41.727  28.503  31.330  1.00  0.00    -0.248 NA
ATOM     50  C   UNL A   1      43.027  27.068  30.025  1.00  0.00     0.031 C 
ATOM     51  C   UNL A   1      42.540  29.446  35.589  1.00  0.00     0.029 A 
ATOM     52  C   UNL A   1      42.325  29.152  34.252  1.00  0.00     0.049 A 
ATOM     53  H   UNL A   1      40.847  29.900  32.944  1.00  0.00     0.167 HD
ATOM     54  C   UNL A   1      42.765  28.000  32.103  1.00  0.00     0.074 A 
ATOM     55  C   UNL A   1      43.521  27.101  31.256  1.00  0.00     0.031 C 
ATOM     56  C   UNL A   1      43.065  28.258  33.399  1.00  0.00     0.037 A 
BRANCH  43  57
ATOM     57  C   UNL A   1      39.313  32.371  36.063  1.00  0.00     0.057 A 
ATOM     58  C   UNL A   1      39.892  33.617  36.330  1.00  0.00     0.134 A 
ATOM     59  C   UNL A   1      38.358  31.894  36.970  1.00  0.00     0.134 A 
ATOM     60  F   UNL A   1      40.823  34.125  35.508  1.00  0.00    -0.206 F 
ATOM     61  C   UNL A   1      39.549  34.353  37.466  1.00  0.00     0.040 A 
ATOM     62  C   UNL A   1      37.990  32.629  38.097  1.00  0.00     0.040 A 
ATOM     63  F   UNL A   1      37.762  30.709  36.769  1.00  0.00    -0.206 F 
ATOM     64  C   UNL A   1      38.590  33.861  38.350  1.00  0.00     0.006 A 
ENDBRANCH  43  57
BRANCH  44  65
ATOM     65  C   UNL A   1      41.336  27.399  27.667  1.00  0.00     0.057 A 
ATOM     66  C   UNL A   1      40.914  26.082  27.462  1.00  0.00     0.134 A 
ATOM     67  C   UNL A   1      42.101  27.998  26.657  1.00  0.00     0.134 A 
ATOM     68  F   UNL A   1      40.201  25.447  28.404  1.00  0.00    -0.206 F 
ATOM     69  C   UNL A   1      41.250  25.379  26.303  1.00  0.00     0.040 A 
ATOM     70  C   UNL A   1      42.424  27.315  25.484  1.00  0.00     0.040 A 
ATOM     71  F   UNL A   1      42.536  29.260  26.795  1.00  0.00    -0.206 F 
ATOM     72  C   UNL A   1      42.004  25.999  25.307  1.00  0.00     0.006 A 
ENDBRANCH  44  65
BRANCH  56  73
ATOM     73  C   UNL A   1      44.242  27.540  33.993  1.00  0.00     0.057 A 
ATOM     74  C   UNL A   1      45.517  28.117  34.025  1.00  0.00     0.134 A 
ATOM     75  C   UNL A   1      44.086  26.278  34.580  1.00  0.00     0.134 A 
ATOM     76  F   UNL A   1      45.736  29.318  33.469  1.00  0.00    -0.206 F 
ATOM     77  C   UNL A   1      46.600  27.457  34.610  1.00  0.00     0.040 A 
ATOM     78  C   UNL A   1      45.156  25.618  35.187  1.00  0.00     0.040 A 
ATOM     79  F   UNL A   1      42.888  25.674  34.588  1.00  0.00    -0.206 F 
ATOM     80  C   UNL A   1      46.419  26.206  35.199  1.00  0.00     0.006 A 
ENDBRANCH  56  73
ENDBRANCH  30  31
ENDBRANCH  23  25
ENDBRANCH  22  23
ENDBRANCH  21  22
ENDBRANCH  20  21
ENDBRANCH   1  20
TORSDOF 16
ENDMDL
MODEL 3
REMARK VINA RESULT:     -10.4      5.284     11.058
REMARK SMILES CC1(C(=O)N2CC(CC(=O)OCCOCCOC(=O)c3ccc(-c4c5nc(c(-c6c(F)cccc6F)c6ccc([nH]6)c(-c6c(F)cccc6F)c6nc(c(-c7c(F)cccc7F)c7ccc4[nH]7)C=C6)C=C5)cc3)C2)CCCC1
REMARK SMILES IDX 14 1 13 2 12 3 11 4 9 5 10 6 8 7 7 8 3 9 4 10 5 11 6 12
REMARK SMILES IDX 74 13 2 14 1 15 75 16 78 17 76 18 77 19 15 20 16 21 17 22
REMARK SMILES IDX 18 23 19 24 20 25 21 26 73 27 22 28 72 29 23 30 24 31 25 32
REMARK SMILES IDX 66 33 26 34 71 35 65 36 67 37 27 38 70 39 64 40 63 41 28 43
REMARK SMILES IDX 54 44 37 45 53 46 38 47 41 48 52 49 68 50 39 51 40 52 51 54
REMARK SMILES IDX 69 55 42 56 29 57 30 58 35 59 31 60 32 61 34 62 36 63 33 64
REMARK SMILES IDX 55 65 56 66 61 67 57 68 58 69 60 70 62 71 59 72 43 73 44 74
REMARK SMILES IDX 49 75 45 76 46 77 48 78 50 79 47 80
REMARK H PARENT 67 42 41 53
REMARK Flexibility Score: inf
ROOT
ATOM      1  O   UNL A   1      42.580  21.193  26.928  1.00  0.00    -0.374 OA
ENDROOT
BRANCH   1   2
ATOM      2  C   UNL A   1      41.236  20.760  27.134  1.00  0.00     0.202 C 
BRANCH   2   3
ATOM      3  C   UNL A   1      40.160  21.475  26.314  1.00  0.00     0.261 C 
BRANCH   3   4
ATOM      4  O   UNL A   1      39.588  22.584  27.039  1.00  0.00    -0.463 OA
BRANCH   4   5
ATOM      5  C   UNL A   1      38.572  23.226  26.408  1.00  0.00     0.306 C 
ATOM      6  O   UNL A   1      38.142  24.332  26.712  1.00  0.00    -0.252 OA
BRANCH   5   7
ATOM      7  C   UNL A   1      37.973  22.426  25.282  1.00  0.00     0.130 C 
BRANCH   7   8
ATOM      8  C   UNL A   1      36.454  22.383  25.174  1.00  0.00     0.039 C 
ATOM      9  C   UNL A   1      33.725  20.554  25.442  1.00  0.00     0.228 C 
ATOM     10  O   UNL A   1      32.940  21.230  26.107  1.00  0.00    -0.274 OA
ATOM     11  N   UNL A   1      35.070  20.844  25.395  1.00  0.00    -0.342 N 
ATOM     12  C   UNL A   1      35.789  21.671  26.354  1.00  0.00     0.125 C 
ATOM     13  C   UNL A   1      35.828  21.333  24.244  1.00  0.00     0.125 C 
BRANCH   9  14
ATOM     14  C   UNL A   1      33.307  19.256  24.731  1.00  0.00     0.047 C 
ATOM     15  C   UNL A   1      32.484  19.525  23.465  1.00  0.00     0.022 C 
ATOM     16  C   UNL A   1      32.537  18.325  25.688  1.00  0.00     0.016 C 
ATOM     17  C   UNL A   1      34.557  18.411  24.432  1.00  0.00     0.016 C 
ATOM     18  C   UNL A   1      32.768  16.914  25.157  1.00  0.00     0.001 C 
ATOM     19  C   UNL A   1      34.089  16.960  24.395  1.00  0.00     0.001 C 
ENDBRANCH   9  14
ENDBRANCH   7   8
ENDBRANCH   5   7
ENDBRANCH   4   5
ENDBRANCH   3   4
ENDBRANCH   2   3
ENDBRANCH   1   2
BRANCH   1  20
ATOM     20  C   UNL A   1      43.237  20.756  25.740  1.00  0.00     0.202 C 
BRANCH  20  21
ATOM     21  C   UNL A   1      43.922  21.843  24.899  1.00  0.00     0.261 C 
BRANCH  21  22
ATOM     22  O   UNL A   1      43.165  23.067  24.849  1.00  0.00    -0.460 OA
BRANCH  22  23
ATOM     23  C   UNL A   1      43.891  24.192  25.064  1.00  0.00     0.338 C 
ATOM     24  O   UNL A   1      44.912  24.538  24.488  1.00  0.00    -0.246 OA
BRANCH  23  25
ATOM     25  C   UNL A   1      43.183  25.085  25.999  1.00  0.00     0.060 A 
ATOM     26  C   UNL A   1      43.661  26.396  26.129  1.00  0.00     0.016 A 
ATOM     27  C   UNL A   1      42.126  24.633  26.792  1.00  0.00     0.016 A 
ATOM     28  C   UNL A   1      43.108  27.252  27.081  1.00  0.00     0.010 A 
ATOM     29  C   UNL A   1      41.580  25.491  27.754  1.00  0.00     0.010 A 
ATOM     30  C   UNL A   1      42.086  26.792  27.923  1.00  0.00    -0.014 A 
BRANCH  30  31
ATOM     31  C   UNL A   1      41.638  27.636  29.058  1.00  0.00     0.031 A 
ATOM     32  C   UNL A   1      42.375  27.559  30.366  1.00  0.00     0.074 A 
ATOM     33  C   UNL A   1      40.602  28.482  28.920  1.00  0.00     0.049 A 
ATOM     34  N   UNL A   1      42.128  28.173  31.495  1.00  0.00    -0.248 NA
ATOM     35  C   UNL A   1      43.548  26.672  30.406  1.00  0.00     0.031 C 
ATOM     36  C   UNL A   1      39.836  28.685  27.692  1.00  0.00     0.029 A 
ATOM     37  N   UNL A   1      40.013  29.325  29.828  1.00  0.00    -0.354 N 
ATOM     38  C   UNL A   1      43.109  27.744  32.380  1.00  0.00     0.074 A 
ATOM     39  C   UNL A   1      43.941  26.801  31.666  1.00  0.00     0.031 C 
ATOM     40  C   UNL A   1      38.867  29.586  27.928  1.00  0.00     0.029 A 
ATOM     41  C   UNL A   1      38.926  29.999  29.329  1.00  0.00     0.049 A 
ATOM     42  H   UNL A   1      40.339  29.435  30.751  1.00  0.00     0.167 HD
ATOM     43  C   UNL A   1      43.304  28.111  33.669  1.00  0.00     0.037 A 
ATOM     44  C   UNL A   1      38.065  30.835  29.940  1.00  0.00     0.037 A 
ATOM     45  C   UNL A   1      42.479  29.051  34.382  1.00  0.00     0.049 A 
ATOM     46  C   UNL A   1      38.254  31.163  31.396  1.00  0.00     0.074 A 
ATOM     47  C   UNL A   1      42.612  29.499  35.685  1.00  0.00     0.029 A 
ATOM     48  N   UNL A   1      41.363  29.680  33.854  1.00  0.00    -0.354 N 
ATOM     49  N   UNL A   1      39.196  30.768  32.219  1.00  0.00    -0.248 NA
ATOM     50  C   UNL A   1      37.257  32.052  32.012  1.00  0.00     0.031 C 
ATOM     51  C   UNL A   1      41.549  30.367  35.959  1.00  0.00     0.029 A 
ATOM     52  C   UNL A   1      40.781  30.491  34.813  1.00  0.00     0.049 A 
ATOM     53  H   UNL A   1      41.034  29.566  32.933  1.00  0.00     0.167 HD
ATOM     54  C   UNL A   1      38.922  31.378  33.436  1.00  0.00     0.074 A 
ATOM     55  C   UNL A   1      37.729  32.178  33.245  1.00  0.00     0.031 C 
ATOM     56  C   UNL A   1      39.597  31.286  34.607  1.00  0.00     0.037 A 
BRANCH  43  57
ATOM     57  C   UNL A   1      44.447  27.474  34.402  1.00  0.00     0.057 A 
ATOM     58  C   UNL A   1      44.285  26.295  35.141  1.00  0.00     0.134 A 
ATOM     59  C   UNL A   1      45.732  28.026  34.337  1.00  0.00     0.134 A 
ATOM     60  F   UNL A   1      43.077  25.723  35.253  1.00  0.00    -0.206 F 
ATOM     61  C   UNL A   1      45.358  25.699  35.806  1.00  0.00     0.040 A 
ATOM     62  C   UNL A   1      46.817  27.427  34.979  1.00  0.00     0.040 A 
ATOM     63  F   UNL A   1      45.955  29.152  33.642  1.00  0.00    -0.206 F 
ATOM     64  C   UNL A   1      46.630  26.263  35.720  1.00  0.00     0.006 A 
ENDBRANCH  43  57
BRANCH  44  65
ATOM     65  C   UNL A   1      36.925  31.409  29.182  1.00  0.00     0.057 A 
ATOM     66  C   UNL A   1      35.782  30.652  28.907  1.00  0.00     0.134 A 
ATOM     67  C   UNL A   1      36.963  32.722  28.696  1.00  0.00     0.134 A 
ATOM     68  F   UNL A   1      35.699  29.380  29.325  1.00  0.00    -0.206 F 
ATOM     69  C   UNL A   1      34.722  31.173  28.163  1.00  0.00     0.040 A 
ATOM     70  C   UNL A   1      35.900  33.263  27.971  1.00  0.00     0.040 A 
ATOM     71  F   UNL A   1      38.032  33.500  28.926  1.00  0.00    -0.206 F 
ATOM     72  C   UNL A   1      34.778  32.485  27.697  1.00  0.00     0.006 A 
ENDBRANCH  44  65
BRANCH  56  73
ATOM     73  C   UNL A   1      39.084  32.089  35.766  1.00  0.00     0.057 A 
ATOM     74  C   UNL A   1      38.264  31.522  36.750  1.00  0.00     0.134 A 
ATOM     75  C   UNL A   1      39.454  33.430  35.925  1.00  0.00     0.134 A 
ATOM     76  F   UNL A   1      37.864  30.245  36.650  1.00  0.00    -0.206 F 
ATOM     77  C   UNL A   1      37.818  32.266  37.844  1.00  0.00     0.040 A 
ATOM     78  C   UNL A   1      39.033  34.178  37.026  1.00  0.00     0.040 A 
ATOM     79  F   UNL A   1      40.243  34.030  35.021  1.00  0.00    -0.206 F 
ATOM     80  C   UNL A   1      38.209  33.597  37.987  1.00  0.00     0.006 A 
ENDBRANCH  56  73
ENDBRANCH  30  31
ENDBRANCH  23  25
ENDBRANCH  22  23
ENDBRANCH  21  22
ENDBRANCH  20  21
ENDBRANCH   1  20
TORSDOF 16
ENDMDL
