MODEL 1
REMARK VINA RESULT:     -10.7      0.000      0.000
REMARK SMILES O=C(OCCOCCOC(=O)[C@@H]1c2ccccc2C[C@H]1P(O)(O)=S)c1ccc(-c2c3nc(c(-c4c(F)cccc4F)c4ccc([nH]4)c(-c4c(F)cccc4F)c4nc(c(-c5c(F)cccc5F)c5ccc2[nH]5)C=C4)C=C3)cc1
REMARK SMILES IDX 6 1 5 2 4 3 3 4 2 5 1 6 25 7 26 8 78 9 27 10 77 11 28 12
REMARK SMILES IDX 29 13 30 14 71 15 31 16 76 17 70 18 72 19 32 20 75 21 69 22
REMARK SMILES IDX 68 23 33 25 59 26 42 27 58 28 43 29 46 30 57 31 73 32 44 33
REMARK SMILES IDX 45 34 56 36 74 37 47 38 34 39 35 40 40 41 36 42 37 43 39 44
REMARK SMILES IDX 41 45 38 46 60 47 61 48 66 49 62 50 63 51 65 52 67 53 64 54
REMARK SMILES IDX 48 55 49 56 54 57 50 58 51 59 53 60 55 61 52 62 7 63 8 64
REMARK SMILES IDX 9 65 10 66 11 67 12 68 13 69 20 70 14 71 18 72 19 73 15 74
REMARK SMILES IDX 17 75 16 76 21 77 24 78 22 79 23 81
REMARK H PARENT 72 24 46 35 22 80 23 82
REMARK Flexibility Score: inf
ROOT
ATOM      1  O   UNL A   1      33.662  30.888  27.243  1.00  0.00    -0.374 OA
ENDROOT
BRANCH   1   2
ATOM      2  C   UNL A   1      32.268  30.990  26.983  1.00  0.00     0.202 C 
BRANCH   2   3
ATOM      3  C   UNL A   1      31.774  32.435  27.038  1.00  0.00     0.261 C 
BRANCH   3   4
ATOM      4  O   UNL A   1      32.886  33.329  27.159  1.00  0.00    -0.460 OA
BRANCH   4   5
ATOM      5  C   UNL A   1      33.197  34.035  28.274  1.00  0.00     0.338 C 
ATOM      6  O   UNL A   1      32.450  34.942  28.637  1.00  0.00    -0.246 OA
BRANCH   5   7
ATOM      7  C   UNL A   1      34.366  33.701  29.145  1.00  0.00     0.060 A 
ATOM      8  C   UNL A   1      34.342  32.770  30.187  1.00  0.00     0.016 A 
ATOM      9  C   UNL A   1      35.598  34.277  28.807  1.00  0.00     0.016 A 
ATOM     10  C   UNL A   1      35.482  32.395  30.864  1.00  0.00     0.010 A 
ATOM     11  C   UNL A   1      36.768  33.877  29.457  1.00  0.00     0.010 A 
ATOM     12  C   UNL A   1      36.705  32.904  30.461  1.00  0.00    -0.014 A 
BRANCH  12  13
ATOM     13  C   UNL A   1      37.892  32.365  31.130  1.00  0.00     0.031 A 
ATOM     14  C   UNL A   1      38.635  31.258  30.473  1.00  0.00     0.074 A 
ATOM     15  C   UNL A   1      38.337  32.981  32.241  1.00  0.00     0.049 A 
ATOM     16  N   UNL A   1      39.623  30.548  30.936  1.00  0.00    -0.248 NA
ATOM     17  C   UNL A   1      38.217  30.905  29.104  1.00  0.00     0.031 C 
ATOM     18  C   UNL A   1      37.737  34.179  32.843  1.00  0.00     0.029 A 
ATOM     19  N   UNL A   1      39.406  32.709  33.048  1.00  0.00    -0.354 N 
ATOM     20  C   UNL A   1      39.909  29.624  29.943  1.00  0.00     0.074 A 
ATOM     21  C   UNL A   1      39.015  29.882  28.836  1.00  0.00     0.031 C 
ATOM     22  C   UNL A   1      38.454  34.539  33.918  1.00  0.00     0.029 A 
ATOM     23  C   UNL A   1      39.495  33.546  34.135  1.00  0.00     0.049 A 
ATOM     24  H   UNL A   1      40.048  31.985  32.869  1.00  0.00     0.167 HD
ATOM     25  C   UNL A   1      40.826  28.636  29.990  1.00  0.00     0.037 A 
ATOM     26  C   UNL A   1      40.290  33.462  35.216  1.00  0.00     0.037 A 
ATOM     27  C   UNL A   1      41.700  28.438  31.113  1.00  0.00     0.049 A 
ATOM     28  C   UNL A   1      41.233  32.293  35.280  1.00  0.00     0.074 A 
ATOM     29  C   UNL A   1      42.647  27.453  31.311  1.00  0.00     0.029 A 
ATOM     30  N   UNL A   1      41.724  29.258  32.235  1.00  0.00    -0.354 N 
ATOM     31  N   UNL A   1      41.460  31.367  34.378  1.00  0.00    -0.248 NA
ATOM     32  C   UNL A   1      42.002  32.130  36.519  1.00  0.00     0.031 C 
ATOM     33  C   UNL A   1      43.212  27.651  32.575  1.00  0.00     0.029 A 
ATOM     34  C   UNL A   1      42.649  28.785  33.146  1.00  0.00     0.049 A 
ATOM     35  H   UNL A   1      41.165  30.058  32.362  1.00  0.00     0.167 HD
ATOM     36  C   UNL A   1      42.396  30.511  34.936  1.00  0.00     0.074 A 
ATOM     37  C   UNL A   1      42.720  31.052  36.243  1.00  0.00     0.031 C 
ATOM     38  C   UNL A   1      42.932  29.373  34.432  1.00  0.00     0.037 A 
BRANCH  25  39
ATOM     39  C   UNL A   1      40.846  27.664  28.854  1.00  0.00     0.057 A 
ATOM     40  C   UNL A   1      41.730  27.782  27.775  1.00  0.00     0.134 A 
ATOM     41  C   UNL A   1      39.941  26.594  28.835  1.00  0.00     0.134 A 
ATOM     42  F   UNL A   1      42.596  28.804  27.714  1.00  0.00    -0.206 F 
ATOM     43  C   UNL A   1      41.706  26.875  26.713  1.00  0.00     0.040 A 
ATOM     44  C   UNL A   1      39.921  25.671  27.790  1.00  0.00     0.040 A 
ATOM     45  F   UNL A   1      39.055  26.436  29.831  1.00  0.00    -0.206 F 
ATOM     46  C   UNL A   1      40.803  25.812  26.723  1.00  0.00     0.006 A 
ENDBRANCH  25  39
BRANCH  26  47
ATOM     47  C   UNL A   1      40.148  34.415  36.348  1.00  0.00     0.057 A 
ATOM     48  C   UNL A   1      39.263  34.172  37.404  1.00  0.00     0.134 A 
ATOM     49  C   UNL A   1      40.865  35.620  36.382  1.00  0.00     0.134 A 
ATOM     50  F   UNL A   1      38.529  33.050  37.426  1.00  0.00    -0.206 F 
ATOM     51  C   UNL A   1      39.076  35.099  38.433  1.00  0.00     0.040 A 
ATOM     52  C   UNL A   1      40.714  36.541  37.421  1.00  0.00     0.040 A 
ATOM     53  F   UNL A   1      41.731  35.924  35.403  1.00  0.00    -0.206 F 
ATOM     54  C   UNL A   1      39.806  36.287  38.445  1.00  0.00     0.006 A 
ENDBRANCH  26  47
BRANCH  38  55
ATOM     55  C   UNL A   1      43.924  28.664  35.298  1.00  0.00     0.057 A 
ATOM     56  C   UNL A   1      45.292  28.951  35.227  1.00  0.00     0.134 A 
ATOM     57  C   UNL A   1      43.497  27.729  36.246  1.00  0.00     0.134 A 
ATOM     58  F   UNL A   1      45.758  29.827  34.323  1.00  0.00    -0.206 F 
ATOM     59  C   UNL A   1      46.207  28.318  36.066  1.00  0.00     0.040 A 
ATOM     60  C   UNL A   1      44.399  27.111  37.110  1.00  0.00     0.040 A 
ATOM     61  F   UNL A   1      42.196  27.421  36.364  1.00  0.00    -0.206 F 
ATOM     62  C   UNL A   1      45.759  27.403  37.018  1.00  0.00     0.006 A 
ENDBRANCH  38  55
ENDBRANCH  12  13
ENDBRANCH   5   7
ENDBRANCH   4   5
ENDBRANCH   3   4
ENDBRANCH   2   3
ENDBRANCH   1   2
BRANCH   1  63
ATOM     63  C   UNL A   1      34.212  29.590  27.359  1.00  0.00     0.202 C 
BRANCH  63  64
ATOM     64  C   UNL A   1      33.888  28.801  26.094  1.00  0.00     0.261 C 
BRANCH  64  65
ATOM     65  O   UNL A   1      33.371  27.517  26.481  1.00  0.00    -0.463 OA
BRANCH  65  66
ATOM     66  C   UNL A   1      32.016  27.380  26.593  1.00  0.00     0.314 C 
ATOM     67  O   UNL A   1      31.351  27.567  27.595  1.00  0.00    -0.252 OA
BRANCH  66  68
ATOM     68  C   UNL A   1      31.504  26.960  25.238  1.00  0.00     0.142 C 
ATOM     69  C   UNL A   1      30.636  27.912  24.454  1.00  0.00    -0.030 A 
ATOM     70  C   UNL A   1      30.569  25.754  25.438  1.00  0.00     0.098 C 
ATOM     71  C   UNL A   1      30.841  29.239  24.110  1.00  0.00     0.005 A 
ATOM     72  C   UNL A   1      29.552  27.220  23.904  1.00  0.00    -0.043 A 
ATOM     73  C   UNL A   1      29.625  25.760  24.231  1.00  0.00     0.050 C 
ATOM     74  C   UNL A   1      29.924  29.888  23.282  1.00  0.00     0.000 A 
ATOM     75  C   UNL A   1      28.628  27.853  23.087  1.00  0.00     0.004 A 
ATOM     76  C   UNL A   1      28.812  29.203  22.787  1.00  0.00     0.000 A 
BRANCH  70  77
ATOM     77  P   UNL A   1      31.409  24.218  25.796  1.00  0.00     0.188 P 
ATOM     78  S   UNL A   1      33.219  23.950  25.209  1.00  0.00    -0.037 S 
BRANCH  77  79
ATOM     79  O   UNL A   1      31.285  24.049  27.391  1.00  0.00    -0.345 OA
ATOM     80  H   UNL A   1      32.168  24.091  27.790  1.00  0.00     0.219 HD
ENDBRANCH  77  79
BRANCH  77  81
ATOM     81  O   UNL A   1      30.397  23.030  25.411  1.00  0.00    -0.345 OA
ATOM     82  H   UNL A   1      29.485  23.317  25.571  1.00  0.00     0.219 HD
ENDBRANCH  77  81
ENDBRANCH  70  77
ENDBRANCH  66  68
ENDBRANCH  65  66
ENDBRANCH  64  65
ENDBRANCH  63  64
ENDBRANCH   1  63
TORSDOF 17
ENDMDL
MODEL 2
REMARK VINA RESULT:     -10.6      1.357      6.590
REMARK SMILES O=C(OCCOCCOC(=O)[C@@H]1c2ccccc2C[C@H]1P(O)(O)=S)c1ccc(-c2c3nc(c(-c4c(F)cccc4F)c4ccc([nH]4)c(-c4c(F)cccc4F)c4nc(c(-c5c(F)cccc5F)c5ccc2[nH]5)C=C4)C=C3)cc1
REMARK SMILES IDX 6 1 5 2 4 3 3 4 2 5 1 6 25 7 26 8 78 9 27 10 77 11 28 12
REMARK SMILES IDX 29 13 30 14 71 15 31 16 76 17 70 18 72 19 32 20 75 21 69 22
REMARK SMILES IDX 68 23 33 25 59 26 42 27 58 28 43 29 46 30 57 31 73 32 44 33
REMARK SMILES IDX 45 34 56 36 74 37 47 38 34 39 35 40 40 41 36 42 37 43 39 44
REMARK SMILES IDX 41 45 38 46 60 47 61 48 66 49 62 50 63 51 65 52 67 53 64 54
REMARK SMILES IDX 48 55 49 56 54 57 50 58 51 59 53 60 55 61 52 62 7 63 8 64
REMARK SMILES IDX 9 65 10 66 11 67 12 68 13 69 20 70 14 71 18 72 19 73 15 74
REMARK SMILES IDX 17 75 16 76 21 77 24 78 22 79 23 81
REMARK H PARENT 72 24 46 35 22 80 23 82
REMARK Flexibility Score: inf
ROOT
ATOM      1  O   UNL A   1      31.715  30.713  25.905  1.00  0.00    -0.374 OA
ENDROOT
BRANCH   1   2
ATOM      2  C   UNL A   1      31.387  31.875  26.657  1.00  0.00     0.202 C 
BRANCH   2   3
ATOM      3  C   UNL A   1      32.627  32.564  27.224  1.00  0.00     0.261 C 
BRANCH   3   4
ATOM      4  O   UNL A   1      32.306  33.901  27.622  1.00  0.00    -0.460 OA
BRANCH   4   5
ATOM      5  C   UNL A   1      33.010  34.633  28.522  1.00  0.00     0.338 C 
ATOM      6  O   UNL A   1      32.645  35.779  28.779  1.00  0.00    -0.246 OA
BRANCH   5   7
ATOM      7  C   UNL A   1      34.164  34.077  29.293  1.00  0.00     0.060 A 
ATOM      8  C   UNL A   1      34.050  33.230  30.398  1.00  0.00     0.016 A 
ATOM      9  C   UNL A   1      35.448  34.331  28.790  1.00  0.00     0.016 A 
ATOM     10  C   UNL A   1      35.144  32.633  30.983  1.00  0.00     0.010 A 
ATOM     11  C   UNL A   1      36.563  33.700  29.347  1.00  0.00     0.010 A 
ATOM     12  C   UNL A   1      36.397  32.820  30.422  1.00  0.00    -0.014 A 
BRANCH  12  13
ATOM     13  C   UNL A   1      37.499  32.051  31.006  1.00  0.00     0.031 A 
ATOM     14  C   UNL A   1      37.919  32.358  32.399  1.00  0.00     0.074 A 
ATOM     15  C   UNL A   1      37.996  31.013  30.309  1.00  0.00     0.049 A 
ATOM     16  N   UNL A   1      38.940  31.902  33.064  1.00  0.00    -0.248 NA
ATOM     17  C   UNL A   1      37.070  33.300  33.150  1.00  0.00     0.031 C 
ATOM     18  C   UNL A   1      37.509  30.561  28.998  1.00  0.00     0.029 A 
ATOM     19  N   UNL A   1      38.997  30.130  30.608  1.00  0.00    -0.354 N 
ATOM     20  C   UNL A   1      38.894  32.544  34.292  1.00  0.00     0.074 A 
ATOM     21  C   UNL A   1      37.727  33.397  34.296  1.00  0.00     0.031 C 
ATOM     22  C   UNL A   1      38.209  29.484  28.614  1.00  0.00     0.029 A 
ATOM     23  C   UNL A   1      39.250  29.232  29.599  1.00  0.00     0.049 A 
ATOM     24  H   UNL A   1      39.487  30.138  31.461  1.00  0.00     0.167 HD
ATOM     25  C   UNL A   1      39.783  32.434  35.302  1.00  0.00     0.037 A 
ATOM     26  C   UNL A   1      40.263  28.358  29.467  1.00  0.00     0.037 A 
ATOM     27  C   UNL A   1      40.918  31.556  35.247  1.00  0.00     0.049 A 
ATOM     28  C   UNL A   1      41.288  28.331  30.567  1.00  0.00     0.074 A 
ATOM     29  C   UNL A   1      41.920  31.375  36.180  1.00  0.00     0.029 A 
ATOM     30  N   UNL A   1      41.195  30.705  34.183  1.00  0.00    -0.354 N 
ATOM     31  N   UNL A   1      41.297  28.990  31.702  1.00  0.00    -0.248 NA
ATOM     32  C   UNL A   1      42.460  27.474  30.357  1.00  0.00     0.031 C 
ATOM     33  C   UNL A   1      42.828  30.448  35.658  1.00  0.00     0.029 A 
ATOM     34  C   UNL A   1      42.369  30.018  34.420  1.00  0.00     0.049 A 
ATOM     35  H   UNL A   1      40.636  30.607  33.378  1.00  0.00     0.167 HD
ATOM     36  C   UNL A   1      42.470  28.630  32.344  1.00  0.00     0.074 A 
ATOM     37  C   UNL A   1      43.131  27.666  31.484  1.00  0.00     0.031 C 
ATOM     38  C   UNL A   1      42.974  29.062  33.526  1.00  0.00     0.037 A 
BRANCH  25  39
ATOM     39  C   UNL A   1      39.605  33.347  36.473  1.00  0.00     0.057 A 
ATOM     40  C   UNL A   1      38.809  33.014  37.575  1.00  0.00     0.134 A 
ATOM     41  C   UNL A   1      40.236  34.598  36.484  1.00  0.00     0.134 A 
ATOM     42  F   UNL A   1      38.150  31.847  37.610  1.00  0.00    -0.206 F 
ATOM     43  C   UNL A   1      38.639  33.898  38.643  1.00  0.00     0.040 A 
ATOM     44  C   UNL A   1      40.089  35.482  37.553  1.00  0.00     0.040 A 
ATOM     45  F   UNL A   1      40.999  34.985  35.449  1.00  0.00    -0.206 F 
ATOM     46  C   UNL A   1      39.286  35.134  38.636  1.00  0.00     0.006 A 
ENDBRANCH  25  39
BRANCH  26  47
ATOM     47  C   UNL A   1      40.422  27.549  28.230  1.00  0.00     0.057 A 
ATOM     48  C   UNL A   1      39.895  26.257  28.127  1.00  0.00     0.134 A 
ATOM     49  C   UNL A   1      41.148  28.030  27.131  1.00  0.00     0.134 A 
ATOM     50  F   UNL A   1      39.208  25.724  29.148  1.00  0.00    -0.206 F 
ATOM     51  C   UNL A   1      40.104  25.467  26.993  1.00  0.00     0.040 A 
ATOM     52  C   UNL A   1      41.337  27.266  25.978  1.00  0.00     0.040 A 
ATOM     53  F   UNL A   1      41.685  29.259  27.157  1.00  0.00    -0.206 F 
ATOM     54  C   UNL A   1      40.825  25.973  25.912  1.00  0.00     0.006 A 
ENDBRANCH  26  47
BRANCH  38  55
ATOM     55  C   UNL A   1      44.286  28.479  33.944  1.00  0.00     0.057 A 
ATOM     56  C   UNL A   1      44.357  27.270  34.646  1.00  0.00     0.134 A 
ATOM     57  C   UNL A   1      45.485  29.106  33.590  1.00  0.00     0.134 A 
ATOM     58  F   UNL A   1      43.237  26.636  35.025  1.00  0.00    -0.206 F 
ATOM     59  C   UNL A   1      45.584  26.709  34.995  1.00  0.00     0.040 A 
ATOM     60  C   UNL A   1      46.718  28.539  33.909  1.00  0.00     0.040 A 
ATOM     61  F   UNL A   1      45.477  30.262  32.910  1.00  0.00    -0.206 F 
ATOM     62  C   UNL A   1      46.769  27.340  34.617  1.00  0.00     0.006 A 
ENDBRANCH  38  55
ENDBRANCH  12  13
ENDBRANCH   5   7
ENDBRANCH   4   5
ENDBRANCH   3   4
ENDBRANCH   2   3
ENDBRANCH   1   2
BRANCH   1  63
ATOM     63  C   UNL A   1      32.800  29.926  26.358  1.00  0.00     0.202 C 
BRANCH  63  64
ATOM     64  C   UNL A   1      33.271  29.029  25.217  1.00  0.00     0.261 C 
BRANCH  64  65
ATOM     65  O   UNL A   1      32.303  29.100  24.157  1.00  0.00    -0.463 OA
BRANCH  65  66
ATOM     66  C   UNL A   1      32.488  28.298  23.067  1.00  0.00     0.314 C 
ATOM     67  O   UNL A   1      33.551  28.035  22.534  1.00  0.00    -0.252 OA
BRANCH  66  68
ATOM     68  C   UNL A   1      31.127  27.794  22.655  1.00  0.00     0.142 C 
ATOM     69  C   UNL A   1      29.988  28.775  22.529  1.00  0.00    -0.030 A 
ATOM     70  C   UNL A   1      30.620  26.845  23.756  1.00  0.00     0.098 C 
ATOM     71  C   UNL A   1      29.904  29.968  21.827  1.00  0.00     0.005 A 
ATOM     72  C   UNL A   1      28.838  28.242  23.120  1.00  0.00    -0.043 A 
ATOM     73  C   UNL A   1      29.092  26.863  23.644  1.00  0.00     0.050 C 
ATOM     74  C   UNL A   1      28.692  30.659  21.783  1.00  0.00     0.000 A 
ATOM     75  C   UNL A   1      27.629  28.922  23.091  1.00  0.00     0.004 A 
ATOM     76  C   UNL A   1      27.564  30.146  22.427  1.00  0.00     0.000 A 
BRANCH  70  77
ATOM     77  P   UNL A   1      31.408  25.241  23.770  1.00  0.00     0.188 P 
ATOM     78  S   UNL A   1      32.984  24.952  24.833  1.00  0.00    -0.037 S 
BRANCH  77  79
ATOM     79  O   UNL A   1      30.238  24.215  24.177  1.00  0.00    -0.345 OA
ATOM     80  H   UNL A   1      30.251  24.073  25.136  1.00  0.00     0.219 HD
ENDBRANCH  77  79
BRANCH  77  81
ATOM     81  O   UNL A   1      31.537  24.769  22.239  1.00  0.00    -0.345 OA
ATOM     82  H   UNL A   1      30.871  25.225  21.703  1.00  0.00     0.219 HD
ENDBRANCH  77  81
ENDBRANCH  70  77
ENDBRANCH  66  68
ENDBRANCH  65  66
ENDBRANCH  64  65
ENDBRANCH  63  64
ENDBRANCH   1  63
TORSDOF 17
ENDMDL
MODEL 3
REMARK VINA RESULT:     -10.5      5.554      9.602
REMARK SMILES O=C(OCCOCCOC(=O)[C@@H]1c2ccccc2C[C@H]1P(O)(O)=S)c1ccc(-c2c3nc(c(-c4c(F)cccc4F)c4ccc([nH]4)c(-c4c(F)cccc4F)c4nc(c(-c5c(F)cccc5F)c5ccc2[nH]5)C=C4)C=C3)cc1
REMARK SMILES IDX 6 1 5 2 4 3 3 4 2 5 1 6 25 7 26 8 78 9 27 10 77 11 28 12
REMARK SMILES IDX 29 13 30 14 71 15 31 16 76 17 70 18 72 19 32 20 75 21 69 22
REMARK SMILES IDX 68 23 33 25 59 26 42 27 58 28 43 29 46 30 57 31 73 32 44 33
REMARK SMILES IDX 45 34 56 36 74 37 47 38 34 39 35 40 40 41 36 42 37 43 39 44
REMARK SMILES IDX 41 45 38 46 60 47 61 48 66 49 62 50 63 51 65 52 67 53 64 54
REMARK SMILES IDX 48 55 49 56 54 57 50 58 51 59 53 60 55 61 52 62 7 63 8 64
REMARK SMILES IDX 9 65 10 66 11 67 12 68 13 69 20 70 14 71 18 72 19 73 15 74
REMARK SMILES IDX 17 75 16 76 21 77 24 78 22 79 23 81
REMARK H PARENT 72 24 46 35 22 80 23 82
REMARK Flexibility Score: inf
ROOT
ATOM      1  O   UNL A   1      36.934  20.840  24.775  1.00  0.00    -0.374 OA
ENDROOT
BRANCH   1   2
ATOM      2  C   UNL A   1      37.854  19.769  24.948  1.00  0.00     0.202 C 
BRANCH   2   3
ATOM      3  C   UNL A   1      39.121  20.208  25.678  1.00  0.00     0.261 C 
BRANCH   3   4
ATOM      4  O   UNL A   1      40.090  19.154  25.659  1.00  0.00    -0.460 OA
BRANCH   4   5
ATOM      5  C   UNL A   1      41.392  19.289  26.013  1.00  0.00     0.338 C 
ATOM      6  O   UNL A   1      42.125  18.302  25.993  1.00  0.00    -0.246 OA
BRANCH   5   7
ATOM      7  C   UNL A   1      42.009  20.611  26.341  1.00  0.00     0.060 A 
ATOM      8  C   UNL A   1      42.386  21.570  25.397  1.00  0.00     0.016 A 
ATOM      9  C   UNL A   1      42.100  20.954  27.697  1.00  0.00     0.016 A 
ATOM     10  C   UNL A   1      42.817  22.828  25.758  1.00  0.00     0.010 A 
ATOM     11  C   UNL A   1      42.496  22.238  28.077  1.00  0.00     0.010 A 
ATOM     12  C   UNL A   1      42.817  23.184  27.096  1.00  0.00    -0.014 A 
BRANCH  12  13
ATOM     13  C   UNL A   1      43.155  24.575  27.405  1.00  0.00     0.031 A 
ATOM     14  C   UNL A   1      44.570  25.009  27.267  1.00  0.00     0.074 A 
ATOM     15  C   UNL A   1      42.154  25.434  27.672  1.00  0.00     0.049 A 
ATOM     16  N   UNL A   1      45.115  26.141  27.607  1.00  0.00    -0.248 NA
ATOM     17  C   UNL A   1      45.499  24.042  26.655  1.00  0.00     0.031 C 
ATOM     18  C   UNL A   1      40.724  25.098  27.662  1.00  0.00     0.029 A 
ATOM     19  N   UNL A   1      42.175  26.767  27.976  1.00  0.00    -0.354 N 
ATOM     20  C   UNL A   1      46.462  26.005  27.306  1.00  0.00     0.074 A 
ATOM     21  C   UNL A   1      46.649  24.694  26.725  1.00  0.00     0.031 C 
ATOM     22  C   UNL A   1      40.009  26.198  27.939  1.00  0.00     0.029 A 
ATOM     23  C   UNL A   1      40.929  27.284  28.242  1.00  0.00     0.049 A 
ATOM     24  H   UNL A   1      43.000  27.302  28.002  1.00  0.00     0.167 HD
ATOM     25  C   UNL A   1      47.442  26.904  27.534  1.00  0.00     0.037 A 
ATOM     26  C   UNL A   1      40.592  28.484  28.745  1.00  0.00     0.037 A 
ATOM     27  C   UNL A   1      47.192  28.200  28.100  1.00  0.00     0.049 A 
ATOM     28  C   UNL A   1      41.716  29.426  29.078  1.00  0.00     0.074 A 
ATOM     29  C   UNL A   1      48.095  29.193  28.423  1.00  0.00     0.029 A 
ATOM     30  N   UNL A   1      45.928  28.677  28.428  1.00  0.00    -0.354 N 
ATOM     31  N   UNL A   1      43.004  29.278  28.868  1.00  0.00    -0.248 NA
ATOM     32  C   UNL A   1      41.354  30.678  29.750  1.00  0.00     0.031 C 
ATOM     33  C   UNL A   1      47.380  30.254  28.989  1.00  0.00     0.029 A 
ATOM     34  C   UNL A   1      46.027  29.940  28.979  1.00  0.00     0.049 A 
ATOM     35  H   UNL A   1      45.086  28.187  28.288  1.00  0.00     0.167 HD
ATOM     36  C   UNL A   1      43.607  30.415  29.379  1.00  0.00     0.074 A 
ATOM     37  C   UNL A   1      42.537  31.259  29.878  1.00  0.00     0.031 C 
ATOM     38  C   UNL A   1      44.922  30.735  29.451  1.00  0.00     0.037 A 
BRANCH  25  39
ATOM     39  C   UNL A   1      48.847  26.469  27.266  1.00  0.00     0.057 A 
ATOM     40  C   UNL A   1      49.612  25.769  28.206  1.00  0.00     0.134 A 
ATOM     41  C   UNL A   1      49.451  26.777  26.040  1.00  0.00     0.134 A 
ATOM     42  F   UNL A   1      49.105  25.474  29.412  1.00  0.00    -0.206 F 
ATOM     43  C   UNL A   1      50.933  25.400  27.939  1.00  0.00     0.040 A 
ATOM     44  C   UNL A   1      50.762  26.398  25.754  1.00  0.00     0.040 A 
ATOM     45  F   UNL A   1      48.777  27.463  25.103  1.00  0.00    -0.206 F 
ATOM     46  C   UNL A   1      51.508  25.709  26.707  1.00  0.00     0.006 A 
ENDBRANCH  25  39
BRANCH  26  47
ATOM     47  C   UNL A   1      39.178  28.810  29.070  1.00  0.00     0.057 A 
ATOM     48  C   UNL A   1      38.328  29.405  28.131  1.00  0.00     0.134 A 
ATOM     49  C   UNL A   1      38.650  28.575  30.348  1.00  0.00     0.134 A 
ATOM     50  F   UNL A   1      38.773  29.679  26.896  1.00  0.00    -0.206 F 
ATOM     51  C   UNL A   1      37.021  29.778  28.456  1.00  0.00     0.040 A 
ATOM     52  C   UNL A   1      37.335  28.910  30.678  1.00  0.00     0.040 A 
ATOM     53  F   UNL A   1      39.405  28.009  31.301  1.00  0.00    -0.206 F 
ATOM     54  C   UNL A   1      36.520  29.527  29.733  1.00  0.00     0.006 A 
ENDBRANCH  26  47
BRANCH  38  55
ATOM     55  C   UNL A   1      45.253  32.053  30.077  1.00  0.00     0.057 A 
ATOM     56  C   UNL A   1      45.273  33.234  29.326  1.00  0.00     0.134 A 
ATOM     57  C   UNL A   1      45.497  32.143  31.451  1.00  0.00     0.134 A 
ATOM     58  F   UNL A   1      45.064  33.202  28.001  1.00  0.00    -0.206 F 
ATOM     59  C   UNL A   1      45.541  34.465  29.922  1.00  0.00     0.040 A 
ATOM     60  C   UNL A   1      45.737  33.372  32.063  1.00  0.00     0.040 A 
ATOM     61  F   UNL A   1      45.482  31.045  32.221  1.00  0.00    -0.206 F 
ATOM     62  C   UNL A   1      45.763  34.537  31.297  1.00  0.00     0.006 A 
ENDBRANCH  38  55
ENDBRANCH  12  13
ENDBRANCH   5   7
ENDBRANCH   4   5
ENDBRANCH   3   4
ENDBRANCH   2   3
ENDBRANCH   1   2
BRANCH   1  63
ATOM     63  C   UNL A   1      37.082  21.969  25.614  1.00  0.00     0.202 C 
BRANCH  63  64
ATOM     64  C   UNL A   1      35.700  22.450  26.046  1.00  0.00     0.261 C 
BRANCH  64  65
ATOM     65  O   UNL A   1      34.758  21.392  25.805  1.00  0.00    -0.463 OA
BRANCH  65  66
ATOM     66  C   UNL A   1      33.516  21.500  26.364  1.00  0.00     0.314 C 
ATOM     67  O   UNL A   1      33.252  21.979  27.452  1.00  0.00    -0.252 OA
BRANCH  66  68
ATOM     68  C   UNL A   1      32.536  20.921  25.375  1.00  0.00     0.142 C 
ATOM     69  C   UNL A   1      32.746  19.516  24.869  1.00  0.00    -0.030 A 
ATOM     70  C   UNL A   1      32.622  21.750  24.081  1.00  0.00     0.098 C 
ATOM     71  C   UNL A   1      32.945  18.333  25.563  1.00  0.00     0.005 A 
ATOM     72  C   UNL A   1      32.542  19.476  23.486  1.00  0.00    -0.043 A 
ATOM     73  C   UNL A   1      32.141  20.821  22.963  1.00  0.00     0.050 C 
ATOM     74  C   UNL A   1      33.017  17.126  24.865  1.00  0.00     0.000 A 
ATOM     75  C   UNL A   1      32.619  18.287  22.778  1.00  0.00     0.004 A 
ATOM     76  C   UNL A   1      32.872  17.106  23.475  1.00  0.00     0.000 A 
BRANCH  70  77
ATOM     77  P   UNL A   1      31.850  23.359  24.180  1.00  0.00     0.188 P 
ATOM     78  S   UNL A   1      32.913  24.917  24.548  1.00  0.00    -0.037 S 
BRANCH  77  79
ATOM     79  O   UNL A   1      31.053  23.515  22.791  1.00  0.00    -0.345 OA
ATOM     80  H   UNL A   1      31.190  22.722  22.249  1.00  0.00     0.219 HD
ENDBRANCH  77  79
BRANCH  77  81
ATOM     81  O   UNL A   1      30.552  23.198  25.114  1.00  0.00    -0.345 OA
ATOM     82  H   UNL A   1      30.809  22.801  25.960  1.00  0.00     0.219 HD
ENDBRANCH  77  81
ENDBRANCH  70  77
ENDBRANCH  66  68
ENDBRANCH  65  66
ENDBRANCH  64  65
ENDBRANCH  63  64
ENDBRANCH   1  63
TORSDOF 17
ENDMDL
