MODEL 1
REMARK VINA RESULT:     -10.1      0.000      0.000
REMARK SMILES C[C@@H](CC(=O)OCCOCCOC(=O)c1ccc(-c2c3nc(c(-c4c(F)cccc4F)c4ccc([nH]4)c(-c4c(F)cccc4F)c4nc(c(-c5c(F)cccc5F)c5ccc2[nH]5)C=C4)C=C3)cc1)NC(=O)CCCN1C(=O)CN(C)C1=O
REMARK SMILES IDX 7 1 6 2 4 3 5 4 3 5 2 6 1 7 69 8 70 9 71 11 72 12 73 13
REMARK SMILES IDX 74 14 75 15 76 16 81 17 77 18 78 19 79 20 82 21 80 22 8 23
REMARK SMILES IDX 9 24 10 25 11 26 12 27 13 28 14 29 15 30 16 31 68 32 17 33
REMARK SMILES IDX 67 34 18 35 19 36 20 37 61 38 21 39 66 40 60 41 62 42 22 43
REMARK SMILES IDX 65 44 59 45 58 46 23 48 49 49 32 50 48 51 33 52 36 53 47 54
REMARK SMILES IDX 63 55 34 56 35 57 46 59 64 60 37 61 24 62 25 63 30 64 26 65
REMARK SMILES IDX 27 66 29 67 31 68 28 69 50 70 51 71 56 72 52 73 53 74 55 75
REMARK SMILES IDX 57 76 54 77 38 78 39 79 44 80 40 81 41 82 43 83 45 84 42 85
REMARK H PARENT 69 10 62 47 36 58
REMARK Flexibility Score: inf
ROOT
ATOM      1  C   UNL A   1      39.025  22.233  26.077  1.00  0.00     0.261 C 
ENDROOT
BRANCH   1   2
ATOM      2  O   UNL A   1      37.828  21.470  25.874  1.00  0.00    -0.463 OA
BRANCH   2   3
ATOM      3  C   UNL A   1      36.876  22.022  25.095  1.00  0.00     0.307 C 
ATOM      4  O   UNL A   1      36.977  22.212  23.888  1.00  0.00    -0.252 OA
BRANCH   3   5
ATOM      5  C   UNL A   1      35.601  22.329  25.842  1.00  0.00     0.147 C 
BRANCH   5   6
ATOM      6  C   UNL A   1      34.555  21.243  26.134  1.00  0.00     0.090 C 
ATOM      7  C   UNL A   1      34.032  20.377  24.997  1.00  0.00     0.031 C 
BRANCH   6   8
ATOM      8  N   UNL A   1      33.442  21.685  26.964  1.00  0.00    -0.353 N 
ATOM      9  C   UNL A   1      32.538  22.678  26.721  1.00  0.00     0.220 C 
ATOM     10  H   UNL A   1      33.327  21.203  27.814  1.00  0.00     0.163 HD
ATOM     11  O   UNL A   1      31.756  22.991  27.619  1.00  0.00    -0.275 OA
BRANCH   9  12
ATOM     12  C   UNL A   1      32.499  23.361  25.365  1.00  0.00     0.102 C 
BRANCH  12  13
ATOM     13  C   UNL A   1      31.089  23.608  24.816  1.00  0.00     0.032 C 
BRANCH  13  14
ATOM     14  C   UNL A   1      30.493  25.016  24.988  1.00  0.00     0.131 C 
BRANCH  14  15
ATOM     15  N   UNL A   1      31.424  26.135  24.896  1.00  0.00    -0.263 N 
ATOM     16  C   UNL A   1      31.855  26.864  25.975  1.00  0.00     0.250 C 
ATOM     17  C   UNL A   1      31.917  26.677  23.744  1.00  0.00     0.326 C 
ATOM     18  O   UNL A   1      31.569  26.669  27.149  1.00  0.00    -0.272 OA
ATOM     19  C   UNL A   1      32.810  27.943  25.503  1.00  0.00     0.221 C 
ATOM     20  N   UNL A   1      32.763  27.716  24.083  1.00  0.00    -0.318 N 
ATOM     21  O   UNL A   1      31.674  26.310  22.602  1.00  0.00    -0.248 OA
ATOM     22  C   UNL A   1      33.502  28.532  23.152  1.00  0.00     0.149 C 
ENDBRANCH  14  15
ENDBRANCH  13  14
ENDBRANCH  12  13
ENDBRANCH   9  12
ENDBRANCH   6   8
ENDBRANCH   5   6
ENDBRANCH   3   5
ENDBRANCH   2   3
ENDBRANCH   1   2
BRANCH   1  23
ATOM     23  C   UNL A   1      40.094  21.324  26.681  1.00  0.00     0.202 C 
BRANCH  23  24
ATOM     24  O   UNL A   1      41.069  20.833  25.761  1.00  0.00    -0.374 OA
BRANCH  24  25
ATOM     25  C   UNL A   1      42.423  20.720  26.209  1.00  0.00     0.202 C 
BRANCH  25  26
ATOM     26  C   UNL A   1      43.459  21.553  25.443  1.00  0.00     0.261 C 
BRANCH  26  27
ATOM     27  O   UNL A   1      42.863  22.737  24.866  1.00  0.00    -0.460 OA
BRANCH  27  28
ATOM     28  C   UNL A   1      43.565  23.877  25.069  1.00  0.00     0.338 C 
ATOM     29  O   UNL A   1      44.625  24.196  24.540  1.00  0.00    -0.246 OA
BRANCH  28  30
ATOM     30  C   UNL A   1      42.803  24.838  25.887  1.00  0.00     0.060 A 
ATOM     31  C   UNL A   1      43.213  26.178  25.852  1.00  0.00     0.016 A 
ATOM     32  C   UNL A   1      41.814  24.426  26.780  1.00  0.00     0.016 A 
ATOM     33  C   UNL A   1      42.678  27.103  26.748  1.00  0.00     0.010 A 
ATOM     34  C   UNL A   1      41.283  25.356  27.687  1.00  0.00     0.010 A 
ATOM     35  C   UNL A   1      41.742  26.688  27.704  1.00  0.00    -0.014 A 
BRANCH  35  36
ATOM     36  C   UNL A   1      41.378  27.597  28.822  1.00  0.00     0.031 A 
ATOM     37  C   UNL A   1      42.158  27.520  30.108  1.00  0.00     0.074 A 
ATOM     38  C   UNL A   1      40.390  28.501  28.698  1.00  0.00     0.049 A 
ATOM     39  N   UNL A   1      41.949  28.133  31.246  1.00  0.00    -0.248 NA
ATOM     40  C   UNL A   1      43.332  26.633  30.108  1.00  0.00     0.031 C 
ATOM     41  C   UNL A   1      39.608  28.738  27.488  1.00  0.00     0.029 A 
ATOM     42  N   UNL A   1      39.870  29.383  29.615  1.00  0.00    -0.354 N 
ATOM     43  C   UNL A   1      42.951  27.692  32.102  1.00  0.00     0.074 A 
ATOM     44  C   UNL A   1      43.757  26.747  31.358  1.00  0.00     0.031 C 
ATOM     45  C   UNL A   1      38.690  29.688  27.743  1.00  0.00     0.029 A 
ATOM     46  C   UNL A   1      38.790  30.090  29.145  1.00  0.00     0.049 A 
ATOM     47  H   UNL A   1      40.236  29.496  30.521  1.00  0.00     0.167 HD
ATOM     48  C   UNL A   1      43.181  28.042  33.391  1.00  0.00     0.037 A 
ATOM     49  C   UNL A   1      37.954  30.933  29.783  1.00  0.00     0.037 A 
ATOM     50  C   UNL A   1      42.387  28.989  34.129  1.00  0.00     0.049 A 
ATOM     51  C   UNL A   1      38.167  31.233  31.245  1.00  0.00     0.074 A 
ATOM     52  C   UNL A   1      42.550  29.415  35.435  1.00  0.00     0.029 A 
ATOM     53  N   UNL A   1      41.278  29.652  33.627  1.00  0.00    -0.354 N 
ATOM     54  N   UNL A   1      39.112  30.808  32.048  1.00  0.00    -0.248 NA
ATOM     55  C   UNL A   1      37.191  32.123  31.892  1.00  0.00     0.031 C 
ATOM     56  C   UNL A   1      41.506  30.293  35.743  1.00  0.00     0.029 A 
ATOM     57  C   UNL A   1      40.729  30.461  34.609  1.00  0.00     0.049 A 
ATOM     58  H   UNL A   1      40.931  29.560  32.711  1.00  0.00     0.167 HD
ATOM     59  C   UNL A   1      38.868  31.408  33.278  1.00  0.00     0.074 A 
ATOM     60  C   UNL A   1      37.686  32.227  33.118  1.00  0.00     0.031 C 
ATOM     61  C   UNL A   1      39.566  31.293  34.434  1.00  0.00     0.037 A 
BRANCH  48  62
ATOM     62  C   UNL A   1      44.319  27.370  34.103  1.00  0.00     0.057 A 
ATOM     63  C   UNL A   1      44.192  26.098  34.674  1.00  0.00     0.134 A 
ATOM     64  C   UNL A   1      45.572  27.990  34.178  1.00  0.00     0.134 A 
ATOM     65  F   UNL A   1      43.015  25.454  34.646  1.00  0.00    -0.206 F 
ATOM     66  C   UNL A   1      45.265  25.476  35.315  1.00  0.00     0.040 A 
ATOM     67  C   UNL A   1      46.661  27.367  34.791  1.00  0.00     0.040 A 
ATOM     68  F   UNL A   1      45.765  29.205  33.643  1.00  0.00    -0.206 F 
ATOM     69  C   UNL A   1      46.507  26.108  35.368  1.00  0.00     0.006 A 
ENDBRANCH  48  62
BRANCH  49  70
ATOM     70  C   UNL A   1      36.807  31.534  29.055  1.00  0.00     0.057 A 
ATOM     71  C   UNL A   1      36.849  32.853  28.591  1.00  0.00     0.134 A 
ATOM     72  C   UNL A   1      35.627  30.812  28.834  1.00  0.00     0.134 A 
ATOM     73  F   UNL A   1      37.940  33.605  28.796  1.00  0.00    -0.206 F 
ATOM     74  C   UNL A   1      35.756  33.439  27.948  1.00  0.00     0.040 A 
ATOM     75  C   UNL A   1      34.537  31.375  28.168  1.00  0.00     0.040 A 
ATOM     76  F   UNL A   1      35.519  29.544  29.257  1.00  0.00    -0.206 F 
ATOM     77  C   UNL A   1      34.597  32.696  27.731  1.00  0.00     0.006 A 
ENDBRANCH  49  70
BRANCH  61  78
ATOM     78  C   UNL A   1      39.117  32.112  35.611  1.00  0.00     0.057 A 
ATOM     79  C   UNL A   1      38.313  31.578  36.625  1.00  0.00     0.134 A 
ATOM     80  C   UNL A   1      39.566  33.430  35.768  1.00  0.00     0.134 A 
ATOM     81  F   UNL A   1      37.841  30.327  36.531  1.00  0.00    -0.206 F 
ATOM     82  C   UNL A   1      37.963  32.330  37.749  1.00  0.00     0.040 A 
ATOM     83  C   UNL A   1      39.245  34.182  36.898  1.00  0.00     0.040 A 
ATOM     84  F   UNL A   1      40.347  33.999  34.838  1.00  0.00    -0.206 F 
ATOM     85  C   UNL A   1      38.439  33.632  37.892  1.00  0.00     0.006 A 
ENDBRANCH  61  78
ENDBRANCH  35  36
ENDBRANCH  28  30
ENDBRANCH  27  28
ENDBRANCH  26  27
ENDBRANCH  25  26
ENDBRANCH  24  25
ENDBRANCH  23  24
ENDBRANCH   1  23
TORSDOF 20
ENDMDL
MODEL 2
REMARK VINA RESULT:     -10.1      1.625      3.400
REMARK SMILES C[C@@H](CC(=O)OCCOCCOC(=O)c1ccc(-c2c3nc(c(-c4c(F)cccc4F)c4ccc([nH]4)c(-c4c(F)cccc4F)c4nc(c(-c5c(F)cccc5F)c5ccc2[nH]5)C=C4)C=C3)cc1)NC(=O)CCCN1C(=O)CN(C)C1=O
REMARK SMILES IDX 7 1 6 2 4 3 5 4 3 5 2 6 1 7 69 8 70 9 71 11 72 12 73 13
REMARK SMILES IDX 74 14 75 15 76 16 81 17 77 18 78 19 79 20 82 21 80 22 8 23
REMARK SMILES IDX 9 24 10 25 11 26 12 27 13 28 14 29 15 30 16 31 68 32 17 33
REMARK SMILES IDX 67 34 18 35 19 36 20 37 61 38 21 39 66 40 60 41 62 42 22 43
REMARK SMILES IDX 65 44 59 45 58 46 23 48 49 49 32 50 48 51 33 52 36 53 47 54
REMARK SMILES IDX 63 55 34 56 35 57 46 59 64 60 37 61 24 62 25 63 30 64 26 65
REMARK SMILES IDX 27 66 29 67 31 68 28 69 50 70 51 71 56 72 52 73 53 74 55 75
REMARK SMILES IDX 57 76 54 77 38 78 39 79 44 80 40 81 41 82 43 83 45 84 42 85
REMARK H PARENT 69 10 62 47 36 58
REMARK Flexibility Score: inf
ROOT
ATOM      1  C   UNL A   1      39.215  21.701  26.283  1.00  0.00     0.261 C 
ENDROOT
BRANCH   1   2
ATOM      2  O   UNL A   1      38.557  20.791  25.390  1.00  0.00    -0.463 OA
BRANCH   2   3
ATOM      3  C   UNL A   1      37.229  20.952  25.224  1.00  0.00     0.307 C 
ATOM      4  O   UNL A   1      36.475  20.118  24.736  1.00  0.00    -0.252 OA
BRANCH   3   5
ATOM      5  C   UNL A   1      36.715  22.258  25.778  1.00  0.00     0.147 C 
BRANCH   5   6
ATOM      6  C   UNL A   1      35.347  22.825  25.373  1.00  0.00     0.090 C 
ATOM      7  C   UNL A   1      35.278  24.083  24.518  1.00  0.00     0.031 C 
BRANCH   6   8
ATOM      8  N   UNL A   1      34.387  22.923  26.465  1.00  0.00    -0.353 N 
ATOM      9  C   UNL A   1      33.025  22.862  26.412  1.00  0.00     0.220 C 
ATOM     10  H   UNL A   1      34.773  23.051  27.361  1.00  0.00     0.163 HD
ATOM     11  O   UNL A   1      32.387  23.111  27.436  1.00  0.00    -0.275 OA
BRANCH   9  12
ATOM     12  C   UNL A   1      32.326  22.482  25.118  1.00  0.00     0.102 C 
BRANCH  12  13
ATOM     13  C   UNL A   1      31.899  21.011  25.034  1.00  0.00     0.032 C 
BRANCH  13  14
ATOM     14  C   UNL A   1      32.231  20.246  23.741  1.00  0.00     0.131 C 
BRANCH  14  15
ATOM     15  N   UNL A   1      32.644  18.855  23.892  1.00  0.00    -0.263 N 
ATOM     16  C   UNL A   1      32.738  17.966  22.853  1.00  0.00     0.250 C 
ATOM     17  C   UNL A   1      32.895  18.216  25.073  1.00  0.00     0.326 C 
ATOM     18  O   UNL A   1      32.538  18.203  21.668  1.00  0.00    -0.272 OA
ATOM     19  C   UNL A   1      33.193  16.620  23.383  1.00  0.00     0.221 C 
ATOM     20  N   UNL A   1      33.257  16.913  24.789  1.00  0.00    -0.318 N 
ATOM     21  O   UNL A   1      32.831  18.703  26.194  1.00  0.00    -0.248 OA
ATOM     22  C   UNL A   1      33.624  15.915  25.763  1.00  0.00     0.149 C 
ENDBRANCH  14  15
ENDBRANCH  13  14
ENDBRANCH  12  13
ENDBRANCH   9  12
ENDBRANCH   6   8
ENDBRANCH   5   6
ENDBRANCH   3   5
ENDBRANCH   2   3
ENDBRANCH   1   2
BRANCH   1  23
ATOM     23  C   UNL A   1      40.508  21.056  26.780  1.00  0.00     0.202 C 
BRANCH  23  24
ATOM     24  O   UNL A   1      41.391  20.593  25.758  1.00  0.00    -0.374 OA
BRANCH  24  25
ATOM     25  C   UNL A   1      42.784  20.490  26.066  1.00  0.00     0.202 C 
BRANCH  25  26
ATOM     26  C   UNL A   1      43.700  21.530  25.407  1.00  0.00     0.261 C 
BRANCH  26  27
ATOM     27  O   UNL A   1      42.949  22.671  24.933  1.00  0.00    -0.460 OA
BRANCH  27  28
ATOM     28  C   UNL A   1      43.599  23.854  25.034  1.00  0.00     0.338 C 
ATOM     29  O   UNL A   1      44.606  24.198  24.423  1.00  0.00    -0.246 OA
BRANCH  28  30
ATOM     30  C   UNL A   1      42.836  24.817  25.849  1.00  0.00     0.060 A 
ATOM     31  C   UNL A   1      43.274  26.148  25.846  1.00  0.00     0.016 A 
ATOM     32  C   UNL A   1      41.819  24.411  26.712  1.00  0.00     0.016 A 
ATOM     33  C   UNL A   1      42.737  27.070  26.744  1.00  0.00     0.010 A 
ATOM     34  C   UNL A   1      41.285  25.337  27.621  1.00  0.00     0.010 A 
ATOM     35  C   UNL A   1      41.770  26.659  27.670  1.00  0.00    -0.014 A 
BRANCH  35  36
ATOM     36  C   UNL A   1      41.397  27.558  28.794  1.00  0.00     0.031 A 
ATOM     37  C   UNL A   1      42.181  27.483  30.079  1.00  0.00     0.074 A 
ATOM     38  C   UNL A   1      40.399  28.451  28.678  1.00  0.00     0.049 A 
ATOM     39  N   UNL A   1      41.968  28.088  31.220  1.00  0.00    -0.248 NA
ATOM     40  C   UNL A   1      43.365  26.610  30.071  1.00  0.00     0.031 C 
ATOM     41  C   UNL A   1      39.611  28.686  27.470  1.00  0.00     0.029 A 
ATOM     42  N   UNL A   1      39.870  29.321  29.600  1.00  0.00    -0.354 N 
ATOM     43  C   UNL A   1      42.977  27.653  32.072  1.00  0.00     0.074 A 
ATOM     44  C   UNL A   1      43.792  26.722  31.321  1.00  0.00     0.031 C 
ATOM     45  C   UNL A   1      38.683  29.622  27.733  1.00  0.00     0.029 A 
ATOM     46  C   UNL A   1      38.781  30.018  29.137  1.00  0.00     0.049 A 
ATOM     47  H   UNL A   1      40.236  29.434  30.507  1.00  0.00     0.167 HD
ATOM     48  C   UNL A   1      43.205  27.999  33.362  1.00  0.00     0.037 A 
ATOM     49  C   UNL A   1      37.937  30.848  29.781  1.00  0.00     0.037 A 
ATOM     50  C   UNL A   1      42.402  28.933  34.107  1.00  0.00     0.049 A 
ATOM     51  C   UNL A   1      38.148  31.142  31.245  1.00  0.00     0.074 A 
ATOM     52  C   UNL A   1      42.563  29.354  35.415  1.00  0.00     0.029 A 
ATOM     53  N   UNL A   1      41.283  29.585  33.611  1.00  0.00    -0.354 N 
ATOM     54  N   UNL A   1      39.101  30.724  32.043  1.00  0.00    -0.248 NA
ATOM     55  C   UNL A   1      37.164  32.017  31.898  1.00  0.00     0.031 C 
ATOM     56  C   UNL A   1      41.509  30.217  35.730  1.00  0.00     0.029 A 
ATOM     57  C   UNL A   1      40.727  30.382  34.598  1.00  0.00     0.049 A 
ATOM     58  H   UNL A   1      40.936  29.495  32.695  1.00  0.00     0.167 HD
ATOM     59  C   UNL A   1      38.852  31.314  33.276  1.00  0.00     0.074 A 
ATOM     60  C   UNL A   1      37.661  32.120  33.124  1.00  0.00     0.031 C 
ATOM     61  C   UNL A   1      39.554  31.201  34.431  1.00  0.00     0.037 A 
BRANCH  48  62
ATOM     62  C   UNL A   1      44.352  27.337  34.068  1.00  0.00     0.057 A 
ATOM     63  C   UNL A   1      44.212  26.109  34.726  1.00  0.00     0.134 A 
ATOM     64  C   UNL A   1      45.626  27.918  34.049  1.00  0.00     0.134 A 
ATOM     65  F   UNL A   1      43.016  25.504  34.791  1.00  0.00    -0.206 F 
ATOM     66  C   UNL A   1      45.294  25.495  35.361  1.00  0.00     0.040 A 
ATOM     67  C   UNL A   1      46.722  27.300  34.655  1.00  0.00     0.040 A 
ATOM     68  F   UNL A   1      45.832  29.090  33.428  1.00  0.00    -0.206 F 
ATOM     69  C   UNL A   1      46.555  26.087  35.320  1.00  0.00     0.006 A 
ENDBRANCH  48  62
BRANCH  49  70
ATOM     70  C   UNL A   1      36.780  31.439  29.059  1.00  0.00     0.057 A 
ATOM     71  C   UNL A   1      35.649  30.676  28.749  1.00  0.00     0.134 A 
ATOM     72  C   UNL A   1      36.794  32.773  28.633  1.00  0.00     0.134 A 
ATOM     73  F   UNL A   1      35.588  29.385  29.104  1.00  0.00    -0.206 F 
ATOM     74  C   UNL A   1      34.580  31.213  28.028  1.00  0.00     0.040 A 
ATOM     75  C   UNL A   1      35.720  33.331  27.937  1.00  0.00     0.040 A 
ATOM     76  F   UNL A   1      37.849  33.558  28.895  1.00  0.00    -0.206 F 
ATOM     77  C   UNL A   1      34.612  32.546  27.625  1.00  0.00     0.006 A 
ENDBRANCH  49  70
BRANCH  61  78
ATOM     78  C   UNL A   1      39.098  32.008  35.613  1.00  0.00     0.057 A 
ATOM     79  C   UNL A   1      38.280  31.467  36.612  1.00  0.00     0.134 A 
ATOM     80  C   UNL A   1      39.553  33.321  35.791  1.00  0.00     0.134 A 
ATOM     81  F   UNL A   1      37.801  30.220  36.498  1.00  0.00    -0.206 F 
ATOM     82  C   UNL A   1      37.924  32.208  37.741  1.00  0.00     0.040 A 
ATOM     83  C   UNL A   1      39.225  34.062  36.927  1.00  0.00     0.040 A 
ATOM     84  F   UNL A   1      40.347  33.897  34.876  1.00  0.00    -0.206 F 
ATOM     85  C   UNL A   1      38.405  33.505  37.906  1.00  0.00     0.006 A 
ENDBRANCH  61  78
ENDBRANCH  35  36
ENDBRANCH  28  30
ENDBRANCH  27  28
ENDBRANCH  26  27
ENDBRANCH  25  26
ENDBRANCH  24  25
ENDBRANCH  23  24
ENDBRANCH   1  23
TORSDOF 20
ENDMDL
MODEL 3
REMARK VINA RESULT:      -9.9      0.882      2.025
REMARK SMILES C[C@@H](CC(=O)OCCOCCOC(=O)c1ccc(-c2c3nc(c(-c4c(F)cccc4F)c4ccc([nH]4)c(-c4c(F)cccc4F)c4nc(c(-c5c(F)cccc5F)c5ccc2[nH]5)C=C4)C=C3)cc1)NC(=O)CCCN1C(=O)CN(C)C1=O
REMARK SMILES IDX 7 1 6 2 4 3 5 4 3 5 2 6 1 7 69 8 70 9 71 11 72 12 73 13
REMARK SMILES IDX 74 14 75 15 76 16 81 17 77 18 78 19 79 20 82 21 80 22 8 23
REMARK SMILES IDX 9 24 10 25 11 26 12 27 13 28 14 29 15 30 16 31 68 32 17 33
REMARK SMILES IDX 67 34 18 35 19 36 20 37 61 38 21 39 66 40 60 41 62 42 22 43
REMARK SMILES IDX 65 44 59 45 58 46 23 48 49 49 32 50 48 51 33 52 36 53 47 54
REMARK SMILES IDX 63 55 34 56 35 57 46 59 64 60 37 61 24 62 25 63 30 64 26 65
REMARK SMILES IDX 27 66 29 67 31 68 28 69 50 70 51 71 56 72 52 73 53 74 55 75
REMARK SMILES IDX 57 76 54 77 38 78 39 79 44 80 40 81 41 82 43 83 45 84 42 85
REMARK H PARENT 69 10 62 47 36 58
REMARK Flexibility Score: inf
ROOT
ATOM      1  C   UNL A   1      37.751  21.856  25.307  1.00  0.00     0.261 C 
ENDROOT
BRANCH   1   2
ATOM      2  O   UNL A   1      37.621  20.526  24.786  1.00  0.00    -0.463 OA
BRANCH   2   3
ATOM      3  C   UNL A   1      36.408  19.945  24.892  1.00  0.00     0.307 C 
ATOM      4  O   UNL A   1      36.193  18.743  24.793  1.00  0.00    -0.252 OA
BRANCH   3   5
ATOM      5  C   UNL A   1      35.309  20.922  25.230  1.00  0.00     0.147 C 
BRANCH   5   6
ATOM      6  C   UNL A   1      33.876  20.456  25.524  1.00  0.00     0.090 C 
ATOM      7  C   UNL A   1      32.843  20.449  24.406  1.00  0.00     0.031 C 
BRANCH   6   8
ATOM      8  N   UNL A   1      33.289  21.030  26.728  1.00  0.00    -0.353 N 
ATOM      9  C   UNL A   1      32.891  22.316  26.953  1.00  0.00     0.220 C 
ATOM     10  H   UNL A   1      33.164  20.408  27.479  1.00  0.00     0.163 HD
ATOM     11  O   UNL A   1      32.549  22.632  28.093  1.00  0.00    -0.275 OA
BRANCH   9  12
ATOM     12  C   UNL A   1      32.860  23.318  25.812  1.00  0.00     0.102 C 
BRANCH  12  13
ATOM     13  C   UNL A   1      33.025  24.780  26.244  1.00  0.00     0.032 C 
BRANCH  13  14
ATOM     14  C   UNL A   1      33.485  25.790  25.178  1.00  0.00     0.131 C 
BRANCH  14  15
ATOM     15  N   UNL A   1      32.723  27.030  25.080  1.00  0.00    -0.263 N 
ATOM     16  C   UNL A   1      31.771  27.270  24.124  1.00  0.00     0.250 C 
ATOM     17  C   UNL A   1      32.908  28.148  25.842  1.00  0.00     0.326 C 
ATOM     18  O   UNL A   1      31.392  26.492  23.258  1.00  0.00    -0.272 OA
ATOM     19  C   UNL A   1      31.191  28.656  24.330  1.00  0.00     0.221 C 
ATOM     20  N   UNL A   1      31.990  29.100  25.440  1.00  0.00    -0.318 N 
ATOM     21  O   UNL A   1      33.728  28.292  26.738  1.00  0.00    -0.248 OA
ATOM     22  C   UNL A   1      31.843  30.415  26.013  1.00  0.00     0.149 C 
ENDBRANCH  14  15
ENDBRANCH  13  14
ENDBRANCH  12  13
ENDBRANCH   9  12
ENDBRANCH   6   8
ENDBRANCH   5   6
ENDBRANCH   3   5
ENDBRANCH   2   3
ENDBRANCH   1   2
BRANCH   1  23
ATOM     23  C   UNL A   1      39.019  21.932  26.156  1.00  0.00     0.202 C 
BRANCH  23  24
ATOM     24  O   UNL A   1      40.195  21.401  25.546  1.00  0.00    -0.374 OA
BRANCH  24  25
ATOM     25  C   UNL A   1      41.293  21.047  26.392  1.00  0.00     0.202 C 
BRANCH  25  26
ATOM     26  C   UNL A   1      42.673  21.554  25.954  1.00  0.00     0.261 C 
BRANCH  26  27
ATOM     27  O   UNL A   1      42.560  22.636  25.002  1.00  0.00    -0.460 OA
BRANCH  27  28
ATOM     28  C   UNL A   1      43.395  23.677  25.232  1.00  0.00     0.338 C 
ATOM     29  O   UNL A   1      44.513  23.847  24.755  1.00  0.00    -0.246 OA
BRANCH  28  30
ATOM     30  C   UNL A   1      42.725  24.742  26.000  1.00  0.00     0.060 A 
ATOM     31  C   UNL A   1      43.410  25.957  26.145  1.00  0.00     0.016 A 
ATOM     32  C   UNL A   1      41.534  24.517  26.690  1.00  0.00     0.016 A 
ATOM     33  C   UNL A   1      42.938  26.932  27.024  1.00  0.00     0.010 A 
ATOM     34  C   UNL A   1      41.065  25.496  27.579  1.00  0.00     0.010 A 
ATOM     35  C   UNL A   1      41.787  26.689  27.782  1.00  0.00    -0.014 A 
BRANCH  35  36
ATOM     36  C   UNL A   1      41.437  27.600  28.904  1.00  0.00     0.031 A 
ATOM     37  C   UNL A   1      42.229  27.518  30.183  1.00  0.00     0.074 A 
ATOM     38  C   UNL A   1      40.453  28.509  28.790  1.00  0.00     0.049 A 
ATOM     39  N   UNL A   1      42.035  28.132  31.323  1.00  0.00    -0.248 NA
ATOM     40  C   UNL A   1      43.398  26.625  30.172  1.00  0.00     0.031 C 
ATOM     41  C   UNL A   1      39.661  28.751  27.587  1.00  0.00     0.029 A 
ATOM     42  N   UNL A   1      39.947  29.393  29.712  1.00  0.00    -0.354 N 
ATOM     43  C   UNL A   1      43.042  27.685  32.170  1.00  0.00     0.074 A 
ATOM     44  C   UNL A   1      43.836  26.736  31.418  1.00  0.00     0.031 C 
ATOM     45  C   UNL A   1      38.751  29.705  27.852  1.00  0.00     0.029 A 
ATOM     46  C   UNL A   1      38.866  30.106  29.253  1.00  0.00     0.049 A 
ATOM     47  H   UNL A   1      40.322  29.504  30.615  1.00  0.00     0.167 HD
ATOM     48  C   UNL A   1      43.286  28.033  33.456  1.00  0.00     0.037 A 
ATOM     49  C   UNL A   1      38.041  30.954  29.899  1.00  0.00     0.037 A 
ATOM     50  C   UNL A   1      42.504  28.984  34.202  1.00  0.00     0.049 A 
ATOM     51  C   UNL A   1      38.269  31.251  31.359  1.00  0.00     0.074 A 
ATOM     52  C   UNL A   1      42.682  29.409  35.507  1.00  0.00     0.029 A 
ATOM     53  N   UNL A   1      41.394  29.653  33.711  1.00  0.00    -0.354 N 
ATOM     54  N   UNL A   1      39.220  30.821  32.153  1.00  0.00    -0.248 NA
ATOM     55  C   UNL A   1      37.304  32.147  32.016  1.00  0.00     0.031 C 
ATOM     56  C   UNL A   1      41.646  30.292  35.825  1.00  0.00     0.029 A 
ATOM     57  C   UNL A   1      40.859  30.465  34.698  1.00  0.00     0.049 A 
ATOM     58  H   UNL A   1      41.038  29.564  32.798  1.00  0.00     0.167 HD
ATOM     59  C   UNL A   1      38.990  31.422  33.385  1.00  0.00     0.074 A 
ATOM     60  C   UNL A   1      37.812  32.247  33.237  1.00  0.00     0.031 C 
ATOM     61  C   UNL A   1      39.698  31.303  34.535  1.00  0.00     0.037 A 
BRANCH  48  62
ATOM     62  C   UNL A   1      44.427  27.355  34.157  1.00  0.00     0.057 A 
ATOM     63  C   UNL A   1      45.707  27.919  34.215  1.00  0.00     0.134 A 
ATOM     64  C   UNL A   1      44.227  26.137  34.820  1.00  0.00     0.134 A 
ATOM     65  F   UNL A   1      45.968  29.078  33.591  1.00  0.00    -0.206 F 
ATOM     66  C   UNL A   1      46.753  27.285  34.888  1.00  0.00     0.040 A 
ATOM     67  C   UNL A   1      45.258  25.508  35.521  1.00  0.00     0.040 A 
ATOM     68  F   UNL A   1      43.022  25.547  34.812  1.00  0.00    -0.206 F 
ATOM     69  C   UNL A   1      46.528  26.080  35.550  1.00  0.00     0.006 A 
ENDBRANCH  48  62
BRANCH  49  70
ATOM     70  C   UNL A   1      36.890  31.561  29.182  1.00  0.00     0.057 A 
ATOM     71  C   UNL A   1      35.741  30.818  28.890  1.00  0.00     0.134 A 
ATOM     72  C   UNL A   1      36.925  32.891  28.744  1.00  0.00     0.134 A 
ATOM     73  F   UNL A   1      35.658  29.532  29.258  1.00  0.00    -0.206 F 
ATOM     74  C   UNL A   1      34.675  31.368  28.174  1.00  0.00     0.040 A 
ATOM     75  C   UNL A   1      35.856  33.463  28.052  1.00  0.00     0.040 A 
ATOM     76  F   UNL A   1      37.998  33.657  28.989  1.00  0.00    -0.206 F 
ATOM     77  C   UNL A   1      34.730  32.698  27.758  1.00  0.00     0.006 A 
ENDBRANCH  49  70
BRANCH  61  78
ATOM     78  C   UNL A   1      39.265  32.124  35.716  1.00  0.00     0.057 A 
ATOM     79  C   UNL A   1      39.672  33.452  35.887  1.00  0.00     0.134 A 
ATOM     80  C   UNL A   1      38.363  31.598  36.651  1.00  0.00     0.134 A 
ATOM     81  F   UNL A   1      40.542  34.013  35.036  1.00  0.00    -0.206 F 
ATOM     82  C   UNL A   1      39.204  34.225  36.953  1.00  0.00     0.040 A 
ATOM     83  C   UNL A   1      37.868  32.368  37.704  1.00  0.00     0.040 A 
ATOM     84  F   UNL A   1      37.927  30.334  36.539  1.00  0.00    -0.206 F 
ATOM     85  C   UNL A   1      38.291  33.686  37.858  1.00  0.00     0.006 A 
ENDBRANCH  61  78
ENDBRANCH  35  36
ENDBRANCH  28  30
ENDBRANCH  27  28
ENDBRANCH  26  27
ENDBRANCH  25  26
ENDBRANCH  24  25
ENDBRANCH  23  24
ENDBRANCH   1  23
TORSDOF 20
ENDMDL
