MODEL 1
REMARK VINA RESULT:     -11.1      0.000      0.000
REMARK SMILES O=C(Cc1ccccc1Nc1c(F)cccc1C(F)(F)F)OCCOCCOC(=O)c1ccc(-c2c3nc(c(-c4c(F)cccc4F)c4ccc([nH]4)c(-c4c(F)cccc4F)c4nc(c(-c5c(F)cccc5F)c5ccc2[nH]5)C=C4)C=C3)cc1
REMARK SMILES IDX 24 1 23 2 22 3 2 4 1 5 3 6 4 7 5 8 9 9 6 10 8 11 7 12 10 13
REMARK SMILES IDX 11 15 12 16 17 17 13 18 14 19 16 20 15 21 18 22 19 23 20 24
REMARK SMILES IDX 21 25 25 26 26 27 27 28 28 29 29 30 30 31 31 32 32 33 84 34
REMARK SMILES IDX 33 35 83 36 34 37 35 38 36 39 77 40 37 41 82 42 76 43 78 44
REMARK SMILES IDX 38 45 81 46 75 47 74 48 39 50 65 51 48 52 64 53 49 54 52 55
REMARK SMILES IDX 63 56 79 57 50 58 51 59 62 61 80 62 53 63 40 64 41 65 46 66
REMARK SMILES IDX 42 67 43 68 45 69 47 70 44 71 66 72 67 73 72 74 68 75 69 76
REMARK SMILES IDX 71 77 73 78 70 79 54 80 55 81 60 82 56 83 57 84 59 85 61 86
REMARK SMILES IDX 58 87
REMARK H PARENT 10 14 78 49 52 60
REMARK Flexibility Score: inf
ROOT
ATOM      1  C   UNL A   1      40.251  21.368  26.661  1.00  0.00     0.202 C 
ENDROOT
BRANCH   1   2
ATOM      2  C   UNL A   1      39.237  22.401  26.186  1.00  0.00     0.261 C 
BRANCH   2   3
ATOM      3  O   UNL A   1      38.007  21.831  25.722  1.00  0.00    -0.463 OA
BRANCH   3   4
ATOM      4  C   UNL A   1      37.075  22.490  24.998  1.00  0.00     0.310 C 
ATOM      5  O   UNL A   1      36.702  22.006  23.929  1.00  0.00    -0.252 OA
BRANCH   4   6
ATOM      6  C   UNL A   1      36.468  23.786  25.500  1.00  0.00     0.160 C 
BRANCH   6   7
ATOM      7  C   UNL A   1      35.111  23.602  26.124  1.00  0.00    -0.013 A 
ATOM      8  C   UNL A   1      34.882  22.510  26.980  1.00  0.00     0.006 A 
ATOM      9  C   UNL A   1      34.070  24.494  25.820  1.00  0.00     0.042 A 
ATOM     10  C   UNL A   1      33.597  22.235  27.437  1.00  0.00     0.000 A 
ATOM     11  C   UNL A   1      32.789  24.211  26.301  1.00  0.00     0.026 A 
ATOM     12  C   UNL A   1      32.547  23.077  27.082  1.00  0.00     0.002 A 
BRANCH   9  13
ATOM     13  N   UNL A   1      34.341  25.660  25.088  1.00  0.00    -0.352 N 
ATOM     14  H   UNL A   1      35.273  25.968  25.145  1.00  0.00     0.167 HD
BRANCH  13  15
ATOM     15  C   UNL A   1      33.510  26.463  24.287  1.00  0.00     0.087 A 
ATOM     16  C   UNL A   1      33.213  25.974  22.999  1.00  0.00     0.147 A 
ATOM     17  C   UNL A   1      32.922  27.672  24.693  1.00  0.00     0.082 A 
ATOM     18  F   UNL A   1      33.815  24.852  22.570  1.00  0.00    -0.205 F 
ATOM     19  C   UNL A   1      32.309  26.602  22.153  1.00  0.00     0.041 A 
ATOM     20  C   UNL A   1      31.970  28.280  23.843  1.00  0.00     0.015 A 
ATOM     21  C   UNL A   1      31.661  27.748  22.590  1.00  0.00     0.004 A 
BRANCH  17  22
ATOM     22  C   UNL A   1      33.302  28.413  25.955  1.00  0.00     0.418 C 
ATOM     23  F   UNL A   1      34.612  28.818  25.931  1.00  0.00    -0.166 F 
ATOM     24  F   UNL A   1      32.593  29.560  26.139  1.00  0.00    -0.166 F 
ATOM     25  F   UNL A   1      33.200  27.690  27.104  1.00  0.00    -0.166 F 
ENDBRANCH  17  22
ENDBRANCH  13  15
ENDBRANCH   9  13
ENDBRANCH   6   7
ENDBRANCH   4   6
ENDBRANCH   3   4
ENDBRANCH   2   3
ENDBRANCH   1   2
BRANCH   1  26
ATOM     26  O   UNL A   1      41.275  20.988  25.746  1.00  0.00    -0.374 OA
BRANCH  26  27
ATOM     27  C   UNL A   1      42.614  21.031  26.259  1.00  0.00     0.202 C 
BRANCH  27  28
ATOM     28  C   UNL A   1      43.624  21.780  25.388  1.00  0.00     0.261 C 
BRANCH  28  29
ATOM     29  O   UNL A   1      43.066  23.008  24.901  1.00  0.00    -0.460 OA
BRANCH  29  30
ATOM     30  C   UNL A   1      43.842  24.098  25.104  1.00  0.00     0.338 C 
ATOM     31  O   UNL A   1      44.888  24.381  24.542  1.00  0.00    -0.246 OA
BRANCH  30  32
ATOM     32  C   UNL A   1      43.108  25.045  25.968  1.00  0.00     0.060 A 
ATOM     33  C   UNL A   1      43.616  26.347  26.080  1.00  0.00     0.016 A 
ATOM     34  C   UNL A   1      41.932  24.679  26.630  1.00  0.00     0.016 A 
ATOM     35  C   UNL A   1      42.994  27.267  26.915  1.00  0.00     0.010 A 
ATOM     36  C   UNL A   1      41.313  25.598  27.474  1.00  0.00     0.010 A 
ATOM     37  C   UNL A   1      41.874  26.874  27.658  1.00  0.00    -0.014 A 
BRANCH  37  38
ATOM     38  C   UNL A   1      41.440  27.703  28.800  1.00  0.00     0.031 A 
ATOM     39  C   UNL A   1      42.207  27.578  30.087  1.00  0.00     0.074 A 
ATOM     40  C   UNL A   1      40.413  28.560  28.687  1.00  0.00     0.049 A 
ATOM     41  N   UNL A   1      41.994  28.149  31.244  1.00  0.00    -0.248 NA
ATOM     42  C   UNL A   1      43.372  26.676  30.068  1.00  0.00     0.031 C 
ATOM     43  C   UNL A   1      39.631  28.789  27.474  1.00  0.00     0.029 A 
ATOM     44  N   UNL A   1      39.849  29.394  29.617  1.00  0.00    -0.354 N 
ATOM     45  C   UNL A   1      42.992  27.674  32.085  1.00  0.00     0.074 A 
ATOM     46  C   UNL A   1      43.783  26.734  31.324  1.00  0.00     0.031 C 
ATOM     47  C   UNL A   1      38.675  29.697  27.738  1.00  0.00     0.029 A 
ATOM     48  C   UNL A   1      38.761  30.084  29.144  1.00  0.00     0.049 A 
ATOM     49  H   UNL A   1      40.192  29.489  30.535  1.00  0.00     0.167 HD
ATOM     50  C   UNL A   1      43.234  28.003  33.375  1.00  0.00     0.037 A 
ATOM     51  C   UNL A   1      37.921  30.914  29.790  1.00  0.00     0.037 A 
ATOM     52  C   UNL A   1      42.433  28.934  34.122  1.00  0.00     0.049 A 
ATOM     53  C   UNL A   1      38.163  31.204  31.249  1.00  0.00     0.074 A 
ATOM     54  C   UNL A   1      42.585  29.345  35.434  1.00  0.00     0.029 A 
ATOM     55  N   UNL A   1      41.323  29.596  33.618  1.00  0.00    -0.354 N 
ATOM     56  N   UNL A   1      39.119  30.766  32.035  1.00  0.00    -0.248 NA
ATOM     57  C   UNL A   1      37.212  32.108  31.910  1.00  0.00     0.031 C 
ATOM     58  C   UNL A   1      41.535  30.216  35.739  1.00  0.00     0.029 A 
ATOM     59  C   UNL A   1      40.765  30.397  34.600  1.00  0.00     0.049 A 
ATOM     60  H   UNL A   1      40.982  29.510  32.699  1.00  0.00     0.167 HD
ATOM     61  C   UNL A   1      38.904  31.367  33.270  1.00  0.00     0.074 A 
ATOM     62  C   UNL A   1      37.736  32.211  33.123  1.00  0.00     0.031 C 
ATOM     63  C   UNL A   1      39.608  31.237  34.423  1.00  0.00     0.037 A 
BRANCH  50  64
ATOM     64  C   UNL A   1      44.392  27.332  34.054  1.00  0.00     0.057 A 
ATOM     65  C   UNL A   1      45.672  27.904  34.075  1.00  0.00     0.134 A 
ATOM     66  C   UNL A   1      44.224  26.106  34.708  1.00  0.00     0.134 A 
ATOM     67  F   UNL A   1      45.908  29.067  33.450  1.00  0.00    -0.206 F 
ATOM     68  C   UNL A   1      46.747  27.268  34.701  1.00  0.00     0.040 A 
ATOM     69  C   UNL A   1      45.284  25.476  35.364  1.00  0.00     0.040 A 
ATOM     70  F   UNL A   1      43.027  25.502  34.725  1.00  0.00    -0.206 F 
ATOM     71  C   UNL A   1      46.551  26.054  35.355  1.00  0.00     0.006 A 
ENDBRANCH  50  64
BRANCH  51  72
ATOM     72  C   UNL A   1      36.769  31.521  29.076  1.00  0.00     0.057 A 
ATOM     73  C   UNL A   1      36.770  32.871  28.708  1.00  0.00     0.134 A 
ATOM     74  C   UNL A   1      35.625  30.772  28.768  1.00  0.00     0.134 A 
ATOM     75  F   UNL A   1      37.827  33.646  28.991  1.00  0.00    -0.206 F 
ATOM     76  C   UNL A   1      35.669  33.462  28.085  1.00  0.00     0.040 A 
ATOM     77  C   UNL A   1      34.529  31.342  28.120  1.00  0.00     0.040 A 
ATOM     78  F   UNL A   1      35.560  29.472  29.090  1.00  0.00    -0.206 F 
ATOM     79  C   UNL A   1      34.545  32.695  27.786  1.00  0.00     0.006 A 
ENDBRANCH  51  72
BRANCH  63  80
ATOM     80  C   UNL A   1      39.161  32.061  35.596  1.00  0.00     0.057 A 
ATOM     81  C   UNL A   1      38.341  31.538  36.603  1.00  0.00     0.134 A 
ATOM     82  C   UNL A   1      39.590  33.388  35.734  1.00  0.00     0.134 A 
ATOM     83  F   UNL A   1      37.886  30.278  36.526  1.00  0.00    -0.206 F 
ATOM     84  C   UNL A   1      37.936  32.315  37.690  1.00  0.00     0.040 A 
ATOM     85  C   UNL A   1      39.219  34.164  36.832  1.00  0.00     0.040 A 
ATOM     86  F   UNL A   1      40.388  33.947  34.812  1.00  0.00    -0.206 F 
ATOM     87  C   UNL A   1      38.382  33.630  37.809  1.00  0.00     0.006 A 
ENDBRANCH  63  80
ENDBRANCH  37  38
ENDBRANCH  30  32
ENDBRANCH  29  30
ENDBRANCH  28  29
ENDBRANCH  27  28
ENDBRANCH  26  27
ENDBRANCH   1  26
TORSDOF 18
ENDMDL
MODEL 2
REMARK VINA RESULT:     -10.8      3.847      7.843
REMARK SMILES O=C(Cc1ccccc1Nc1c(F)cccc1C(F)(F)F)OCCOCCOC(=O)c1ccc(-c2c3nc(c(-c4c(F)cccc4F)c4ccc([nH]4)c(-c4c(F)cccc4F)c4nc(c(-c5c(F)cccc5F)c5ccc2[nH]5)C=C4)C=C3)cc1
REMARK SMILES IDX 24 1 23 2 22 3 2 4 1 5 3 6 4 7 5 8 9 9 6 10 8 11 7 12 10 13
REMARK SMILES IDX 11 15 12 16 17 17 13 18 14 19 16 20 15 21 18 22 19 23 20 24
REMARK SMILES IDX 21 25 25 26 26 27 27 28 28 29 29 30 30 31 31 32 32 33 84 34
REMARK SMILES IDX 33 35 83 36 34 37 35 38 36 39 77 40 37 41 82 42 76 43 78 44
REMARK SMILES IDX 38 45 81 46 75 47 74 48 39 50 65 51 48 52 64 53 49 54 52 55
REMARK SMILES IDX 63 56 79 57 50 58 51 59 62 61 80 62 53 63 40 64 41 65 46 66
REMARK SMILES IDX 42 67 43 68 45 69 47 70 44 71 66 72 67 73 72 74 68 75 69 76
REMARK SMILES IDX 71 77 73 78 70 79 54 80 55 81 60 82 56 83 57 84 59 85 61 86
REMARK SMILES IDX 58 87
REMARK H PARENT 10 14 78 49 52 60
REMARK Flexibility Score: inf
ROOT
ATOM      1  C   UNL A   1      34.223  24.066  26.074  1.00  0.00     0.202 C 
ENDROOT
BRANCH   1   2
ATOM      2  C   UNL A   1      34.628  24.951  24.902  1.00  0.00     0.261 C 
BRANCH   2   3
ATOM      3  O   UNL A   1      33.611  25.874  24.497  1.00  0.00    -0.463 OA
BRANCH   3   4
ATOM      4  C   UNL A   1      33.643  26.611  23.364  1.00  0.00     0.310 C 
ATOM      5  O   UNL A   1      33.560  26.034  22.279  1.00  0.00    -0.252 OA
BRANCH   4   6
ATOM      6  C   UNL A   1      33.745  28.122  23.417  1.00  0.00     0.160 C 
BRANCH   6   7
ATOM      7  C   UNL A   1      33.382  28.694  24.760  1.00  0.00    -0.013 A 
ATOM      8  C   UNL A   1      34.271  28.552  25.840  1.00  0.00     0.006 A 
ATOM      9  C   UNL A   1      32.144  29.332  24.942  1.00  0.00     0.042 A 
ATOM     10  C   UNL A   1      33.885  28.931  27.121  1.00  0.00     0.000 A 
ATOM     11  C   UNL A   1      31.779  29.722  26.233  1.00  0.00     0.026 A 
ATOM     12  C   UNL A   1      32.630  29.501  27.319  1.00  0.00     0.002 A 
BRANCH   9  13
ATOM     13  N   UNL A   1      31.327  29.602  23.833  1.00  0.00    -0.352 N 
ATOM     14  H   UNL A   1      31.817  29.885  23.028  1.00  0.00     0.167 HD
BRANCH  13  15
ATOM     15  C   UNL A   1      29.932  29.539  23.674  1.00  0.00     0.087 A 
ATOM     16  C   UNL A   1      29.235  30.762  23.746  1.00  0.00     0.147 A 
ATOM     17  C   UNL A   1      29.203  28.371  23.401  1.00  0.00     0.082 A 
ATOM     18  F   UNL A   1      29.905  31.880  24.068  1.00  0.00    -0.205 F 
ATOM     19  C   UNL A   1      27.874  30.861  23.483  1.00  0.00     0.041 A 
ATOM     20  C   UNL A   1      27.828  28.489  23.092  1.00  0.00     0.015 A 
ATOM     21  C   UNL A   1      27.172  29.720  23.126  1.00  0.00     0.004 A 
BRANCH  17  22
ATOM     22  C   UNL A   1      29.779  26.976  23.492  1.00  0.00     0.418 C 
ATOM     23  F   UNL A   1      28.794  26.021  23.501  1.00  0.00    -0.166 F 
ATOM     24  F   UNL A   1      30.564  26.648  22.431  1.00  0.00    -0.166 F 
ATOM     25  F   UNL A   1      30.498  26.719  24.619  1.00  0.00    -0.166 F 
ENDBRANCH  17  22
ENDBRANCH  13  15
ENDBRANCH   9  13
ENDBRANCH   6   7
ENDBRANCH   4   6
ENDBRANCH   3   4
ENDBRANCH   2   3
ENDBRANCH   1   2
BRANCH   1  26
ATOM     26  O   UNL A   1      34.983  22.880  26.291  1.00  0.00    -0.374 OA
BRANCH  26  27
ATOM     27  C   UNL A   1      35.242  22.085  25.125  1.00  0.00     0.202 C 
BRANCH  27  28
ATOM     28  C   UNL A   1      36.375  21.067  25.267  1.00  0.00     0.261 C 
BRANCH  28  29
ATOM     29  O   UNL A   1      37.642  21.667  24.963  1.00  0.00    -0.460 OA
BRANCH  29  30
ATOM     30  C   UNL A   1      38.664  21.251  25.746  1.00  0.00     0.338 C 
ATOM     31  O   UNL A   1      39.154  20.134  25.795  1.00  0.00    -0.246 OA
BRANCH  30  32
ATOM     32  C   UNL A   1      39.275  22.430  26.391  1.00  0.00     0.060 A 
ATOM     33  C   UNL A   1      38.701  23.682  26.129  1.00  0.00     0.016 A 
ATOM     34  C   UNL A   1      40.365  22.313  27.258  1.00  0.00     0.016 A 
ATOM     35  C   UNL A   1      39.262  24.831  26.672  1.00  0.00     0.010 A 
ATOM     36  C   UNL A   1      40.933  23.466  27.796  1.00  0.00     0.010 A 
ATOM     37  C   UNL A   1      40.415  24.728  27.459  1.00  0.00    -0.014 A 
BRANCH  37  38
ATOM     38  C   UNL A   1      41.217  25.940  27.726  1.00  0.00     0.031 A 
ATOM     39  C   UNL A   1      40.567  27.051  28.503  1.00  0.00     0.074 A 
ATOM     40  C   UNL A   1      42.490  26.036  27.311  1.00  0.00     0.049 A 
ATOM     41  N   UNL A   1      41.033  28.231  28.817  1.00  0.00    -0.248 NA
ATOM     42  C   UNL A   1      39.199  26.797  28.986  1.00  0.00     0.031 C 
ATOM     43  C   UNL A   1      43.226  25.002  26.589  1.00  0.00     0.029 A 
ATOM     44  N   UNL A   1      43.386  27.066  27.438  1.00  0.00    -0.354 N 
ATOM     45  C   UNL A   1      40.017  28.857  29.528  1.00  0.00     0.074 A 
ATOM     46  C   UNL A   1      38.894  27.949  29.561  1.00  0.00     0.031 C 
ATOM     47  C   UNL A   1      44.463  25.455  26.322  1.00  0.00     0.029 A 
ATOM     48  C   UNL A   1      44.590  26.820  26.826  1.00  0.00     0.049 A 
ATOM     49  H   UNL A   1      43.186  27.899  27.921  1.00  0.00     0.167 HD
ATOM     50  C   UNL A   1      40.026  30.078  30.112  1.00  0.00     0.037 A 
ATOM     51  C   UNL A   1      45.659  27.625  26.675  1.00  0.00     0.037 A 
ATOM     52  C   UNL A   1      41.148  30.974  30.064  1.00  0.00     0.049 A 
ATOM     53  C   UNL A   1      45.615  29.011  27.266  1.00  0.00     0.074 A 
ATOM     54  C   UNL A   1      41.271  32.235  30.621  1.00  0.00     0.029 A 
ATOM     55  N   UNL A   1      42.343  30.703  29.414  1.00  0.00    -0.354 N 
ATOM     56  N   UNL A   1      44.659  29.591  27.953  1.00  0.00    -0.248 NA
ATOM     57  C   UNL A   1      46.803  29.852  27.065  1.00  0.00     0.031 C 
ATOM     58  C   UNL A   1      42.523  32.746  30.262  1.00  0.00     0.029 A 
ATOM     59  C   UNL A   1      43.203  31.782  29.536  1.00  0.00     0.049 A 
ATOM     60  H   UNL A   1      42.551  29.867  28.937  1.00  0.00     0.167 HD
ATOM     61  C   UNL A   1      45.142  30.849  28.294  1.00  0.00     0.074 A 
ATOM     62  C   UNL A   1      46.482  30.940  27.751  1.00  0.00     0.031 C 
ATOM     63  C   UNL A   1      44.537  31.841  28.994  1.00  0.00     0.037 A 
BRANCH  50  64
ATOM     64  C   UNL A   1      38.779  30.512  30.825  1.00  0.00     0.057 A 
ATOM     65  C   UNL A   1      38.569  30.241  32.185  1.00  0.00     0.134 A 
ATOM     66  C   UNL A   1      37.780  31.222  30.149  1.00  0.00     0.134 A 
ATOM     67  F   UNL A   1      39.477  29.546  32.888  1.00  0.00    -0.206 F 
ATOM     68  C   UNL A   1      37.402  30.641  32.839  1.00  0.00     0.040 A 
ATOM     69  C   UNL A   1      36.622  31.654  30.800  1.00  0.00     0.040 A 
ATOM     70  F   UNL A   1      37.914  31.514  28.847  1.00  0.00    -0.206 F 
ATOM     71  C   UNL A   1      36.428  31.356  32.147  1.00  0.00     0.006 A 
ENDBRANCH  50  64
BRANCH  51  72
ATOM     72  C   UNL A   1      46.852  27.154  25.927  1.00  0.00     0.057 A 
ATOM     73  C   UNL A   1      47.893  26.475  26.570  1.00  0.00     0.134 A 
ATOM     74  C   UNL A   1      46.995  27.398  24.555  1.00  0.00     0.134 A 
ATOM     75  F   UNL A   1      47.825  26.227  27.887  1.00  0.00    -0.206 F 
ATOM     76  C   UNL A   1      49.043  26.077  25.885  1.00  0.00     0.040 A 
ATOM     77  C   UNL A   1      48.126  26.981  23.851  1.00  0.00     0.040 A 
ATOM     78  F   UNL A   1      46.034  28.041  23.877  1.00  0.00    -0.206 F 
ATOM     79  C   UNL A   1      49.159  26.328  24.520  1.00  0.00     0.006 A 
ENDBRANCH  51  72
BRANCH  63  80
ATOM     80  C   UNL A   1      45.337  33.085  29.252  1.00  0.00     0.057 A 
ATOM     81  C   UNL A   1      45.288  34.192  28.395  1.00  0.00     0.134 A 
ATOM     82  C   UNL A   1      46.140  33.187  30.396  1.00  0.00     0.134 A 
ATOM     83  F   UNL A   1      44.546  34.156  27.277  1.00  0.00    -0.206 F 
ATOM     84  C   UNL A   1      46.035  35.343  28.650  1.00  0.00     0.040 A 
ATOM     85  C   UNL A   1      46.865  34.345  30.678  1.00  0.00     0.040 A 
ATOM     86  F   UNL A   1      46.222  32.169  31.265  1.00  0.00    -0.206 F 
ATOM     87  C   UNL A   1      46.820  35.424  29.798  1.00  0.00     0.006 A 
ENDBRANCH  63  80
ENDBRANCH  37  38
ENDBRANCH  30  32
ENDBRANCH  29  30
ENDBRANCH  28  29
ENDBRANCH  27  28
ENDBRANCH  26  27
ENDBRANCH   1  26
TORSDOF 18
ENDMDL
MODEL 3
REMARK VINA RESULT:     -10.7      3.653      6.027
REMARK SMILES O=C(Cc1ccccc1Nc1c(F)cccc1C(F)(F)F)OCCOCCOC(=O)c1ccc(-c2c3nc(c(-c4c(F)cccc4F)c4ccc([nH]4)c(-c4c(F)cccc4F)c4nc(c(-c5c(F)cccc5F)c5ccc2[nH]5)C=C4)C=C3)cc1
REMARK SMILES IDX 24 1 23 2 22 3 2 4 1 5 3 6 4 7 5 8 9 9 6 10 8 11 7 12 10 13
REMARK SMILES IDX 11 15 12 16 17 17 13 18 14 19 16 20 15 21 18 22 19 23 20 24
REMARK SMILES IDX 21 25 25 26 26 27 27 28 28 29 29 30 30 31 31 32 32 33 84 34
REMARK SMILES IDX 33 35 83 36 34 37 35 38 36 39 77 40 37 41 82 42 76 43 78 44
REMARK SMILES IDX 38 45 81 46 75 47 74 48 39 50 65 51 48 52 64 53 49 54 52 55
REMARK SMILES IDX 63 56 79 57 50 58 51 59 62 61 80 62 53 63 40 64 41 65 46 66
REMARK SMILES IDX 42 67 43 68 45 69 47 70 44 71 66 72 67 73 72 74 68 75 69 76
REMARK SMILES IDX 71 77 73 78 70 79 54 80 55 81 60 82 56 83 57 84 59 85 61 86
REMARK SMILES IDX 58 87
REMARK H PARENT 10 14 78 49 52 60
REMARK Flexibility Score: inf
ROOT
ATOM      1  C   UNL A   1      35.046  23.108  25.014  1.00  0.00     0.202 C 
ENDROOT
BRANCH   1   2
ATOM      2  C   UNL A   1      35.214  23.137  23.500  1.00  0.00     0.261 C 
BRANCH   2   3
ATOM      3  O   UNL A   1      34.456  24.167  22.855  1.00  0.00    -0.463 OA
BRANCH   3   4
ATOM      4  C   UNL A   1      33.290  23.972  22.199  1.00  0.00     0.310 C 
ATOM      5  O   UNL A   1      33.300  23.325  21.151  1.00  0.00    -0.252 OA
BRANCH   4   6
ATOM      6  C   UNL A   1      31.983  24.507  22.751  1.00  0.00     0.160 C 
BRANCH   6   7
ATOM      7  C   UNL A   1      31.781  24.191  24.208  1.00  0.00    -0.013 A 
ATOM      8  C   UNL A   1      31.384  22.896  24.591  1.00  0.00     0.006 A 
ATOM      9  C   UNL A   1      31.951  25.194  25.175  1.00  0.00     0.042 A 
ATOM     10  C   UNL A   1      31.040  22.631  25.911  1.00  0.00     0.000 A 
ATOM     11  C   UNL A   1      31.617  24.904  26.501  1.00  0.00     0.026 A 
ATOM     12  C   UNL A   1      31.140  23.641  26.864  1.00  0.00     0.002 A 
BRANCH   9  13
ATOM     13  N   UNL A   1      32.489  26.436  24.807  1.00  0.00    -0.352 N 
ATOM     14  H   UNL A   1      33.242  26.382  24.176  1.00  0.00     0.167 HD
BRANCH  13  15
ATOM     15  C   UNL A   1      32.138  27.745  25.183  1.00  0.00     0.087 A 
ATOM     16  C   UNL A   1      32.886  28.320  26.231  1.00  0.00     0.147 A 
ATOM     17  C   UNL A   1      31.148  28.525  24.565  1.00  0.00     0.082 A 
ATOM     18  F   UNL A   1      33.794  27.569  26.876  1.00  0.00    -0.205 F 
ATOM     19  C   UNL A   1      32.730  29.644  26.618  1.00  0.00     0.041 A 
ATOM     20  C   UNL A   1      31.028  29.883  24.936  1.00  0.00     0.015 A 
ATOM     21  C   UNL A   1      31.814  30.440  25.946  1.00  0.00     0.004 A 
BRANCH  17  22
ATOM     22  C   UNL A   1      30.142  27.982  23.574  1.00  0.00     0.418 C 
ATOM     23  F   UNL A   1      29.452  26.914  24.088  1.00  0.00    -0.166 F 
ATOM     24  F   UNL A   1      29.180  28.882  23.238  1.00  0.00    -0.166 F 
ATOM     25  F   UNL A   1      30.671  27.506  22.414  1.00  0.00    -0.166 F 
ENDBRANCH  17  22
ENDBRANCH  13  15
ENDBRANCH   9  13
ENDBRANCH   6   7
ENDBRANCH   4   6
ENDBRANCH   3   4
ENDBRANCH   2   3
ENDBRANCH   1   2
BRANCH   1  26
ATOM     26  O   UNL A   1      35.759  22.105  25.731  1.00  0.00    -0.374 OA
BRANCH  26  27
ATOM     27  C   UNL A   1      35.884  20.837  25.070  1.00  0.00     0.202 C 
BRANCH  27  28
ATOM     28  C   UNL A   1      37.305  20.273  25.001  1.00  0.00     0.261 C 
BRANCH  28  29
ATOM     29  O   UNL A   1      38.276  21.324  25.095  1.00  0.00    -0.460 OA
BRANCH  29  30
ATOM     30  C   UNL A   1      39.277  21.088  25.974  1.00  0.00     0.338 C 
ATOM     31  O   UNL A   1      39.905  20.052  26.125  1.00  0.00    -0.246 OA
BRANCH  30  32
ATOM     32  C   UNL A   1      39.674  22.369  26.593  1.00  0.00     0.060 A 
ATOM     33  C   UNL A   1      38.982  23.522  26.195  1.00  0.00     0.016 A 
ATOM     34  C   UNL A   1      40.677  22.439  27.564  1.00  0.00     0.016 A 
ATOM     35  C   UNL A   1      39.343  24.762  26.709  1.00  0.00     0.010 A 
ATOM     36  C   UNL A   1      41.044  23.682  28.074  1.00  0.00     0.010 A 
ATOM     37  C   UNL A   1      40.415  24.849  27.606  1.00  0.00    -0.014 A 
BRANCH  37  38
ATOM     38  C   UNL A   1      41.033  26.165  27.864  1.00  0.00     0.031 A 
ATOM     39  C   UNL A   1      42.439  26.384  27.378  1.00  0.00     0.074 A 
ATOM     40  C   UNL A   1      40.355  27.142  28.487  1.00  0.00     0.049 A 
ATOM     41  N   UNL A   1      43.220  27.422  27.528  1.00  0.00    -0.248 NA
ATOM     42  C   UNL A   1      43.051  25.275  26.626  1.00  0.00     0.031 C 
ATOM     43  C   UNL A   1      38.975  27.046  28.960  1.00  0.00     0.029 A 
ATOM     44  N   UNL A   1      40.746  28.408  28.834  1.00  0.00    -0.354 N 
ATOM     45  C   UNL A   1      44.410  27.089  26.894  1.00  0.00     0.074 A 
ATOM     46  C   UNL A   1      44.269  25.739  26.398  1.00  0.00     0.031 C 
ATOM     47  C   UNL A   1      38.637  28.206  29.550  1.00  0.00     0.029 A 
ATOM     48  C   UNL A   1      39.787  29.107  29.524  1.00  0.00     0.049 A 
ATOM     49  H   UNL A   1      41.629  28.781  28.609  1.00  0.00     0.167 HD
ATOM     50  C   UNL A   1      45.518  27.848  26.729  1.00  0.00     0.037 A 
ATOM     51  C   UNL A   1      39.851  30.328  30.089  1.00  0.00     0.037 A 
ATOM     52  C   UNL A   1      45.647  29.187  27.234  1.00  0.00     0.049 A 
ATOM     53  C   UNL A   1      41.124  31.123  29.961  1.00  0.00     0.074 A 
ATOM     54  C   UNL A   1      46.722  30.051  27.126  1.00  0.00     0.029 A 
ATOM     55  N   UNL A   1      44.664  29.855  27.951  1.00  0.00    -0.354 N 
ATOM     56  N   UNL A   1      42.241  30.811  29.345  1.00  0.00    -0.248 NA
ATOM     57  C   UNL A   1      41.145  32.445  30.603  1.00  0.00     0.031 C 
ATOM     58  C   UNL A   1      46.408  31.222  27.823  1.00  0.00     0.029 A 
ATOM     59  C   UNL A   1      45.116  31.113  28.311  1.00  0.00     0.049 A 
ATOM     60  H   UNL A   1      43.777  29.488  28.170  1.00  0.00     0.167 HD
ATOM     61  C   UNL A   1      43.080  31.907  29.495  1.00  0.00     0.074 A 
ATOM     62  C   UNL A   1      42.339  32.898  30.249  1.00  0.00     0.031 C 
ATOM     63  C   UNL A   1      44.351  32.084  29.052  1.00  0.00     0.037 A 
BRANCH  50  64
ATOM     64  C   UNL A   1      46.674  27.233  25.995  1.00  0.00     0.057 A 
ATOM     65  C   UNL A   1      46.885  27.451  24.627  1.00  0.00     0.134 A 
ATOM     66  C   UNL A   1      47.598  26.423  26.668  1.00  0.00     0.134 A 
ATOM     67  F   UNL A   1      46.026  28.199  23.917  1.00  0.00    -0.206 F 
ATOM     68  C   UNL A   1      47.958  26.868  23.950  1.00  0.00     0.040 A 
ATOM     69  C   UNL A   1      48.692  25.859  26.008  1.00  0.00     0.040 A 
ATOM     70  F   UNL A   1      47.455  26.171  27.978  1.00  0.00    -0.206 F 
ATOM     71  C   UNL A   1      48.870  26.076  24.644  1.00  0.00     0.006 A 
ENDBRANCH  50  64
BRANCH  51  72
ATOM     72  C   UNL A   1      38.687  30.870  30.835  1.00  0.00     0.057 A 
ATOM     73  C   UNL A   1      38.506  30.603  32.196  1.00  0.00     0.134 A 
ATOM     74  C   UNL A   1      37.711  31.647  30.198  1.00  0.00     0.134 A 
ATOM     75  F   UNL A   1      39.395  29.849  32.859  1.00  0.00    -0.206 F 
ATOM     76  C   UNL A   1      37.387  31.063  32.892  1.00  0.00     0.040 A 
ATOM     77  C   UNL A   1      36.601  32.140  30.886  1.00  0.00     0.040 A 
ATOM     78  F   UNL A   1      37.825  31.944  28.895  1.00  0.00    -0.206 F 
ATOM     79  C   UNL A   1      36.432  31.838  32.236  1.00  0.00     0.006 A 
ENDBRANCH  51  72
BRANCH  63  80
ATOM     80  C   UNL A   1      44.995  33.412  29.327  1.00  0.00     0.057 A 
ATOM     81  C   UNL A   1      45.810  33.626  30.446  1.00  0.00     0.134 A 
ATOM     82  C   UNL A   1      44.823  34.482  28.438  1.00  0.00     0.134 A 
ATOM     83  F   UNL A   1      46.007  32.646  31.342  1.00  0.00    -0.206 F 
ATOM     84  C   UNL A   1      46.406  34.865  30.687  1.00  0.00     0.040 A 
ATOM     85  C   UNL A   1      45.439  35.714  28.652  1.00  0.00     0.040 A 
ATOM     86  F   UNL A   1      44.066  34.341  27.340  1.00  0.00    -0.206 F 
ATOM     87  C   UNL A   1      46.226  35.911  29.784  1.00  0.00     0.006 A 
ENDBRANCH  63  80
ENDBRANCH  37  38
ENDBRANCH  30  32
ENDBRANCH  29  30
ENDBRANCH  28  29
ENDBRANCH  27  28
ENDBRANCH  26  27
ENDBRANCH   1  26
TORSDOF 18
ENDMDL
