MODEL 1
REMARK VINA RESULT:      -9.6      0.000      0.000
REMARK SMILES CCCCSc1ccccc1C(=O)OCCOCCOC(=O)c1ccc(-c2c3nc(c(-c4c(F)cccc4F)c4ccc([nH]4)c(-c4c(F)cccc4F)c4nc(c(-c5c(F)cccc5F)c5ccc2[nH]5)C=C4)C=C3)cc1
REMARK SMILES IDX 16 1 15 2 14 3 12 4 13 5 11 6 6 7 7 8 8 9 10 10 9 11 5 12
REMARK SMILES IDX 4 13 3 14 2 15 1 16 17 17 18 18 19 19 20 20 21 21 22 22
REMARK SMILES IDX 23 23 24 24 76 25 25 26 75 27 26 28 27 29 28 30 69 31 29 32
REMARK SMILES IDX 74 33 68 34 70 35 30 36 73 37 67 38 66 39 31 41 57 42 40 43
REMARK SMILES IDX 56 44 41 45 44 46 55 47 71 48 42 49 43 50 54 52 72 53 45 54
REMARK SMILES IDX 32 55 33 56 38 57 34 58 35 59 37 60 39 61 36 62 58 63 59 64
REMARK SMILES IDX 64 65 60 66 61 67 63 68 65 69 62 70 46 71 47 72 52 73 48 74
REMARK SMILES IDX 49 75 51 76 53 77 50 78
REMARK H PARENT 70 40 44 51
REMARK Flexibility Score: inf
ROOT
ATOM      1  C   UNL A   1      32.146  29.526  27.247  1.00  0.00     0.202 C 
ENDROOT
BRANCH   1   2
ATOM      2  C   UNL A   1      31.674  28.453  26.266  1.00  0.00     0.261 C 
BRANCH   2   3
ATOM      3  O   UNL A   1      32.497  27.276  26.352  1.00  0.00    -0.460 OA
BRANCH   3   4
ATOM      4  C   UNL A   1      31.900  26.142  25.925  1.00  0.00     0.339 C 
ATOM      5  O   UNL A   1      31.225  25.390  26.617  1.00  0.00    -0.246 OA
BRANCH   4   6
ATOM      6  C   UNL A   1      31.999  25.930  24.460  1.00  0.00     0.073 A 
ATOM      7  C   UNL A   1      31.025  26.251  23.503  1.00  0.00     0.022 A 
ATOM      8  C   UNL A   1      31.418  26.293  22.154  1.00  0.00     0.016 A 
ATOM      9  C   UNL A   1      32.677  25.854  21.742  1.00  0.00     0.001 A 
ATOM     10  C   UNL A   1      33.261  25.466  24.034  1.00  0.00     0.017 A 
ATOM     11  C   UNL A   1      33.587  25.397  22.682  1.00  0.00     0.001 A 
BRANCH   7  12
ATOM     12  S   UNL A   1      29.307  26.625  23.805  1.00  0.00    -0.125 SA
BRANCH  12  13
ATOM     13  C   UNL A   1      29.236  28.376  23.236  1.00  0.00     0.075 C 
BRANCH  13  14
ATOM     14  C   UNL A   1      27.843  28.953  22.934  1.00  0.00     0.011 C 
BRANCH  14  15
ATOM     15  C   UNL A   1      27.589  30.441  23.205  1.00  0.00    -0.003 C 
ATOM     16  C   UNL A   1      28.823  31.327  23.157  1.00  0.00     0.004 C 
ENDBRANCH  14  15
ENDBRANCH  13  14
ENDBRANCH  12  13
ENDBRANCH   7  12
ENDBRANCH   4   6
ENDBRANCH   3   4
ENDBRANCH   2   3
ENDBRANCH   1   2
BRANCH   1  17
ATOM     17  O   UNL A   1      32.483  30.789  26.680  1.00  0.00    -0.374 OA
BRANCH  17  18
ATOM     18  C   UNL A   1      31.434  31.753  26.562  1.00  0.00     0.202 C 
BRANCH  18  19
ATOM     19  C   UNL A   1      31.844  33.220  26.735  1.00  0.00     0.261 C 
BRANCH  19  20
ATOM     20  O   UNL A   1      32.256  33.505  28.086  1.00  0.00    -0.460 OA
BRANCH  20  21
ATOM     21  C   UNL A   1      33.324  34.329  28.202  1.00  0.00     0.338 C 
ATOM     22  O   UNL A   1      33.325  35.553  28.166  1.00  0.00    -0.246 OA
BRANCH  21  23
ATOM     23  C   UNL A   1      34.516  33.549  28.581  1.00  0.00     0.060 A 
ATOM     24  C   UNL A   1      34.336  32.197  28.902  1.00  0.00     0.016 A 
ATOM     25  C   UNL A   1      35.778  34.138  28.671  1.00  0.00     0.016 A 
ATOM     26  C   UNL A   1      35.414  31.435  29.349  1.00  0.00     0.010 A 
ATOM     27  C   UNL A   1      36.857  33.375  29.131  1.00  0.00     0.010 A 
ATOM     28  C   UNL A   1      36.673  32.028  29.498  1.00  0.00    -0.014 A 
BRANCH  28  29
ATOM     29  C   UNL A   1      37.767  31.280  30.161  1.00  0.00     0.031 A 
ATOM     30  C   UNL A   1      38.065  31.550  31.609  1.00  0.00     0.074 A 
ATOM     31  C   UNL A   1      38.480  30.361  29.485  1.00  0.00     0.049 A 
ATOM     32  N   UNL A   1      39.014  31.062  32.367  1.00  0.00    -0.248 NA
ATOM     33  C   UNL A   1      37.173  32.499  32.295  1.00  0.00     0.031 C 
ATOM     34  C   UNL A   1      38.260  29.977  28.092  1.00  0.00     0.029 A 
ATOM     35  N   UNL A   1      39.544  29.591  29.885  1.00  0.00    -0.354 N 
ATOM     36  C   UNL A   1      38.838  31.648  33.614  1.00  0.00     0.074 A 
ATOM     37  C   UNL A   1      37.709  32.547  33.504  1.00  0.00     0.031 C 
ATOM     38  C   UNL A   1      39.173  29.052  27.747  1.00  0.00     0.029 A 
ATOM     39  C   UNL A   1      40.060  28.807  28.883  1.00  0.00     0.049 A 
ATOM     40  H   UNL A   1      39.902  29.600  30.801  1.00  0.00     0.167 HD
ATOM     41  C   UNL A   1      39.549  31.449  34.749  1.00  0.00     0.037 A 
ATOM     42  C   UNL A   1      41.144  28.007  28.876  1.00  0.00     0.037 A 
ATOM     43  C   UNL A   1      40.671  30.554  34.856  1.00  0.00     0.049 A 
ATOM     44  C   UNL A   1      41.971  27.867  30.126  1.00  0.00     0.074 A 
ATOM     45  C   UNL A   1      41.441  30.267  35.970  1.00  0.00     0.029 A 
ATOM     46  N   UNL A   1      41.189  29.808  33.809  1.00  0.00    -0.354 N 
ATOM     47  N   UNL A   1      41.785  28.408  31.307  1.00  0.00    -0.248 NA
ATOM     48  C   UNL A   1      43.162  27.010  30.043  1.00  0.00     0.031 C 
ATOM     49  C   UNL A   1      42.456  29.384  35.584  1.00  0.00     0.029 A 
ATOM     50  C   UNL A   1      42.288  29.085  34.242  1.00  0.00     0.049 A 
ATOM     51  H   UNL A   1      40.828  29.794  32.893  1.00  0.00     0.167 HD
ATOM     52  C   UNL A   1      42.818  27.939  32.109  1.00  0.00     0.074 A 
ATOM     53  C   UNL A   1      43.621  27.061  31.285  1.00  0.00     0.031 C 
ATOM     54  C   UNL A   1      43.076  28.212  33.411  1.00  0.00     0.037 A 
BRANCH  41  55
ATOM     55  C   UNL A   1      39.149  32.236  35.961  1.00  0.00     0.057 A 
ATOM     56  C   UNL A   1      38.290  31.712  36.934  1.00  0.00     0.134 A 
ATOM     57  C   UNL A   1      39.659  33.524  36.174  1.00  0.00     0.134 A 
ATOM     58  F   UNL A   1      37.758  30.490  36.784  1.00  0.00    -0.206 F 
ATOM     59  C   UNL A   1      37.935  32.448  38.067  1.00  0.00     0.040 A 
ATOM     60  C   UNL A   1      39.329  34.261  37.312  1.00  0.00     0.040 A 
ATOM     61  F   UNL A   1      40.490  34.084  35.281  1.00  0.00    -0.206 F 
ATOM     62  C   UNL A   1      38.460  33.724  38.260  1.00  0.00     0.006 A 
ENDBRANCH  41  55
BRANCH  42  63
ATOM     63  C   UNL A   1      41.528  27.287  27.635  1.00  0.00     0.057 A 
ATOM     64  C   UNL A   1      42.303  27.905  26.648  1.00  0.00     0.134 A 
ATOM     65  C   UNL A   1      41.111  25.971  27.399  1.00  0.00     0.134 A 
ATOM     66  F   UNL A   1      42.711  29.172  26.806  1.00  0.00    -0.206 F 
ATOM     67  C   UNL A   1      42.638  27.247  25.464  1.00  0.00     0.040 A 
ATOM     68  C   UNL A   1      41.458  25.292  26.230  1.00  0.00     0.040 A 
ATOM     69  F   UNL A   1      40.362  25.325  28.305  1.00  0.00    -0.206 F 
ATOM     70  C   UNL A   1      42.219  25.934  25.256  1.00  0.00     0.006 A 
ENDBRANCH  42  63
BRANCH  54  71
ATOM     71  C   UNL A   1      44.259  27.532  34.038  1.00  0.00     0.057 A 
ATOM     72  C   UNL A   1      44.169  26.245  34.581  1.00  0.00     0.134 A 
ATOM     73  C   UNL A   1      45.515  28.153  34.051  1.00  0.00     0.134 A 
ATOM     74  F   UNL A   1      42.992  25.600  34.610  1.00  0.00    -0.206 F 
ATOM     75  C   UNL A   1      45.282  25.604  35.128  1.00  0.00     0.040 A 
ATOM     76  C   UNL A   1      46.640  27.514  34.573  1.00  0.00     0.040 A 
ATOM     77  F   UNL A   1      45.672  29.383  33.539  1.00  0.00    -0.206 F 
ATOM     78  C   UNL A   1      46.524  26.237  35.118  1.00  0.00     0.006 A 
ENDBRANCH  54  71
ENDBRANCH  28  29
ENDBRANCH  21  23
ENDBRANCH  20  21
ENDBRANCH  19  20
ENDBRANCH  18  19
ENDBRANCH  17  18
ENDBRANCH   1  17
TORSDOF 18
ENDMDL
MODEL 2
REMARK VINA RESULT:      -9.5      1.428      2.598
REMARK SMILES CCCCSc1ccccc1C(=O)OCCOCCOC(=O)c1ccc(-c2c3nc(c(-c4c(F)cccc4F)c4ccc([nH]4)c(-c4c(F)cccc4F)c4nc(c(-c5c(F)cccc5F)c5ccc2[nH]5)C=C4)C=C3)cc1
REMARK SMILES IDX 16 1 15 2 14 3 12 4 13 5 11 6 6 7 7 8 8 9 10 10 9 11 5 12
REMARK SMILES IDX 4 13 3 14 2 15 1 16 17 17 18 18 19 19 20 20 21 21 22 22
REMARK SMILES IDX 23 23 24 24 76 25 25 26 75 27 26 28 27 29 28 30 69 31 29 32
REMARK SMILES IDX 74 33 68 34 70 35 30 36 73 37 67 38 66 39 31 41 57 42 40 43
REMARK SMILES IDX 56 44 41 45 44 46 55 47 71 48 42 49 43 50 54 52 72 53 45 54
REMARK SMILES IDX 32 55 33 56 38 57 34 58 35 59 37 60 39 61 36 62 58 63 59 64
REMARK SMILES IDX 64 65 60 66 61 67 63 68 65 69 62 70 46 71 47 72 52 73 48 74
REMARK SMILES IDX 49 75 51 76 53 77 50 78
REMARK H PARENT 70 40 44 51
REMARK Flexibility Score: inf
ROOT
ATOM      1  C   UNL A   1      31.654  29.535  26.352  1.00  0.00     0.202 C 
ENDROOT
BRANCH   1   2
ATOM      2  C   UNL A   1      32.080  28.339  27.203  1.00  0.00     0.261 C 
BRANCH   2   3
ATOM      3  O   UNL A   1      31.076  27.309  27.187  1.00  0.00    -0.460 OA
BRANCH   3   4
ATOM      4  C   UNL A   1      30.997  26.621  26.027  1.00  0.00     0.339 C 
ATOM      5  O   UNL A   1      30.689  27.092  24.939  1.00  0.00    -0.246 OA
BRANCH   4   6
ATOM      6  C   UNL A   1      31.470  25.219  26.132  1.00  0.00     0.073 A 
ATOM      7  C   UNL A   1      32.798  24.777  26.038  1.00  0.00     0.022 A 
ATOM      8  C   UNL A   1      33.093  23.480  26.492  1.00  0.00     0.016 A 
ATOM      9  C   UNL A   1      32.087  22.581  26.851  1.00  0.00     0.001 A 
ATOM     10  C   UNL A   1      30.458  24.298  26.475  1.00  0.00     0.017 A 
ATOM     11  C   UNL A   1      30.761  22.978  26.801  1.00  0.00     0.001 A 
BRANCH   7  12
ATOM     12  S   UNL A   1      34.190  25.692  25.400  1.00  0.00    -0.125 SA
BRANCH  12  13
ATOM     13  C   UNL A   1      34.464  24.820  23.800  1.00  0.00     0.075 C 
BRANCH  13  14
ATOM     14  C   UNL A   1      33.216  24.287  23.076  1.00  0.00     0.011 C 
BRANCH  14  15
ATOM     15  C   UNL A   1      33.113  22.783  22.799  1.00  0.00    -0.003 C 
ATOM     16  C   UNL A   1      31.769  22.154  23.128  1.00  0.00     0.004 C 
ENDBRANCH  14  15
ENDBRANCH  13  14
ENDBRANCH  12  13
ENDBRANCH   7  12
ENDBRANCH   4   6
ENDBRANCH   3   4
ENDBRANCH   2   3
ENDBRANCH   1   2
BRANCH   1  17
ATOM     17  O   UNL A   1      32.303  30.772  26.639  1.00  0.00    -0.374 OA
BRANCH  17  18
ATOM     18  C   UNL A   1      31.468  31.906  26.881  1.00  0.00     0.202 C 
BRANCH  18  19
ATOM     19  C   UNL A   1      32.169  33.270  26.883  1.00  0.00     0.261 C 
BRANCH  19  20
ATOM     20  O   UNL A   1      32.219  33.844  28.204  1.00  0.00    -0.460 OA
BRANCH  20  21
ATOM     21  C   UNL A   1      33.302  34.617  28.456  1.00  0.00     0.338 C 
ATOM     22  O   UNL A   1      33.340  35.838  28.540  1.00  0.00    -0.246 OA
BRANCH  21  23
ATOM     23  C   UNL A   1      34.447  33.764  28.818  1.00  0.00     0.060 A 
ATOM     24  C   UNL A   1      34.175  32.509  29.378  1.00  0.00     0.016 A 
ATOM     25  C   UNL A   1      35.764  34.202  28.663  1.00  0.00     0.016 A 
ATOM     26  C   UNL A   1      35.219  31.697  29.817  1.00  0.00     0.010 A 
ATOM     27  C   UNL A   1      36.811  33.391  29.116  1.00  0.00     0.010 A 
ATOM     28  C   UNL A   1      36.541  32.148  29.720  1.00  0.00    -0.014 A 
BRANCH  28  29
ATOM     29  C   UNL A   1      37.632  31.380  30.366  1.00  0.00     0.031 A 
ATOM     30  C   UNL A   1      37.942  31.631  31.816  1.00  0.00     0.074 A 
ATOM     31  C   UNL A   1      38.331  30.462  29.675  1.00  0.00     0.049 A 
ATOM     32  N   UNL A   1      38.890  31.124  32.562  1.00  0.00    -0.248 NA
ATOM     33  C   UNL A   1      37.064  32.581  32.518  1.00  0.00     0.031 C 
ATOM     34  C   UNL A   1      38.098  30.098  28.280  1.00  0.00     0.029 A 
ATOM     35  N   UNL A   1      39.389  29.677  30.059  1.00  0.00    -0.354 N 
ATOM     36  C   UNL A   1      38.729  31.697  33.817  1.00  0.00     0.074 A 
ATOM     37  C   UNL A   1      37.608  32.609  33.725  1.00  0.00     0.031 C 
ATOM     38  C   UNL A   1      38.999  29.168  27.918  1.00  0.00     0.029 A 
ATOM     39  C   UNL A   1      39.891  28.900  29.045  1.00  0.00     0.049 A 
ATOM     40  H   UNL A   1      39.754  29.672  30.974  1.00  0.00     0.167 HD
ATOM     41  C   UNL A   1      39.445  31.478  34.944  1.00  0.00     0.037 A 
ATOM     42  C   UNL A   1      40.966  28.088  29.022  1.00  0.00     0.037 A 
ATOM     43  C   UNL A   1      40.558  30.570  35.034  1.00  0.00     0.049 A 
ATOM     44  C   UNL A   1      41.800  27.926  30.265  1.00  0.00     0.074 A 
ATOM     45  C   UNL A   1      41.333  30.262  36.139  1.00  0.00     0.029 A 
ATOM     46  N   UNL A   1      41.062  29.832  33.975  1.00  0.00    -0.354 N 
ATOM     47  N   UNL A   1      41.627  28.454  31.452  1.00  0.00    -0.248 NA
ATOM     48  C   UNL A   1      42.982  27.058  30.163  1.00  0.00     0.031 C 
ATOM     49  C   UNL A   1      42.336  29.374  35.737  1.00  0.00     0.029 A 
ATOM     50  C   UNL A   1      42.156  29.093  34.392  1.00  0.00     0.049 A 
ATOM     51  H   UNL A   1      40.695  29.832  33.061  1.00  0.00     0.167 HD
ATOM     52  C   UNL A   1      42.660  27.966  32.242  1.00  0.00     0.074 A 
ATOM     53  C   UNL A   1      43.449  27.089  31.403  1.00  0.00     0.031 C 
ATOM     54  C   UNL A   1      42.930  28.220  33.546  1.00  0.00     0.037 A 
BRANCH  41  55
ATOM     55  C   UNL A   1      39.061  32.255  36.169  1.00  0.00     0.057 A 
ATOM     56  C   UNL A   1      39.545  33.547  36.407  1.00  0.00     0.134 A 
ATOM     57  C   UNL A   1      38.169  31.715  37.104  1.00  0.00     0.134 A 
ATOM     58  F   UNL A   1      40.412  34.116  35.557  1.00  0.00    -0.206 F 
ATOM     59  C   UNL A   1      39.171  34.267  37.543  1.00  0.00     0.040 A 
ATOM     60  C   UNL A   1      37.769  32.433  38.232  1.00  0.00     0.040 A 
ATOM     61  F   UNL A   1      37.666  30.482  36.933  1.00  0.00    -0.206 F 
ATOM     62  C   UNL A   1      38.276  33.712  38.457  1.00  0.00     0.006 A 
ENDBRANCH  41  55
BRANCH  42  63
ATOM     63  C   UNL A   1      41.336  27.380  27.770  1.00  0.00     0.057 A 
ATOM     64  C   UNL A   1      42.116  27.998  26.788  1.00  0.00     0.134 A 
ATOM     65  C   UNL A   1      40.897  26.073  27.518  1.00  0.00     0.134 A 
ATOM     66  F   UNL A   1      42.543  29.258  26.961  1.00  0.00    -0.206 F 
ATOM     67  C   UNL A   1      42.437  27.352  25.594  1.00  0.00     0.040 A 
ATOM     68  C   UNL A   1      41.230  25.405  26.340  1.00  0.00     0.040 A 
ATOM     69  F   UNL A   1      40.142  25.426  28.418  1.00  0.00    -0.206 F 
ATOM     70  C   UNL A   1      41.997  26.048  25.370  1.00  0.00     0.006 A 
ENDBRANCH  42  63
BRANCH  54  71
ATOM     71  C   UNL A   1      44.110  27.522  34.157  1.00  0.00     0.057 A 
ATOM     72  C   UNL A   1      44.006  26.235  34.700  1.00  0.00     0.134 A 
ATOM     73  C   UNL A   1      45.375  28.122  34.154  1.00  0.00     0.134 A 
ATOM     74  F   UNL A   1      42.819  25.610  34.745  1.00  0.00    -0.206 F 
ATOM     75  C   UNL A   1      45.116  25.577  35.233  1.00  0.00     0.040 A 
ATOM     76  C   UNL A   1      46.497  27.465  34.661  1.00  0.00     0.040 A 
ATOM     77  F   UNL A   1      45.546  29.350  33.641  1.00  0.00    -0.206 F 
ATOM     78  C   UNL A   1      46.367  26.189  35.207  1.00  0.00     0.006 A 
ENDBRANCH  54  71
ENDBRANCH  28  29
ENDBRANCH  21  23
ENDBRANCH  20  21
ENDBRANCH  19  20
ENDBRANCH  18  19
ENDBRANCH  17  18
ENDBRANCH   1  17
TORSDOF 18
ENDMDL
MODEL 3
REMARK VINA RESULT:      -9.5      4.080      6.010
REMARK SMILES CCCCSc1ccccc1C(=O)OCCOCCOC(=O)c1ccc(-c2c3nc(c(-c4c(F)cccc4F)c4ccc([nH]4)c(-c4c(F)cccc4F)c4nc(c(-c5c(F)cccc5F)c5ccc2[nH]5)C=C4)C=C3)cc1
REMARK SMILES IDX 16 1 15 2 14 3 12 4 13 5 11 6 6 7 7 8 8 9 10 10 9 11 5 12
REMARK SMILES IDX 4 13 3 14 2 15 1 16 17 17 18 18 19 19 20 20 21 21 22 22
REMARK SMILES IDX 23 23 24 24 76 25 25 26 75 27 26 28 27 29 28 30 69 31 29 32
REMARK SMILES IDX 74 33 68 34 70 35 30 36 73 37 67 38 66 39 31 41 57 42 40 43
REMARK SMILES IDX 56 44 41 45 44 46 55 47 71 48 42 49 43 50 54 52 72 53 45 54
REMARK SMILES IDX 32 55 33 56 38 57 34 58 35 59 37 60 39 61 36 62 58 63 59 64
REMARK SMILES IDX 64 65 60 66 61 67 63 68 65 69 62 70 46 71 47 72 52 73 48 74
REMARK SMILES IDX 49 75 51 76 53 77 50 78
REMARK H PARENT 70 40 44 51
REMARK Flexibility Score: inf
ROOT
ATOM      1  C   UNL A   1      31.921  26.340  24.458  1.00  0.00     0.202 C 
ENDROOT
BRANCH   1   2
ATOM      2  C   UNL A   1      32.864  25.625  23.492  1.00  0.00     0.261 C 
BRANCH   2   3
ATOM      3  O   UNL A   1      32.623  24.207  23.490  1.00  0.00    -0.460 OA
BRANCH   3   4
ATOM      4  C   UNL A   1      33.538  23.483  22.808  1.00  0.00     0.339 C 
ATOM      5  O   UNL A   1      33.652  23.447  21.589  1.00  0.00    -0.246 OA
BRANCH   4   6
ATOM      6  C   UNL A   1      34.537  22.814  23.677  1.00  0.00     0.073 A 
ATOM      7  C   UNL A   1      34.305  21.726  24.531  1.00  0.00     0.022 A 
ATOM      8  C   UNL A   1      35.419  21.020  25.014  1.00  0.00     0.016 A 
ATOM      9  C   UNL A   1      36.722  21.480  24.816  1.00  0.00     0.001 A 
ATOM     10  C   UNL A   1      35.855  23.285  23.501  1.00  0.00     0.017 A 
ATOM     11  C   UNL A   1      36.938  22.642  24.094  1.00  0.00     0.001 A 
BRANCH   7  12
ATOM     12  S   UNL A   1      32.722  21.115  25.085  1.00  0.00    -0.125 SA
BRANCH  12  13
ATOM     13  C   UNL A   1      32.421  19.784  23.848  1.00  0.00     0.075 C 
BRANCH  13  14
ATOM     14  C   UNL A   1      32.860  18.362  24.237  1.00  0.00     0.011 C 
BRANCH  14  15
ATOM     15  C   UNL A   1      33.070  17.328  23.124  1.00  0.00    -0.003 C 
ATOM     16  C   UNL A   1      34.401  16.595  23.165  1.00  0.00     0.004 C 
ENDBRANCH  14  15
ENDBRANCH  13  14
ENDBRANCH  12  13
ENDBRANCH   7  12
ENDBRANCH   4   6
ENDBRANCH   3   4
ENDBRANCH   2   3
ENDBRANCH   1   2
BRANCH   1  17
ATOM     17  O   UNL A   1      32.127  27.743  24.612  1.00  0.00    -0.374 OA
BRANCH  17  18
ATOM     18  C   UNL A   1      32.416  28.220  25.928  1.00  0.00     0.202 C 
BRANCH  18  19
ATOM     19  C   UNL A   1      33.899  28.422  26.260  1.00  0.00     0.261 C 
BRANCH  19  20
ATOM     20  O   UNL A   1      34.095  28.776  27.644  1.00  0.00    -0.460 OA
BRANCH  20  21
ATOM     21  C   UNL A   1      34.685  29.976  27.854  1.00  0.00     0.338 C 
ATOM     22  O   UNL A   1      34.143  31.074  27.894  1.00  0.00    -0.246 OA
BRANCH  21  23
ATOM     23  C   UNL A   1      36.096  29.777  28.230  1.00  0.00     0.060 A 
ATOM     24  C   UNL A   1      37.072  30.004  27.251  1.00  0.00     0.016 A 
ATOM     25  C   UNL A   1      36.458  29.327  29.501  1.00  0.00     0.016 A 
ATOM     26  C   UNL A   1      38.413  29.750  27.527  1.00  0.00     0.010 A 
ATOM     27  C   UNL A   1      37.805  29.061  29.774  1.00  0.00     0.010 A 
ATOM     28  C   UNL A   1      38.784  29.244  28.779  1.00  0.00    -0.014 A 
BRANCH  28  29
ATOM     29  C   UNL A   1      40.175  28.785  29.007  1.00  0.00     0.031 A 
ATOM     30  C   UNL A   1      41.157  29.721  29.653  1.00  0.00     0.074 A 
ATOM     31  C   UNL A   1      40.556  27.544  28.655  1.00  0.00     0.049 A 
ATOM     32  N   UNL A   1      42.433  29.553  29.887  1.00  0.00    -0.248 NA
ATOM     33  C   UNL A   1      40.628  31.022  30.094  1.00  0.00     0.031 C 
ATOM     34  C   UNL A   1      39.688  26.529  28.062  1.00  0.00     0.029 A 
ATOM     35  N   UNL A   1      41.782  26.934  28.738  1.00  0.00    -0.354 N 
ATOM     36  C   UNL A   1      42.862  30.726  30.495  1.00  0.00     0.074 A 
ATOM     37  C   UNL A   1      41.716  31.608  30.570  1.00  0.00     0.031 C 
ATOM     38  C   UNL A   1      40.414  25.424  27.820  1.00  0.00     0.029 A 
ATOM     39  C   UNL A   1      41.801  25.667  28.208  1.00  0.00     0.049 A 
ATOM     40  H   UNL A   1      42.572  27.363  29.139  1.00  0.00     0.167 HD
ATOM     41  C   UNL A   1      44.097  31.037  30.955  1.00  0.00     0.037 A 
ATOM     42  C   UNL A   1      42.829  24.815  28.031  1.00  0.00     0.037 A 
ATOM     43  C   UNL A   1      45.234  30.160  30.881  1.00  0.00     0.049 A 
ATOM     44  C   UNL A   1      44.212  25.217  28.472  1.00  0.00     0.074 A 
ATOM     45  C   UNL A   1      46.522  30.376  31.340  1.00  0.00     0.029 A 
ATOM     46  N   UNL A   1      45.224  28.901  30.300  1.00  0.00    -0.354 N 
ATOM     47  N   UNL A   1      44.603  26.318  29.065  1.00  0.00    -0.248 NA
ATOM     48  C   UNL A   1      45.296  24.258  28.214  1.00  0.00     0.031 C 
ATOM     49  C   UNL A   1      47.302  29.268  30.995  1.00  0.00     0.029 A 
ATOM     50  C   UNL A   1      46.489  28.341  30.362  1.00  0.00     0.049 A 
ATOM     51  H   UNL A   1      44.433  28.469  29.904  1.00  0.00     0.167 HD
ATOM     52  C   UNL A   1      45.970  26.176  29.273  1.00  0.00     0.074 A 
ATOM     53  C   UNL A   1      46.338  24.877  28.752  1.00  0.00     0.031 C 
ATOM     54  C   UNL A   1      46.840  27.044  29.843  1.00  0.00     0.037 A 
BRANCH  41  55
ATOM     55  C   UNL A   1      44.287  32.398  31.557  1.00  0.00     0.057 A 
ATOM     56  C   UNL A   1      44.124  32.630  32.928  1.00  0.00     0.134 A 
ATOM     57  C   UNL A   1      44.671  33.483  30.758  1.00  0.00     0.134 A 
ATOM     58  F   UNL A   1      43.746  31.636  33.746  1.00  0.00    -0.206 F 
ATOM     59  C   UNL A   1      44.317  33.897  33.482  1.00  0.00     0.040 A 
ATOM     60  C   UNL A   1      44.888  34.750  31.302  1.00  0.00     0.040 A 
ATOM     61  F   UNL A   1      44.846  33.328  29.437  1.00  0.00    -0.206 F 
ATOM     62  C   UNL A   1      44.706  34.961  32.668  1.00  0.00     0.006 A 
ENDBRANCH  41  55
BRANCH  42  63
ATOM     63  C   UNL A   1      42.600  23.498  27.383  1.00  0.00     0.057 A 
ATOM     64  C   UNL A   1      42.684  23.348  25.995  1.00  0.00     0.134 A 
ATOM     65  C   UNL A   1      42.268  22.365  28.136  1.00  0.00     0.134 A 
ATOM     66  F   UNL A   1      42.972  24.402  25.218  1.00  0.00    -0.206 F 
ATOM     67  C   UNL A   1      42.434  22.122  25.376  1.00  0.00     0.040 A 
ATOM     68  C   UNL A   1      42.039  21.128  27.534  1.00  0.00     0.040 A 
ATOM     69  F   UNL A   1      42.167  22.445  29.472  1.00  0.00    -0.206 F 
ATOM     70  C   UNL A   1      42.116  21.006  26.148  1.00  0.00     0.006 A 
ENDBRANCH  42  63
BRANCH  54  71
ATOM     71  C   UNL A   1      48.272  26.609  29.963  1.00  0.00     0.057 A 
ATOM     72  C   UNL A   1      49.222  26.920  28.982  1.00  0.00     0.134 A 
ATOM     73  C   UNL A   1      48.716  25.916  31.097  1.00  0.00     0.134 A 
ATOM     74  F   UNL A   1      48.860  27.571  27.866  1.00  0.00    -0.206 F 
ATOM     75  C   UNL A   1      50.560  26.543  29.119  1.00  0.00     0.040 A 
ATOM     76  C   UNL A   1      50.054  25.556  31.256  1.00  0.00     0.040 A 
ATOM     77  F   UNL A   1      47.858  25.595  32.078  1.00  0.00    -0.206 F 
ATOM     78  C   UNL A   1      50.980  25.867  30.262  1.00  0.00     0.006 A 
ENDBRANCH  54  71
ENDBRANCH  28  29
ENDBRANCH  21  23
ENDBRANCH  20  21
ENDBRANCH  19  20
ENDBRANCH  18  19
ENDBRANCH  17  18
ENDBRANCH   1  17
TORSDOF 18
ENDMDL
