MODEL 1
REMARK VINA RESULT:     -11.5      0.000      0.000
REMARK SMILES COc1ccc(N2C(=O)S[C@@H](CC(=O)Nc3nc(CC(=O)OCCOCCOC(=O)c4ccc(-c5c6nc(c(-c7c(F)cccc7F)c7ccc([nH]7)c(-c7c(F)cccc7F)c7nc(c(-c8c(F)cccc8F)c8ccc5[nH]8)C=C7)C=C6)cc4)cs3)C2=O)cc1
REMARK SMILES IDX 23 1 22 2 20 3 21 4 19 5 18 6 16 7 17 8 86 9 85 10 15 11
REMARK SMILES IDX 13 12 14 13 12 15 11 16 7 17 8 18 87 19 9 20 10 21 88 22
REMARK SMILES IDX 6 23 3 24 4 25 90 26 5 27 89 28 2 29 1 30 24 31 25 32 26 33
REMARK SMILES IDX 27 34 28 35 29 36 30 37 31 38 32 39 84 40 33 41 83 42 34 43
REMARK SMILES IDX 35 44 36 45 77 46 37 47 82 48 76 49 78 50 38 51 81 52 75 53
REMARK SMILES IDX 74 54 39 56 65 57 48 58 64 59 49 60 52 61 63 62 79 63 50 64
REMARK SMILES IDX 51 65 62 67 80 68 53 69 40 70 41 71 46 72 42 73 43 74 45 75
REMARK SMILES IDX 47 76 44 77 66 78 67 79 72 80 68 81 69 82 71 83 73 84 70 85
REMARK SMILES IDX 54 86 55 87 60 88 56 89 57 90 59 91 61 92 58 93
REMARK H PARENT 15 14 78 55 52 66
REMARK Flexibility Score: inf
ROOT
ATOM      1  C   UNL A   1      41.472  19.403  26.052  1.00  0.00     0.261 C 
ENDROOT
BRANCH   1   2
ATOM      2  O   UNL A   1      41.204  19.945  27.359  1.00  0.00    -0.463 OA
BRANCH   2   3
ATOM      3  C   UNL A   1      40.909  21.271  27.388  1.00  0.00     0.311 C 
ATOM      4  O   UNL A   1      41.021  21.982  28.384  1.00  0.00    -0.252 OA
BRANCH   3   5
ATOM      5  C   UNL A   1      40.460  21.863  26.077  1.00  0.00     0.179 C 
BRANCH   5   6
ATOM      6  C   UNL A   1      39.021  22.230  25.908  1.00  0.00     0.065 A 
ATOM      7  C   UNL A   1      36.904  21.664  25.654  1.00  0.00     0.189 A 
ATOM      8  N   UNL A   1      38.126  21.215  25.627  1.00  0.00    -0.224 NA
ATOM      9  S   UNL A   1      36.715  23.333  25.905  1.00  0.00    -0.105 S 
ATOM     10  C   UNL A   1      38.410  23.441  26.185  1.00  0.00     0.093 A 
BRANCH   7  11
ATOM     11  N   UNL A   1      35.756  20.947  25.553  1.00  0.00    -0.302 N 
ATOM     12  C   UNL A   1      34.694  21.260  24.766  1.00  0.00     0.227 C 
ATOM     13  O   UNL A   1      33.711  20.515  24.819  1.00  0.00    -0.275 OA
ATOM     14  H   UNL A   1      35.688  20.129  26.096  1.00  0.00     0.172 HD
BRANCH  12  15
ATOM     15  C   UNL A   1      34.695  22.452  23.814  1.00  0.00     0.125 C 
BRANCH  15  16
ATOM     16  C   UNL A   1      33.321  22.969  23.385  1.00  0.00     0.156 C 
ATOM     17  N   UNL A   1      32.940  25.285  23.853  1.00  0.00    -0.240 N 
ATOM     18  C   UNL A   1      33.225  25.395  22.508  1.00  0.00     0.293 C 
ATOM     19  C   UNL A   1      32.757  23.998  24.329  1.00  0.00     0.248 C 
ATOM     20  O   UNL A   1      33.428  26.396  21.845  1.00  0.00    -0.261 OA
ATOM     21  S   UNL A   1      33.280  23.800  21.770  1.00  0.00    -0.050 SA
ATOM     22  O   UNL A   1      32.174  23.669  25.359  1.00  0.00    -0.273 OA
BRANCH  17  23
ATOM     23  C   UNL A   1      32.709  26.412  24.691  1.00  0.00     0.053 A 
ATOM     24  C   UNL A   1      32.310  28.737  26.233  1.00  0.00     0.119 A 
ATOM     25  C   UNL A   1      31.399  28.392  25.239  1.00  0.00     0.048 A 
ATOM     26  C   UNL A   1      33.393  27.900  26.489  1.00  0.00     0.048 A 
ATOM     27  C   UNL A   1      31.609  27.253  24.457  1.00  0.00     0.031 A 
ATOM     28  C   UNL A   1      33.577  26.731  25.741  1.00  0.00     0.031 A 
BRANCH  24  29
ATOM     29  O   UNL A   1      32.036  29.880  26.929  1.00  0.00    -0.497 OA
ATOM     30  C   UNL A   1      31.521  30.946  26.133  1.00  0.00     0.278 C 
ENDBRANCH  24  29
ENDBRANCH  17  23
ENDBRANCH  15  16
ENDBRANCH  12  15
ENDBRANCH   7  11
ENDBRANCH   5   6
ENDBRANCH   3   5
ENDBRANCH   2   3
ENDBRANCH   1   2
BRANCH   1  31
ATOM     31  C   UNL A   1      42.965  19.176  25.791  1.00  0.00     0.202 C 
BRANCH  31  32
ATOM     32  O   UNL A   1      43.550  19.810  24.656  1.00  0.00    -0.374 OA
BRANCH  32  33
ATOM     33  C   UNL A   1      44.570  20.779  24.885  1.00  0.00     0.202 C 
BRANCH  33  34
ATOM     34  C   UNL A   1      44.223  22.007  25.739  1.00  0.00     0.261 C 
BRANCH  34  35
ATOM     35  O   UNL A   1      43.619  23.076  24.994  1.00  0.00    -0.460 OA
BRANCH  35  36
ATOM     36  C   UNL A   1      44.222  24.277  25.174  1.00  0.00     0.338 C 
ATOM     37  O   UNL A   1      45.227  24.688  24.617  1.00  0.00    -0.246 OA
BRANCH  36  38
ATOM     38  C   UNL A   1      43.410  25.157  26.032  1.00  0.00     0.060 A 
ATOM     39  C   UNL A   1      43.920  26.437  26.287  1.00  0.00     0.016 A 
ATOM     40  C   UNL A   1      42.259  24.706  26.679  1.00  0.00     0.016 A 
ATOM     41  C   UNL A   1      43.315  27.250  27.240  1.00  0.00     0.010 A 
ATOM     42  C   UNL A   1      41.656  25.524  27.642  1.00  0.00     0.010 A 
ATOM     43  C   UNL A   1      42.204  26.782  27.955  1.00  0.00    -0.014 A 
BRANCH  43  44
ATOM     44  C   UNL A   1      41.708  27.571  29.107  1.00  0.00     0.031 A 
ATOM     45  C   UNL A   1      42.410  27.467  30.434  1.00  0.00     0.074 A 
ATOM     46  C   UNL A   1      40.676  28.418  28.954  1.00  0.00     0.049 A 
ATOM     47  N   UNL A   1      42.146  28.076  31.562  1.00  0.00    -0.248 NA
ATOM     48  C   UNL A   1      43.567  26.560  30.495  1.00  0.00     0.031 C 
ATOM     49  C   UNL A   1      39.945  28.638  27.707  1.00  0.00     0.029 A 
ATOM     50  N   UNL A   1      40.059  29.246  29.858  1.00  0.00    -0.354 N 
ATOM     51  C   UNL A   1      43.102  27.626  32.465  1.00  0.00     0.074 A 
ATOM     52  C   UNL A   1      43.927  26.665  31.765  1.00  0.00     0.031 C 
ATOM     53  C   UNL A   1      38.970  29.538  27.926  1.00  0.00     0.029 A 
ATOM     54  C   UNL A   1      38.995  29.936  29.332  1.00  0.00     0.049 A 
ATOM     55  H   UNL A   1      40.352  29.336  30.793  1.00  0.00     0.167 HD
ATOM     56  C   UNL A   1      43.281  27.990  33.758  1.00  0.00     0.037 A 
ATOM     57  C   UNL A   1      38.128  30.779  29.925  1.00  0.00     0.037 A 
ATOM     58  C   UNL A   1      42.457  28.947  34.451  1.00  0.00     0.049 A 
ATOM     59  C   UNL A   1      38.300  31.108  31.382  1.00  0.00     0.074 A 
ATOM     60  C   UNL A   1      42.566  29.397  35.755  1.00  0.00     0.029 A 
ATOM     61  N   UNL A   1      41.361  29.592  33.897  1.00  0.00    -0.354 N 
ATOM     62  N   UNL A   1      39.220  30.695  32.221  1.00  0.00    -0.248 NA
ATOM     63  C   UNL A   1      37.318  32.026  31.975  1.00  0.00     0.031 C 
ATOM     64  C   UNL A   1      41.501  30.265  36.010  1.00  0.00     0.029 A 
ATOM     65  C   UNL A   1      40.765  30.409  34.844  1.00  0.00     0.049 A 
ATOM     66  H   UNL A   1      41.054  29.486  32.968  1.00  0.00     0.167 HD
ATOM     67  C   UNL A   1      38.948  31.327  33.429  1.00  0.00     0.074 A 
ATOM     68  C   UNL A   1      37.783  32.159  33.209  1.00  0.00     0.031 C 
ATOM     69  C   UNL A   1      39.604  31.231  34.612  1.00  0.00     0.037 A 
BRANCH  56  70
ATOM     70  C   UNL A   1      44.394  27.327  34.520  1.00  0.00     0.057 A 
ATOM     71  C   UNL A   1      44.211  26.125  35.216  1.00  0.00     0.134 A 
ATOM     72  C   UNL A   1      45.682  27.882  34.524  1.00  0.00     0.134 A 
ATOM     73  F   UNL A   1      43.001  25.545  35.263  1.00  0.00    -0.206 F 
ATOM     74  C   UNL A   1      45.257  25.513  35.909  1.00  0.00     0.040 A 
ATOM     75  C   UNL A   1      46.743  27.264  35.188  1.00  0.00     0.040 A 
ATOM     76  F   UNL A   1      45.933  29.026  33.871  1.00  0.00    -0.206 F 
ATOM     77  C   UNL A   1      46.530  26.080  35.889  1.00  0.00     0.006 A 
ENDBRANCH  56  70
BRANCH  57  78
ATOM     78  C   UNL A   1      37.011  31.364  29.139  1.00  0.00     0.057 A 
ATOM     79  C   UNL A   1      37.039  32.695  28.713  1.00  0.00     0.134 A 
ATOM     80  C   UNL A   1      35.881  30.603  28.810  1.00  0.00     0.134 A 
ATOM     81  F   UNL A   1      38.083  33.480  29.015  1.00  0.00    -0.206 F 
ATOM     82  C   UNL A   1      35.976  33.257  28.002  1.00  0.00     0.040 A 
ATOM     83  C   UNL A   1      34.825  31.143  28.076  1.00  0.00     0.040 A 
ATOM     84  F   UNL A   1      35.798  29.319  29.187  1.00  0.00    -0.206 F 
ATOM     85  C   UNL A   1      34.867  32.478  27.678  1.00  0.00     0.006 A 
ENDBRANCH  57  78
BRANCH  69  86
ATOM     86  C   UNL A   1      39.100  32.070  35.751  1.00  0.00     0.057 A 
ATOM     87  C   UNL A   1      38.229  31.557  36.722  1.00  0.00     0.134 A 
ATOM     88  C   UNL A   1      39.520  33.398  35.899  1.00  0.00     0.134 A 
ATOM     89  F   UNL A   1      37.779  30.296  36.634  1.00  0.00    -0.206 F 
ATOM     90  C   UNL A   1      37.776  32.344  37.783  1.00  0.00     0.040 A 
ATOM     91  C   UNL A   1      39.099  34.184  36.973  1.00  0.00     0.040 A 
ATOM     92  F   UNL A   1      40.362  33.950  35.010  1.00  0.00    -0.206 F 
ATOM     93  C   UNL A   1      38.217  33.659  37.914  1.00  0.00     0.006 A 
ENDBRANCH  69  86
ENDBRANCH  43  44
ENDBRANCH  36  38
ENDBRANCH  35  36
ENDBRANCH  34  35
ENDBRANCH  33  34
ENDBRANCH  32  33
ENDBRANCH  31  32
ENDBRANCH   1  31
TORSDOF 20
ENDMDL
MODEL 2
REMARK VINA RESULT:     -11.0      4.476      7.033
REMARK SMILES COc1ccc(N2C(=O)S[C@@H](CC(=O)Nc3nc(CC(=O)OCCOCCOC(=O)c4ccc(-c5c6nc(c(-c7c(F)cccc7F)c7ccc([nH]7)c(-c7c(F)cccc7F)c7nc(c(-c8c(F)cccc8F)c8ccc5[nH]8)C=C7)C=C6)cc4)cs3)C2=O)cc1
REMARK SMILES IDX 23 1 22 2 20 3 21 4 19 5 18 6 16 7 17 8 86 9 85 10 15 11
REMARK SMILES IDX 13 12 14 13 12 15 11 16 7 17 8 18 87 19 9 20 10 21 88 22
REMARK SMILES IDX 6 23 3 24 4 25 90 26 5 27 89 28 2 29 1 30 24 31 25 32 26 33
REMARK SMILES IDX 27 34 28 35 29 36 30 37 31 38 32 39 84 40 33 41 83 42 34 43
REMARK SMILES IDX 35 44 36 45 77 46 37 47 82 48 76 49 78 50 38 51 81 52 75 53
REMARK SMILES IDX 74 54 39 56 65 57 48 58 64 59 49 60 52 61 63 62 79 63 50 64
REMARK SMILES IDX 51 65 62 67 80 68 53 69 40 70 41 71 46 72 42 73 43 74 45 75
REMARK SMILES IDX 47 76 44 77 66 78 67 79 72 80 68 81 69 82 71 83 73 84 70 85
REMARK SMILES IDX 54 86 55 87 60 88 56 89 57 90 59 91 61 92 58 93
REMARK H PARENT 15 14 78 55 52 66
REMARK Flexibility Score: inf
ROOT
ATOM      1  C   UNL A   1      39.293  22.818  26.510  1.00  0.00     0.261 C 
ENDROOT
BRANCH   1   2
ATOM      2  O   UNL A   1      38.458  21.813  25.906  1.00  0.00    -0.463 OA
BRANCH   2   3
ATOM      3  C   UNL A   1      37.245  22.249  25.476  1.00  0.00     0.311 C 
ATOM      4  O   UNL A   1      36.940  23.434  25.352  1.00  0.00    -0.252 OA
BRANCH   3   5
ATOM      5  C   UNL A   1      36.263  21.168  25.104  1.00  0.00     0.179 C 
BRANCH   5   6
ATOM      6  C   UNL A   1      34.852  21.553  24.793  1.00  0.00     0.065 A 
ATOM      7  C   UNL A   1      32.792  22.010  25.433  1.00  0.00     0.189 A 
ATOM      8  N   UNL A   1      33.930  21.511  25.821  1.00  0.00    -0.224 NA
ATOM      9  S   UNL A   1      32.681  22.469  23.802  1.00  0.00    -0.105 S 
ATOM     10  C   UNL A   1      34.363  22.142  23.639  1.00  0.00     0.093 A 
BRANCH   7  11
ATOM     11  N   UNL A   1      31.693  22.252  26.192  1.00  0.00    -0.302 N 
ATOM     12  C   UNL A   1      31.360  23.447  26.747  1.00  0.00     0.227 C 
ATOM     13  O   UNL A   1      30.340  23.486  27.440  1.00  0.00    -0.275 OA
ATOM     14  H   UNL A   1      31.083  21.497  26.354  1.00  0.00     0.172 HD
BRANCH  12  15
ATOM     15  C   UNL A   1      32.170  24.719  26.511  1.00  0.00     0.125 C 
BRANCH  15  16
ATOM     16  C   UNL A   1      31.388  25.921  25.977  1.00  0.00     0.156 C 
ATOM     17  N   UNL A   1      32.594  27.988  26.017  1.00  0.00    -0.240 N 
ATOM     18  C   UNL A   1      32.745  27.692  24.678  1.00  0.00     0.293 C 
ATOM     19  C   UNL A   1      31.694  27.198  26.713  1.00  0.00     0.248 C 
ATOM     20  O   UNL A   1      33.461  28.224  23.850  1.00  0.00    -0.261 OA
ATOM     21  S   UNL A   1      31.712  26.338  24.239  1.00  0.00    -0.050 SA
ATOM     22  O   UNL A   1      31.144  27.470  27.777  1.00  0.00    -0.273 OA
BRANCH  17  23
ATOM     23  C   UNL A   1      33.208  29.112  26.637  1.00  0.00     0.053 A 
ATOM     24  C   UNL A   1      34.451  31.400  27.715  1.00  0.00     0.119 A 
ATOM     25  C   UNL A   1      33.130  31.460  27.282  1.00  0.00     0.048 A 
ATOM     26  C   UNL A   1      35.137  30.189  27.654  1.00  0.00     0.048 A 
ATOM     27  C   UNL A   1      32.521  30.334  26.724  1.00  0.00     0.031 A 
ATOM     28  C   UNL A   1      34.511  29.046  27.143  1.00  0.00     0.031 A 
BRANCH  24  29
ATOM     29  O   UNL A   1      34.971  32.556  28.224  1.00  0.00    -0.497 OA
ATOM     30  C   UNL A   1      34.111  33.689  28.110  1.00  0.00     0.278 C 
ENDBRANCH  24  29
ENDBRANCH  17  23
ENDBRANCH  15  16
ENDBRANCH  12  15
ENDBRANCH   7  11
ENDBRANCH   5   6
ENDBRANCH   3   5
ENDBRANCH   2   3
ENDBRANCH   1   2
BRANCH   1  31
ATOM     31  C   UNL A   1      40.601  22.252  27.076  1.00  0.00     0.202 C 
BRANCH  31  32
ATOM     32  O   UNL A   1      41.367  21.381  26.247  1.00  0.00    -0.374 OA
BRANCH  32  33
ATOM     33  C   UNL A   1      41.398  19.997  26.583  1.00  0.00     0.202 C 
BRANCH  33  34
ATOM     34  C   UNL A   1      42.546  19.142  26.025  1.00  0.00     0.261 C 
BRANCH  34  35
ATOM     35  O   UNL A   1      42.969  19.532  24.709  1.00  0.00    -0.460 OA
BRANCH  35  36
ATOM     36  C   UNL A   1      44.315  19.625  24.572  1.00  0.00     0.338 C 
ATOM     37  O   UNL A   1      45.076  18.762  24.165  1.00  0.00    -0.246 OA
BRANCH  36  38
ATOM     38  C   UNL A   1      44.779  21.001  24.817  1.00  0.00     0.060 A 
ATOM     39  C   UNL A   1      45.353  21.260  26.069  1.00  0.00     0.016 A 
ATOM     40  C   UNL A   1      44.542  22.037  23.913  1.00  0.00     0.016 A 
ATOM     41  C   UNL A   1      45.633  22.569  26.449  1.00  0.00     0.010 A 
ATOM     42  C   UNL A   1      44.820  23.354  24.301  1.00  0.00     0.010 A 
ATOM     43  C   UNL A   1      45.329  23.628  25.583  1.00  0.00    -0.014 A 
BRANCH  43  44
ATOM     44  C   UNL A   1      45.435  25.018  26.086  1.00  0.00     0.031 A 
ATOM     45  C   UNL A   1      46.765  25.721  26.045  1.00  0.00     0.074 A 
ATOM     46  C   UNL A   1      44.342  25.667  26.523  1.00  0.00     0.049 A 
ATOM     47  N   UNL A   1      47.073  26.936  26.424  1.00  0.00    -0.248 NA
ATOM     48  C   UNL A   1      47.896  24.956  25.497  1.00  0.00     0.031 C 
ATOM     49  C   UNL A   1      42.992  25.106  26.569  1.00  0.00     0.029 A 
ATOM     50  N   UNL A   1      44.197  26.938  27.017  1.00  0.00    -0.354 N 
ATOM     51  C   UNL A   1      48.431  27.079  26.161  1.00  0.00     0.074 A 
ATOM     52  C   UNL A   1      48.895  25.817  25.627  1.00  0.00     0.031 C 
ATOM     53  C   UNL A   1      42.155  26.028  27.074  1.00  0.00     0.029 A 
ATOM     54  C   UNL A   1      42.913  27.231  27.408  1.00  0.00     0.049 A 
ATOM     55  H   UNL A   1      44.941  27.579  27.085  1.00  0.00     0.167 HD
ATOM     56  C   UNL A   1      49.217  28.169  26.340  1.00  0.00     0.037 A 
ATOM     57  C   UNL A   1      42.413  28.340  27.986  1.00  0.00     0.037 A 
ATOM     58  C   UNL A   1      48.751  29.423  26.873  1.00  0.00     0.049 A 
ATOM     59  C   UNL A   1      43.322  29.509  28.246  1.00  0.00     0.074 A 
ATOM     60  C   UNL A   1      49.463  30.592  27.077  1.00  0.00     0.029 A 
ATOM     61  N   UNL A   1      47.453  29.667  27.297  1.00  0.00    -0.354 N 
ATOM     62  N   UNL A   1      44.598  29.643  27.974  1.00  0.00    -0.248 NA
ATOM     63  C   UNL A   1      42.721  30.687  28.889  1.00  0.00     0.031 C 
ATOM     64  C   UNL A   1      48.613  31.522  27.683  1.00  0.00     0.029 A 
ATOM     65  C   UNL A   1      47.353  30.956  27.796  1.00  0.00     0.049 A 
ATOM     66  H   UNL A   1      46.713  29.020  27.251  1.00  0.00     0.167 HD
ATOM     67  C   UNL A   1      44.944  30.926  28.380  1.00  0.00     0.074 A 
ATOM     68  C   UNL A   1      43.740  31.534  28.908  1.00  0.00     0.031 C 
ATOM     69  C   UNL A   1      46.148  31.548  28.319  1.00  0.00     0.037 A 
BRANCH  56  70
ATOM     70  C   UNL A   1      50.671  28.043  25.985  1.00  0.00     0.057 A 
ATOM     71  C   UNL A   1      51.133  28.175  24.669  1.00  0.00     0.134 A 
ATOM     72  C   UNL A   1      51.631  27.824  26.984  1.00  0.00     0.134 A 
ATOM     73  F   UNL A   1      50.268  28.375  23.662  1.00  0.00    -0.206 F 
ATOM     74  C   UNL A   1      52.490  28.068  24.355  1.00  0.00     0.040 A 
ATOM     75  C   UNL A   1      52.993  27.745  26.687  1.00  0.00     0.040 A 
ATOM     76  F   UNL A   1      51.261  27.696  28.267  1.00  0.00    -0.206 F 
ATOM     77  C   UNL A   1      53.424  27.860  25.368  1.00  0.00     0.006 A 
ENDBRANCH  56  70
BRANCH  57  78
ATOM     78  C   UNL A   1      40.978  28.391  28.368  1.00  0.00     0.057 A 
ATOM     79  C   UNL A   1      40.539  27.931  29.614  1.00  0.00     0.134 A 
ATOM     80  C   UNL A   1      40.011  28.890  27.486  1.00  0.00     0.134 A 
ATOM     81  F   UNL A   1      41.414  27.421  30.493  1.00  0.00    -0.206 F 
ATOM     82  C   UNL A   1      39.187  27.947  29.964  1.00  0.00     0.040 A 
ATOM     83  C   UNL A   1      38.661  28.940  27.833  1.00  0.00     0.040 A 
ATOM     84  F   UNL A   1      40.370  29.351  26.279  1.00  0.00    -0.206 F 
ATOM     85  C   UNL A   1      38.245  28.459  29.074  1.00  0.00     0.006 A 
ENDBRANCH  57  78
BRANCH  69  86
ATOM     86  C   UNL A   1      46.216  32.968  28.804  1.00  0.00     0.057 A 
ATOM     87  C   UNL A   1      45.958  34.054  27.957  1.00  0.00     0.134 A 
ATOM     88  C   UNL A   1      46.508  33.250  30.145  1.00  0.00     0.134 A 
ATOM     89  F   UNL A   1      45.683  33.855  26.659  1.00  0.00    -0.206 F 
ATOM     90  C   UNL A   1      46.014  35.370  28.422  1.00  0.00     0.040 A 
ATOM     91  C   UNL A   1      46.535  34.559  30.628  1.00  0.00     0.040 A 
ATOM     92  F   UNL A   1      46.755  32.256  31.013  1.00  0.00    -0.206 F 
ATOM     93  C   UNL A   1      46.296  35.624  29.763  1.00  0.00     0.006 A 
ENDBRANCH  69  86
ENDBRANCH  43  44
ENDBRANCH  36  38
ENDBRANCH  35  36
ENDBRANCH  34  35
ENDBRANCH  33  34
ENDBRANCH  32  33
ENDBRANCH  31  32
ENDBRANCH   1  31
TORSDOF 20
ENDMDL
MODEL 3
REMARK VINA RESULT:     -11.0      0.529      5.934
REMARK SMILES COc1ccc(N2C(=O)S[C@@H](CC(=O)Nc3nc(CC(=O)OCCOCCOC(=O)c4ccc(-c5c6nc(c(-c7c(F)cccc7F)c7ccc([nH]7)c(-c7c(F)cccc7F)c7nc(c(-c8c(F)cccc8F)c8ccc5[nH]8)C=C7)C=C6)cc4)cs3)C2=O)cc1
REMARK SMILES IDX 23 1 22 2 20 3 21 4 19 5 18 6 16 7 17 8 86 9 85 10 15 11
REMARK SMILES IDX 13 12 14 13 12 15 11 16 7 17 8 18 87 19 9 20 10 21 88 22
REMARK SMILES IDX 6 23 3 24 4 25 90 26 5 27 89 28 2 29 1 30 24 31 25 32 26 33
REMARK SMILES IDX 27 34 28 35 29 36 30 37 31 38 32 39 84 40 33 41 83 42 34 43
REMARK SMILES IDX 35 44 36 45 77 46 37 47 82 48 76 49 78 50 38 51 81 52 75 53
REMARK SMILES IDX 74 54 39 56 65 57 48 58 64 59 49 60 52 61 63 62 79 63 50 64
REMARK SMILES IDX 51 65 62 67 80 68 53 69 40 70 41 71 46 72 42 73 43 74 45 75
REMARK SMILES IDX 47 76 44 77 66 78 67 79 72 80 68 81 69 82 71 83 73 84 70 85
REMARK SMILES IDX 54 86 55 87 60 88 56 89 57 90 59 91 61 92 58 93
REMARK H PARENT 15 14 78 55 52 66
REMARK Flexibility Score: inf
ROOT
ATOM      1  C   UNL A   1      42.073  19.286  26.130  1.00  0.00     0.261 C 
ENDROOT
BRANCH   1   2
ATOM      2  O   UNL A   1      42.104  20.180  27.259  1.00  0.00    -0.463 OA
BRANCH   2   3
ATOM      3  C   UNL A   1      41.101  21.096  27.300  1.00  0.00     0.311 C 
ATOM      4  O   UNL A   1      40.653  21.583  28.336  1.00  0.00    -0.252 OA
BRANCH   3   5
ATOM      5  C   UNL A   1      40.569  21.536  25.961  1.00  0.00     0.179 C 
BRANCH   5   6
ATOM      6  C   UNL A   1      39.140  21.964  25.859  1.00  0.00     0.065 A 
ATOM      7  C   UNL A   1      36.990  21.491  25.736  1.00  0.00     0.189 A 
ATOM      8  N   UNL A   1      38.187  20.985  25.656  1.00  0.00    -0.224 NA
ATOM      9  S   UNL A   1      36.890  23.173  25.948  1.00  0.00    -0.105 S 
ATOM     10  C   UNL A   1      38.601  23.210  26.133  1.00  0.00     0.093 A 
BRANCH   7  11
ATOM     11  N   UNL A   1      35.807  20.826  25.717  1.00  0.00    -0.302 N 
ATOM     12  C   UNL A   1      34.743  21.124  24.928  1.00  0.00     0.227 C 
ATOM     13  O   UNL A   1      33.727  20.436  25.062  1.00  0.00    -0.275 OA
ATOM     14  H   UNL A   1      35.712  20.060  26.328  1.00  0.00     0.172 HD
BRANCH  12  15
ATOM     15  C   UNL A   1      34.779  22.231  23.879  1.00  0.00     0.125 C 
BRANCH  15  16
ATOM     16  C   UNL A   1      33.420  22.763  23.418  1.00  0.00     0.156 C 
ATOM     17  N   UNL A   1      33.143  25.127  23.661  1.00  0.00    -0.240 N 
ATOM     18  C   UNL A   1      33.411  25.094  22.308  1.00  0.00     0.293 C 
ATOM     19  C   UNL A   1      32.914  23.901  24.263  1.00  0.00     0.248 C 
ATOM     20  O   UNL A   1      33.644  26.015  21.549  1.00  0.00    -0.261 OA
ATOM     21  S   UNL A   1      33.388  23.433  21.730  1.00  0.00    -0.050 SA
ATOM     22  O   UNL A   1      32.335  23.699  25.327  1.00  0.00    -0.273 OA
BRANCH  17  23
ATOM     23  C   UNL A   1      32.972  26.339  24.388  1.00  0.00     0.053 A 
ATOM     24  C   UNL A   1      32.720  28.814  25.712  1.00  0.00     0.119 A 
ATOM     25  C   UNL A   1      31.906  28.517  24.624  1.00  0.00     0.048 A 
ATOM     26  C   UNL A   1      33.626  27.860  26.169  1.00  0.00     0.048 A 
ATOM     27  C   UNL A   1      32.047  27.301  23.951  1.00  0.00     0.031 A 
ATOM     28  C   UNL A   1      33.733  26.621  25.527  1.00  0.00     0.031 A 
BRANCH  24  29
ATOM     29  O   UNL A   1      32.528  30.036  26.291  1.00  0.00    -0.497 OA
ATOM     30  C   UNL A   1      31.407  30.758  25.785  1.00  0.00     0.278 C 
ENDBRANCH  24  29
ENDBRANCH  17  23
ENDBRANCH  15  16
ENDBRANCH  12  15
ENDBRANCH   7  11
ENDBRANCH   5   6
ENDBRANCH   3   5
ENDBRANCH   2   3
ENDBRANCH   1   2
BRANCH   1  31
ATOM     31  C   UNL A   1      43.402  19.235  25.368  1.00  0.00     0.202 C 
BRANCH  31  32
ATOM     32  O   UNL A   1      43.806  20.396  24.646  1.00  0.00    -0.374 OA
BRANCH  32  33
ATOM     33  C   UNL A   1      45.019  21.034  25.034  1.00  0.00     0.202 C 
BRANCH  33  34
ATOM     34  C   UNL A   1      44.932  22.241  25.980  1.00  0.00     0.261 C 
BRANCH  34  35
ATOM     35  O   UNL A   1      43.756  23.043  25.785  1.00  0.00    -0.460 OA
BRANCH  35  36
ATOM     36  C   UNL A   1      44.020  24.352  25.547  1.00  0.00     0.338 C 
ATOM     37  O   UNL A   1      44.674  24.816  24.627  1.00  0.00    -0.246 OA
BRANCH  36  38
ATOM     38  C   UNL A   1      43.261  25.222  26.461  1.00  0.00     0.060 A 
ATOM     39  C   UNL A   1      43.699  26.548  26.581  1.00  0.00     0.016 A 
ATOM     40  C   UNL A   1      42.242  24.731  27.279  1.00  0.00     0.016 A 
ATOM     41  C   UNL A   1      43.163  27.372  27.564  1.00  0.00     0.010 A 
ATOM     42  C   UNL A   1      41.709  25.562  28.272  1.00  0.00     0.010 A 
ATOM     43  C   UNL A   1      42.194  26.871  28.444  1.00  0.00    -0.014 A 
BRANCH  43  44
ATOM     44  C   UNL A   1      41.793  27.692  29.611  1.00  0.00     0.031 A 
ATOM     45  C   UNL A   1      40.599  28.601  29.503  1.00  0.00     0.074 A 
ATOM     46  C   UNL A   1      42.454  27.582  30.776  1.00  0.00     0.049 A 
ATOM     47  N   UNL A   1      40.075  29.394  30.404  1.00  0.00    -0.248 NA
ATOM     48  C   UNL A   1      39.899  28.615  28.209  1.00  0.00     0.031 C 
ATOM     49  C   UNL A   1      43.598  26.702  31.016  1.00  0.00     0.029 A 
ATOM     50  N   UNL A   1      42.262  28.221  31.975  1.00  0.00    -0.354 N 
ATOM     51  C   UNL A   1      38.987  29.999  29.786  1.00  0.00     0.074 A 
ATOM     52  C   UNL A   1      38.948  29.512  28.424  1.00  0.00     0.031 C 
ATOM     53  C   UNL A   1      44.012  26.864  32.284  1.00  0.00     0.029 A 
ATOM     54  C   UNL A   1      43.181  27.874  32.935  1.00  0.00     0.049 A 
ATOM     55  H   UNL A   1      41.536  28.867  32.132  1.00  0.00     0.167 HD
ATOM     56  C   UNL A   1      38.094  30.873  30.311  1.00  0.00     0.037 A 
ATOM     57  C   UNL A   1      43.341  28.333  34.191  1.00  0.00     0.037 A 
ATOM     58  C   UNL A   1      38.137  31.355  31.668  1.00  0.00     0.049 A 
ATOM     59  C   UNL A   1      42.384  29.362  34.727  1.00  0.00     0.074 A 
ATOM     60  C   UNL A   1      37.270  32.228  32.301  1.00  0.00     0.029 A 
ATOM     61  N   UNL A   1      39.108  31.013  32.597  1.00  0.00    -0.354 N 
ATOM     62  N   UNL A   1      41.346  29.911  34.142  1.00  0.00    -0.248 NA
ATOM     63  C   UNL A   1      42.616  29.833  36.099  1.00  0.00     0.031 C 
ATOM     64  C   UNL A   1      37.751  32.464  33.592  1.00  0.00     0.029 A 
ATOM     65  C   UNL A   1      38.882  31.686  33.787  1.00  0.00     0.049 A 
ATOM     66  H   UNL A   1      39.848  30.385  32.435  1.00  0.00     0.167 HD
ATOM     67  C   UNL A   1      40.783  30.764  35.085  1.00  0.00     0.074 A 
ATOM     68  C   UNL A   1      41.590  30.651  36.282  1.00  0.00     0.031 C 
ATOM     69  C   UNL A   1      39.695  31.565  34.971  1.00  0.00     0.037 A 
BRANCH  56  70
ATOM     70  C   UNL A   1      37.012  31.390  29.406  1.00  0.00     0.057 A 
ATOM     71  C   UNL A   1      37.056  32.675  28.847  1.00  0.00     0.134 A 
ATOM     72  C   UNL A   1      35.926  30.575  29.057  1.00  0.00     0.134 A 
ATOM     73  F   UNL A   1      38.062  33.512  29.147  1.00  0.00    -0.206 F 
ATOM     74  C   UNL A   1      36.050  33.138  27.998  1.00  0.00     0.040 A 
ATOM     75  C   UNL A   1      34.929  31.016  28.185  1.00  0.00     0.040 A 
ATOM     76  F   UNL A   1      35.824  29.330  29.547  1.00  0.00    -0.206 F 
ATOM     77  C   UNL A   1      34.986  32.303  27.658  1.00  0.00     0.006 A 
ENDBRANCH  56  70
BRANCH  57  78
ATOM     78  C   UNL A   1      44.462  27.829  35.025  1.00  0.00     0.057 A 
ATOM     79  C   UNL A   1      45.700  28.479  35.051  1.00  0.00     0.134 A 
ATOM     80  C   UNL A   1      44.322  26.674  35.805  1.00  0.00     0.134 A 
ATOM     81  F   UNL A   1      45.903  29.578  34.309  1.00  0.00    -0.206 F 
ATOM     82  C   UNL A   1      46.767  27.989  35.809  1.00  0.00     0.040 A 
ATOM     83  C   UNL A   1      45.369  26.189  36.589  1.00  0.00     0.040 A 
ATOM     84  F   UNL A   1      43.158  26.009  35.825  1.00  0.00    -0.206 F 
ATOM     85  C   UNL A   1      46.599  26.844  36.585  1.00  0.00     0.006 A 
ENDBRANCH  57  78
BRANCH  69  86
ATOM     86  C   UNL A   1      39.292  32.357  36.182  1.00  0.00     0.057 A 
ATOM     87  C   UNL A   1      39.823  33.626  36.449  1.00  0.00     0.134 A 
ATOM     88  C   UNL A   1      38.332  31.860  37.073  1.00  0.00     0.134 A 
ATOM     89  F   UNL A   1      40.755  34.157  35.642  1.00  0.00    -0.206 F 
ATOM     90  C   UNL A   1      39.433  34.359  37.572  1.00  0.00     0.040 A 
ATOM     91  C   UNL A   1      37.911  32.596  38.181  1.00  0.00     0.040 A 
ATOM     92  F   UNL A   1      37.774  30.655  36.871  1.00  0.00    -0.206 F 
ATOM     93  C   UNL A   1      38.468  33.847  38.437  1.00  0.00     0.006 A 
ENDBRANCH  69  86
ENDBRANCH  43  44
ENDBRANCH  36  38
ENDBRANCH  35  36
ENDBRANCH  34  35
ENDBRANCH  33  34
ENDBRANCH  32  33
ENDBRANCH  31  32
ENDBRANCH   1  31
TORSDOF 20
ENDMDL
