MODEL 1
REMARK VINA RESULT:     -11.7      0.000      0.000
REMARK SMILES C/C(=N\NC(N)=S)c1nnn(-c2ccc(C(=O)OCCOCCOC(=O)c3ccc(-c4c5nc(c(-c6c(F)cccc6F)c6ccc([nH]6)c(-c6c(F)cccc6F)c6nc(c(-c7c(F)cccc7F)c7ccc4[nH]7)C=C6)C=C5)cc3)cc2)c1C
REMARK SMILES IDX 19 1 18 2 16 3 17 4 15 5 12 6 13 7 82 8 14 9 81 10 11 11
REMARK SMILES IDX 8 12 9 13 83 14 10 15 84 16 2 17 1 18 3 19 4 20 5 22 7 23
REMARK SMILES IDX 6 24 20 27 21 28 22 29 23 30 24 31 25 32 26 33 27 34 28 35
REMARK SMILES IDX 80 36 29 37 79 38 30 39 31 40 32 41 73 42 33 43 78 44 72 45
REMARK SMILES IDX 74 46 34 47 77 48 71 49 70 50 35 52 61 53 44 54 60 55 45 56
REMARK SMILES IDX 48 57 59 58 75 59 46 60 47 61 58 63 76 64 49 65 36 66 37 67
REMARK SMILES IDX 42 68 38 69 39 70 41 71 43 72 40 73 62 74 63 75 68 76 64 77
REMARK SMILES IDX 65 78 67 79 69 80 66 81 50 82 51 83 56 84 52 85 53 86 55 87
REMARK SMILES IDX 57 88 54 89
REMARK H PARENT 4 21 6 25 6 26 74 51 48 62
REMARK Flexibility Score: inf
ROOT
ATOM      1  C   UNL A   1      34.012  32.315  27.622  1.00  0.00     0.261 C 
ENDROOT
BRANCH   1   2
ATOM      2  O   UNL A   1      33.388  31.032  27.785  1.00  0.00    -0.460 OA
BRANCH   2   3
ATOM      3  C   UNL A   1      32.405  30.764  26.891  1.00  0.00     0.338 C 
ATOM      4  O   UNL A   1      31.627  31.556  26.391  1.00  0.00    -0.246 OA
BRANCH   3   5
ATOM      5  C   UNL A   1      32.474  29.346  26.472  1.00  0.00     0.060 A 
ATOM      6  C   UNL A   1      32.336  26.616  26.041  1.00  0.00     0.067 A 
ATOM      7  C   UNL A   1      31.293  27.425  25.576  1.00  0.00     0.029 A 
ATOM      8  C   UNL A   1      33.502  27.175  26.577  1.00  0.00     0.029 A 
ATOM      9  C   UNL A   1      31.356  28.796  25.822  1.00  0.00     0.018 A 
ATOM     10  C   UNL A   1      33.578  28.549  26.782  1.00  0.00     0.018 A 
BRANCH   6  11
ATOM     11  N   UNL A   1      32.100  25.234  26.196  1.00  0.00    -0.217 N 
ATOM     12  C   UNL A   1      32.443  23.092  26.397  1.00  0.00     0.132 A 
ATOM     13  N   UNL A   1      31.353  23.436  27.153  1.00  0.00    -0.128 NA
ATOM     14  C   UNL A   1      32.944  24.218  25.775  1.00  0.00     0.071 A 
ATOM     15  N   UNL A   1      31.195  24.751  27.076  1.00  0.00    -0.061 NA
ATOM     16  C   UNL A   1      34.223  24.418  25.047  1.00  0.00     0.069 C 
BRANCH  12  17
ATOM     17  C   UNL A   1      33.102  21.802  26.523  1.00  0.00     0.087 C 
ATOM     18  C   UNL A   1      34.129  21.721  27.618  1.00  0.00     0.071 C 
ATOM     19  N   UNL A   1      32.706  20.884  25.695  1.00  0.00    -0.176 NA
BRANCH  19  20
ATOM     20  N   UNL A   1      33.153  19.594  25.719  1.00  0.00    -0.254 N 
ATOM     21  H   UNL A   1      33.227  19.203  26.620  1.00  0.00     0.193 HD
BRANCH  20  22
ATOM     22  C   UNL A   1      33.518  18.746  24.693  1.00  0.00     0.184 C 
ATOM     23  S   UNL A   1      32.651  18.196  23.387  1.00  0.00    -0.040 S 
BRANCH  22  24
ATOM     24  N   UNL A   1      34.810  18.308  24.832  1.00  0.00    -0.375 N 
ATOM     25  H   UNL A   1      35.551  18.956  24.835  1.00  0.00     0.159 HD
ATOM     26  H   UNL A   1      34.996  17.347  24.928  1.00  0.00     0.159 HD
ENDBRANCH  22  24
ENDBRANCH  20  22
ENDBRANCH  19  20
ENDBRANCH  12  17
ENDBRANCH   6  11
ENDBRANCH   3   5
ENDBRANCH   2   3
ENDBRANCH   1   2
BRANCH   1  27
ATOM     27  C   UNL A   1      33.845  33.204  28.855  1.00  0.00     0.202 C 
BRANCH  27  28
ATOM     28  O   UNL A   1      33.151  34.441  28.700  1.00  0.00    -0.374 OA
BRANCH  28  29
ATOM     29  C   UNL A   1      33.604  35.595  29.397  1.00  0.00     0.202 C 
BRANCH  29  30
ATOM     30  C   UNL A   1      32.681  36.236  30.421  1.00  0.00     0.261 C 
BRANCH  30  31
ATOM     31  O   UNL A   1      32.373  35.389  31.520  1.00  0.00    -0.460 OA
BRANCH  31  32
ATOM     32  C   UNL A   1      32.987  35.770  32.666  1.00  0.00     0.338 C 
ATOM     33  O   UNL A   1      32.768  36.772  33.319  1.00  0.00    -0.246 OA
BRANCH  32  34
ATOM     34  C   UNL A   1      34.141  34.894  32.897  1.00  0.00     0.060 A 
ATOM     35  C   UNL A   1      35.393  35.506  32.870  1.00  0.00     0.016 A 
ATOM     36  C   UNL A   1      33.998  33.498  32.853  1.00  0.00     0.016 A 
ATOM     37  C   UNL A   1      36.494  34.725  32.606  1.00  0.00     0.010 A 
ATOM     38  C   UNL A   1      35.101  32.717  32.585  1.00  0.00     0.010 A 
ATOM     39  C   UNL A   1      36.325  33.347  32.392  1.00  0.00    -0.014 A 
BRANCH  39  40
ATOM     40  C   UNL A   1      37.520  32.559  32.175  1.00  0.00     0.031 A 
ATOM     41  C   UNL A   1      38.296  32.434  33.425  1.00  0.00     0.074 A 
ATOM     42  C   UNL A   1      37.872  31.988  31.009  1.00  0.00     0.049 A 
ATOM     43  N   UNL A   1      39.332  33.133  33.745  1.00  0.00    -0.248 NA
ATOM     44  C   UNL A   1      37.731  31.650  34.532  1.00  0.00     0.031 C 
ATOM     45  C   UNL A   1      37.076  31.843  29.791  1.00  0.00     0.029 A 
ATOM     46  N   UNL A   1      39.035  31.349  30.693  1.00  0.00    -0.354 N 
ATOM     47  C   UNL A   1      39.706  32.677  34.999  1.00  0.00     0.074 A 
ATOM     48  C   UNL A   1      38.578  31.954  35.519  1.00  0.00     0.031 C 
ATOM     49  C   UNL A   1      37.693  30.974  28.953  1.00  0.00     0.029 A 
ATOM     50  C   UNL A   1      38.989  30.620  29.508  1.00  0.00     0.049 A 
ATOM     51  H   UNL A   1      39.840  31.399  31.257  1.00  0.00     0.167 HD
ATOM     52  C   UNL A   1      41.024  32.645  35.328  1.00  0.00     0.037 A 
ATOM     53  C   UNL A   1      39.945  29.771  29.050  1.00  0.00     0.037 A 
ATOM     54  C   UNL A   1      41.790  33.488  34.434  1.00  0.00     0.049 A 
ATOM     55  C   UNL A   1      41.217  30.158  29.702  1.00  0.00     0.074 A 
ATOM     56  C   UNL A   1      41.829  34.830  34.117  1.00  0.00     0.029 A 
ATOM     57  N   UNL A   1      42.410  32.826  33.409  1.00  0.00    -0.354 N 
ATOM     58  N   UNL A   1      41.860  31.259  29.440  1.00  0.00    -0.248 NA
ATOM     59  C   UNL A   1      41.586  29.501  30.946  1.00  0.00     0.031 C 
ATOM     60  C   UNL A   1      42.170  34.886  32.730  1.00  0.00     0.029 A 
ATOM     61  C   UNL A   1      42.386  33.585  32.274  1.00  0.00     0.049 A 
ATOM     62  H   UNL A   1      42.815  31.931  33.479  1.00  0.00     0.167 HD
ATOM     63  C   UNL A   1      42.342  31.676  30.668  1.00  0.00     0.074 A 
ATOM     64  C   UNL A   1      42.284  30.487  31.515  1.00  0.00     0.031 C 
ATOM     65  C   UNL A   1      42.445  33.009  30.947  1.00  0.00     0.037 A 
BRANCH  52  66
ATOM     66  C   UNL A   1      41.666  31.474  36.045  1.00  0.00     0.057 A 
ATOM     67  C   UNL A   1      42.633  31.745  37.032  1.00  0.00     0.134 A 
ATOM     68  C   UNL A   1      41.639  30.137  35.591  1.00  0.00     0.134 A 
ATOM     69  F   UNL A   1      42.776  32.981  37.532  1.00  0.00    -0.206 F 
ATOM     70  C   UNL A   1      43.555  30.783  37.463  1.00  0.00     0.040 A 
ATOM     71  C   UNL A   1      42.522  29.159  36.053  1.00  0.00     0.040 A 
ATOM     72  F   UNL A   1      40.842  29.718  34.605  1.00  0.00    -0.206 F 
ATOM     73  C   UNL A   1      43.508  29.487  36.967  1.00  0.00     0.006 A 
ENDBRANCH  52  66
BRANCH  53  74
ATOM     74  C   UNL A   1      39.820  28.487  28.318  1.00  0.00     0.057 A 
ATOM     75  C   UNL A   1      40.478  28.287  27.092  1.00  0.00     0.134 A 
ATOM     76  C   UNL A   1      39.330  27.331  28.945  1.00  0.00     0.134 A 
ATOM     77  F   UNL A   1      41.014  29.321  26.427  1.00  0.00    -0.206 F 
ATOM     78  C   UNL A   1      40.684  27.011  26.550  1.00  0.00     0.040 A 
ATOM     79  C   UNL A   1      39.523  26.050  28.412  1.00  0.00     0.040 A 
ATOM     80  F   UNL A   1      38.735  27.395  30.145  1.00  0.00    -0.206 F 
ATOM     81  C   UNL A   1      40.219  25.885  27.221  1.00  0.00     0.006 A 
ENDBRANCH  53  74
BRANCH  65  82
ATOM     82  C   UNL A   1      42.443  33.960  29.781  1.00  0.00     0.057 A 
ATOM     83  C   UNL A   1      41.342  34.723  29.362  1.00  0.00     0.134 A 
ATOM     84  C   UNL A   1      43.651  34.168  29.103  1.00  0.00     0.134 A 
ATOM     85  F   UNL A   1      40.167  34.662  30.002  1.00  0.00    -0.206 F 
ATOM     86  C   UNL A   1      41.432  35.611  28.285  1.00  0.00     0.040 A 
ATOM     87  C   UNL A   1      43.763  35.079  28.053  1.00  0.00     0.040 A 
ATOM     88  F   UNL A   1      44.757  33.506  29.477  1.00  0.00    -0.206 F 
ATOM     89  C   UNL A   1      42.647  35.796  27.631  1.00  0.00     0.006 A 
ENDBRANCH  65  82
ENDBRANCH  39  40
ENDBRANCH  32  34
ENDBRANCH  31  32
ENDBRANCH  30  31
ENDBRANCH  29  30
ENDBRANCH  28  29
ENDBRANCH  27  28
ENDBRANCH   1  27
TORSDOF 19
ENDMDL
MODEL 2
REMARK VINA RESULT:     -11.3      5.898     10.937
REMARK SMILES C/C(=N\NC(N)=S)c1nnn(-c2ccc(C(=O)OCCOCCOC(=O)c3ccc(-c4c5nc(c(-c6c(F)cccc6F)c6ccc([nH]6)c(-c6c(F)cccc6F)c6nc(c(-c7c(F)cccc7F)c7ccc4[nH]7)C=C6)C=C5)cc3)cc2)c1C
REMARK SMILES IDX 19 1 18 2 16 3 17 4 15 5 12 6 13 7 82 8 14 9 81 10 11 11
REMARK SMILES IDX 8 12 9 13 83 14 10 15 84 16 2 17 1 18 3 19 4 20 5 22 7 23
REMARK SMILES IDX 6 24 20 27 21 28 22 29 23 30 24 31 25 32 26 33 27 34 28 35
REMARK SMILES IDX 80 36 29 37 79 38 30 39 31 40 32 41 73 42 33 43 78 44 72 45
REMARK SMILES IDX 74 46 34 47 77 48 71 49 70 50 35 52 61 53 44 54 60 55 45 56
REMARK SMILES IDX 48 57 59 58 75 59 46 60 47 61 58 63 76 64 49 65 36 66 37 67
REMARK SMILES IDX 42 68 38 69 39 70 41 71 43 72 40 73 62 74 63 75 68 76 64 77
REMARK SMILES IDX 65 78 67 79 69 80 66 81 50 82 51 83 56 84 52 85 53 86 55 87
REMARK SMILES IDX 57 88 54 89
REMARK H PARENT 4 21 6 25 6 26 74 51 48 62
REMARK Flexibility Score: inf
ROOT
ATOM      1  C   UNL A   1      40.497  21.355  25.781  1.00  0.00     0.261 C 
ENDROOT
BRANCH   1   2
ATOM      2  O   UNL A   1      39.145  21.696  26.124  1.00  0.00    -0.460 OA
BRANCH   2   3
ATOM      3  C   UNL A   1      38.198  21.024  25.424  1.00  0.00     0.338 C 
ATOM      4  O   UNL A   1      38.279  19.897  24.969  1.00  0.00    -0.246 OA
BRANCH   3   5
ATOM      5  C   UNL A   1      36.943  21.808  25.387  1.00  0.00     0.060 A 
ATOM      6  C   UNL A   1      34.677  23.313  24.877  1.00  0.00     0.067 A 
ATOM      7  C   UNL A   1      34.640  21.935  24.635  1.00  0.00     0.029 A 
ATOM      8  C   UNL A   1      35.777  23.908  25.508  1.00  0.00     0.029 A 
ATOM      9  C   UNL A   1      35.794  21.189  24.868  1.00  0.00     0.018 A 
ATOM     10  C   UNL A   1      36.912  23.149  25.776  1.00  0.00     0.018 A 
BRANCH   6  11
ATOM     11  N   UNL A   1      33.711  24.134  24.257  1.00  0.00    -0.217 N 
ATOM     12  C   UNL A   1      32.091  25.562  23.978  1.00  0.00     0.132 A 
ATOM     13  N   UNL A   1      32.967  25.681  22.931  1.00  0.00    -0.128 NA
ATOM     14  C   UNL A   1      32.538  24.584  24.844  1.00  0.00     0.071 A 
ATOM     15  N   UNL A   1      33.982  24.854  23.147  1.00  0.00    -0.061 NA
ATOM     16  C   UNL A   1      32.082  24.240  26.213  1.00  0.00     0.069 C 
BRANCH  12  17
ATOM     17  C   UNL A   1      31.055  26.548  24.240  1.00  0.00     0.087 C 
ATOM     18  C   UNL A   1      31.413  27.585  25.269  1.00  0.00     0.071 C 
ATOM     19  N   UNL A   1      29.968  26.422  23.541  1.00  0.00    -0.176 NA
BRANCH  19  20
ATOM     20  N   UNL A   1      28.923  27.299  23.595  1.00  0.00    -0.254 N 
ATOM     21  H   UNL A   1      28.202  27.041  24.213  1.00  0.00     0.193 HD
BRANCH  20  22
ATOM     22  C   UNL A   1      28.709  28.489  22.928  1.00  0.00     0.184 C 
ATOM     23  S   UNL A   1      29.788  29.572  22.279  1.00  0.00    -0.040 S 
BRANCH  22  24
ATOM     24  N   UNL A   1      27.373  28.780  22.826  1.00  0.00    -0.375 N 
ATOM     25  H   UNL A   1      26.898  29.183  23.588  1.00  0.00     0.159 HD
ATOM     26  H   UNL A   1      26.889  28.586  21.992  1.00  0.00     0.159 HD
ENDBRANCH  22  24
ENDBRANCH  20  22
ENDBRANCH  19  20
ENDBRANCH  12  17
ENDBRANCH   6  11
ENDBRANCH   3   5
ENDBRANCH   2   3
ENDBRANCH   1   2
BRANCH   1  27
ATOM     27  C   UNL A   1      41.222  20.635  26.919  1.00  0.00     0.202 C 
BRANCH  27  28
ATOM     28  O   UNL A   1      41.290  19.211  26.875  1.00  0.00    -0.374 OA
BRANCH  28  29
ATOM     29  C   UNL A   1      42.228  18.577  26.014  1.00  0.00     0.202 C 
BRANCH  29  30
ATOM     30  C   UNL A   1      43.553  19.271  25.744  1.00  0.00     0.261 C 
BRANCH  30  31
ATOM     31  O   UNL A   1      43.837  19.441  24.361  1.00  0.00    -0.460 OA
BRANCH  31  32
ATOM     32  C   UNL A   1      45.068  19.959  24.137  1.00  0.00     0.338 C 
ATOM     33  O   UNL A   1      46.079  19.350  23.841  1.00  0.00    -0.246 OA
BRANCH  32  34
ATOM     34  C   UNL A   1      45.066  21.372  24.529  1.00  0.00     0.060 A 
ATOM     35  C   UNL A   1      45.793  21.695  25.674  1.00  0.00     0.016 A 
ATOM     36  C   UNL A   1      44.152  22.272  23.955  1.00  0.00     0.016 A 
ATOM     37  C   UNL A   1      45.464  22.846  26.352  1.00  0.00     0.010 A 
ATOM     38  C   UNL A   1      43.821  23.422  24.637  1.00  0.00     0.010 A 
ATOM     39  C   UNL A   1      44.428  23.659  25.865  1.00  0.00    -0.014 A 
BRANCH  39  40
ATOM     40  C   UNL A   1      44.158  24.888  26.581  1.00  0.00     0.031 A 
ATOM     41  C   UNL A   1      45.248  25.862  26.374  1.00  0.00     0.074 A 
ATOM     42  C   UNL A   1      43.057  25.134  27.314  1.00  0.00     0.049 A 
ATOM     43  N   UNL A   1      46.216  26.099  27.192  1.00  0.00    -0.248 NA
ATOM     44  C   UNL A   1      45.434  26.441  25.035  1.00  0.00     0.031 C 
ATOM     45  C   UNL A   1      41.824  24.351  27.391  1.00  0.00     0.029 A 
ATOM     46  N   UNL A   1      42.793  26.204  28.117  1.00  0.00    -0.354 N 
ATOM     47  C   UNL A   1      46.990  27.067  26.571  1.00  0.00     0.074 A 
ATOM     48  C   UNL A   1      46.605  27.064  25.186  1.00  0.00     0.031 C 
ATOM     49  C   UNL A   1      40.869  25.081  28.019  1.00  0.00     0.029 A 
ATOM     50  C   UNL A   1      41.463  26.312  28.515  1.00  0.00     0.049 A 
ATOM     51  H   UNL A   1      43.486  26.846  28.394  1.00  0.00     0.167 HD
ATOM     52  C   UNL A   1      47.614  28.006  27.330  1.00  0.00     0.037 A 
ATOM     53  C   UNL A   1      40.905  27.359  29.176  1.00  0.00     0.037 A 
ATOM     54  C   UNL A   1      47.684  27.578  28.711  1.00  0.00     0.049 A 
ATOM     55  C   UNL A   1      42.005  28.075  29.862  1.00  0.00     0.074 A 
ATOM     56  C   UNL A   1      48.260  26.533  29.404  1.00  0.00     0.029 A 
ATOM     57  N   UNL A   1      46.714  28.099  29.525  1.00  0.00    -0.354 N 
ATOM     58  N   UNL A   1      42.661  27.592  30.877  1.00  0.00    -0.248 NA
ATOM     59  C   UNL A   1      42.651  29.179  29.170  1.00  0.00     0.031 C 
ATOM     60  C   UNL A   1      47.364  26.250  30.481  1.00  0.00     0.029 A 
ATOM     61  C   UNL A   1      46.315  27.168  30.440  1.00  0.00     0.049 A 
ATOM     62  H   UNL A   1      46.355  29.014  29.459  1.00  0.00     0.167 HD
ATOM     63  C   UNL A   1      43.969  27.989  30.662  1.00  0.00     0.074 A 
ATOM     64  C   UNL A   1      43.874  29.085  29.700  1.00  0.00     0.031 C 
ATOM     65  C   UNL A   1      45.003  27.185  31.051  1.00  0.00     0.037 A 
BRANCH  52  66
ATOM     66  C   UNL A   1      47.644  29.477  26.961  1.00  0.00     0.057 A 
ATOM     67  C   UNL A   1      48.845  30.187  27.149  1.00  0.00     0.134 A 
ATOM     68  C   UNL A   1      46.501  30.282  26.766  1.00  0.00     0.134 A 
ATOM     69  F   UNL A   1      49.998  29.540  27.366  1.00  0.00    -0.206 F 
ATOM     70  C   UNL A   1      48.885  31.585  27.227  1.00  0.00     0.040 A 
ATOM     71  C   UNL A   1      46.541  31.678  26.790  1.00  0.00     0.040 A 
ATOM     72  F   UNL A   1      45.268  29.782  26.648  1.00  0.00    -0.206 F 
ATOM     73  C   UNL A   1      47.729  32.335  27.055  1.00  0.00     0.006 A 
ENDBRANCH  52  66
BRANCH  53  74
ATOM     74  C   UNL A   1      39.557  27.967  29.052  1.00  0.00     0.057 A 
ATOM     75  C   UNL A   1      38.688  28.027  30.155  1.00  0.00     0.134 A 
ATOM     76  C   UNL A   1      39.219  28.781  27.960  1.00  0.00     0.134 A 
ATOM     77  F   UNL A   1      38.939  27.314  31.262  1.00  0.00    -0.206 F 
ATOM     78  C   UNL A   1      37.580  28.884  30.191  1.00  0.00     0.040 A 
ATOM     79  C   UNL A   1      38.112  29.639  27.981  1.00  0.00     0.040 A 
ATOM     80  F   UNL A   1      40.005  28.848  26.877  1.00  0.00    -0.206 F 
ATOM     81  C   UNL A   1      37.299  29.707  29.106  1.00  0.00     0.006 A 
ENDBRANCH  53  74
BRANCH  65  82
ATOM     82  C   UNL A   1      44.701  26.119  32.069  1.00  0.00     0.057 A 
ATOM     83  C   UNL A   1      44.415  24.777  31.774  1.00  0.00     0.134 A 
ATOM     84  C   UNL A   1      44.790  26.463  33.424  1.00  0.00     0.134 A 
ATOM     85  F   UNL A   1      44.395  24.329  30.512  1.00  0.00    -0.206 F 
ATOM     86  C   UNL A   1      44.177  23.839  32.784  1.00  0.00     0.040 A 
ATOM     87  C   UNL A   1      44.594  25.529  34.440  1.00  0.00     0.040 A 
ATOM     88  F   UNL A   1      45.104  27.719  33.782  1.00  0.00    -0.206 F 
ATOM     89  C   UNL A   1      44.272  24.212  34.122  1.00  0.00     0.006 A 
ENDBRANCH  65  82
ENDBRANCH  39  40
ENDBRANCH  32  34
ENDBRANCH  31  32
ENDBRANCH  30  31
ENDBRANCH  29  30
ENDBRANCH  28  29
ENDBRANCH  27  28
ENDBRANCH   1  27
TORSDOF 19
ENDMDL
MODEL 3
REMARK VINA RESULT:     -10.5      2.921      4.526
REMARK SMILES C/C(=N\NC(N)=S)c1nnn(-c2ccc(C(=O)OCCOCCOC(=O)c3ccc(-c4c5nc(c(-c6c(F)cccc6F)c6ccc([nH]6)c(-c6c(F)cccc6F)c6nc(c(-c7c(F)cccc7F)c7ccc4[nH]7)C=C6)C=C5)cc3)cc2)c1C
REMARK SMILES IDX 19 1 18 2 16 3 17 4 15 5 12 6 13 7 82 8 14 9 81 10 11 11
REMARK SMILES IDX 8 12 9 13 83 14 10 15 84 16 2 17 1 18 3 19 4 20 5 22 7 23
REMARK SMILES IDX 6 24 20 27 21 28 22 29 23 30 24 31 25 32 26 33 27 34 28 35
REMARK SMILES IDX 80 36 29 37 79 38 30 39 31 40 32 41 73 42 33 43 78 44 72 45
REMARK SMILES IDX 74 46 34 47 77 48 71 49 70 50 35 52 61 53 44 54 60 55 45 56
REMARK SMILES IDX 48 57 59 58 75 59 46 60 47 61 58 63 76 64 49 65 36 66 37 67
REMARK SMILES IDX 42 68 38 69 39 70 41 71 43 72 40 73 62 74 63 75 68 76 64 77
REMARK SMILES IDX 65 78 67 79 69 80 66 81 50 82 51 83 56 84 52 85 53 86 55 87
REMARK SMILES IDX 57 88 54 89
REMARK H PARENT 4 21 6 25 6 26 74 51 48 62
REMARK Flexibility Score: inf
ROOT
ATOM      1  C   UNL A   1      32.931  36.101  29.024  1.00  0.00     0.261 C 
ENDROOT
BRANCH   1   2
ATOM      2  O   UNL A   1      32.696  34.696  28.846  1.00  0.00    -0.460 OA
BRANCH   2   3
ATOM      3  C   UNL A   1      33.602  34.067  28.057  1.00  0.00     0.338 C 
ATOM      4  O   UNL A   1      34.734  34.435  27.798  1.00  0.00    -0.246 OA
BRANCH   3   5
ATOM      5  C   UNL A   1      33.077  32.751  27.632  1.00  0.00     0.060 A 
ATOM      6  C   UNL A   1      32.355  30.343  26.473  1.00  0.00     0.067 A 
ATOM      7  C   UNL A   1      33.550  30.410  27.199  1.00  0.00     0.029 A 
ATOM      8  C   UNL A   1      31.459  31.419  26.452  1.00  0.00     0.029 A 
ATOM      9  C   UNL A   1      33.920  31.634  27.756  1.00  0.00     0.018 A 
ATOM     10  C   UNL A   1      31.815  32.626  27.046  1.00  0.00     0.018 A 
BRANCH   6  11
ATOM     11  N   UNL A   1      32.180  29.282  25.560  1.00  0.00    -0.217 N 
ATOM     12  C   UNL A   1      31.448  27.443  24.650  1.00  0.00     0.132 A 
ATOM     13  N   UNL A   1      31.722  28.347  23.657  1.00  0.00    -0.128 NA
ATOM     14  C   UNL A   1      31.728  28.010  25.878  1.00  0.00     0.071 A 
ATOM     15  N   UNL A   1      32.102  29.483  24.226  1.00  0.00    -0.061 NA
ATOM     16  C   UNL A   1      31.394  27.540  27.245  1.00  0.00     0.069 C 
BRANCH  12  17
ATOM     17  C   UNL A   1      30.692  26.226  24.407  1.00  0.00     0.087 C 
ATOM     18  C   UNL A   1      29.232  26.435  24.113  1.00  0.00     0.071 C 
ATOM     19  N   UNL A   1      31.373  25.121  24.452  1.00  0.00    -0.176 NA
BRANCH  19  20
ATOM     20  N   UNL A   1      30.848  23.893  24.171  1.00  0.00    -0.254 N 
ATOM     21  H   UNL A   1      29.867  23.872  24.101  1.00  0.00     0.193 HD
BRANCH  20  22
ATOM     22  C   UNL A   1      31.463  22.674  23.968  1.00  0.00     0.184 C 
ATOM     23  S   UNL A   1      31.846  21.465  25.042  1.00  0.00    -0.040 S 
BRANCH  22  24
ATOM     24  N   UNL A   1      31.802  22.489  22.652  1.00  0.00    -0.375 N 
ATOM     25  H   UNL A   1      32.750  22.461  22.388  1.00  0.00     0.159 HD
ATOM     26  H   UNL A   1      31.099  22.385  21.972  1.00  0.00     0.159 HD
ENDBRANCH  22  24
ENDBRANCH  20  22
ENDBRANCH  19  20
ENDBRANCH  12  17
ENDBRANCH   6  11
ENDBRANCH   3   5
ENDBRANCH   2   3
ENDBRANCH   1   2
BRANCH   1  27
ATOM     27  C   UNL A   1      33.075  36.484  30.498  1.00  0.00     0.202 C 
BRANCH  27  28
ATOM     28  O   UNL A   1      33.357  35.447  31.435  1.00  0.00    -0.374 OA
BRANCH  28  29
ATOM     29  C   UNL A   1      34.444  35.591  32.340  1.00  0.00     0.202 C 
BRANCH  29  30
ATOM     30  C   UNL A   1      35.396  34.419  32.527  1.00  0.00     0.261 C 
BRANCH  30  31
ATOM     31  O   UNL A   1      36.001  33.977  31.319  1.00  0.00    -0.460 OA
BRANCH  31  32
ATOM     32  C   UNL A   1      35.524  32.781  30.899  1.00  0.00     0.338 C 
ATOM     33  O   UNL A   1      34.413  32.324  31.092  1.00  0.00    -0.246 OA
BRANCH  32  34
ATOM     34  C   UNL A   1      36.635  31.994  30.354  1.00  0.00     0.060 A 
ATOM     35  C   UNL A   1      36.457  30.612  30.332  1.00  0.00     0.016 A 
ATOM     36  C   UNL A   1      37.894  32.582  30.150  1.00  0.00     0.016 A 
ATOM     37  C   UNL A   1      37.576  29.812  30.294  1.00  0.00     0.010 A 
ATOM     38  C   UNL A   1      39.014  31.779  30.116  1.00  0.00     0.010 A 
ATOM     39  C   UNL A   1      38.847  30.407  30.262  1.00  0.00    -0.014 A 
BRANCH  39  40
ATOM     40  C   UNL A   1      39.990  29.524  30.164  1.00  0.00     0.031 A 
ATOM     41  C   UNL A   1      40.622  29.340  31.485  1.00  0.00     0.074 A 
ATOM     42  C   UNL A   1      40.412  28.923  29.037  1.00  0.00     0.049 A 
ATOM     43  N   UNL A   1      41.673  29.954  31.913  1.00  0.00    -0.248 NA
ATOM     44  C   UNL A   1      39.885  28.608  32.526  1.00  0.00     0.031 C 
ATOM     45  C   UNL A   1      39.735  28.839  27.743  1.00  0.00     0.029 A 
ATOM     46  N   UNL A   1      41.545  28.190  28.838  1.00  0.00    -0.354 N 
ATOM     47  C   UNL A   1      41.879  29.473  33.196  1.00  0.00     0.074 A 
ATOM     48  C   UNL A   1      40.649  28.845  33.595  1.00  0.00     0.031 C 
ATOM     49  C   UNL A   1      40.361  27.921  26.968  1.00  0.00     0.029 A 
ATOM     50  C   UNL A   1      41.562  27.464  27.650  1.00  0.00     0.049 A 
ATOM     51  H   UNL A   1      42.290  28.177  29.481  1.00  0.00     0.167 HD
ATOM     52  C   UNL A   1      43.150  29.335  33.658  1.00  0.00     0.037 A 
ATOM     53  C   UNL A   1      42.487  26.539  27.287  1.00  0.00     0.037 A 
ATOM     54  C   UNL A   1      44.068  30.110  32.851  1.00  0.00     0.049 A 
ATOM     55  C   UNL A   1      43.714  26.823  28.067  1.00  0.00     0.074 A 
ATOM     56  C   UNL A   1      44.248  31.444  32.547  1.00  0.00     0.029 A 
ATOM     57  N   UNL A   1      44.735  29.397  31.891  1.00  0.00    -0.354 N 
ATOM     58  N   UNL A   1      44.467  27.867  27.878  1.00  0.00    -0.248 NA
ATOM     59  C   UNL A   1      43.899  26.143  29.339  1.00  0.00     0.031 C 
ATOM     60  C   UNL A   1      44.732  31.467  31.202  1.00  0.00     0.029 A 
ATOM     61  C   UNL A   1      44.888  30.152  30.763  1.00  0.00     0.049 A 
ATOM     62  H   UNL A   1      45.056  28.472  31.997  1.00  0.00     0.167 HD
ATOM     63  C   UNL A   1      44.853  28.248  29.151  1.00  0.00     0.074 A 
ATOM     64  C   UNL A   1      44.613  27.070  29.982  1.00  0.00     0.031 C 
ATOM     65  C   UNL A   1      45.035  29.569  29.446  1.00  0.00     0.037 A 
BRANCH  52  66
ATOM     66  C   UNL A   1      43.618  28.117  34.431  1.00  0.00     0.057 A 
ATOM     67  C   UNL A   1      44.327  28.320  35.630  1.00  0.00     0.134 A 
ATOM     68  C   UNL A   1      43.709  26.812  33.900  1.00  0.00     0.134 A 
ATOM     69  F   UNL A   1      44.339  29.522  36.224  1.00  0.00    -0.206 F 
ATOM     70  C   UNL A   1      45.133  27.329  36.203  1.00  0.00     0.040 A 
ATOM     71  C   UNL A   1      44.470  25.801  34.493  1.00  0.00     0.040 A 
ATOM     72  F   UNL A   1      43.166  26.459  32.732  1.00  0.00    -0.206 F 
ATOM     73  C   UNL A   1      45.213  26.066  35.630  1.00  0.00     0.006 A 
ENDBRANCH  52  66
BRANCH  53  74
ATOM     74  C   UNL A   1      42.334  25.267  26.539  1.00  0.00     0.057 A 
ATOM     75  C   UNL A   1      43.180  24.956  25.461  1.00  0.00     0.134 A 
ATOM     76  C   UNL A   1      41.583  24.200  27.056  1.00  0.00     0.134 A 
ATOM     77  F   UNL A   1      43.966  25.896  24.916  1.00  0.00    -0.206 F 
ATOM     78  C   UNL A   1      43.313  23.652  24.964  1.00  0.00     0.040 A 
ATOM     79  C   UNL A   1      41.703  22.893  26.565  1.00  0.00     0.040 A 
ATOM     80  F   UNL A   1      40.785  24.366  28.120  1.00  0.00    -0.206 F 
ATOM     81  C   UNL A   1      42.584  22.612  25.529  1.00  0.00     0.006 A 
ENDBRANCH  53  74
BRANCH  65  82
ATOM     82  C   UNL A   1      45.228  30.514  28.291  1.00  0.00     0.057 A 
ATOM     83  C   UNL A   1      44.197  31.163  27.596  1.00  0.00     0.134 A 
ATOM     84  C   UNL A   1      46.540  30.840  27.925  1.00  0.00     0.134 A 
ATOM     85  F   UNL A   1      42.912  30.986  27.930  1.00  0.00    -0.206 F 
ATOM     86  C   UNL A   1      44.464  32.054  26.551  1.00  0.00     0.040 A 
ATOM     87  C   UNL A   1      46.820  31.756  26.912  1.00  0.00     0.040 A 
ATOM     88  F   UNL A   1      47.579  30.291  28.576  1.00  0.00    -0.206 F 
ATOM     89  C   UNL A   1      45.779  32.358  26.210  1.00  0.00     0.006 A 
ENDBRANCH  65  82
ENDBRANCH  39  40
ENDBRANCH  32  34
ENDBRANCH  31  32
ENDBRANCH  30  31
ENDBRANCH  29  30
ENDBRANCH  28  29
ENDBRANCH  27  28
ENDBRANCH   1  27
TORSDOF 19
ENDMDL
