MODEL 1
REMARK VINA RESULT:     -12.5      0.000      0.000
REMARK SMILES Cc1cccc2c1[C@H]1c3c(C)cccc3[C@H](CC(=O)OCCOCCOC(=O)c3ccc(-c4c5nc(c(-c6c(F)cccc6F)c6ccc([nH]6)c(-c6c(F)cccc6F)c6nc(c(-c7c(F)cccc7F)c7ccc4[nH]7)C=C6)C=C5)cc3)C[C@H]1CC2
REMARK SMILES IDX 24 1 23 2 22 3 21 4 20 5 18 6 19 7 17 8 16 9 1 10 2 11 3 12
REMARK SMILES IDX 7 13 4 14 6 15 8 16 5 17 86 18 9 19 84 20 85 21 10 22 15 23
REMARK SMILES IDX 83 24 12 25 11 26 14 27 13 28 25 29 26 30 27 31 28 32 29 33
REMARK SMILES IDX 30 34 82 35 31 36 81 37 32 38 33 39 34 40 75 41 35 42 80 43
REMARK SMILES IDX 74 44 76 45 36 46 79 47 73 48 72 49 37 51 63 52 46 53 62 54
REMARK SMILES IDX 47 55 50 56 61 57 77 58 48 59 49 60 60 62 78 63 51 64 38 65
REMARK SMILES IDX 39 66 44 67 40 68 41 69 43 70 45 71 42 72 64 73 65 74 70 75
REMARK SMILES IDX 66 76 67 77 69 78 71 79 68 80 52 81 53 82 58 83 54 84 55 85
REMARK SMILES IDX 57 86 59 87 56 88
REMARK H PARENT 76 50 50 61
REMARK Flexibility Score: inf
ROOT
ATOM      1  C   UNL A   1      42.901  20.775  26.110  1.00  0.00     0.202 C 
ENDROOT
BRANCH   1   2
ATOM      2  O   UNL A   1      42.283  21.297  27.287  1.00  0.00    -0.374 OA
BRANCH   2   3
ATOM      3  C   UNL A   1      40.878  21.076  27.435  1.00  0.00     0.202 C 
BRANCH   3   4
ATOM      4  C   UNL A   1      40.169  20.614  26.160  1.00  0.00     0.261 C 
BRANCH   4   5
ATOM      5  O   UNL A   1      39.227  21.623  25.766  1.00  0.00    -0.463 OA
BRANCH   5   6
ATOM      6  C   UNL A   1      37.995  21.212  25.374  1.00  0.00     0.306 C 
ATOM      7  O   UNL A   1      37.767  20.217  24.701  1.00  0.00    -0.252 OA
BRANCH   6   8
ATOM      8  C   UNL A   1      36.897  22.060  25.992  1.00  0.00     0.131 C 
BRANCH   8   9
ATOM      9  C   UNL A   1      35.693  22.412  25.081  1.00  0.00     0.031 C 
ATOM     10  C   UNL A   1      33.830  27.931  25.145  1.00  0.00     0.044 C 
ATOM     11  C   UNL A   1      32.955  27.192  24.163  1.00  0.00    -0.047 A 
ATOM     12  C   UNL A   1      31.893  27.901  23.575  1.00  0.00     0.004 A 
ATOM     13  C   UNL A   1      33.195  25.847  23.777  1.00  0.00    -0.034 A 
ATOM     14  C   UNL A   1      31.096  27.313  22.598  1.00  0.00     0.001 A 
ATOM     15  C   UNL A   1      32.472  25.316  22.683  1.00  0.00    -0.044 A 
ATOM     16  C   UNL A   1      34.207  24.964  24.504  1.00  0.00     0.053 C 
ATOM     17  C   UNL A   1      31.406  26.042  22.130  1.00  0.00     0.004 A 
ATOM     18  C   UNL A   1      32.892  24.049  21.974  1.00  0.00     0.036 C 
ATOM     19  C   UNL A   1      33.694  24.003  25.616  1.00  0.00    -0.034 A 
ATOM     20  C   UNL A   1      34.986  24.198  23.408  1.00  0.00     0.002 C 
ATOM     21  C   UNL A   1      34.048  23.280  22.610  1.00  0.00     0.009 C 
ATOM     22  C   UNL A   1      32.558  24.247  26.446  1.00  0.00    -0.047 A 
ATOM     23  C   UNL A   1      34.452  22.818  25.880  1.00  0.00    -0.040 A 
ATOM     24  C   UNL A   1      36.149  23.463  24.061  1.00  0.00     0.013 C 
ATOM     25  C   UNL A   1      32.206  23.329  27.460  1.00  0.00     0.004 A 
ATOM     26  C   UNL A   1      31.637  25.433  26.354  1.00  0.00     0.044 C 
ATOM     27  C   UNL A   1      34.018  21.908  26.870  1.00  0.00     0.004 A 
ATOM     28  C   UNL A   1      32.919  22.166  27.666  1.00  0.00     0.001 A 
ENDBRANCH   8   9
ENDBRANCH   6   8
ENDBRANCH   5   6
ENDBRANCH   4   5
ENDBRANCH   3   4
ENDBRANCH   2   3
ENDBRANCH   1   2
BRANCH   1  29
ATOM     29  C   UNL A   1      43.789  21.758  25.344  1.00  0.00     0.261 C 
BRANCH  29  30
ATOM     30  O   UNL A   1      43.038  22.905  24.905  1.00  0.00    -0.460 OA
BRANCH  30  31
ATOM     31  C   UNL A   1      43.678  24.084  25.057  1.00  0.00     0.338 C 
ATOM     32  O   UNL A   1      44.768  24.405  24.602  1.00  0.00    -0.246 OA
BRANCH  31  33
ATOM     33  C   UNL A   1      42.813  25.050  25.752  1.00  0.00     0.060 A 
ATOM     34  C   UNL A   1      43.270  26.371  25.841  1.00  0.00     0.016 A 
ATOM     35  C   UNL A   1      41.663  24.643  26.431  1.00  0.00     0.016 A 
ATOM     36  C   UNL A   1      42.621  27.276  26.675  1.00  0.00     0.010 A 
ATOM     37  C   UNL A   1      41.022  25.548  27.283  1.00  0.00     0.010 A 
ATOM     38  C   UNL A   1      41.535  26.847  27.449  1.00  0.00    -0.014 A 
BRANCH  38  39
ATOM     39  C   UNL A   1      41.120  27.673  28.606  1.00  0.00     0.031 A 
ATOM     40  C   UNL A   1      41.923  27.571  29.875  1.00  0.00     0.074 A 
ATOM     41  C   UNL A   1      40.094  28.534  28.521  1.00  0.00     0.049 A 
ATOM     42  N   UNL A   1      41.772  28.202  31.010  1.00  0.00    -0.248 NA
ATOM     43  C   UNL A   1      43.058  26.633  29.855  1.00  0.00     0.031 C 
ATOM     44  C   UNL A   1      39.284  28.772  27.329  1.00  0.00     0.029 A 
ATOM     45  N   UNL A   1      39.567  29.376  29.466  1.00  0.00    -0.354 N 
ATOM     46  C   UNL A   1      42.791  27.742  31.835  1.00  0.00     0.074 A 
ATOM     47  C   UNL A   1      43.537  26.758  31.082  1.00  0.00     0.031 C 
ATOM     48  C   UNL A   1      38.356  29.703  27.616  1.00  0.00     0.029 A 
ATOM     49  C   UNL A   1      38.493  30.102  29.015  1.00  0.00     0.049 A 
ATOM     50  H   UNL A   1      39.924  29.452  30.380  1.00  0.00     0.167 HD
ATOM     51  C   UNL A   1      43.088  28.112  33.104  1.00  0.00     0.037 A 
ATOM     52  C   UNL A   1      37.708  30.979  29.670  1.00  0.00     0.037 A 
ATOM     53  C   UNL A   1      42.336  29.075  33.861  1.00  0.00     0.049 A 
ATOM     54  C   UNL A   1      37.982  31.280  31.119  1.00  0.00     0.074 A 
ATOM     55  C   UNL A   1      42.556  29.524  35.151  1.00  0.00     0.029 A 
ATOM     56  N   UNL A   1      41.204  29.727  33.397  1.00  0.00    -0.354 N 
ATOM     57  N   UNL A   1      38.960  30.859  31.884  1.00  0.00    -0.248 NA
ATOM     58  C   UNL A   1      37.033  32.175  31.798  1.00  0.00     0.031 C 
ATOM     59  C   UNL A   1      41.526  30.411  35.485  1.00  0.00     0.029 A 
ATOM     60  C   UNL A   1      40.692  30.549  34.387  1.00  0.00     0.049 A 
ATOM     61  H   UNL A   1      40.820  29.620  32.497  1.00  0.00     0.167 HD
ATOM     62  C   UNL A   1      38.766  31.466  33.120  1.00  0.00     0.074 A 
ATOM     63  C   UNL A   1      37.576  32.284  33.002  1.00  0.00     0.031 C 
ATOM     64  C   UNL A   1      39.510  31.361  34.250  1.00  0.00     0.037 A 
BRANCH  51  65
ATOM     65  C   UNL A   1      44.255  27.429  33.753  1.00  0.00     0.057 A 
ATOM     66  C   UNL A   1      45.538  27.978  33.667  1.00  0.00     0.134 A 
ATOM     67  C   UNL A   1      44.105  26.240  34.481  1.00  0.00     0.134 A 
ATOM     68  F   UNL A   1      45.749  29.115  32.986  1.00  0.00    -0.206 F 
ATOM     69  C   UNL A   1      46.633  27.376  34.289  1.00  0.00     0.040 A 
ATOM     70  C   UNL A   1      45.188  25.642  35.129  1.00  0.00     0.040 A 
ATOM     71  F   UNL A   1      42.897  25.674  34.617  1.00  0.00    -0.206 F 
ATOM     72  C   UNL A   1      46.457  26.210  35.031  1.00  0.00     0.006 A 
ENDBRANCH  51  65
BRANCH  52  73
ATOM     73  C   UNL A   1      36.582  31.641  28.966  1.00  0.00     0.057 A 
ATOM     74  C   UNL A   1      35.410  30.947  28.649  1.00  0.00     0.134 A 
ATOM     75  C   UNL A   1      36.645  32.995  28.624  1.00  0.00     0.134 A 
ATOM     76  F   UNL A   1      35.288  29.647  28.958  1.00  0.00    -0.206 F 
ATOM     77  C   UNL A   1      34.340  31.574  28.008  1.00  0.00     0.040 A 
ATOM     78  C   UNL A   1      35.576  33.641  28.001  1.00  0.00     0.040 A 
ATOM     79  F   UNL A   1      37.733  33.719  28.927  1.00  0.00    -0.206 F 
ATOM     80  C   UNL A   1      34.421  32.928  27.687  1.00  0.00     0.006 A 
ENDBRANCH  52  73
BRANCH  64  81
ATOM     81  C   UNL A   1      39.082  32.180  35.431  1.00  0.00     0.057 A 
ATOM     82  C   UNL A   1      38.219  31.641  36.395  1.00  0.00     0.134 A 
ATOM     83  C   UNL A   1      39.492  33.508  35.600  1.00  0.00     0.134 A 
ATOM     84  F   UNL A   1      37.782  30.377  36.287  1.00  0.00    -0.206 F 
ATOM     85  C   UNL A   1      37.778  32.395  37.483  1.00  0.00     0.040 A 
ATOM     86  C   UNL A   1      39.077  34.265  36.698  1.00  0.00     0.040 A 
ATOM     87  F   UNL A   1      40.329  34.078  34.720  1.00  0.00    -0.206 F 
ATOM     88  C   UNL A   1      38.212  33.710  37.639  1.00  0.00     0.006 A 
ENDBRANCH  64  81
ENDBRANCH  38  39
ENDBRANCH  31  33
ENDBRANCH  30  31
ENDBRANCH  29  30
ENDBRANCH   1  29
TORSDOF 15
ENDMDL
MODEL 2
REMARK VINA RESULT:     -12.4      4.590      9.550
REMARK SMILES Cc1cccc2c1[C@H]1c3c(C)cccc3[C@H](CC(=O)OCCOCCOC(=O)c3ccc(-c4c5nc(c(-c6c(F)cccc6F)c6ccc([nH]6)c(-c6c(F)cccc6F)c6nc(c(-c7c(F)cccc7F)c7ccc4[nH]7)C=C6)C=C5)cc3)C[C@H]1CC2
REMARK SMILES IDX 24 1 23 2 22 3 21 4 20 5 18 6 19 7 17 8 16 9 1 10 2 11 3 12
REMARK SMILES IDX 7 13 4 14 6 15 8 16 5 17 86 18 9 19 84 20 85 21 10 22 15 23
REMARK SMILES IDX 83 24 12 25 11 26 14 27 13 28 25 29 26 30 27 31 28 32 29 33
REMARK SMILES IDX 30 34 82 35 31 36 81 37 32 38 33 39 34 40 75 41 35 42 80 43
REMARK SMILES IDX 74 44 76 45 36 46 79 47 73 48 72 49 37 51 63 52 46 53 62 54
REMARK SMILES IDX 47 55 50 56 61 57 77 58 48 59 49 60 60 62 78 63 51 64 38 65
REMARK SMILES IDX 39 66 44 67 40 68 41 69 43 70 45 71 42 72 64 73 65 74 70 75
REMARK SMILES IDX 66 76 67 77 69 78 71 79 68 80 52 81 53 82 58 83 54 84 55 85
REMARK SMILES IDX 57 86 59 87 56 88
REMARK H PARENT 76 50 50 61
REMARK Flexibility Score: inf
ROOT
ATOM      1  C   UNL A   1      34.401  34.389  30.741  1.00  0.00     0.202 C 
ENDROOT
BRANCH   1   2
ATOM      2  O   UNL A   1      33.780  33.462  29.850  1.00  0.00    -0.374 OA
BRANCH   2   3
ATOM      3  C   UNL A   1      34.467  33.175  28.628  1.00  0.00     0.202 C 
BRANCH   3   4
ATOM      4  C   UNL A   1      33.786  32.126  27.747  1.00  0.00     0.261 C 
BRANCH   4   5
ATOM      5  O   UNL A   1      34.391  30.848  28.003  1.00  0.00    -0.463 OA
BRANCH   5   6
ATOM      6  C   UNL A   1      34.294  29.904  27.034  1.00  0.00     0.306 C 
ATOM      7  O   UNL A   1      35.053  28.955  26.900  1.00  0.00    -0.252 OA
BRANCH   6   8
ATOM      8  C   UNL A   1      33.034  30.078  26.204  1.00  0.00     0.131 C 
BRANCH   8   9
ATOM      9  C   UNL A   1      32.242  28.789  25.863  1.00  0.00     0.031 C 
ATOM     10  C   UNL A   1      35.045  23.715  26.432  1.00  0.00     0.044 C 
ATOM     11  C   UNL A   1      33.645  23.385  25.979  1.00  0.00    -0.047 A 
ATOM     12  C   UNL A   1      33.346  22.037  25.716  1.00  0.00     0.004 A 
ATOM     13  C   UNL A   1      32.622  24.362  25.862  1.00  0.00    -0.034 A 
ATOM     14  C   UNL A   1      32.056  21.645  25.376  1.00  0.00     0.001 A 
ATOM     15  C   UNL A   1      31.290  23.930  25.660  1.00  0.00    -0.044 A 
ATOM     16  C   UNL A   1      32.917  25.858  25.950  1.00  0.00     0.053 C 
ATOM     17  C   UNL A   1      31.028  22.579  25.383  1.00  0.00     0.004 A 
ATOM     18  C   UNL A   1      30.103  24.840  25.877  1.00  0.00     0.036 C 
ATOM     19  C   UNL A   1      33.110  26.659  24.629  1.00  0.00    -0.034 A 
ATOM     20  C   UNL A   1      31.802  26.473  26.829  1.00  0.00     0.002 C 
ATOM     21  C   UNL A   1      30.427  26.303  26.166  1.00  0.00     0.009 C 
ATOM     22  C   UNL A   1      33.632  26.118  23.415  1.00  0.00    -0.047 A 
ATOM     23  C   UNL A   1      32.809  28.058  24.643  1.00  0.00    -0.040 A 
ATOM     24  C   UNL A   1      32.161  27.923  27.127  1.00  0.00     0.013 C 
ATOM     25  C   UNL A   1      33.810  26.947  22.285  1.00  0.00     0.004 A 
ATOM     26  C   UNL A   1      34.029  24.686  23.187  1.00  0.00     0.044 C 
ATOM     27  C   UNL A   1      32.954  28.824  23.465  1.00  0.00     0.004 A 
ATOM     28  C   UNL A   1      33.467  28.283  22.302  1.00  0.00     0.001 A 
ENDBRANCH   8   9
ENDBRANCH   6   8
ENDBRANCH   5   6
ENDBRANCH   4   5
ENDBRANCH   3   4
ENDBRANCH   2   3
ENDBRANCH   1   2
BRANCH   1  29
ATOM     29  C   UNL A   1      34.603  33.888  32.172  1.00  0.00     0.261 C 
BRANCH  29  30
ATOM     30  O   UNL A   1      34.810  32.464  32.202  1.00  0.00    -0.460 OA
BRANCH  30  31
ATOM     31  C   UNL A   1      35.915  32.073  32.873  1.00  0.00     0.338 C 
ATOM     32  O   UNL A   1      36.213  32.330  34.031  1.00  0.00    -0.246 OA
BRANCH  31  33
ATOM     33  C   UNL A   1      36.701  31.132  32.059  1.00  0.00     0.060 A 
ATOM     34  C   UNL A   1      37.636  30.333  32.728  1.00  0.00     0.016 A 
ATOM     35  C   UNL A   1      36.635  31.142  30.664  1.00  0.00     0.016 A 
ATOM     36  C   UNL A   1      38.566  29.596  32.003  1.00  0.00     0.010 A 
ATOM     37  C   UNL A   1      37.582  30.415  29.935  1.00  0.00     0.010 A 
ATOM     38  C   UNL A   1      38.583  29.688  30.605  1.00  0.00    -0.014 A 
BRANCH  38  39
ATOM     39  C   UNL A   1      39.795  29.244  29.880  1.00  0.00     0.031 A 
ATOM     40  C   UNL A   1      40.935  30.217  29.741  1.00  0.00     0.074 A 
ATOM     41  C   UNL A   1      39.910  27.993  29.406  1.00  0.00     0.049 A 
ATOM     42  N   UNL A   1      42.102  30.058  29.171  1.00  0.00    -0.248 NA
ATOM     43  C   UNL A   1      40.733  31.549  30.336  1.00  0.00     0.031 C 
ATOM     44  C   UNL A   1      38.905  26.942  29.536  1.00  0.00     0.029 A 
ATOM     45  N   UNL A   1      40.938  27.399  28.721  1.00  0.00    -0.354 N 
ATOM     46  C   UNL A   1      42.771  31.264  29.342  1.00  0.00     0.074 A 
ATOM     47  C   UNL A   1      41.871  32.155  30.041  1.00  0.00     0.031 C 
ATOM     48  C   UNL A   1      39.368  25.825  28.946  1.00  0.00     0.029 A 
ATOM     49  C   UNL A   1      40.687  26.095  28.376  1.00  0.00     0.049 A 
ATOM     50  H   UNL A   1      41.777  27.864  28.497  1.00  0.00     0.167 HD
ATOM     51  C   UNL A   1      44.026  31.599  28.959  1.00  0.00     0.037 A 
ATOM     52  C   UNL A   1      41.437  25.229  27.670  1.00  0.00     0.037 A 
ATOM     53  C   UNL A   1      44.915  30.722  28.245  1.00  0.00     0.049 A 
ATOM     54  C   UNL A   1      42.779  25.666  27.146  1.00  0.00     0.074 A 
ATOM     55  C   UNL A   1      46.207  30.963  27.817  1.00  0.00     0.029 A 
ATOM     56  N   UNL A   1      44.590  29.436  27.842  1.00  0.00    -0.354 N 
ATOM     57  N   UNL A   1      43.414  26.799  27.331  1.00  0.00    -0.248 NA
ATOM     58  C   UNL A   1      43.506  24.702  26.307  1.00  0.00     0.031 C 
ATOM     59  C   UNL A   1      46.648  29.838  27.108  1.00  0.00     0.029 A 
ATOM     60  C   UNL A   1      45.645  28.882  27.138  1.00  0.00     0.049 A 
ATOM     61  H   UNL A   1      43.736  28.984  28.028  1.00  0.00     0.167 HD
ATOM     62  C   UNL A   1      44.627  26.670  26.664  1.00  0.00     0.074 A 
ATOM     63  C   UNL A   1      44.639  25.349  26.070  1.00  0.00     0.031 C 
ATOM     64  C   UNL A   1      45.643  27.562  26.558  1.00  0.00     0.037 A 
BRANCH  51  65
ATOM     65  C   UNL A   1      44.481  32.993  29.274  1.00  0.00     0.057 A 
ATOM     66  C   UNL A   1      44.321  34.022  28.339  1.00  0.00     0.134 A 
ATOM     67  C   UNL A   1      45.055  33.323  30.509  1.00  0.00     0.134 A 
ATOM     68  F   UNL A   1      43.777  33.772  27.138  1.00  0.00    -0.206 F 
ATOM     69  C   UNL A   1      44.708  35.332  28.622  1.00  0.00     0.040 A 
ATOM     70  C   UNL A   1      45.423  34.636  30.814  1.00  0.00     0.040 A 
ATOM     71  F   UNL A   1      45.217  32.387  31.456  1.00  0.00    -0.206 F 
ATOM     72  C   UNL A   1      45.252  35.644  29.867  1.00  0.00     0.006 A 
ENDBRANCH  51  65
BRANCH  52  73
ATOM     73  C   UNL A   1      40.943  23.854  27.411  1.00  0.00     0.057 A 
ATOM     74  C   UNL A   1      39.919  23.607  26.489  1.00  0.00     0.134 A 
ATOM     75  C   UNL A   1      41.509  22.752  28.059  1.00  0.00     0.134 A 
ATOM     76  F   UNL A   1      39.342  24.623  25.831  1.00  0.00    -0.206 F 
ATOM     77  C   UNL A   1      39.469  22.313  26.227  1.00  0.00     0.040 A 
ATOM     78  C   UNL A   1      41.084  21.449  27.792  1.00  0.00     0.040 A 
ATOM     79  F   UNL A   1      42.512  22.924  28.933  1.00  0.00    -0.206 F 
ATOM     80  C   UNL A   1      40.057  21.228  26.876  1.00  0.00     0.006 A 
ENDBRANCH  52  73
BRANCH  64  81
ATOM     81  C   UNL A   1      46.865  27.124  25.808  1.00  0.00     0.057 A 
ATOM     82  C   UNL A   1      47.856  26.365  26.446  1.00  0.00     0.134 A 
ATOM     83  C   UNL A   1      47.081  27.478  24.471  1.00  0.00     0.134 A 
ATOM     84  F   UNL A   1      47.714  26.001  27.729  1.00  0.00    -0.206 F 
ATOM     85  C   UNL A   1      49.020  25.978  25.780  1.00  0.00     0.040 A 
ATOM     86  C   UNL A   1      48.230  27.075  23.787  1.00  0.00     0.040 A 
ATOM     87  F   UNL A   1      46.164  28.192  23.800  1.00  0.00    -0.206 F 
ATOM     88  C   UNL A   1      49.206  26.328  24.444  1.00  0.00     0.006 A 
ENDBRANCH  64  81
ENDBRANCH  38  39
ENDBRANCH  31  33
ENDBRANCH  30  31
ENDBRANCH  29  30
ENDBRANCH   1  29
TORSDOF 15
ENDMDL
MODEL 3
REMARK VINA RESULT:     -12.1      0.942      6.086
REMARK SMILES Cc1cccc2c1[C@H]1c3c(C)cccc3[C@H](CC(=O)OCCOCCOC(=O)c3ccc(-c4c5nc(c(-c6c(F)cccc6F)c6ccc([nH]6)c(-c6c(F)cccc6F)c6nc(c(-c7c(F)cccc7F)c7ccc4[nH]7)C=C6)C=C5)cc3)C[C@H]1CC2
REMARK SMILES IDX 24 1 23 2 22 3 21 4 20 5 18 6 19 7 17 8 16 9 1 10 2 11 3 12
REMARK SMILES IDX 7 13 4 14 6 15 8 16 5 17 86 18 9 19 84 20 85 21 10 22 15 23
REMARK SMILES IDX 83 24 12 25 11 26 14 27 13 28 25 29 26 30 27 31 28 32 29 33
REMARK SMILES IDX 30 34 82 35 31 36 81 37 32 38 33 39 34 40 75 41 35 42 80 43
REMARK SMILES IDX 74 44 76 45 36 46 79 47 73 48 72 49 37 51 63 52 46 53 62 54
REMARK SMILES IDX 47 55 50 56 61 57 77 58 48 59 49 60 60 62 78 63 51 64 38 65
REMARK SMILES IDX 39 66 44 67 40 68 41 69 43 70 45 71 42 72 64 73 65 74 70 75
REMARK SMILES IDX 66 76 67 77 69 78 71 79 68 80 52 81 53 82 58 83 54 84 55 85
REMARK SMILES IDX 57 86 59 87 56 88
REMARK H PARENT 76 50 50 61
REMARK Flexibility Score: inf
ROOT
ATOM      1  C   UNL A   1      41.841  21.105  26.075  1.00  0.00     0.202 C 
ENDROOT
BRANCH   1   2
ATOM      2  O   UNL A   1      40.871  21.582  27.008  1.00  0.00    -0.374 OA
BRANCH   2   3
ATOM      3  C   UNL A   1      39.726  22.250  26.470  1.00  0.00     0.202 C 
BRANCH   3   4
ATOM      4  C   UNL A   1      38.713  21.328  25.789  1.00  0.00     0.261 C 
BRANCH   4   5
ATOM      5  O   UNL A   1      37.522  22.080  25.509  1.00  0.00    -0.463 OA
BRANCH   5   6
ATOM      6  C   UNL A   1      36.355  21.395  25.420  1.00  0.00     0.306 C 
ATOM      7  O   UNL A   1      36.243  20.248  25.014  1.00  0.00    -0.252 OA
BRANCH   6   8
ATOM      8  C   UNL A   1      35.199  22.174  26.023  1.00  0.00     0.131 C 
BRANCH   8   9
ATOM      9  C   UNL A   1      34.402  23.093  25.062  1.00  0.00     0.031 C 
ATOM     10  C   UNL A   1      32.607  28.222  27.161  1.00  0.00     0.044 C 
ATOM     11  C   UNL A   1      32.150  28.160  25.725  1.00  0.00    -0.047 A 
ATOM     12  C   UNL A   1      31.367  29.224  25.245  1.00  0.00     0.004 A 
ATOM     13  C   UNL A   1      32.521  27.113  24.842  1.00  0.00    -0.034 A 
ATOM     14  C   UNL A   1      30.980  29.280  23.910  1.00  0.00     0.001 A 
ATOM     15  C   UNL A   1      32.245  27.258  23.462  1.00  0.00    -0.044 A 
ATOM     16  C   UNL A   1      33.208  25.841  25.337  1.00  0.00     0.053 C 
ATOM     17  C   UNL A   1      31.445  28.322  23.018  1.00  0.00     0.004 A 
ATOM     18  C   UNL A   1      32.900  26.393  22.411  1.00  0.00     0.036 C 
ATOM     19  C   UNL A   1      32.335  24.585  25.623  1.00  0.00    -0.034 A 
ATOM     20  C   UNL A   1      34.335  25.530  24.323  1.00  0.00     0.002 C 
ATOM     21  C   UNL A   1      33.753  25.239  22.931  1.00  0.00     0.009 C 
ATOM     22  C   UNL A   1      30.974  24.617  26.056  1.00  0.00    -0.047 A 
ATOM     23  C   UNL A   1      32.954  23.299  25.514  1.00  0.00    -0.040 A 
ATOM     24  C   UNL A   1      35.189  24.397  24.877  1.00  0.00     0.013 C 
ATOM     25  C   UNL A   1      30.286  23.416  26.333  1.00  0.00     0.004 A 
ATOM     26  C   UNL A   1      30.142  25.854  26.254  1.00  0.00     0.044 C 
ATOM     27  C   UNL A   1      32.198  22.129  25.749  1.00  0.00     0.004 A 
ATOM     28  C   UNL A   1      30.885  22.183  26.173  1.00  0.00     0.001 A 
ENDBRANCH   8   9
ENDBRANCH   6   8
ENDBRANCH   5   6
ENDBRANCH   4   5
ENDBRANCH   3   4
ENDBRANCH   2   3
ENDBRANCH   1   2
BRANCH   1  29
ATOM     29  C   UNL A   1      43.031  22.036  25.831  1.00  0.00     0.261 C 
BRANCH  29  30
ATOM     30  O   UNL A   1      42.647  23.176  25.040  1.00  0.00    -0.460 OA
BRANCH  30  31
ATOM     31  C   UNL A   1      43.437  24.259  25.199  1.00  0.00     0.338 C 
ATOM     32  O   UNL A   1      44.536  24.460  24.699  1.00  0.00    -0.246 OA
BRANCH  31  33
ATOM     33  C   UNL A   1      42.735  25.297  25.970  1.00  0.00     0.060 A 
ATOM     34  C   UNL A   1      43.433  26.481  26.235  1.00  0.00     0.016 A 
ATOM     35  C   UNL A   1      41.486  25.057  26.549  1.00  0.00     0.016 A 
ATOM     36  C   UNL A   1      42.922  27.400  27.145  1.00  0.00     0.010 A 
ATOM     37  C   UNL A   1      40.982  25.972  27.477  1.00  0.00     0.010 A 
ATOM     38  C   UNL A   1      41.727  27.116  27.818  1.00  0.00    -0.014 A 
BRANCH  38  39
ATOM     39  C   UNL A   1      41.408  27.876  29.049  1.00  0.00     0.031 A 
ATOM     40  C   UNL A   1      40.221  28.800  29.024  1.00  0.00     0.074 A 
ATOM     41  C   UNL A   1      42.115  27.711  30.178  1.00  0.00     0.049 A 
ATOM     42  N   UNL A   1      39.730  29.553  29.974  1.00  0.00    -0.248 NA
ATOM     43  C   UNL A   1      39.480  28.877  27.753  1.00  0.00     0.031 C 
ATOM     44  C   UNL A   1      43.242  26.798  30.347  1.00  0.00     0.029 A 
ATOM     45  N   UNL A   1      41.975  28.311  31.403  1.00  0.00    -0.354 N 
ATOM     46  C   UNL A   1      38.626  30.188  29.419  1.00  0.00     0.074 A 
ATOM     47  C   UNL A   1      38.535  29.756  28.042  1.00  0.00     0.031 C 
ATOM     48  C   UNL A   1      43.696  26.899  31.609  1.00  0.00     0.029 A 
ATOM     49  C   UNL A   1      42.907  27.901  32.323  1.00  0.00     0.049 A 
ATOM     50  H   UNL A   1      41.275  28.972  31.603  1.00  0.00     0.167 HD
ATOM     51  C   UNL A   1      37.758  31.047  30.005  1.00  0.00     0.037 A 
ATOM     52  C   UNL A   1      43.101  28.304  33.593  1.00  0.00     0.037 A 
ATOM     53  C   UNL A   1      37.859  31.494  31.368  1.00  0.00     0.049 A 
ATOM     54  C   UNL A   1      42.198  29.355  34.184  1.00  0.00     0.074 A 
ATOM     55  C   UNL A   1      37.029  32.357  32.058  1.00  0.00     0.029 A 
ATOM     56  N   UNL A   1      38.867  31.119  32.242  1.00  0.00    -0.354 N 
ATOM     57  N   UNL A   1      41.144  29.932  33.660  1.00  0.00    -0.248 NA
ATOM     58  C   UNL A   1      42.522  29.815  35.542  1.00  0.00     0.031 C 
ATOM     59  C   UNL A   1      37.564  32.545  33.338  1.00  0.00     0.029 A 
ATOM     60  C   UNL A   1      38.700  31.762  33.458  1.00  0.00     0.049 A 
ATOM     61  H   UNL A   1      39.593  30.490  32.032  1.00  0.00     0.167 HD
ATOM     62  C   UNL A   1      40.657  30.794  34.637  1.00  0.00     0.074 A 
ATOM     63  C   UNL A   1      41.532  30.663  35.783  1.00  0.00     0.031 C 
ATOM     64  C   UNL A   1      39.578  31.615  34.591  1.00  0.00     0.037 A 
BRANCH  51  65
ATOM     65  C   UNL A   1      36.654  31.586  29.144  1.00  0.00     0.057 A 
ATOM     66  C   UNL A   1      35.573  30.774  28.784  1.00  0.00     0.134 A 
ATOM     67  C   UNL A   1      36.649  32.912  28.691  1.00  0.00     0.134 A 
ATOM     68  F   UNL A   1      35.517  29.495  29.186  1.00  0.00    -0.206 F 
ATOM     69  C   UNL A   1      34.520  31.263  28.010  1.00  0.00     0.040 A 
ATOM     70  C   UNL A   1      35.588  33.419  27.937  1.00  0.00     0.040 A 
ATOM     71  F   UNL A   1      37.646  33.746  29.019  1.00  0.00    -0.206 F 
ATOM     72  C   UNL A   1      34.521  32.592  27.593  1.00  0.00     0.006 A 
ENDBRANCH  51  65
BRANCH  52  73
ATOM     73  C   UNL A   1      44.196  27.717  34.403  1.00  0.00     0.057 A 
ATOM     74  C   UNL A   1      43.997  26.572  35.182  1.00  0.00     0.134 A 
ATOM     75  C   UNL A   1      45.479  28.273  34.389  1.00  0.00     0.134 A 
ATOM     76  F   UNL A   1      42.790  25.988  35.231  1.00  0.00    -0.206 F 
ATOM     77  C   UNL A   1      45.032  26.005  35.926  1.00  0.00     0.040 A 
ATOM     78  C   UNL A   1      46.530  27.706  35.111  1.00  0.00     0.040 A 
ATOM     79  F   UNL A   1      45.737  29.356  33.640  1.00  0.00    -0.206 F 
ATOM     80  C   UNL A   1      46.306  26.570  35.887  1.00  0.00     0.006 A 
ENDBRANCH  52  73
BRANCH  64  81
ATOM     81  C   UNL A   1      39.262  32.402  35.828  1.00  0.00     0.057 A 
ATOM     82  C   UNL A   1      38.429  31.864  36.819  1.00  0.00     0.134 A 
ATOM     83  C   UNL A   1      39.749  33.699  36.027  1.00  0.00     0.134 A 
ATOM     84  F   UNL A   1      37.922  30.629  36.686  1.00  0.00    -0.206 F 
ATOM     85  C   UNL A   1      38.090  32.591  37.961  1.00  0.00     0.040 A 
ATOM     86  C   UNL A   1      39.437  34.427  37.177  1.00  0.00     0.040 A 
ATOM     87  F   UNL A   1      40.563  34.265  35.123  1.00  0.00    -0.206 F 
ATOM     88  C   UNL A   1      38.600  33.874  38.144  1.00  0.00     0.006 A 
ENDBRANCH  64  81
ENDBRANCH  38  39
ENDBRANCH  31  33
ENDBRANCH  30  31
ENDBRANCH  29  30
ENDBRANCH   1  29
TORSDOF 15
ENDMDL
