MODEL 1
REMARK VINA RESULT:     -10.2      0.000      0.000
REMARK SMILES CC1([C@](C)(Nc2cccc(Cl)c2)C(=O)OCCOCCOC(=O)c2ccc(-c3c4nc(c(-c5c(F)cccc5F)c5ccc([nH]5)c(-c5c(F)cccc5F)c5nc(c(-c6c(F)cccc6F)c6ccc3[nH]6)C=C5)C=C4)cc2)CC1
REMARK SMILES IDX 18 1 17 2 16 3 15 4 13 5 14 6 3 7 4 8 2 9 1 10 78 11 79 12
REMARK SMILES IDX 5 13 6 15 7 16 12 17 8 18 10 19 9 20 11 21 19 22 20 23 21 24
REMARK SMILES IDX 22 25 23 26 24 27 25 28 77 29 26 30 76 31 27 32 28 33 29 34
REMARK SMILES IDX 70 35 30 36 75 37 69 38 71 39 31 40 74 41 68 42 67 43 32 45
REMARK SMILES IDX 58 46 41 47 57 48 42 49 45 50 56 51 72 52 43 53 44 54 55 56
REMARK SMILES IDX 73 57 46 58 33 59 34 60 39 61 35 62 36 63 38 64 40 65 37 66
REMARK SMILES IDX 59 67 60 68 65 69 61 70 62 71 64 72 66 73 63 74 47 75 48 76
REMARK SMILES IDX 53 77 49 78 50 79 52 80 54 81 51 82
REMARK H PARENT 5 14 71 44 45 55
REMARK Flexibility Score: inf
ROOT
ATOM      1  O   UNL A   1      37.441  21.862  25.481  1.00  0.00    -0.374 OA
ENDROOT
BRANCH   1   2
ATOM      2  C   UNL A   1      37.216  23.062  24.747  1.00  0.00     0.202 C 
BRANCH   2   3
ATOM      3  C   UNL A   1      36.214  22.960  23.600  1.00  0.00     0.261 C 
BRANCH   3   4
ATOM      4  O   UNL A   1      35.167  22.010  23.873  1.00  0.00    -0.461 OA
BRANCH   4   5
ATOM      5  C   UNL A   1      33.907  22.475  23.644  1.00  0.00     0.332 C 
ATOM      6  O   UNL A   1      33.617  23.144  22.653  1.00  0.00    -0.249 OA
BRANCH   5   7
ATOM      7  C   UNL A   1      32.904  22.208  24.803  1.00  0.00     0.138 C 
ATOM      8  C   UNL A   1      31.592  22.909  24.323  1.00  0.00     0.048 C 
BRANCH   7   9
ATOM      9  C   UNL A   1      33.438  22.797  26.153  1.00  0.00     0.001 C 
ATOM     10  C   UNL A   1      33.775  24.275  26.145  1.00  0.00     0.014 C 
ATOM     11  C   UNL A   1      34.279  21.922  27.074  1.00  0.00     0.010 C 
ATOM     12  C   UNL A   1      32.887  22.305  27.485  1.00  0.00     0.010 C 
ENDBRANCH   7   9
BRANCH   7  13
ATOM     13  N   UNL A   1      32.442  20.820  25.051  1.00  0.00    -0.370 N 
ATOM     14  H   UNL A   1      31.858  20.757  25.841  1.00  0.00     0.161 HD
BRANCH  13  15
ATOM     15  C   UNL A   1      32.630  19.606  24.447  1.00  0.00     0.036 A 
ATOM     16  C   UNL A   1      32.105  19.280  23.199  1.00  0.00     0.026 A 
ATOM     17  C   UNL A   1      33.575  18.725  24.997  1.00  0.00     0.046 A 
ATOM     18  C   UNL A   1      32.537  18.149  22.498  1.00  0.00     0.004 A 
ATOM     19  C   UNL A   1      33.977  17.571  24.321  1.00  0.00     0.043 A 
ATOM     20  C   UNL A   1      33.475  17.289  23.059  1.00  0.00     0.020 A 
ATOM     21  Cl  UNL A   1      35.126  16.507  25.037  1.00  0.00    -0.084 Cl
ENDBRANCH  13  15
ENDBRANCH   7  13
ENDBRANCH   5   7
ENDBRANCH   4   5
ENDBRANCH   3   4
ENDBRANCH   2   3
ENDBRANCH   1   2
BRANCH   1  22
ATOM     22  C   UNL A   1      38.786  21.620  25.900  1.00  0.00     0.202 C 
BRANCH  22  23
ATOM     23  C   UNL A   1      39.410  20.323  25.367  1.00  0.00     0.261 C 
BRANCH  23  24
ATOM     24  O   UNL A   1      40.327  19.745  26.317  1.00  0.00    -0.460 OA
BRANCH  24  25
ATOM     25  C   UNL A   1      41.639  19.843  26.006  1.00  0.00     0.338 C 
ATOM     26  O   UNL A   1      42.281  19.118  25.258  1.00  0.00    -0.246 OA
BRANCH  25  27
ATOM     27  C   UNL A   1      42.186  21.096  26.565  1.00  0.00     0.060 A 
ATOM     28  C   UNL A   1      42.172  21.268  27.954  1.00  0.00     0.016 A 
ATOM     29  C   UNL A   1      42.665  22.113  25.740  1.00  0.00     0.016 A 
ATOM     30  C   UNL A   1      42.578  22.482  28.514  1.00  0.00     0.010 A 
ATOM     31  C   UNL A   1      43.120  23.309  26.304  1.00  0.00     0.010 A 
ATOM     32  C   UNL A   1      43.015  23.529  27.689  1.00  0.00    -0.014 A 
BRANCH  32  33
ATOM     33  C   UNL A   1      43.145  24.907  28.239  1.00  0.00     0.031 A 
ATOM     34  C   UNL A   1      44.520  25.413  28.605  1.00  0.00     0.074 A 
ATOM     35  C   UNL A   1      42.080  25.719  28.386  1.00  0.00     0.049 A 
ATOM     36  N   UNL A   1      44.879  26.560  29.123  1.00  0.00    -0.248 NA
ATOM     37  C   UNL A   1      45.641  24.485  28.379  1.00  0.00     0.031 C 
ATOM     38  C   UNL A   1      40.695  25.370  28.076  1.00  0.00     0.029 A 
ATOM     39  N   UNL A   1      42.007  27.016  28.835  1.00  0.00    -0.354 N 
ATOM     40  C   UNL A   1      46.253  26.474  29.316  1.00  0.00     0.074 A 
ATOM     41  C   UNL A   1      46.655  25.146  28.914  1.00  0.00     0.031 C 
ATOM     42  C   UNL A   1      39.910  26.434  28.327  1.00  0.00     0.029 A 
ATOM     43  C   UNL A   1      40.733  27.530  28.838  1.00  0.00     0.049 A 
ATOM     44  H   UNL A   1      42.794  27.528  29.129  1.00  0.00     0.167 HD
ATOM     45  C   UNL A   1      47.116  27.421  29.753  1.00  0.00     0.037 A 
ATOM     46  C   UNL A   1      40.283  28.746  29.207  1.00  0.00     0.037 A 
ATOM     47  C   UNL A   1      46.736  28.764  30.094  1.00  0.00     0.049 A 
ATOM     48  C   UNL A   1      41.260  29.788  29.690  1.00  0.00     0.074 A 
ATOM     49  C   UNL A   1      47.546  29.816  30.487  1.00  0.00     0.029 A 
ATOM     50  N   UNL A   1      45.436  29.244  30.073  1.00  0.00    -0.354 N 
ATOM     51  N   UNL A   1      42.562  29.707  29.820  1.00  0.00    -0.248 NA
ATOM     52  C   UNL A   1      40.702  31.096  30.068  1.00  0.00     0.031 C 
ATOM     53  C   UNL A   1      46.730  30.923  30.741  1.00  0.00     0.029 A 
ATOM     54  C   UNL A   1      45.418  30.572  30.461  1.00  0.00     0.049 A 
ATOM     55  H   UNL A   1      44.643  28.718  29.821  1.00  0.00     0.167 HD
ATOM     56  C   UNL A   1      42.981  30.960  30.257  1.00  0.00     0.074 A 
ATOM     57  C   UNL A   1      41.795  31.784  30.363  1.00  0.00     0.031 C 
ATOM     58  C   UNL A   1      44.235  31.388  30.541  1.00  0.00     0.037 A 
BRANCH  45  59
ATOM     59  C   UNL A   1      48.560  27.029  29.886  1.00  0.00     0.057 A 
ATOM     60  C   UNL A   1      49.497  27.289  28.877  1.00  0.00     0.134 A 
ATOM     61  C   UNL A   1      49.019  26.386  31.043  1.00  0.00     0.134 A 
ATOM     62  F   UNL A   1      49.120  27.888  27.737  1.00  0.00    -0.206 F 
ATOM     63  C   UNL A   1      50.829  26.890  28.998  1.00  0.00     0.040 A 
ATOM     64  C   UNL A   1      50.356  26.012  31.188  1.00  0.00     0.040 A 
ATOM     65  F   UNL A   1      48.176  26.113  32.051  1.00  0.00    -0.206 F 
ATOM     66  C   UNL A   1      51.263  26.255  30.159  1.00  0.00     0.006 A 
ENDBRANCH  45  59
BRANCH  46  67
ATOM     67  C   UNL A   1      38.836  29.068  29.110  1.00  0.00     0.057 A 
ATOM     68  C   UNL A   1      38.272  29.505  27.905  1.00  0.00     0.134 A 
ATOM     69  C   UNL A   1      37.990  28.976  30.221  1.00  0.00     0.134 A 
ATOM     70  F   UNL A   1      39.037  29.637  26.811  1.00  0.00    -0.206 F 
ATOM     71  C   UNL A   1      36.924  29.858  27.813  1.00  0.00     0.040 A 
ATOM     72  C   UNL A   1      36.635  29.303  30.137  1.00  0.00     0.040 A 
ATOM     73  F   UNL A   1      38.468  28.563  31.404  1.00  0.00    -0.206 F 
ATOM     74  C   UNL A   1      36.101  29.754  28.931  1.00  0.00     0.006 A 
ENDBRANCH  46  67
BRANCH  58  75
ATOM     75  C   UNL A   1      44.404  32.825  30.944  1.00  0.00     0.057 A 
ATOM     76  C   UNL A   1      44.581  33.845  30.001  1.00  0.00     0.134 A 
ATOM     77  C   UNL A   1      44.333  33.197  32.293  1.00  0.00     0.134 A 
ATOM     78  F   UNL A   1      44.668  33.555  28.694  1.00  0.00    -0.206 F 
ATOM     79  C   UNL A   1      44.702  35.181  30.386  1.00  0.00     0.040 A 
ATOM     80  C   UNL A   1      44.426  34.532  32.689  1.00  0.00     0.040 A 
ATOM     81  F   UNL A   1      44.152  32.271  33.247  1.00  0.00    -0.206 F 
ATOM     82  C   UNL A   1      44.616  35.528  31.733  1.00  0.00     0.006 A 
ENDBRANCH  58  75
ENDBRANCH  32  33
ENDBRANCH  25  27
ENDBRANCH  24  25
ENDBRANCH  23  24
ENDBRANCH  22  23
ENDBRANCH   1  22
TORSDOF 17
ENDMDL
MODEL 2
REMARK VINA RESULT:     -10.0      5.164      9.577
REMARK SMILES CC1([C@](C)(Nc2cccc(Cl)c2)C(=O)OCCOCCOC(=O)c2ccc(-c3c4nc(c(-c5c(F)cccc5F)c5ccc([nH]5)c(-c5c(F)cccc5F)c5nc(c(-c6c(F)cccc6F)c6ccc3[nH]6)C=C5)C=C4)cc2)CC1
REMARK SMILES IDX 18 1 17 2 16 3 15 4 13 5 14 6 3 7 4 8 2 9 1 10 78 11 79 12
REMARK SMILES IDX 5 13 6 15 7 16 12 17 8 18 10 19 9 20 11 21 19 22 20 23 21 24
REMARK SMILES IDX 22 25 23 26 24 27 25 28 77 29 26 30 76 31 27 32 28 33 29 34
REMARK SMILES IDX 70 35 30 36 75 37 69 38 71 39 31 40 74 41 68 42 67 43 32 45
REMARK SMILES IDX 58 46 41 47 57 48 42 49 45 50 56 51 72 52 43 53 44 54 55 56
REMARK SMILES IDX 73 57 46 58 33 59 34 60 39 61 35 62 36 63 38 64 40 65 37 66
REMARK SMILES IDX 59 67 60 68 65 69 61 70 62 71 64 72 66 73 63 74 47 75 48 76
REMARK SMILES IDX 53 77 49 78 50 79 52 80 54 81 51 82
REMARK H PARENT 5 14 71 44 45 55
REMARK Flexibility Score: inf
ROOT
ATOM      1  O   UNL A   1      32.509  30.484  27.331  1.00  0.00    -0.374 OA
ENDROOT
BRANCH   1   2
ATOM      2  C   UNL A   1      33.683  29.954  26.723  1.00  0.00     0.202 C 
BRANCH   2   3
ATOM      3  C   UNL A   1      33.925  28.462  26.937  1.00  0.00     0.261 C 
BRANCH   3   4
ATOM      4  O   UNL A   1      33.375  27.662  25.874  1.00  0.00    -0.461 OA
BRANCH   4   5
ATOM      5  C   UNL A   1      32.324  26.877  26.240  1.00  0.00     0.332 C 
ATOM      6  O   UNL A   1      31.798  26.949  27.350  1.00  0.00    -0.249 OA
BRANCH   5   7
ATOM      7  C   UNL A   1      31.938  25.794  25.193  1.00  0.00     0.138 C 
ATOM      8  C   UNL A   1      30.893  24.909  25.947  1.00  0.00     0.048 C 
BRANCH   7   9
ATOM      9  C   UNL A   1      33.196  24.976  24.741  1.00  0.00     0.001 C 
ATOM     10  C   UNL A   1      34.029  24.371  25.854  1.00  0.00     0.014 C 
ATOM     11  C   UNL A   1      33.954  25.397  23.488  1.00  0.00     0.010 C 
ATOM     12  C   UNL A   1      33.156  24.126  23.479  1.00  0.00     0.010 C 
ENDBRANCH   7   9
BRANCH   7  13
ATOM     13  N   UNL A   1      31.185  26.198  23.980  1.00  0.00    -0.370 N 
ATOM     14  H   UNL A   1      31.100  25.462  23.332  1.00  0.00     0.161 HD
BRANCH  13  15
ATOM     15  C   UNL A   1      30.581  27.347  23.545  1.00  0.00     0.036 A 
ATOM     16  C   UNL A   1      31.231  28.315  22.784  1.00  0.00     0.026 A 
ATOM     17  C   UNL A   1      29.187  27.460  23.676  1.00  0.00     0.046 A 
ATOM     18  C   UNL A   1      30.521  29.330  22.134  1.00  0.00     0.004 A 
ATOM     19  C   UNL A   1      28.479  28.497  23.065  1.00  0.00     0.043 A 
ATOM     20  C   UNL A   1      29.140  29.425  22.274  1.00  0.00     0.020 A 
ATOM     21  Cl  UNL A   1      26.773  28.611  23.263  1.00  0.00    -0.084 Cl
ENDBRANCH  13  15
ENDBRANCH   7  13
ENDBRANCH   5   7
ENDBRANCH   4   5
ENDBRANCH   3   4
ENDBRANCH   2   3
ENDBRANCH   1   2
BRANCH   1  22
ATOM     22  C   UNL A   1      31.701  31.333  26.513  1.00  0.00     0.202 C 
BRANCH  22  23
ATOM     23  C   UNL A   1      31.691  32.812  26.920  1.00  0.00     0.261 C 
BRANCH  23  24
ATOM     24  O   UNL A   1      33.026  33.323  27.098  1.00  0.00    -0.460 OA
BRANCH  24  25
ATOM     25  C   UNL A   1      33.205  34.154  28.151  1.00  0.00     0.338 C 
ATOM     26  O   UNL A   1      32.492  35.089  28.489  1.00  0.00    -0.246 OA
BRANCH  25  27
ATOM     27  C   UNL A   1      34.320  33.660  28.983  1.00  0.00     0.060 A 
ATOM     28  C   UNL A   1      35.581  34.248  28.826  1.00  0.00     0.016 A 
ATOM     29  C   UNL A   1      34.150  32.602  29.876  1.00  0.00     0.016 A 
ATOM     30  C   UNL A   1      36.684  33.736  29.514  1.00  0.00     0.010 A 
ATOM     31  C   UNL A   1      35.243  32.124  30.604  1.00  0.00     0.010 A 
ATOM     32  C   UNL A   1      36.531  32.641  30.377  1.00  0.00    -0.014 A 
BRANCH  32  33
ATOM     33  C   UNL A   1      37.730  31.900  30.861  1.00  0.00     0.031 A 
ATOM     34  C   UNL A   1      38.218  32.155  32.267  1.00  0.00     0.074 A 
ATOM     35  C   UNL A   1      38.364  30.991  30.094  1.00  0.00     0.049 A 
ATOM     36  N   UNL A   1      39.250  31.654  32.898  1.00  0.00    -0.248 NA
ATOM     37  C   UNL A   1      37.452  33.132  33.060  1.00  0.00     0.031 C 
ATOM     38  C   UNL A   1      38.007  30.640  28.721  1.00  0.00     0.029 A 
ATOM     39  N   UNL A   1      39.447  30.194  30.375  1.00  0.00    -0.354 N 
ATOM     40  C   UNL A   1      39.273  32.279  34.140  1.00  0.00     0.074 A 
ATOM     41  C   UNL A   1      38.191  33.236  34.153  1.00  0.00     0.031 C 
ATOM     42  C   UNL A   1      38.845  29.683  28.284  1.00  0.00     0.029 A 
ATOM     43  C   UNL A   1      39.812  29.371  29.337  1.00  0.00     0.049 A 
ATOM     44  H   UNL A   1      39.918  30.211  31.238  1.00  0.00     0.167 HD
ATOM     45  C   UNL A   1      40.095  32.059  35.193  1.00  0.00     0.037 A 
ATOM     46  C   UNL A   1      40.810  28.469  29.247  1.00  0.00     0.037 A 
ATOM     47  C   UNL A   1      41.134  31.066  35.213  1.00  0.00     0.049 A 
ATOM     48  C   UNL A   1      41.714  28.236  30.431  1.00  0.00     0.074 A 
ATOM     49  C   UNL A   1      41.978  30.722  36.254  1.00  0.00     0.029 A 
ATOM     50  N   UNL A   1      41.462  30.248  34.142  1.00  0.00    -0.354 N 
ATOM     51  N   UNL A   1      41.692  28.800  31.615  1.00  0.00    -0.248 NA
ATOM     52  C   UNL A   1      42.775  27.231  30.268  1.00  0.00     0.031 C 
ATOM     53  C   UNL A   1      42.845  29.722  35.800  1.00  0.00     0.029 A 
ATOM     54  C   UNL A   1      42.507  29.412  34.492  1.00  0.00     0.049 A 
ATOM     55  H   UNL A   1      41.019  30.262  33.263  1.00  0.00     0.167 HD
ATOM     56  C   UNL A   1      42.708  28.193  32.345  1.00  0.00     0.074 A 
ATOM     57  C   UNL A   1      43.322  27.213  31.475  1.00  0.00     0.031 C 
ATOM     58  C   UNL A   1      43.095  28.426  33.624  1.00  0.00     0.037 A 
BRANCH  45  59
ATOM     59  C   UNL A   1      39.899  32.914  36.412  1.00  0.00     0.057 A 
ATOM     60  C   UNL A   1      38.964  32.589  37.405  1.00  0.00     0.134 A 
ATOM     61  C   UNL A   1      40.659  34.076  36.596  1.00  0.00     0.134 A 
ATOM     62  F   UNL A   1      38.193  31.498  37.282  1.00  0.00    -0.206 F 
ATOM     63  C   UNL A   1      38.766  33.410  38.516  1.00  0.00     0.040 A 
ATOM     64  C   UNL A   1      40.492  34.886  37.720  1.00  0.00     0.040 A 
ATOM     65  F   UNL A   1      41.576  34.442  35.687  1.00  0.00    -0.206 F 
ATOM     66  C   UNL A   1      39.536  34.559  38.679  1.00  0.00     0.006 A 
ENDBRANCH  45  59
BRANCH  46  67
ATOM     67  C   UNL A   1      40.999  27.686  27.999  1.00  0.00     0.057 A 
ATOM     68  C   UNL A   1      41.785  28.180  26.950  1.00  0.00     0.134 A 
ATOM     69  C   UNL A   1      40.380  26.445  27.811  1.00  0.00     0.134 A 
ATOM     70  F   UNL A   1      42.384  29.374  27.059  1.00  0.00    -0.206 F 
ATOM     71  C   UNL A   1      41.931  27.477  25.751  1.00  0.00     0.040 A 
ATOM     72  C   UNL A   1      40.538  25.721  26.628  1.00  0.00     0.040 A 
ATOM     73  F   UNL A   1      39.617  25.917  28.778  1.00  0.00    -0.206 F 
ATOM     74  C   UNL A   1      41.309  26.242  25.591  1.00  0.00     0.006 A 
ENDBRANCH  46  67
BRANCH  58  75
ATOM     75  C   UNL A   1      44.199  27.574  34.182  1.00  0.00     0.057 A 
ATOM     76  C   UNL A   1      45.535  27.991  34.177  1.00  0.00     0.134 A 
ATOM     77  C   UNL A   1      43.909  26.342  34.783  1.00  0.00     0.134 A 
ATOM     78  F   UNL A   1      45.882  29.156  33.609  1.00  0.00    -0.206 F 
ATOM     79  C   UNL A   1      46.547  27.205  34.730  1.00  0.00     0.040 A 
ATOM     80  C   UNL A   1      44.907  25.558  35.362  1.00  0.00     0.040 A 
ATOM     81  F   UNL A   1      42.647  25.888  34.833  1.00  0.00    -0.206 F 
ATOM     82  C   UNL A   1      46.233  25.987  35.332  1.00  0.00     0.006 A 
ENDBRANCH  58  75
ENDBRANCH  32  33
ENDBRANCH  25  27
ENDBRANCH  24  25
ENDBRANCH  23  24
ENDBRANCH  22  23
ENDBRANCH   1  22
TORSDOF 17
ENDMDL
MODEL 3
REMARK VINA RESULT:     -10.0      4.270      8.659
REMARK SMILES CC1([C@](C)(Nc2cccc(Cl)c2)C(=O)OCCOCCOC(=O)c2ccc(-c3c4nc(c(-c5c(F)cccc5F)c5ccc([nH]5)c(-c5c(F)cccc5F)c5nc(c(-c6c(F)cccc6F)c6ccc3[nH]6)C=C5)C=C4)cc2)CC1
REMARK SMILES IDX 18 1 17 2 16 3 15 4 13 5 14 6 3 7 4 8 2 9 1 10 78 11 79 12
REMARK SMILES IDX 5 13 6 15 7 16 12 17 8 18 10 19 9 20 11 21 19 22 20 23 21 24
REMARK SMILES IDX 22 25 23 26 24 27 25 28 77 29 26 30 76 31 27 32 28 33 29 34
REMARK SMILES IDX 70 35 30 36 75 37 69 38 71 39 31 40 74 41 68 42 67 43 32 45
REMARK SMILES IDX 58 46 41 47 57 48 42 49 45 50 56 51 72 52 43 53 44 54 55 56
REMARK SMILES IDX 73 57 46 58 33 59 34 60 39 61 35 62 36 63 38 64 40 65 37 66
REMARK SMILES IDX 59 67 60 68 65 69 61 70 62 71 64 72 66 73 63 74 47 75 48 76
REMARK SMILES IDX 53 77 49 78 50 79 52 80 54 81 51 82
REMARK H PARENT 5 14 71 44 45 55
REMARK Flexibility Score: inf
ROOT
ATOM      1  O   UNL A   1      31.852  29.643  26.159  1.00  0.00    -0.374 OA
ENDROOT
BRANCH   1   2
ATOM      2  C   UNL A   1      32.255  28.681  25.189  1.00  0.00     0.202 C 
BRANCH   2   3
ATOM      3  C   UNL A   1      33.568  27.957  25.478  1.00  0.00     0.261 C 
BRANCH   3   4
ATOM      4  O   UNL A   1      33.999  27.146  24.370  1.00  0.00    -0.461 OA
BRANCH   4   5
ATOM      5  C   UNL A   1      33.946  25.804  24.595  1.00  0.00     0.332 C 
ATOM      6  O   UNL A   1      34.671  25.239  25.413  1.00  0.00    -0.249 OA
BRANCH   5   7
ATOM      7  C   UNL A   1      32.995  25.031  23.637  1.00  0.00     0.138 C 
ATOM      8  C   UNL A   1      33.144  25.789  22.279  1.00  0.00     0.048 C 
BRANCH   7   9
ATOM      9  C   UNL A   1      31.522  25.049  24.173  1.00  0.00     0.001 C 
ATOM     10  C   UNL A   1      31.360  24.919  25.674  1.00  0.00     0.014 C 
ATOM     11  C   UNL A   1      30.407  24.452  23.323  1.00  0.00     0.010 C 
ATOM     12  C   UNL A   1      30.471  25.938  23.521  1.00  0.00     0.010 C 
ENDBRANCH   7   9
BRANCH   7  13
ATOM     13  N   UNL A   1      33.333  23.638  23.254  1.00  0.00    -0.370 N 
ATOM     14  H   UNL A   1      33.479  23.543  22.285  1.00  0.00     0.161 HD
BRANCH  13  15
ATOM     15  C   UNL A   1      33.492  22.454  23.922  1.00  0.00     0.036 A 
ATOM     16  C   UNL A   1      32.462  21.536  24.113  1.00  0.00     0.026 A 
ATOM     17  C   UNL A   1      34.794  22.033  24.238  1.00  0.00     0.046 A 
ATOM     18  C   UNL A   1      32.717  20.233  24.553  1.00  0.00     0.004 A 
ATOM     19  C   UNL A   1      35.049  20.748  24.719  1.00  0.00     0.043 A 
ATOM     20  C   UNL A   1      34.014  19.835  24.859  1.00  0.00     0.020 A 
ATOM     21  Cl  UNL A   1      36.657  20.276  25.111  1.00  0.00    -0.084 Cl
ENDBRANCH  13  15
ENDBRANCH   7  13
ENDBRANCH   5   7
ENDBRANCH   4   5
ENDBRANCH   3   4
ENDBRANCH   2   3
ENDBRANCH   1   2
BRANCH   1  22
ATOM     22  C   UNL A   1      31.232  30.828  25.655  1.00  0.00     0.202 C 
BRANCH  22  23
ATOM     23  C   UNL A   1      31.451  32.088  26.503  1.00  0.00     0.261 C 
BRANCH  23  24
ATOM     24  O   UNL A   1      32.451  31.878  27.518  1.00  0.00    -0.460 OA
BRANCH  24  25
ATOM     25  C   UNL A   1      33.358  32.870  27.667  1.00  0.00     0.338 C 
ATOM     26  O   UNL A   1      33.144  34.075  27.696  1.00  0.00    -0.246 OA
BRANCH  25  27
ATOM     27  C   UNL A   1      34.677  32.287  27.985  1.00  0.00     0.060 A 
ATOM     28  C   UNL A   1      34.785  30.895  28.084  1.00  0.00     0.016 A 
ATOM     29  C   UNL A   1      35.789  33.092  28.229  1.00  0.00     0.016 A 
ATOM     30  C   UNL A   1      35.987  30.312  28.491  1.00  0.00     0.010 A 
ATOM     31  C   UNL A   1      37.008  32.505  28.585  1.00  0.00     0.010 A 
ATOM     32  C   UNL A   1      37.097  31.116  28.786  1.00  0.00    -0.014 A 
BRANCH  32  33
ATOM     33  C   UNL A   1      38.264  30.541  29.512  1.00  0.00     0.031 A 
ATOM     34  C   UNL A   1      38.459  30.899  30.966  1.00  0.00     0.074 A 
ATOM     35  C   UNL A   1      39.125  29.692  28.918  1.00  0.00     0.049 A 
ATOM     36  N   UNL A   1      39.410  30.546  31.794  1.00  0.00    -0.248 NA
ATOM     37  C   UNL A   1      37.457  31.800  31.560  1.00  0.00     0.031 C 
ATOM     38  C   UNL A   1      39.065  29.256  27.524  1.00  0.00     0.029 A 
ATOM     39  N   UNL A   1      40.223  29.040  29.426  1.00  0.00    -0.354 N 
ATOM     40  C   UNL A   1      39.137  31.209  32.986  1.00  0.00     0.074 A 
ATOM     41  C   UNL A   1      37.969  32.028  32.758  1.00  0.00     0.031 C 
ATOM     42  C   UNL A   1      40.071  28.393  27.292  1.00  0.00     0.029 A 
ATOM     43  C   UNL A   1      40.860  28.235  28.514  1.00  0.00     0.049 A 
ATOM     44  H   UNL A   1      40.525  29.141  30.357  1.00  0.00     0.167 HD
ATOM     45  C   UNL A   1      39.775  31.124  34.177  1.00  0.00     0.037 A 
ATOM     46  C   UNL A   1      41.953  27.457  28.649  1.00  0.00     0.037 A 
ATOM     47  C   UNL A   1      40.898  30.264  34.432  1.00  0.00     0.049 A 
ATOM     48  C   UNL A   1      42.648  27.373  29.984  1.00  0.00     0.074 A 
ATOM     49  C   UNL A   1      41.574  30.058  35.622  1.00  0.00     0.029 A 
ATOM     50  N   UNL A   1      41.505  29.458  33.481  1.00  0.00    -0.354 N 
ATOM     51  N   UNL A   1      42.350  27.967  31.113  1.00  0.00    -0.248 NA
ATOM     52  C   UNL A   1      43.829  26.499  30.063  1.00  0.00     0.031 C 
ATOM     53  C   UNL A   1      42.616  29.156  35.381  1.00  0.00     0.029 A 
ATOM     54  C   UNL A   1      42.557  28.766  34.053  1.00  0.00     0.049 A 
ATOM     55  H   UNL A   1      41.229  29.390  32.538  1.00  0.00     0.167 HD
ATOM     56  C   UNL A   1      43.279  27.511  32.042  1.00  0.00     0.074 A 
ATOM     57  C   UNL A   1      44.147  26.586  31.346  1.00  0.00     0.031 C 
ATOM     58  C   UNL A   1      43.400  27.831  33.355  1.00  0.00     0.037 A 
BRANCH  45  59
ATOM     59  C   UNL A   1      39.266  31.987  35.296  1.00  0.00     0.057 A 
ATOM     60  C   UNL A   1      38.361  31.508  36.253  1.00  0.00     0.134 A 
ATOM     61  C   UNL A   1      39.691  33.316  35.418  1.00  0.00     0.134 A 
ATOM     62  F   UNL A   1      37.903  30.248  36.184  1.00  0.00    -0.206 F 
ATOM     63  C   UNL A   1      37.869  32.329  37.268  1.00  0.00     0.040 A 
ATOM     64  C   UNL A   1      39.230  34.137  36.448  1.00  0.00     0.040 A 
ATOM     65  F   UNL A   1      40.561  33.837  34.539  1.00  0.00    -0.206 F 
ATOM     66  C   UNL A   1      38.309  33.647  37.371  1.00  0.00     0.006 A 
ENDBRANCH  45  59
BRANCH  46  67
ATOM     67  C   UNL A   1      42.452  26.663  27.497  1.00  0.00     0.057 A 
ATOM     68  C   UNL A   1      43.335  27.222  26.564  1.00  0.00     0.134 A 
ATOM     69  C   UNL A   1      42.039  25.343  27.283  1.00  0.00     0.134 A 
ATOM     70  F   UNL A   1      43.748  28.490  26.700  1.00  0.00    -0.206 F 
ATOM     71  C   UNL A   1      43.773  26.503  25.449  1.00  0.00     0.040 A 
ATOM     72  C   UNL A   1      42.488  24.605  26.185  1.00  0.00     0.040 A 
ATOM     73  F   UNL A   1      41.196  24.751  28.140  1.00  0.00    -0.206 F 
ATOM     74  C   UNL A   1      43.352  25.189  25.261  1.00  0.00     0.006 A 
ENDBRANCH  46  67
BRANCH  58  75
ATOM     75  C   UNL A   1      44.474  27.136  34.143  1.00  0.00     0.057 A 
ATOM     76  C   UNL A   1      44.264  25.893  34.751  1.00  0.00     0.134 A 
ATOM     77  C   UNL A   1      45.754  27.698  34.245  1.00  0.00     0.134 A 
ATOM     78  F   UNL A   1      43.058  25.305  34.698  1.00  0.00    -0.206 F 
ATOM     79  C   UNL A   1      45.281  25.242  35.450  1.00  0.00     0.040 A 
ATOM     80  C   UNL A   1      46.786  27.045  34.919  1.00  0.00     0.040 A 
ATOM     81  F   UNL A   1      46.026  28.881  33.675  1.00  0.00    -0.206 F 
ATOM     82  C   UNL A   1      46.549  25.815  35.529  1.00  0.00     0.006 A 
ENDBRANCH  58  75
ENDBRANCH  32  33
ENDBRANCH  25  27
ENDBRANCH  24  25
ENDBRANCH  23  24
ENDBRANCH  22  23
ENDBRANCH   1  22
TORSDOF 17
ENDMDL
