MODEL 1
REMARK VINA RESULT:     -11.4      0.000      0.000
REMARK SMILES Cc1ccc(Nc2c(F)cccc2Cl)c(CC(=O)OCCOCCOC(=O)c2ccc(-c3c4nc(c(-c5c(F)cccc5F)c5ccc([nH]5)c(-c5c(F)cccc5F)c5nc(c(-c6c(F)cccc6F)c6ccc3[nH]6)C=C5)C=C4)cc2)c1
REMARK SMILES IDX 21 1 20 2 19 3 17 4 18 5 16 6 15 7 1 8 2 9 3 10 82 11 4 12
REMARK SMILES IDX 5 13 6 14 7 16 8 17 13 18 9 19 10 20 12 21 14 22 11 23 22 24
REMARK SMILES IDX 23 25 24 26 25 27 26 28 27 29 28 30 29 31 81 32 30 33 80 34
REMARK SMILES IDX 31 35 32 36 33 37 74 38 34 39 79 40 73 41 75 42 35 43 78 44
REMARK SMILES IDX 72 45 71 46 36 48 62 49 45 50 61 51 46 52 49 53 60 54 76 55
REMARK SMILES IDX 47 56 48 57 59 59 77 60 50 61 37 62 38 63 43 64 39 65 40 66
REMARK SMILES IDX 42 67 44 68 41 69 63 70 64 71 69 72 65 73 66 74 68 75 70 76
REMARK SMILES IDX 67 77 51 78 52 79 57 80 53 81 54 82 56 83 58 84 55 85
REMARK H PARENT 6 15 75 47 49 58
REMARK Flexibility Score: inf
ROOT
ATOM      1  C   UNL A   1      31.838  27.885  26.347  1.00  0.00     0.202 C 
ENDROOT
BRANCH   1   2
ATOM      2  C   UNL A   1      32.293  26.446  26.187  1.00  0.00     0.261 C 
BRANCH   2   3
ATOM      3  O   UNL A   1      31.381  25.518  26.750  1.00  0.00    -0.463 OA
BRANCH   3   4
ATOM      4  C   UNL A   1      31.711  24.189  26.752  1.00  0.00     0.310 C 
ATOM      5  O   UNL A   1      31.464  23.372  27.624  1.00  0.00    -0.252 OA
BRANCH   4   6
ATOM      6  C   UNL A   1      32.483  23.849  25.487  1.00  0.00     0.160 C 
BRANCH   6   7
ATOM      7  C   UNL A   1      33.691  22.999  25.838  1.00  0.00    -0.013 A 
ATOM      8  C   UNL A   1      37.400  23.946  25.896  1.00  0.00     0.044 C 
ATOM      9  C   UNL A   1      36.145  23.127  25.908  1.00  0.00    -0.051 A 
ATOM     10  C   UNL A   1      36.189  21.754  25.707  1.00  0.00     0.005 A 
ATOM     11  C   UNL A   1      34.896  23.729  26.050  1.00  0.00     0.009 A 
ATOM     12  C   UNL A   1      35.006  21.016  25.579  1.00  0.00     0.026 A 
ATOM     13  C   UNL A   1      33.729  21.611  25.602  1.00  0.00     0.042 A 
BRANCH  13  14
ATOM     14  N   UNL A   1      32.555  20.851  25.331  1.00  0.00    -0.352 N 
ATOM     15  H   UNL A   1      31.720  21.198  25.721  1.00  0.00     0.167 HD
BRANCH  14  16
ATOM     16  C   UNL A   1      32.432  19.655  24.570  1.00  0.00     0.094 A 
ATOM     17  C   UNL A   1      32.590  18.394  25.165  1.00  0.00     0.148 A 
ATOM     18  C   UNL A   1      32.333  19.670  23.165  1.00  0.00     0.067 A 
ATOM     19  F   UNL A   1      32.531  18.271  26.501  1.00  0.00    -0.205 F 
ATOM     20  C   UNL A   1      32.829  17.242  24.420  1.00  0.00     0.041 A 
ATOM     21  C   UNL A   1      32.635  18.531  22.405  1.00  0.00     0.023 A 
ATOM     22  Cl  UNL A   1      31.779  21.066  22.308  1.00  0.00    -0.082 Cl
ATOM     23  C   UNL A   1      32.916  17.322  23.036  1.00  0.00     0.005 A 
ENDBRANCH  14  16
ENDBRANCH  13  14
ENDBRANCH   6   7
ENDBRANCH   4   6
ENDBRANCH   3   4
ENDBRANCH   2   3
ENDBRANCH   1   2
BRANCH   1  24
ATOM     24  O   UNL A   1      32.684  28.723  25.587  1.00  0.00    -0.374 OA
BRANCH  24  25
ATOM     25  C   UNL A   1      32.654  30.090  25.948  1.00  0.00     0.202 C 
BRANCH  25  26
ATOM     26  C   UNL A   1      33.324  30.293  27.307  1.00  0.00     0.261 C 
BRANCH  26  27
ATOM     27  O   UNL A   1      34.260  31.392  27.250  1.00  0.00    -0.460 OA
BRANCH  27  28
ATOM     28  C   UNL A   1      35.101  31.461  28.318  1.00  0.00     0.338 C 
ATOM     29  O   UNL A   1      35.342  32.486  28.953  1.00  0.00    -0.246 OA
BRANCH  28  30
ATOM     30  C   UNL A   1      35.897  30.208  28.433  1.00  0.00     0.060 A 
ATOM     31  C   UNL A   1      36.155  29.707  29.721  1.00  0.00     0.016 A 
ATOM     32  C   UNL A   1      36.696  29.827  27.355  1.00  0.00     0.016 A 
ATOM     33  C   UNL A   1      37.347  29.024  29.973  1.00  0.00     0.010 A 
ATOM     34  C   UNL A   1      37.929  29.274  27.636  1.00  0.00     0.010 A 
ATOM     35  C   UNL A   1      38.283  28.921  28.950  1.00  0.00    -0.014 A 
BRANCH  35  36
ATOM     36  C   UNL A   1      39.696  28.588  29.133  1.00  0.00     0.031 A 
ATOM     37  C   UNL A   1      40.155  27.219  28.841  1.00  0.00     0.074 A 
ATOM     38  C   UNL A   1      40.615  29.567  29.299  1.00  0.00     0.049 A 
ATOM     39  N   UNL A   1      41.366  26.829  29.015  1.00  0.00    -0.248 NA
ATOM     40  C   UNL A   1      39.278  26.140  28.388  1.00  0.00     0.031 C 
ATOM     41  C   UNL A   1      42.037  29.553  28.937  1.00  0.00     0.029 A 
ATOM     42  N   UNL A   1      40.459  30.817  29.878  1.00  0.00    -0.354 N 
ATOM     43  C   UNL A   1      41.512  25.631  28.372  1.00  0.00     0.074 A 
ATOM     44  C   UNL A   1      40.167  25.175  28.132  1.00  0.00     0.031 C 
ATOM     45  C   UNL A   1      42.651  30.612  29.491  1.00  0.00     0.029 A 
ATOM     46  C   UNL A   1      41.691  31.253  30.369  1.00  0.00     0.049 A 
ATOM     47  H   UNL A   1      39.613  31.317  29.934  1.00  0.00     0.167 HD
ATOM     48  C   UNL A   1      42.770  25.247  28.026  1.00  0.00     0.037 A 
ATOM     49  C   UNL A   1      41.868  31.549  31.688  1.00  0.00     0.037 A 
ATOM     50  C   UNL A   1      43.776  26.098  28.688  1.00  0.00     0.049 A 
ATOM     51  C   UNL A   1      42.712  30.464  32.339  1.00  0.00     0.074 A 
ATOM     52  C   UNL A   1      44.679  27.067  28.291  1.00  0.00     0.029 A 
ATOM     53  N   UNL A   1      43.721  26.190  30.073  1.00  0.00    -0.354 N 
ATOM     54  N   UNL A   1      43.265  29.491  31.662  1.00  0.00    -0.248 NA
ATOM     55  C   UNL A   1      42.965  30.329  33.770  1.00  0.00     0.031 C 
ATOM     56  C   UNL A   1      45.098  27.783  29.466  1.00  0.00     0.029 A 
ATOM     57  C   UNL A   1      44.491  27.218  30.577  1.00  0.00     0.049 A 
ATOM     58  H   UNL A   1      43.189  25.585  30.636  1.00  0.00     0.167 HD
ATOM     59  C   UNL A   1      43.864  28.598  32.489  1.00  0.00     0.074 A 
ATOM     60  C   UNL A   1      43.637  29.161  33.815  1.00  0.00     0.031 C 
ATOM     61  C   UNL A   1      44.474  27.465  32.021  1.00  0.00     0.037 A 
BRANCH  48  62
ATOM     62  C   UNL A   1      43.096  24.169  27.021  1.00  0.00     0.057 A 
ATOM     63  C   UNL A   1      43.212  24.493  25.657  1.00  0.00     0.134 A 
ATOM     64  C   UNL A   1      43.220  22.791  27.301  1.00  0.00     0.134 A 
ATOM     65  F   UNL A   1      43.097  25.759  25.230  1.00  0.00    -0.206 F 
ATOM     66  C   UNL A   1      43.437  23.532  24.661  1.00  0.00     0.040 A 
ATOM     67  C   UNL A   1      43.497  21.827  26.321  1.00  0.00     0.040 A 
ATOM     68  F   UNL A   1      43.022  22.284  28.524  1.00  0.00    -0.206 F 
ATOM     69  C   UNL A   1      43.596  22.193  24.991  1.00  0.00     0.006 A 
ENDBRANCH  48  62
BRANCH  49  70
ATOM     70  C   UNL A   1      40.673  32.279  32.219  1.00  0.00     0.057 A 
ATOM     71  C   UNL A   1      40.530  33.613  31.767  1.00  0.00     0.134 A 
ATOM     72  C   UNL A   1      39.495  31.593  32.542  1.00  0.00     0.134 A 
ATOM     73  F   UNL A   1      41.617  34.334  31.444  1.00  0.00    -0.206 F 
ATOM     74  C   UNL A   1      39.282  34.148  31.432  1.00  0.00     0.040 A 
ATOM     75  C   UNL A   1      38.238  32.134  32.223  1.00  0.00     0.040 A 
ATOM     76  F   UNL A   1      39.542  30.313  32.932  1.00  0.00    -0.206 F 
ATOM     77  C   UNL A   1      38.135  33.384  31.611  1.00  0.00     0.006 A 
ENDBRANCH  49  70
BRANCH  61  78
ATOM     78  C   UNL A   1      45.088  26.465  32.955  1.00  0.00     0.057 A 
ATOM     79  C   UNL A   1      46.473  26.276  33.032  1.00  0.00     0.134 A 
ATOM     80  C   UNL A   1      44.310  25.616  33.768  1.00  0.00     0.134 A 
ATOM     81  F   UNL A   1      47.308  26.942  32.220  1.00  0.00    -0.206 F 
ATOM     82  C   UNL A   1      47.053  25.391  33.945  1.00  0.00     0.040 A 
ATOM     83  C   UNL A   1      44.875  24.678  34.632  1.00  0.00     0.040 A 
ATOM     84  F   UNL A   1      42.973  25.680  33.793  1.00  0.00    -0.206 F 
ATOM     85  C   UNL A   1      46.252  24.588  34.751  1.00  0.00     0.006 A 
ENDBRANCH  61  78
ENDBRANCH  35  36
ENDBRANCH  28  30
ENDBRANCH  27  28
ENDBRANCH  26  27
ENDBRANCH  25  26
ENDBRANCH  24  25
ENDBRANCH   1  24
TORSDOF 17
ENDMDL
MODEL 2
REMARK VINA RESULT:     -11.1      2.778      4.422
REMARK SMILES Cc1ccc(Nc2c(F)cccc2Cl)c(CC(=O)OCCOCCOC(=O)c2ccc(-c3c4nc(c(-c5c(F)cccc5F)c5ccc([nH]5)c(-c5c(F)cccc5F)c5nc(c(-c6c(F)cccc6F)c6ccc3[nH]6)C=C5)C=C4)cc2)c1
REMARK SMILES IDX 21 1 20 2 19 3 17 4 18 5 16 6 15 7 1 8 2 9 3 10 82 11 4 12
REMARK SMILES IDX 5 13 6 14 7 16 8 17 13 18 9 19 10 20 12 21 14 22 11 23 22 24
REMARK SMILES IDX 23 25 24 26 25 27 26 28 27 29 28 30 29 31 81 32 30 33 80 34
REMARK SMILES IDX 31 35 32 36 33 37 74 38 34 39 79 40 73 41 75 42 35 43 78 44
REMARK SMILES IDX 72 45 71 46 36 48 62 49 45 50 61 51 46 52 49 53 60 54 76 55
REMARK SMILES IDX 47 56 48 57 59 59 77 60 50 61 37 62 38 63 43 64 39 65 40 66
REMARK SMILES IDX 42 67 44 68 41 69 63 70 64 71 69 72 65 73 66 74 68 75 70 76
REMARK SMILES IDX 67 77 51 78 52 79 57 80 53 81 54 82 56 83 58 84 55 85
REMARK H PARENT 6 15 75 47 49 58
REMARK Flexibility Score: inf
ROOT
ATOM      1  C   UNL A   1      31.765  28.986  27.176  1.00  0.00     0.202 C 
ENDROOT
BRANCH   1   2
ATOM      2  C   UNL A   1      32.139  27.541  26.905  1.00  0.00     0.261 C 
BRANCH   2   3
ATOM      3  O   UNL A   1      31.007  26.700  26.762  1.00  0.00    -0.463 OA
BRANCH   3   4
ATOM      4  C   UNL A   1      31.188  25.426  26.293  1.00  0.00     0.310 C 
ATOM      5  O   UNL A   1      32.007  24.609  26.682  1.00  0.00    -0.252 OA
BRANCH   4   6
ATOM      6  C   UNL A   1      30.215  25.154  25.156  1.00  0.00     0.160 C 
BRANCH   6   7
ATOM      7  C   UNL A   1      30.934  25.287  23.825  1.00  0.00    -0.013 A 
ATOM      8  C   UNL A   1      33.564  23.000  22.241  1.00  0.00     0.044 C 
ATOM      9  C   UNL A   1      32.689  24.189  22.500  1.00  0.00    -0.051 A 
ATOM     10  C   UNL A   1      32.956  25.413  21.902  1.00  0.00     0.005 A 
ATOM     11  C   UNL A   1      31.628  24.118  23.401  1.00  0.00     0.009 A 
ATOM     12  C   UNL A   1      32.223  26.553  22.255  1.00  0.00     0.026 A 
ATOM     13  C   UNL A   1      31.222  26.538  23.247  1.00  0.00     0.042 A 
BRANCH  13  14
ATOM     14  N   UNL A   1      30.592  27.741  23.677  1.00  0.00    -0.352 N 
ATOM     15  H   UNL A   1      30.856  28.068  24.568  1.00  0.00     0.167 HD
BRANCH  14  16
ATOM     16  C   UNL A   1      29.632  28.534  22.988  1.00  0.00     0.094 A 
ATOM     17  C   UNL A   1      30.022  29.626  22.199  1.00  0.00     0.148 A 
ATOM     18  C   UNL A   1      28.248  28.386  23.205  1.00  0.00     0.067 A 
ATOM     19  F   UNL A   1      31.301  29.751  21.812  1.00  0.00    -0.205 F 
ATOM     20  C   UNL A   1      29.129  30.621  21.809  1.00  0.00     0.041 A 
ATOM     21  C   UNL A   1      27.350  29.411  22.872  1.00  0.00     0.023 A 
ATOM     22  Cl  UNL A   1      27.577  26.921  23.831  1.00  0.00    -0.082 Cl
ATOM     23  C   UNL A   1      27.799  30.545  22.201  1.00  0.00     0.005 A 
ENDBRANCH  14  16
ENDBRANCH  13  14
ENDBRANCH   6   7
ENDBRANCH   4   6
ENDBRANCH   3   4
ENDBRANCH   2   3
ENDBRANCH   1   2
BRANCH   1  24
ATOM     24  O   UNL A   1      32.550  29.826  26.355  1.00  0.00    -0.374 OA
BRANCH  24  25
ATOM     25  C   UNL A   1      33.192  30.891  27.028  1.00  0.00     0.202 C 
BRANCH  25  26
ATOM     26  C   UNL A   1      34.539  30.428  27.585  1.00  0.00     0.261 C 
BRANCH  26  27
ATOM     27  O   UNL A   1      35.456  31.540  27.682  1.00  0.00    -0.460 OA
BRANCH  27  28
ATOM     28  C   UNL A   1      36.370  31.421  28.681  1.00  0.00     0.338 C 
ATOM     29  O   UNL A   1      36.769  32.350  29.380  1.00  0.00    -0.246 OA
BRANCH  28  30
ATOM     30  C   UNL A   1      37.028  30.085  28.627  1.00  0.00     0.060 A 
ATOM     31  C   UNL A   1      37.021  29.298  29.793  1.00  0.00     0.016 A 
ATOM     32  C   UNL A   1      37.962  29.845  27.620  1.00  0.00     0.016 A 
ATOM     33  C   UNL A   1      38.091  28.441  30.056  1.00  0.00     0.010 A 
ATOM     34  C   UNL A   1      39.079  29.103  27.948  1.00  0.00     0.010 A 
ATOM     35  C   UNL A   1      39.175  28.443  29.185  1.00  0.00    -0.014 A 
BRANCH  35  36
ATOM     36  C   UNL A   1      40.503  27.913  29.494  1.00  0.00     0.031 A 
ATOM     37  C   UNL A   1      40.894  26.598  28.958  1.00  0.00     0.074 A 
ATOM     38  C   UNL A   1      41.455  28.716  30.024  1.00  0.00     0.049 A 
ATOM     39  N   UNL A   1      42.022  26.039  29.215  1.00  0.00    -0.248 NA
ATOM     40  C   UNL A   1      40.025  25.757  28.136  1.00  0.00     0.031 C 
ATOM     41  C   UNL A   1      42.912  28.614  29.886  1.00  0.00     0.029 A 
ATOM     42  N   UNL A   1      41.302  29.817  30.852  1.00  0.00    -0.354 N 
ATOM     43  C   UNL A   1      42.179  25.003  28.335  1.00  0.00     0.074 A 
ATOM     44  C   UNL A   1      40.864  24.773  27.796  1.00  0.00     0.031 C 
ATOM     45  C   UNL A   1      43.505  29.444  30.761  1.00  0.00     0.029 A 
ATOM     46  C   UNL A   1      42.462  29.986  31.611  1.00  0.00     0.049 A 
ATOM     47  H   UNL A   1      40.502  30.389  30.896  1.00  0.00     0.167 HD
ATOM     48  C   UNL A   1      43.443  24.559  28.101  1.00  0.00     0.037 A 
ATOM     49  C   UNL A   1      42.431  29.960  32.974  1.00  0.00     0.037 A 
ATOM     50  C   UNL A   1      44.384  25.118  29.089  1.00  0.00     0.049 A 
ATOM     51  C   UNL A   1      43.059  28.666  33.469  1.00  0.00     0.074 A 
ATOM     52  C   UNL A   1      45.417  26.037  29.073  1.00  0.00     0.029 A 
ATOM     53  N   UNL A   1      44.098  24.908  30.432  1.00  0.00    -0.354 N 
ATOM     54  N   UNL A   1      43.641  27.808  32.671  1.00  0.00    -0.248 NA
ATOM     55  C   UNL A   1      43.049  28.190  34.847  1.00  0.00     0.031 C 
ATOM     56  C   UNL A   1      45.683  26.422  30.434  1.00  0.00     0.029 A 
ATOM     57  C   UNL A   1      44.849  25.701  31.275  1.00  0.00     0.049 A 
ATOM     58  H   UNL A   1      43.429  24.261  30.750  1.00  0.00     0.167 HD
ATOM     59  C   UNL A   1      44.013  26.690  33.343  1.00  0.00     0.074 A 
ATOM     60  C   UNL A   1      43.607  26.970  34.715  1.00  0.00     0.031 C 
ATOM     61  C   UNL A   1      44.602  25.624  32.717  1.00  0.00     0.037 A 
BRANCH  48  62
ATOM     62  C   UNL A   1      43.851  23.698  26.931  1.00  0.00     0.057 A 
ATOM     63  C   UNL A   1      44.496  24.279  25.823  1.00  0.00     0.134 A 
ATOM     64  C   UNL A   1      43.566  22.323  26.779  1.00  0.00     0.134 A 
ATOM     65  F   UNL A   1      44.814  25.581  25.807  1.00  0.00    -0.206 F 
ATOM     66  C   UNL A   1      44.834  23.555  24.670  1.00  0.00     0.040 A 
ATOM     67  C   UNL A   1      43.946  21.577  25.654  1.00  0.00     0.040 A 
ATOM     68  F   UNL A   1      42.855  21.632  27.677  1.00  0.00    -0.206 F 
ATOM     69  C   UNL A   1      44.572  22.194  24.587  1.00  0.00     0.006 A 
ENDBRANCH  48  62
BRANCH  49  70
ATOM     70  C   UNL A   1      41.225  30.691  33.477  1.00  0.00     0.057 A 
ATOM     71  C   UNL A   1      41.277  32.100  33.351  1.00  0.00     0.134 A 
ATOM     72  C   UNL A   1      39.955  30.101  33.435  1.00  0.00     0.134 A 
ATOM     73  F   UNL A   1      42.459  32.735  33.389  1.00  0.00    -0.206 F 
ATOM     74  C   UNL A   1      40.158  32.848  32.970  1.00  0.00     0.040 A 
ATOM     75  C   UNL A   1      38.825  30.851  33.069  1.00  0.00     0.040 A 
ATOM     76  F   UNL A   1      39.825  28.769  33.499  1.00  0.00    -0.206 F 
ATOM     77  C   UNL A   1      38.938  32.212  32.775  1.00  0.00     0.006 A 
ENDBRANCH  49  70
BRANCH  61  78
ATOM     78  C   UNL A   1      44.963  24.377  33.469  1.00  0.00     0.057 A 
ATOM     79  C   UNL A   1      43.989  23.495  33.952  1.00  0.00     0.134 A 
ATOM     80  C   UNL A   1      46.296  24.048  33.785  1.00  0.00     0.134 A 
ATOM     81  F   UNL A   1      42.682  23.766  33.816  1.00  0.00    -0.206 F 
ATOM     82  C   UNL A   1      44.323  22.301  34.597  1.00  0.00     0.040 A 
ATOM     83  C   UNL A   1      46.638  22.895  34.491  1.00  0.00     0.040 A 
ATOM     84  F   UNL A   1      47.331  24.803  33.394  1.00  0.00    -0.206 F 
ATOM     85  C   UNL A   1      45.653  21.996  34.868  1.00  0.00     0.006 A 
ENDBRANCH  61  78
ENDBRANCH  35  36
ENDBRANCH  28  30
ENDBRANCH  27  28
ENDBRANCH  26  27
ENDBRANCH  25  26
ENDBRANCH  24  25
ENDBRANCH   1  24
TORSDOF 17
ENDMDL
MODEL 3
REMARK VINA RESULT:     -11.0      3.532      8.533
REMARK SMILES Cc1ccc(Nc2c(F)cccc2Cl)c(CC(=O)OCCOCCOC(=O)c2ccc(-c3c4nc(c(-c5c(F)cccc5F)c5ccc([nH]5)c(-c5c(F)cccc5F)c5nc(c(-c6c(F)cccc6F)c6ccc3[nH]6)C=C5)C=C4)cc2)c1
REMARK SMILES IDX 21 1 20 2 19 3 17 4 18 5 16 6 15 7 1 8 2 9 3 10 82 11 4 12
REMARK SMILES IDX 5 13 6 14 7 16 8 17 13 18 9 19 10 20 12 21 14 22 11 23 22 24
REMARK SMILES IDX 23 25 24 26 25 27 26 28 27 29 28 30 29 31 81 32 30 33 80 34
REMARK SMILES IDX 31 35 32 36 33 37 74 38 34 39 79 40 73 41 75 42 35 43 78 44
REMARK SMILES IDX 72 45 71 46 36 48 62 49 45 50 61 51 46 52 49 53 60 54 76 55
REMARK SMILES IDX 47 56 48 57 59 59 77 60 50 61 37 62 38 63 43 64 39 65 40 66
REMARK SMILES IDX 42 67 44 68 41 69 63 70 64 71 69 72 65 73 66 74 68 75 70 76
REMARK SMILES IDX 67 77 51 78 52 79 57 80 53 81 54 82 56 83 58 84 55 85
REMARK H PARENT 6 15 75 47 49 58
REMARK Flexibility Score: inf
ROOT
ATOM      1  C   UNL A   1      36.375  23.545  25.650  1.00  0.00     0.202 C 
ENDROOT
BRANCH   1   2
ATOM      2  C   UNL A   1      35.060  23.150  25.002  1.00  0.00     0.261 C 
BRANCH   2   3
ATOM      3  O   UNL A   1      34.008  24.049  25.305  1.00  0.00    -0.463 OA
BRANCH   3   4
ATOM      4  C   UNL A   1      33.441  24.768  24.287  1.00  0.00     0.310 C 
ATOM      5  O   UNL A   1      33.781  24.775  23.115  1.00  0.00    -0.252 OA
BRANCH   4   6
ATOM      6  C   UNL A   1      32.303  25.618  24.830  1.00  0.00     0.160 C 
BRANCH   6   7
ATOM      7  C   UNL A   1      32.712  27.080  24.831  1.00  0.00    -0.013 A 
ATOM      8  C   UNL A   1      34.404  29.131  27.584  1.00  0.00     0.044 C 
ATOM      9  C   UNL A   1      33.675  28.779  26.324  1.00  0.00    -0.051 A 
ATOM     10  C   UNL A   1      33.010  29.752  25.591  1.00  0.00     0.005 A 
ATOM     11  C   UNL A   1      33.584  27.457  25.892  1.00  0.00     0.009 A 
ATOM     12  C   UNL A   1      32.214  29.397  24.494  1.00  0.00     0.026 A 
ATOM     13  C   UNL A   1      32.009  28.059  24.103  1.00  0.00     0.042 A 
BRANCH  13  14
ATOM     14  N   UNL A   1      31.086  27.726  23.070  1.00  0.00    -0.352 N 
ATOM     15  H   UNL A   1      31.334  26.959  22.504  1.00  0.00     0.167 HD
BRANCH  14  16
ATOM     16  C   UNL A   1      29.850  28.356  22.750  1.00  0.00     0.094 A 
ATOM     17  C   UNL A   1      29.814  29.568  22.044  1.00  0.00     0.148 A 
ATOM     18  C   UNL A   1      28.624  27.907  23.278  1.00  0.00     0.067 A 
ATOM     19  F   UNL A   1      30.899  29.987  21.375  1.00  0.00    -0.205 F 
ATOM     20  C   UNL A   1      28.685  30.384  22.022  1.00  0.00     0.041 A 
ATOM     21  C   UNL A   1      27.501  28.746  23.316  1.00  0.00     0.023 A 
ATOM     22  Cl  UNL A   1      28.418  26.287  23.848  1.00  0.00    -0.082 Cl
ATOM     23  C   UNL A   1      27.544  30.001  22.714  1.00  0.00     0.005 A 
ENDBRANCH  14  16
ENDBRANCH  13  14
ENDBRANCH   6   7
ENDBRANCH   4   6
ENDBRANCH   3   4
ENDBRANCH   2   3
ENDBRANCH   1   2
BRANCH   1  24
ATOM     24  O   UNL A   1      37.044  22.378  26.082  1.00  0.00    -0.374 OA
BRANCH  24  25
ATOM     25  C   UNL A   1      37.926  21.809  25.134  1.00  0.00     0.202 C 
BRANCH  25  26
ATOM     26  C   UNL A   1      39.221  21.368  25.816  1.00  0.00     0.261 C 
BRANCH  26  27
ATOM     27  O   UNL A   1      39.553  22.264  26.899  1.00  0.00    -0.460 OA
BRANCH  27  28
ATOM     28  C   UNL A   1      40.509  23.181  26.589  1.00  0.00     0.338 C 
ATOM     29  O   UNL A   1      41.699  22.923  26.419  1.00  0.00    -0.246 OA
BRANCH  28  30
ATOM     30  C   UNL A   1      39.978  24.562  26.761  1.00  0.00     0.060 A 
ATOM     31  C   UNL A   1      40.656  25.615  26.119  1.00  0.00     0.016 A 
ATOM     32  C   UNL A   1      39.139  24.822  27.844  1.00  0.00     0.016 A 
ATOM     33  C   UNL A   1      40.686  26.880  26.707  1.00  0.00     0.010 A 
ATOM     34  C   UNL A   1      39.284  26.033  28.490  1.00  0.00     0.010 A 
ATOM     35  C   UNL A   1      40.098  27.047  27.957  1.00  0.00    -0.014 A 
BRANCH  35  36
ATOM     36  C   UNL A   1      40.355  28.165  28.865  1.00  0.00     0.031 A 
ATOM     37  C   UNL A   1      39.427  29.310  28.876  1.00  0.00     0.074 A 
ATOM     38  C   UNL A   1      41.257  28.042  29.866  1.00  0.00     0.049 A 
ATOM     39  N   UNL A   1      39.600  30.350  29.608  1.00  0.00    -0.248 NA
ATOM     40  C   UNL A   1      38.252  29.419  28.013  1.00  0.00     0.031 C 
ATOM     41  C   UNL A   1      41.276  28.724  31.164  1.00  0.00     0.029 A 
ATOM     42  N   UNL A   1      42.406  27.267  29.911  1.00  0.00    -0.354 N 
ATOM     43  C   UNL A   1      38.429  31.057  29.605  1.00  0.00     0.074 A 
ATOM     44  C   UNL A   1      37.682  30.530  28.493  1.00  0.00     0.031 C 
ATOM     45  C   UNL A   1      42.461  28.518  31.762  1.00  0.00     0.029 A 
ATOM     46  C   UNL A   1      43.313  27.840  30.803  1.00  0.00     0.049 A 
ATOM     47  H   UNL A   1      42.556  26.442  29.395  1.00  0.00     0.167 HD
ATOM     48  C   UNL A   1      38.209  31.921  30.632  1.00  0.00     0.037 A 
ATOM     49  C   UNL A   1      44.556  28.233  30.402  1.00  0.00     0.037 A 
ATOM     50  C   UNL A   1      39.443  32.130  31.412  1.00  0.00     0.049 A 
ATOM     51  C   UNL A   1      44.615  29.752  30.357  1.00  0.00     0.074 A 
ATOM     52  C   UNL A   1      39.896  31.789  32.673  1.00  0.00     0.029 A 
ATOM     53  N   UNL A   1      40.568  32.563  30.721  1.00  0.00    -0.354 N 
ATOM     54  N   UNL A   1      43.638  30.514  30.775  1.00  0.00    -0.248 NA
ATOM     55  C   UNL A   1      45.710  30.542  29.805  1.00  0.00     0.031 C 
ATOM     56  C   UNL A   1      41.324  31.959  32.687  1.00  0.00     0.029 A 
ATOM     57  C   UNL A   1      41.730  32.448  31.455  1.00  0.00     0.049 A 
ATOM     58  H   UNL A   1      40.539  32.915  29.803  1.00  0.00     0.167 HD
ATOM     59  C   UNL A   1      43.894  31.822  30.519  1.00  0.00     0.074 A 
ATOM     60  C   UNL A   1      45.210  31.791  29.892  1.00  0.00     0.031 C 
ATOM     61  C   UNL A   1      43.000  32.813  30.821  1.00  0.00     0.037 A 
BRANCH  48  62
ATOM     62  C   UNL A   1      36.865  32.505  30.994  1.00  0.00     0.057 A 
ATOM     63  C   UNL A   1      36.366  33.612  30.282  1.00  0.00     0.134 A 
ATOM     64  C   UNL A   1      36.053  32.099  32.075  1.00  0.00     0.134 A 
ATOM     65  F   UNL A   1      37.035  34.128  29.241  1.00  0.00    -0.206 F 
ATOM     66  C   UNL A   1      35.163  34.252  30.612  1.00  0.00     0.040 A 
ATOM     67  C   UNL A   1      34.823  32.697  32.382  1.00  0.00     0.040 A 
ATOM     68  F   UNL A   1      36.423  31.142  32.934  1.00  0.00    -0.206 F 
ATOM     69  C   UNL A   1      34.377  33.787  31.657  1.00  0.00     0.006 A 
ENDBRANCH  48  62
BRANCH  49  70
ATOM     70  C   UNL A   1      45.137  27.224  29.460  1.00  0.00     0.057 A 
ATOM     71  C   UNL A   1      45.510  25.992  30.048  1.00  0.00     0.134 A 
ATOM     72  C   UNL A   1      44.747  27.188  28.115  1.00  0.00     0.134 A 
ATOM     73  F   UNL A   1      45.900  25.951  31.333  1.00  0.00    -0.206 F 
ATOM     74  C   UNL A   1      45.282  24.770  29.408  1.00  0.00     0.040 A 
ATOM     75  C   UNL A   1      44.533  25.962  27.461  1.00  0.00     0.040 A 
ATOM     76  F   UNL A   1      44.334  28.303  27.499  1.00  0.00    -0.206 F 
ATOM     77  C   UNL A   1      44.741  24.753  28.128  1.00  0.00     0.006 A 
ENDBRANCH  49  70
BRANCH  61  78
ATOM     78  C   UNL A   1      43.281  34.248  30.487  1.00  0.00     0.057 A 
ATOM     79  C   UNL A   1      43.295  34.712  29.166  1.00  0.00     0.134 A 
ATOM     80  C   UNL A   1      43.603  35.202  31.472  1.00  0.00     0.134 A 
ATOM     81  F   UNL A   1      43.121  33.870  28.135  1.00  0.00    -0.206 F 
ATOM     82  C   UNL A   1      43.492  36.060  28.854  1.00  0.00     0.040 A 
ATOM     83  C   UNL A   1      43.873  36.536  31.167  1.00  0.00     0.040 A 
ATOM     84  F   UNL A   1      43.634  34.900  32.776  1.00  0.00    -0.206 F 
ATOM     85  C   UNL A   1      43.782  36.978  29.857  1.00  0.00     0.006 A 
ENDBRANCH  61  78
ENDBRANCH  35  36
ENDBRANCH  28  30
ENDBRANCH  27  28
ENDBRANCH  26  27
ENDBRANCH  25  26
ENDBRANCH  24  25
ENDBRANCH   1  24
TORSDOF 17
ENDMDL
