MODEL 1
REMARK VINA RESULT:     -10.4      0.000      0.000
REMARK SMILES CCCCc1nc(C[N@H+]2CC[NH2+][C@H](C(=O)OCCOCCOC(=O)c3ccc(-c4c5nc(c(-c6c(F)cccc6F)c6ccc([nH]6)c(-c6c(F)cccc6F)c6nc(c(-c7c(F)cccc7F)c7ccc4[nH]7)C=C6)C=C5)cc3)C2)c(Cl)[nH]1
REMARK SMILES IDX 17 1 16 2 14 3 15 4 13 5 9 6 10 7 79 8 11 10 12 11 8 14 7 15
REMARK SMILES IDX 5 16 6 17 82 18 80 19 81 21 4 22 3 23 2 24 1 25 18 26 19 27
REMARK SMILES IDX 20 28 21 29 22 30 23 31 24 32 25 33 26 34 78 35 27 36 77 37
REMARK SMILES IDX 28 38 29 39 30 40 71 41 31 42 76 43 70 44 72 45 32 46 75 47
REMARK SMILES IDX 69 48 68 49 33 51 59 52 42 53 58 54 43 55 46 56 57 57 73 58
REMARK SMILES IDX 44 59 45 60 56 62 74 63 47 64 34 65 35 66 40 67 36 68 37 69
REMARK SMILES IDX 39 70 41 71 38 72 60 73 61 74 66 75 62 76 63 77 65 78 67 79
REMARK SMILES IDX 64 80 48 81 49 82 54 83 50 84 51 85 53 86 55 87 52 88
REMARK H PARENT 9 9 12 12 12 13 82 20 72 50 46 61
REMARK Flexibility Score: inf
ROOT
ATOM      1  C   UNL A   1      31.971  28.162  27.453  1.00  0.00     0.261 C 
ENDROOT
BRANCH   1   2
ATOM      2  O   UNL A   1      32.827  27.096  27.002  1.00  0.00    -0.459 OA
BRANCH   2   3
ATOM      3  C   UNL A   1      32.226  26.034  26.385  1.00  0.00     0.371 C 
ATOM      4  O   UNL A   1      31.454  25.257  26.931  1.00  0.00    -0.245 OA
BRANCH   3   5
ATOM      5  C   UNL A   1      32.611  25.982  24.893  1.00  0.00     0.348 C 
ATOM      6  N   UNL A   1      31.572  25.405  22.622  1.00  0.00    -0.320 N 
ATOM      7  C   UNL A   1      32.700  24.491  22.438  1.00  0.00     0.324 C 
ATOM      8  C   UNL A   1      31.341  25.722  24.038  1.00  0.00     0.341 C 
ATOM      9  H   UNL A   1      30.755  24.869  22.329  1.00  0.00     0.348 HD
ATOM     10  C   UNL A   1      33.962  24.849  23.253  1.00  0.00     0.323 C 
ATOM     11  N   UNL A   1      33.698  24.986  24.695  1.00  0.00    -0.325 N 
ATOM     12  H   UNL A   1      34.544  25.303  25.168  1.00  0.00     0.347 HD
ATOM     13  H   UNL A   1      33.416  24.085  25.081  1.00  0.00     0.347 HD
BRANCH   6  14
ATOM     14  C   UNL A   1      31.456  26.520  21.673  1.00  0.00     0.323 C 
BRANCH  14  15
ATOM     15  C   UNL A   1      30.993  27.834  22.221  1.00  0.00     0.132 A 
ATOM     16  C   UNL A   1      29.623  29.462  22.690  1.00  0.00     0.107 A 
ATOM     17  N   UNL A   1      29.665  28.242  22.173  1.00  0.00    -0.231 NA
ATOM     18  N   UNL A   1      30.886  29.864  23.060  1.00  0.00    -0.333 N 
ATOM     19  C   UNL A   1      31.738  28.848  22.770  1.00  0.00     0.135 A 
ATOM     20  H   UNL A   1      31.128  30.729  23.462  1.00  0.00     0.169 HD
ATOM     21  Cl  UNL A   1      33.376  29.041  23.147  1.00  0.00    -0.062 Cl
BRANCH  16  22
ATOM     22  C   UNL A   1      28.421  30.227  23.138  1.00  0.00     0.075 C 
BRANCH  22  23
ATOM     23  C   UNL A   1      28.534  31.666  23.651  1.00  0.00     0.008 C 
BRANCH  23  24
ATOM     24  C   UNL A   1      28.811  32.783  22.639  1.00  0.00    -0.003 C 
ATOM     25  C   UNL A   1      28.005  32.657  21.343  1.00  0.00     0.004 C 
ENDBRANCH  23  24
ENDBRANCH  22  23
ENDBRANCH  16  22
ENDBRANCH  14  15
ENDBRANCH   6  14
ENDBRANCH   3   5
ENDBRANCH   2   3
ENDBRANCH   1   2
BRANCH   1  26
ATOM     26  C   UNL A   1      32.049  29.424  26.580  1.00  0.00     0.202 C 
BRANCH  26  27
ATOM     27  O   UNL A   1      33.296  30.097  26.470  1.00  0.00    -0.374 OA
BRANCH  27  28
ATOM     28  C   UNL A   1      34.244  29.905  27.499  1.00  0.00     0.202 C 
BRANCH  28  29
ATOM     29  C   UNL A   1      34.935  31.107  28.147  1.00  0.00     0.261 C 
BRANCH  29  30
ATOM     30  O   UNL A   1      35.827  30.957  29.251  1.00  0.00    -0.460 OA
BRANCH  30  31
ATOM     31  C   UNL A   1      37.075  31.398  28.937  1.00  0.00     0.338 C 
ATOM     32  O   UNL A   1      37.328  32.448  28.377  1.00  0.00    -0.246 OA
BRANCH  31  33
ATOM     33  C   UNL A   1      38.087  30.328  29.093  1.00  0.00     0.060 A 
ATOM     34  C   UNL A   1      39.391  30.731  29.390  1.00  0.00     0.016 A 
ATOM     35  C   UNL A   1      37.823  29.002  28.734  1.00  0.00     0.016 A 
ATOM     36  C   UNL A   1      40.440  29.839  29.217  1.00  0.00     0.010 A 
ATOM     37  C   UNL A   1      38.878  28.132  28.483  1.00  0.00     0.010 A 
ATOM     38  C   UNL A   1      40.187  28.559  28.707  1.00  0.00    -0.014 A 
BRANCH  38  39
ATOM     39  C   UNL A   1      41.268  27.580  28.767  1.00  0.00     0.031 A 
ATOM     40  C   UNL A   1      42.038  27.718  30.032  1.00  0.00     0.074 A 
ATOM     41  C   UNL A   1      41.516  26.590  27.886  1.00  0.00     0.049 A 
ATOM     42  N   UNL A   1      43.247  28.154  30.163  1.00  0.00    -0.248 NA
ATOM     43  C   UNL A   1      41.322  27.546  31.309  1.00  0.00     0.031 C 
ATOM     44  C   UNL A   1      40.711  26.172  26.739  1.00  0.00     0.029 A 
ATOM     45  N   UNL A   1      42.533  25.676  27.889  1.00  0.00    -0.354 N 
ATOM     46  C   UNL A   1      43.512  28.106  31.527  1.00  0.00     0.074 A 
ATOM     47  C   UNL A   1      42.245  27.943  32.184  1.00  0.00     0.031 C 
ATOM     48  C   UNL A   1      41.148  24.964  26.304  1.00  0.00     0.029 A 
ATOM     49  C   UNL A   1      42.326  24.574  27.063  1.00  0.00     0.049 A 
ATOM     50  H   UNL A   1      43.347  25.790  28.430  1.00  0.00     0.167 HD
ATOM     51  C   UNL A   1      44.779  27.901  31.978  1.00  0.00     0.037 A 
ATOM     52  C   UNL A   1      43.039  23.414  27.052  1.00  0.00     0.037 A 
ATOM     53  C   UNL A   1      45.748  28.225  30.959  1.00  0.00     0.049 A 
ATOM     54  C   UNL A   1      44.347  23.681  27.705  1.00  0.00     0.074 A 
ATOM     55  C   UNL A   1      46.013  29.343  30.190  1.00  0.00     0.029 A 
ATOM     56  N   UNL A   1      46.386  27.184  30.329  1.00  0.00    -0.354 N 
ATOM     57  N   UNL A   1      45.290  24.398  27.164  1.00  0.00    -0.248 NA
ATOM     58  C   UNL A   1      44.425  23.533  29.150  1.00  0.00     0.031 C 
ATOM     59  C   UNL A   1      46.355  28.834  28.903  1.00  0.00     0.029 A 
ATOM     60  C   UNL A   1      46.361  27.443  28.985  1.00  0.00     0.049 A 
ATOM     61  H   UNL A   1      46.789  26.398  30.764  1.00  0.00     0.167 HD
ATOM     62  C   UNL A   1      45.777  25.166  28.208  1.00  0.00     0.074 A 
ATOM     63  C   UNL A   1      45.270  24.530  29.423  1.00  0.00     0.031 C 
ATOM     64  C   UNL A   1      46.292  26.410  27.983  1.00  0.00     0.037 A 
BRANCH  51  65
ATOM     65  C   UNL A   1      45.104  26.988  33.141  1.00  0.00     0.057 A 
ATOM     66  C   UNL A   1      46.002  27.446  34.121  1.00  0.00     0.134 A 
ATOM     67  C   UNL A   1      44.844  25.600  33.173  1.00  0.00     0.134 A 
ATOM     68  F   UNL A   1      46.333  28.743  34.200  1.00  0.00    -0.206 F 
ATOM     69  C   UNL A   1      46.678  26.575  34.983  1.00  0.00     0.040 A 
ATOM     70  C   UNL A   1      45.474  24.731  34.066  1.00  0.00     0.040 A 
ATOM     71  F   UNL A   1      44.055  24.983  32.288  1.00  0.00    -0.206 F 
ATOM     72  C   UNL A   1      46.425  25.211  34.947  1.00  0.00     0.006 A 
ENDBRANCH  51  65
BRANCH  52  73
ATOM     73  C   UNL A   1      42.600  22.023  26.761  1.00  0.00     0.057 A 
ATOM     74  C   UNL A   1      43.316  21.196  25.877  1.00  0.00     0.134 A 
ATOM     75  C   UNL A   1      41.639  21.373  27.554  1.00  0.00     0.134 A 
ATOM     76  F   UNL A   1      44.287  21.702  25.101  1.00  0.00    -0.206 F 
ATOM     77  C   UNL A   1      43.111  19.809  25.810  1.00  0.00     0.040 A 
ATOM     78  C   UNL A   1      41.419  19.992  27.492  1.00  0.00     0.040 A 
ATOM     79  F   UNL A   1      40.943  22.041  28.486  1.00  0.00    -0.206 F 
ATOM     80  C   UNL A   1      42.166  19.201  26.629  1.00  0.00     0.006 A 
ENDBRANCH  52  73
BRANCH  64  81
ATOM     81  C   UNL A   1      46.587  26.817  26.568  1.00  0.00     0.057 A 
ATOM     82  C   UNL A   1      45.665  27.429  25.705  1.00  0.00     0.134 A 
ATOM     83  C   UNL A   1      47.910  26.720  26.117  1.00  0.00     0.134 A 
ATOM     84  F   UNL A   1      44.401  27.660  26.086  1.00  0.00    -0.206 F 
ATOM     85  C   UNL A   1      46.036  27.880  24.435  1.00  0.00     0.040 A 
ATOM     86  C   UNL A   1      48.300  27.201  24.867  1.00  0.00     0.040 A 
ATOM     87  F   UNL A   1      48.857  26.194  26.908  1.00  0.00    -0.206 F 
ATOM     88  C   UNL A   1      47.360  27.774  24.016  1.00  0.00     0.006 A 
ENDBRANCH  64  81
ENDBRANCH  38  39
ENDBRANCH  31  33
ENDBRANCH  30  31
ENDBRANCH  29  30
ENDBRANCH  28  29
ENDBRANCH  27  28
ENDBRANCH  26  27
ENDBRANCH   1  26
TORSDOF 19
ENDMDL
MODEL 2
REMARK VINA RESULT:     -10.3      3.244      5.658
REMARK SMILES CCCCc1nc(C[N@H+]2CC[NH2+][C@H](C(=O)OCCOCCOC(=O)c3ccc(-c4c5nc(c(-c6c(F)cccc6F)c6ccc([nH]6)c(-c6c(F)cccc6F)c6nc(c(-c7c(F)cccc7F)c7ccc4[nH]7)C=C6)C=C5)cc3)C2)c(Cl)[nH]1
REMARK SMILES IDX 17 1 16 2 14 3 15 4 13 5 9 6 10 7 79 8 11 10 12 11 8 14 7 15
REMARK SMILES IDX 5 16 6 17 82 18 80 19 81 21 4 22 3 23 2 24 1 25 18 26 19 27
REMARK SMILES IDX 20 28 21 29 22 30 23 31 24 32 25 33 26 34 78 35 27 36 77 37
REMARK SMILES IDX 28 38 29 39 30 40 71 41 31 42 76 43 70 44 72 45 32 46 75 47
REMARK SMILES IDX 69 48 68 49 33 51 59 52 42 53 58 54 43 55 46 56 57 57 73 58
REMARK SMILES IDX 44 59 45 60 56 62 74 63 47 64 34 65 35 66 40 67 36 68 37 69
REMARK SMILES IDX 39 70 41 71 38 72 60 73 61 74 66 75 62 76 63 77 65 78 67 79
REMARK SMILES IDX 64 80 48 81 49 82 54 83 50 84 51 85 53 86 55 87 52 88
REMARK H PARENT 9 9 12 12 12 13 82 20 72 50 46 61
REMARK Flexibility Score: inf
ROOT
ATOM      1  C   UNL A   1      30.900  28.874  23.691  1.00  0.00     0.261 C 
ENDROOT
BRANCH   1   2
ATOM      2  O   UNL A   1      30.410  27.729  22.969  1.00  0.00    -0.459 OA
BRANCH   2   3
ATOM      3  C   UNL A   1      29.629  26.846  23.661  1.00  0.00     0.371 C 
ATOM      4  O   UNL A   1      28.406  26.869  23.686  1.00  0.00    -0.245 OA
BRANCH   3   5
ATOM      5  C   UNL A   1      30.499  25.782  24.360  1.00  0.00     0.348 C 
ATOM      6  N   UNL A   1      31.177  23.324  24.095  1.00  0.00    -0.320 N 
ATOM      7  C   UNL A   1      30.714  23.140  25.471  1.00  0.00     0.324 C 
ATOM      8  C   UNL A   1      30.588  24.515  23.467  1.00  0.00     0.341 C 
ATOM      9  H   UNL A   1      30.791  22.531  23.584  1.00  0.00     0.348 HD
ATOM     10  C   UNL A   1      30.726  24.421  26.333  1.00  0.00     0.323 C 
ATOM     11  N   UNL A   1      29.971  25.531  25.729  1.00  0.00    -0.325 N 
ATOM     12  H   UNL A   1      30.083  26.369  26.298  1.00  0.00     0.347 HD
ATOM     13  H   UNL A   1      28.982  25.290  25.679  1.00  0.00     0.347 HD
BRANCH   6  14
ATOM     14  C   UNL A   1      32.602  23.083  23.833  1.00  0.00     0.323 C 
BRANCH  14  15
ATOM     15  C   UNL A   1      33.203  21.846  24.426  1.00  0.00     0.132 A 
ATOM     16  C   UNL A   1      33.570  19.720  24.733  1.00  0.00     0.107 A 
ATOM     17  N   UNL A   1      32.919  20.570  23.951  1.00  0.00    -0.231 NA
ATOM     18  N   UNL A   1      34.257  20.405  25.710  1.00  0.00    -0.333 N 
ATOM     19  C   UNL A   1      34.029  21.729  25.516  1.00  0.00     0.135 A 
ATOM     20  H   UNL A   1      34.812  20.008  26.419  1.00  0.00     0.169 HD
ATOM     21  Cl  UNL A   1      34.776  22.833  26.558  1.00  0.00    -0.062 Cl
BRANCH  16  22
ATOM     22  C   UNL A   1      33.842  18.272  24.487  1.00  0.00     0.075 C 
BRANCH  22  23
ATOM     23  C   UNL A   1      33.068  17.177  25.226  1.00  0.00     0.008 C 
BRANCH  23  24
ATOM     24  C   UNL A   1      33.718  15.797  25.377  1.00  0.00    -0.003 C 
ATOM     25  C   UNL A   1      35.249  15.831  25.375  1.00  0.00     0.004 C 
ENDBRANCH  23  24
ENDBRANCH  22  23
ENDBRANCH  16  22
ENDBRANCH  14  15
ENDBRANCH   6  14
ENDBRANCH   3   5
ENDBRANCH   2   3
ENDBRANCH   1   2
BRANCH   1  26
ATOM     26  C   UNL A   1      32.432  28.922  23.804  1.00  0.00     0.202 C 
BRANCH  26  27
ATOM     27  O   UNL A   1      33.008  29.579  24.924  1.00  0.00    -0.374 OA
BRANCH  27  28
ATOM     28  C   UNL A   1      32.140  30.058  25.930  1.00  0.00     0.202 C 
BRANCH  28  29
ATOM     29  C   UNL A   1      32.649  31.041  26.987  1.00  0.00     0.261 C 
BRANCH  29  30
ATOM     30  O   UNL A   1      33.704  30.700  27.886  1.00  0.00    -0.460 OA
BRANCH  30  31
ATOM     31  C   UNL A   1      34.607  31.712  27.988  1.00  0.00     0.338 C 
ATOM     32  O   UNL A   1      34.374  32.886  27.770  1.00  0.00    -0.246 OA
BRANCH  31  33
ATOM     33  C   UNL A   1      35.990  31.198  28.118  1.00  0.00     0.060 A 
ATOM     34  C   UNL A   1      36.180  29.831  27.906  1.00  0.00     0.016 A 
ATOM     35  C   UNL A   1      37.021  31.978  28.655  1.00  0.00     0.016 A 
ATOM     36  C   UNL A   1      37.353  29.227  28.335  1.00  0.00     0.010 A 
ATOM     37  C   UNL A   1      38.162  31.363  29.157  1.00  0.00     0.010 A 
ATOM     38  C   UNL A   1      38.317  29.985  29.013  1.00  0.00    -0.014 A 
BRANCH  38  39
ATOM     39  C   UNL A   1      39.626  29.376  29.231  1.00  0.00     0.031 A 
ATOM     40  C   UNL A   1      39.958  29.340  30.680  1.00  0.00     0.074 A 
ATOM     41  C   UNL A   1      40.419  28.805  28.302  1.00  0.00     0.049 A 
ATOM     42  N   UNL A   1      40.860  30.036  31.288  1.00  0.00    -0.248 NA
ATOM     43  C   UNL A   1      39.060  28.602  31.586  1.00  0.00     0.031 C 
ATOM     44  C   UNL A   1      40.126  28.540  26.895  1.00  0.00     0.029 A 
ATOM     45  N   UNL A   1      41.661  28.255  28.459  1.00  0.00    -0.354 N 
ATOM     46  C   UNL A   1      40.780  29.659  32.625  1.00  0.00     0.074 A 
ATOM     47  C   UNL A   1      39.535  28.960  32.777  1.00  0.00     0.031 C 
ATOM     48  C   UNL A   1      41.057  27.690  26.397  1.00  0.00     0.029 A 
ATOM     49  C   UNL A   1      42.071  27.437  27.409  1.00  0.00     0.049 A 
ATOM     50  H   UNL A   1      42.221  28.424  29.251  1.00  0.00     0.167 HD
ATOM     51  C   UNL A   1      41.883  29.692  33.419  1.00  0.00     0.037 A 
ATOM     52  C   UNL A   1      43.131  26.581  27.403  1.00  0.00     0.037 A 
ATOM     53  C   UNL A   1      42.892  30.562  32.865  1.00  0.00     0.049 A 
ATOM     54  C   UNL A   1      44.053  26.996  28.491  1.00  0.00     0.074 A 
ATOM     55  C   UNL A   1      42.922  31.887  32.468  1.00  0.00     0.029 A 
ATOM     56  N   UNL A   1      43.994  29.980  32.287  1.00  0.00    -0.354 N 
ATOM     57  N   UNL A   1      44.780  28.075  28.448  1.00  0.00    -0.248 NA
ATOM     58  C   UNL A   1      43.820  26.451  29.820  1.00  0.00     0.031 C 
ATOM     59  C   UNL A   1      43.729  31.902  31.293  1.00  0.00     0.029 A 
ATOM     60  C   UNL A   1      44.211  30.610  31.092  1.00  0.00     0.049 A 
ATOM     61  H   UNL A   1      44.530  29.244  32.665  1.00  0.00     0.167 HD
ATOM     62  C   UNL A   1      44.688  28.601  29.726  1.00  0.00     0.074 A 
ATOM     63  C   UNL A   1      44.158  27.516  30.551  1.00  0.00     0.031 C 
ATOM     64  C   UNL A   1      44.764  29.947  29.938  1.00  0.00     0.037 A 
BRANCH  51  65
ATOM     65  C   UNL A   1      42.215  28.602  34.416  1.00  0.00     0.057 A 
ATOM     66  C   UNL A   1      42.535  28.975  35.734  1.00  0.00     0.134 A 
ATOM     67  C   UNL A   1      42.549  27.273  34.076  1.00  0.00     0.134 A 
ATOM     68  F   UNL A   1      42.269  30.211  36.184  1.00  0.00    -0.206 F 
ATOM     69  C   UNL A   1      43.239  28.132  36.602  1.00  0.00     0.040 A 
ATOM     70  C   UNL A   1      43.203  26.406  34.954  1.00  0.00     0.040 A 
ATOM     71  F   UNL A   1      42.364  26.762  32.855  1.00  0.00    -0.206 F 
ATOM     72  C   UNL A   1      43.587  26.848  36.207  1.00  0.00     0.006 A 
ENDBRANCH  51  65
BRANCH  52  73
ATOM     73  C   UNL A   1      43.302  25.276  26.711  1.00  0.00     0.057 A 
ATOM     74  C   UNL A   1      42.468  24.178  26.994  1.00  0.00     0.134 A 
ATOM     75  C   UNL A   1      44.094  25.153  25.557  1.00  0.00     0.134 A 
ATOM     76  F   UNL A   1      41.639  24.204  28.048  1.00  0.00    -0.206 F 
ATOM     77  C   UNL A   1      42.404  23.048  26.165  1.00  0.00     0.040 A 
ATOM     78  C   UNL A   1      44.045  24.027  24.725  1.00  0.00     0.040 A 
ATOM     79  F   UNL A   1      44.875  26.160  25.143  1.00  0.00    -0.206 F 
ATOM     80  C   UNL A   1      43.187  22.976  25.018  1.00  0.00     0.006 A 
ENDBRANCH  52  73
BRANCH  64  81
ATOM     81  C   UNL A   1      45.233  30.823  28.814  1.00  0.00     0.057 A 
ATOM     82  C   UNL A   1      46.576  31.138  28.554  1.00  0.00     0.134 A 
ATOM     83  C   UNL A   1      44.290  31.239  27.865  1.00  0.00     0.134 A 
ATOM     84  F   UNL A   1      47.562  30.696  29.348  1.00  0.00    -0.206 F 
ATOM     85  C   UNL A   1      46.954  31.872  27.426  1.00  0.00     0.040 A 
ATOM     86  C   UNL A   1      44.659  31.940  26.716  1.00  0.00     0.040 A 
ATOM     87  F   UNL A   1      42.994  30.929  28.019  1.00  0.00    -0.206 F 
ATOM     88  C   UNL A   1      45.993  32.268  26.498  1.00  0.00     0.006 A 
ENDBRANCH  64  81
ENDBRANCH  38  39
ENDBRANCH  31  33
ENDBRANCH  30  31
ENDBRANCH  29  30
ENDBRANCH  28  29
ENDBRANCH  27  28
ENDBRANCH  26  27
ENDBRANCH   1  26
TORSDOF 19
ENDMDL
MODEL 3
REMARK VINA RESULT:     -10.2      3.353      7.643
REMARK SMILES CCCCc1nc(C[N@H+]2CC[NH2+][C@H](C(=O)OCCOCCOC(=O)c3ccc(-c4c5nc(c(-c6c(F)cccc6F)c6ccc([nH]6)c(-c6c(F)cccc6F)c6nc(c(-c7c(F)cccc7F)c7ccc4[nH]7)C=C6)C=C5)cc3)C2)c(Cl)[nH]1
REMARK SMILES IDX 17 1 16 2 14 3 15 4 13 5 9 6 10 7 79 8 11 10 12 11 8 14 7 15
REMARK SMILES IDX 5 16 6 17 82 18 80 19 81 21 4 22 3 23 2 24 1 25 18 26 19 27
REMARK SMILES IDX 20 28 21 29 22 30 23 31 24 32 25 33 26 34 78 35 27 36 77 37
REMARK SMILES IDX 28 38 29 39 30 40 71 41 31 42 76 43 70 44 72 45 32 46 75 47
REMARK SMILES IDX 69 48 68 49 33 51 59 52 42 53 58 54 43 55 46 56 57 57 73 58
REMARK SMILES IDX 44 59 45 60 56 62 74 63 47 64 34 65 35 66 40 67 36 68 37 69
REMARK SMILES IDX 39 70 41 71 38 72 60 73 61 74 66 75 62 76 63 77 65 78 67 79
REMARK SMILES IDX 64 80 48 81 49 82 54 83 50 84 51 85 53 86 55 87 52 88
REMARK H PARENT 9 9 12 12 12 13 82 20 72 50 46 61
REMARK Flexibility Score: inf
ROOT
ATOM      1  C   UNL A   1      33.336  20.618  26.037  1.00  0.00     0.261 C 
ENDROOT
BRANCH   1   2
ATOM      2  O   UNL A   1      32.377  21.691  26.047  1.00  0.00    -0.459 OA
BRANCH   2   3
ATOM      3  C   UNL A   1      32.489  22.616  27.047  1.00  0.00     0.371 C 
ATOM      4  O   UNL A   1      32.679  22.347  28.226  1.00  0.00    -0.245 OA
BRANCH   3   5
ATOM      5  C   UNL A   1      32.397  24.046  26.479  1.00  0.00     0.348 C 
ATOM      6  N   UNL A   1      31.309  25.315  24.535  1.00  0.00    -0.320 N 
ATOM      7  C   UNL A   1      32.651  25.804  24.220  1.00  0.00     0.324 C 
ATOM      8  C   UNL A   1      31.342  24.086  25.340  1.00  0.00     0.341 C 
ATOM      9  H   UNL A   1      30.917  25.038  23.636  1.00  0.00     0.348 HD
ATOM     10  C   UNL A   1      33.632  25.817  25.413  1.00  0.00     0.323 C 
ATOM     11  N   UNL A   1      33.753  24.508  26.075  1.00  0.00    -0.325 N 
ATOM     12  H   UNL A   1      34.345  24.596  26.901  1.00  0.00     0.347 HD
ATOM     13  H   UNL A   1      34.171  23.834  25.435  1.00  0.00     0.347 HD
BRANCH   6  14
ATOM     14  C   UNL A   1      30.306  26.318  24.913  1.00  0.00     0.323 C 
BRANCH  14  15
ATOM     15  C   UNL A   1      30.404  27.660  24.256  1.00  0.00     0.132 A 
ATOM     16  C   UNL A   1      30.132  29.192  22.731  1.00  0.00     0.107 A 
ATOM     17  N   UNL A   1      29.797  27.947  23.039  1.00  0.00    -0.231 NA
ATOM     18  N   UNL A   1      30.949  29.718  23.705  1.00  0.00    -0.333 N 
ATOM     19  C   UNL A   1      31.116  28.764  24.655  1.00  0.00     0.135 A 
ATOM     20  H   UNL A   1      31.342  30.620  23.712  1.00  0.00     0.169 HD
ATOM     21  Cl  UNL A   1      32.060  29.136  26.010  1.00  0.00    -0.062 Cl
BRANCH  16  22
ATOM     22  C   UNL A   1      29.519  30.077  21.695  1.00  0.00     0.075 C 
BRANCH  22  23
ATOM     23  C   UNL A   1      28.125  30.683  21.884  1.00  0.00     0.008 C 
BRANCH  23  24
ATOM     24  C   UNL A   1      27.947  32.189  21.660  1.00  0.00    -0.003 C 
ATOM     25  C   UNL A   1      27.929  32.596  20.184  1.00  0.00     0.004 C 
ENDBRANCH  23  24
ENDBRANCH  22  23
ENDBRANCH  16  22
ENDBRANCH  14  15
ENDBRANCH   6  14
ENDBRANCH   3   5
ENDBRANCH   2   3
ENDBRANCH   1   2
BRANCH   1  26
ATOM     26  C   UNL A   1      34.782  21.085  25.810  1.00  0.00     0.202 C 
BRANCH  26  27
ATOM     27  O   UNL A   1      35.505  20.543  24.713  1.00  0.00    -0.374 OA
BRANCH  27  28
ATOM     28  C   UNL A   1      36.812  20.065  24.954  1.00  0.00     0.202 C 
BRANCH  28  29
ATOM     29  C   UNL A   1      37.989  21.041  25.034  1.00  0.00     0.261 C 
BRANCH  29  30
ATOM     30  O   UNL A   1      38.316  21.728  26.241  1.00  0.00    -0.460 OA
BRANCH  30  31
ATOM     31  C   UNL A   1      39.659  21.907  26.356  1.00  0.00     0.338 C 
ATOM     32  O   UNL A   1      40.490  21.018  26.334  1.00  0.00    -0.246 OA
BRANCH  31  33
ATOM     33  C   UNL A   1      39.992  23.281  26.796  1.00  0.00     0.060 A 
ATOM     34  C   UNL A   1      41.149  23.436  27.564  1.00  0.00     0.016 A 
ATOM     35  C   UNL A   1      39.086  24.340  26.664  1.00  0.00     0.016 A 
ATOM     36  C   UNL A   1      41.340  24.605  28.286  1.00  0.00     0.010 A 
ATOM     37  C   UNL A   1      39.236  25.478  27.448  1.00  0.00     0.010 A 
ATOM     38  C   UNL A   1      40.354  25.600  28.273  1.00  0.00    -0.014 A 
BRANCH  38  39
ATOM     39  C   UNL A   1      40.695  26.900  28.843  1.00  0.00     0.031 A 
ATOM     40  C   UNL A   1      41.929  27.445  28.216  1.00  0.00     0.074 A 
ATOM     41  C   UNL A   1      39.973  27.611  29.732  1.00  0.00     0.049 A 
ATOM     42  N   UNL A   1      43.087  27.581  28.771  1.00  0.00    -0.248 NA
ATOM     43  C   UNL A   1      41.932  27.675  26.761  1.00  0.00     0.031 C 
ATOM     44  C   UNL A   1      38.633  27.330  30.246  1.00  0.00     0.029 A 
ATOM     45  N   UNL A   1      40.272  28.812  30.313  1.00  0.00    -0.354 N 
ATOM     46  C   UNL A   1      43.910  28.117  27.785  1.00  0.00     0.074 A 
ATOM     47  C   UNL A   1      43.217  27.945  26.539  1.00  0.00     0.031 C 
ATOM     48  C   UNL A   1      38.156  28.433  30.873  1.00  0.00     0.029 A 
ATOM     49  C   UNL A   1      39.189  29.457  30.905  1.00  0.00     0.049 A 
ATOM     50  H   UNL A   1      41.181  29.190  30.313  1.00  0.00     0.167 HD
ATOM     51  C   UNL A   1      44.950  28.926  28.118  1.00  0.00     0.037 A 
ATOM     52  C   UNL A   1      39.139  30.749  31.333  1.00  0.00     0.037 A 
ATOM     53  C   UNL A   1      45.330  28.737  29.498  1.00  0.00     0.049 A 
ATOM     54  C   UNL A   1      40.537  31.219  31.512  1.00  0.00     0.074 A 
ATOM     55  C   UNL A   1      45.702  27.646  30.262  1.00  0.00     0.029 A 
ATOM     56  N   UNL A   1      44.989  29.718  30.397  1.00  0.00    -0.354 N 
ATOM     57  N   UNL A   1      41.317  30.813  32.471  1.00  0.00    -0.248 NA
ATOM     58  C   UNL A   1      41.211  31.792  30.357  1.00  0.00     0.031 C 
ATOM     59  C   UNL A   1      45.090  27.860  31.532  1.00  0.00     0.029 A 
ATOM     60  C   UNL A   1      44.455  29.099  31.495  1.00  0.00     0.049 A 
ATOM     61  H   UNL A   1      45.107  30.688  30.273  1.00  0.00     0.167 HD
ATOM     62  C   UNL A   1      42.547  30.633  31.860  1.00  0.00     0.074 A 
ATOM     63  C   UNL A   1      42.446  31.334  30.580  1.00  0.00     0.031 C 
ATOM     64  C   UNL A   1      43.422  29.688  32.309  1.00  0.00     0.037 A 
BRANCH  51  65
ATOM     65  C   UNL A   1      45.297  30.183  27.350  1.00  0.00     0.057 A 
ATOM     66  C   UNL A   1      46.650  30.442  27.066  1.00  0.00     0.134 A 
ATOM     67  C   UNL A   1      44.430  31.283  27.169  1.00  0.00     0.134 A 
ATOM     68  F   UNL A   1      47.578  29.482  27.197  1.00  0.00    -0.206 F 
ATOM     69  C   UNL A   1      47.117  31.723  26.746  1.00  0.00     0.040 A 
ATOM     70  C   UNL A   1      44.880  32.551  26.797  1.00  0.00     0.040 A 
ATOM     71  F   UNL A   1      43.122  31.233  27.438  1.00  0.00    -0.206 F 
ATOM     72  C   UNL A   1      46.232  32.785  26.624  1.00  0.00     0.006 A 
ENDBRANCH  51  65
BRANCH  52  73
ATOM     73  C   UNL A   1      38.001  31.706  31.357  1.00  0.00     0.057 A 
ATOM     74  C   UNL A   1      37.537  32.326  30.182  1.00  0.00     0.134 A 
ATOM     75  C   UNL A   1      37.157  31.818  32.475  1.00  0.00     0.134 A 
ATOM     76  F   UNL A   1      38.241  32.247  29.043  1.00  0.00    -0.206 F 
ATOM     77  C   UNL A   1      36.301  32.987  30.118  1.00  0.00     0.040 A 
ATOM     78  C   UNL A   1      35.925  32.482  32.426  1.00  0.00     0.040 A 
ATOM     79  F   UNL A   1      37.455  31.209  33.631  1.00  0.00    -0.206 F 
ATOM     80  C   UNL A   1      35.484  33.056  31.241  1.00  0.00     0.006 A 
ENDBRANCH  52  73
BRANCH  64  81
ATOM     81  C   UNL A   1      43.162  29.047  33.641  1.00  0.00     0.057 A 
ATOM     82  C   UNL A   1      42.277  27.978  33.852  1.00  0.00     0.134 A 
ATOM     83  C   UNL A   1      43.958  29.434  34.726  1.00  0.00     0.134 A 
ATOM     84  F   UNL A   1      41.547  27.468  32.850  1.00  0.00    -0.206 F 
ATOM     85  C   UNL A   1      42.161  27.356  35.099  1.00  0.00     0.040 A 
ATOM     86  C   UNL A   1      43.878  28.796  35.965  1.00  0.00     0.040 A 
ATOM     87  F   UNL A   1      44.864  30.414  34.584  1.00  0.00    -0.206 F 
ATOM     88  C   UNL A   1      42.970  27.760  36.158  1.00  0.00     0.006 A 
ENDBRANCH  64  81
ENDBRANCH  38  39
ENDBRANCH  31  33
ENDBRANCH  30  31
ENDBRANCH  29  30
ENDBRANCH  28  29
ENDBRANCH  27  28
ENDBRANCH  26  27
ENDBRANCH   1  26
TORSDOF 19
ENDMDL
