MODEL 1
REMARK VINA RESULT:     -12.4      0.000      0.000
REMARK SMILES COc1ccc(-c2cc(Cl)cc3c2O[C@@H](C(F)(F)F)C(C(=O)OCCOCCOC(=O)c2ccc(-c4c5nc(c(-c6c(F)cccc6F)c6ccc([nH]6)c(-c6c(F)cccc6F)c6nc(c(-c7c(F)cccc7F)c7ccc4[nH]7)C=C6)C=C5)cc2)=C3)cc1C
REMARK SMILES IDX 26 1 25 2 24 3 23 4 21 5 22 6 20 7 7 8 8 9 13 10 9 11 12 12
REMARK SMILES IDX 14 13 10 14 11 15 86 16 15 17 6 18 3 19 4 20 88 21 5 22
REMARK SMILES IDX 87 23 89 24 2 25 1 26 16 27 17 28 18 29 19 30 27 31 28 32
REMARK SMILES IDX 29 33 30 34 31 35 32 36 33 37 85 38 34 39 84 40 35 41 36 42
REMARK SMILES IDX 37 43 78 44 38 45 83 46 77 47 79 48 39 49 82 50 76 51 75 52
REMARK SMILES IDX 40 54 66 55 49 56 65 57 50 58 53 59 64 60 80 61 51 62 52 63
REMARK SMILES IDX 63 65 81 66 54 67 41 68 42 69 47 70 43 71 44 72 46 73 48 74
REMARK SMILES IDX 45 75 67 76 68 77 73 78 69 79 70 80 72 81 74 82 71 83 55 84
REMARK SMILES IDX 56 85 61 86 57 87 58 88 60 89 62 90 59 91
REMARK H PARENT 79 53 53 64
REMARK Flexibility Score: inf
ROOT
ATOM      1  O   UNL A   1      35.170  22.445  24.343  1.00  0.00    -0.374 OA
ENDROOT
BRANCH   1   2
ATOM      2  C   UNL A   1      34.983  23.323  23.237  1.00  0.00     0.202 C 
BRANCH   2   3
ATOM      3  C   UNL A   1      33.498  23.689  23.075  1.00  0.00     0.261 C 
BRANCH   3   4
ATOM      4  O   UNL A   1      33.274  25.113  23.096  1.00  0.00    -0.460 OA
BRANCH   4   5
ATOM      5  C   UNL A   1      32.304  25.527  23.976  1.00  0.00     0.338 C 
ATOM      6  O   UNL A   1      31.161  25.804  23.709  1.00  0.00    -0.246 OA
BRANCH   5   7
ATOM      7  C   UNL A   1      32.803  25.268  25.395  1.00  0.00     0.087 C 
ATOM      8  C   UNL A   1      31.605  29.073  25.568  1.00  0.00     0.026 A 
ATOM      9  C   UNL A   1      32.425  30.047  26.181  1.00  0.00     0.033 A 
ATOM     10  C   UNL A   1      31.942  27.732  25.862  1.00  0.00     0.135 A 
ATOM     11  C   UNL A   1      33.642  29.707  26.773  1.00  0.00     0.042 A 
ATOM     12  C   UNL A   1      33.296  27.425  26.153  1.00  0.00     0.019 A 
ATOM     13  O   UNL A   1      30.986  26.692  26.026  1.00  0.00    -0.475 OA
ATOM     14  Cl  UNL A   1      34.619  30.937  27.469  1.00  0.00    -0.084 Cl
ATOM     15  C   UNL A   1      34.126  28.409  26.676  1.00  0.00     0.032 A 
ATOM     16  C   UNL A   1      33.805  26.048  25.856  1.00  0.00     0.027 C 
ATOM     17  C   UNL A   1      31.623  25.373  26.343  1.00  0.00     0.316 C 
BRANCH   8  18
ATOM     18  C   UNL A   1      30.989  29.595  24.286  1.00  0.00    -0.014 A 
ATOM     19  C   UNL A   1      29.199  30.112  22.094  1.00  0.00     0.121 A 
ATOM     20  C   UNL A   1      30.305  29.267  21.955  1.00  0.00     0.047 A 
ATOM     21  C   UNL A   1      28.965  30.725  23.325  1.00  0.00    -0.008 A 
ATOM     22  C   UNL A   1      31.172  28.995  23.039  1.00  0.00     0.013 A 
ATOM     23  C   UNL A   1      29.896  30.509  24.378  1.00  0.00     0.016 A 
ATOM     24  C   UNL A   1      27.663  31.418  23.627  1.00  0.00     0.048 C 
BRANCH  19  25
ATOM     25  O   UNL A   1      28.274  30.085  21.079  1.00  0.00    -0.496 OA
ATOM     26  C   UNL A   1      27.979  31.356  20.504  1.00  0.00     0.278 C 
ENDBRANCH  19  25
ENDBRANCH   8  18
BRANCH  17  27
ATOM     27  C   UNL A   1      30.848  24.011  26.387  1.00  0.00     0.430 C 
ATOM     28  F   UNL A   1      31.398  23.164  27.301  1.00  0.00    -0.167 F 
ATOM     29  F   UNL A   1      29.572  24.220  26.809  1.00  0.00    -0.167 F 
ATOM     30  F   UNL A   1      30.752  23.314  25.244  1.00  0.00    -0.167 F 
ENDBRANCH  17  27
ENDBRANCH   5   7
ENDBRANCH   4   5
ENDBRANCH   3   4
ENDBRANCH   2   3
ENDBRANCH   1   2
BRANCH   1  31
ATOM     31  C   UNL A   1      36.468  21.843  24.397  1.00  0.00     0.202 C 
BRANCH  31  32
ATOM     32  C   UNL A   1      37.240  22.231  25.661  1.00  0.00     0.261 C 
BRANCH  32  33
ATOM     33  O   UNL A   1      38.644  22.041  25.408  1.00  0.00    -0.460 OA
BRANCH  33  34
ATOM     34  C   UNL A   1      39.439  22.350  26.465  1.00  0.00     0.338 C 
ATOM     35  O   UNL A   1      39.908  21.539  27.246  1.00  0.00    -0.246 OA
BRANCH  34  36
ATOM     36  C   UNL A   1      39.406  23.821  26.713  1.00  0.00     0.060 A 
ATOM     37  C   UNL A   1      40.064  24.670  25.814  1.00  0.00     0.016 A 
ATOM     38  C   UNL A   1      38.993  24.322  27.946  1.00  0.00     0.016 A 
ATOM     39  C   UNL A   1      40.472  25.949  26.220  1.00  0.00     0.010 A 
ATOM     40  C   UNL A   1      39.446  25.568  28.363  1.00  0.00     0.010 A 
ATOM     41  C   UNL A   1      40.254  26.364  27.536  1.00  0.00    -0.014 A 
BRANCH  41  42
ATOM     42  C   UNL A   1      41.059  27.422  28.194  1.00  0.00     0.031 A 
ATOM     43  C   UNL A   1      40.476  28.690  28.692  1.00  0.00     0.074 A 
ATOM     44  C   UNL A   1      42.317  27.126  28.607  1.00  0.00     0.049 A 
ATOM     45  N   UNL A   1      41.160  29.699  29.115  1.00  0.00    -0.248 NA
ATOM     46  C   UNL A   1      39.052  28.952  28.718  1.00  0.00     0.031 C 
ATOM     47  C   UNL A   1      43.076  27.763  29.685  1.00  0.00     0.029 A 
ATOM     48  N   UNL A   1      43.168  26.116  28.190  1.00  0.00    -0.354 N 
ATOM     49  C   UNL A   1      40.313  30.559  29.780  1.00  0.00     0.074 A 
ATOM     50  C   UNL A   1      38.999  30.091  29.416  1.00  0.00     0.031 C 
ATOM     51  C   UNL A   1      44.320  27.263  29.723  1.00  0.00     0.029 A 
ATOM     52  C   UNL A   1      44.482  26.403  28.572  1.00  0.00     0.049 A 
ATOM     53  H   UNL A   1      42.888  25.311  27.696  1.00  0.00     0.167 HD
ATOM     54  C   UNL A   1      40.846  31.491  30.632  1.00  0.00     0.037 A 
ATOM     55  C   UNL A   1      45.422  26.582  27.596  1.00  0.00     0.037 A 
ATOM     56  C   UNL A   1      42.318  31.493  30.539  1.00  0.00     0.049 A 
ATOM     57  C   UNL A   1      45.756  28.052  27.394  1.00  0.00     0.074 A 
ATOM     58  C   UNL A   1      43.344  31.072  31.372  1.00  0.00     0.029 A 
ATOM     59  N   UNL A   1      42.913  31.718  29.296  1.00  0.00    -0.354 N 
ATOM     60  N   UNL A   1      45.238  29.014  28.111  1.00  0.00    -0.248 NA
ATOM     61  C   UNL A   1      46.676  28.576  26.387  1.00  0.00     0.031 C 
ATOM     62  C   UNL A   1      44.531  30.955  30.592  1.00  0.00     0.029 A 
ATOM     63  C   UNL A   1      44.238  31.317  29.288  1.00  0.00     0.049 A 
ATOM     64  H   UNL A   1      42.448  32.113  28.523  1.00  0.00     0.167 HD
ATOM     65  C   UNL A   1      45.593  30.230  27.610  1.00  0.00     0.074 A 
ATOM     66  C   UNL A   1      46.551  29.905  26.570  1.00  0.00     0.031 C 
ATOM     67  C   UNL A   1      45.023  31.390  28.056  1.00  0.00     0.037 A 
BRANCH  54  68
ATOM     68  C   UNL A   1      40.070  32.266  31.697  1.00  0.00     0.057 A 
ATOM     69  C   UNL A   1      39.748  31.678  32.942  1.00  0.00     0.134 A 
ATOM     70  C   UNL A   1      39.577  33.579  31.566  1.00  0.00     0.134 A 
ATOM     71  F   UNL A   1      40.201  30.467  33.291  1.00  0.00    -0.206 F 
ATOM     72  C   UNL A   1      38.946  32.303  33.915  1.00  0.00     0.040 A 
ATOM     73  C   UNL A   1      38.743  34.202  32.512  1.00  0.00     0.040 A 
ATOM     74  F   UNL A   1      39.924  34.372  30.552  1.00  0.00    -0.206 F 
ATOM     75  C   UNL A   1      38.415  33.561  33.692  1.00  0.00     0.006 A 
ENDBRANCH  54  68
BRANCH  55  76
ATOM     76  C   UNL A   1      45.320  25.476  26.595  1.00  0.00     0.057 A 
ATOM     77  C   UNL A   1      45.740  24.207  27.052  1.00  0.00     0.134 A 
ATOM     78  C   UNL A   1      44.380  25.490  25.558  1.00  0.00     0.134 A 
ATOM     79  F   UNL A   1      46.637  24.118  28.047  1.00  0.00    -0.206 F 
ATOM     80  C   UNL A   1      45.125  23.024  26.631  1.00  0.00     0.040 A 
ATOM     81  C   UNL A   1      43.773  24.303  25.114  1.00  0.00     0.040 A 
ATOM     82  F   UNL A   1      43.901  26.649  25.086  1.00  0.00    -0.206 F 
ATOM     83  C   UNL A   1      44.105  23.074  25.688  1.00  0.00     0.006 A 
ENDBRANCH  55  76
BRANCH  67  84
ATOM     84  C   UNL A   1      45.159  32.717  27.361  1.00  0.00     0.057 A 
ATOM     85  C   UNL A   1      46.048  33.721  27.769  1.00  0.00     0.134 A 
ATOM     86  C   UNL A   1      44.505  32.947  26.132  1.00  0.00     0.134 A 
ATOM     87  F   UNL A   1      46.806  33.581  28.865  1.00  0.00    -0.206 F 
ATOM     88  C   UNL A   1      46.239  34.896  27.032  1.00  0.00     0.040 A 
ATOM     89  C   UNL A   1      44.726  34.090  25.363  1.00  0.00     0.040 A 
ATOM     90  F   UNL A   1      43.647  32.051  25.619  1.00  0.00    -0.206 F 
ATOM     91  C   UNL A   1      45.587  35.078  25.818  1.00  0.00     0.006 A 
ENDBRANCH  67  84
ENDBRANCH  41  42
ENDBRANCH  34  36
ENDBRANCH  33  34
ENDBRANCH  32  33
ENDBRANCH  31  32
ENDBRANCH   1  31
TORSDOF 17
ENDMDL
MODEL 2
REMARK VINA RESULT:     -12.3      3.328      9.040
REMARK SMILES COc1ccc(-c2cc(Cl)cc3c2O[C@@H](C(F)(F)F)C(C(=O)OCCOCCOC(=O)c2ccc(-c4c5nc(c(-c6c(F)cccc6F)c6ccc([nH]6)c(-c6c(F)cccc6F)c6nc(c(-c7c(F)cccc7F)c7ccc4[nH]7)C=C6)C=C5)cc2)=C3)cc1C
REMARK SMILES IDX 26 1 25 2 24 3 23 4 21 5 22 6 20 7 7 8 8 9 13 10 9 11 12 12
REMARK SMILES IDX 14 13 10 14 11 15 86 16 15 17 6 18 3 19 4 20 88 21 5 22
REMARK SMILES IDX 87 23 89 24 2 25 1 26 16 27 17 28 18 29 19 30 27 31 28 32
REMARK SMILES IDX 29 33 30 34 31 35 32 36 33 37 85 38 34 39 84 40 35 41 36 42
REMARK SMILES IDX 37 43 78 44 38 45 83 46 77 47 79 48 39 49 82 50 76 51 75 52
REMARK SMILES IDX 40 54 66 55 49 56 65 57 50 58 53 59 64 60 80 61 51 62 52 63
REMARK SMILES IDX 63 65 81 66 54 67 41 68 42 69 47 70 43 71 44 72 46 73 48 74
REMARK SMILES IDX 45 75 67 76 68 77 73 78 69 79 70 80 72 81 74 82 71 83 55 84
REMARK SMILES IDX 56 85 61 86 57 87 58 88 60 89 62 90 59 91
REMARK H PARENT 79 53 53 64
REMARK Flexibility Score: inf
ROOT
ATOM      1  O   UNL A   1      32.968  29.502  24.608  1.00  0.00    -0.374 OA
ENDROOT
BRANCH   1   2
ATOM      2  C   UNL A   1      33.693  28.947  23.515  1.00  0.00     0.202 C 
BRANCH   2   3
ATOM      3  C   UNL A   1      32.823  27.950  22.732  1.00  0.00     0.261 C 
BRANCH   3   4
ATOM      4  O   UNL A   1      33.403  26.631  22.681  1.00  0.00    -0.460 OA
BRANCH   4   5
ATOM      5  C   UNL A   1      33.240  25.891  23.826  1.00  0.00     0.338 C 
ATOM      6  O   UNL A   1      34.001  25.832  24.760  1.00  0.00    -0.246 OA
BRANCH   5   7
ATOM      7  C   UNL A   1      31.793  25.407  23.883  1.00  0.00     0.087 C 
ATOM      8  C   UNL A   1      33.851  22.125  24.851  1.00  0.00     0.026 A 
ATOM      9  C   UNL A   1      33.532  20.886  24.251  1.00  0.00     0.033 A 
ATOM     10  C   UNL A   1      32.866  23.130  24.716  1.00  0.00     0.135 A 
ATOM     11  C   UNL A   1      32.476  20.765  23.347  1.00  0.00     0.042 A 
ATOM     12  C   UNL A   1      32.023  23.100  23.575  1.00  0.00     0.019 A 
ATOM     13  O   UNL A   1      32.568  24.088  25.724  1.00  0.00    -0.475 OA
ATOM     14  Cl  UNL A   1      32.156  19.243  22.616  1.00  0.00    -0.084 Cl
ATOM     15  C   UNL A   1      31.779  21.892  22.934  1.00  0.00     0.032 A 
ATOM     16  C   UNL A   1      31.445  24.386  23.071  1.00  0.00     0.027 C 
ATOM     17  C   UNL A   1      31.472  25.026  25.317  1.00  0.00     0.316 C 
BRANCH   8  18
ATOM     18  C   UNL A   1      35.350  22.328  24.938  1.00  0.00    -0.014 A 
ATOM     19  C   UNL A   1      38.108  22.218  25.748  1.00  0.00     0.121 A 
ATOM     20  C   UNL A   1      37.311  23.338  26.007  1.00  0.00     0.047 A 
ATOM     21  C   UNL A   1      37.551  21.132  25.072  1.00  0.00    -0.008 A 
ATOM     22  C   UNL A   1      35.949  23.383  25.628  1.00  0.00     0.013 A 
ATOM     23  C   UNL A   1      36.206  21.230  24.622  1.00  0.00     0.016 A 
ATOM     24  C   UNL A   1      38.254  19.802  25.001  1.00  0.00     0.048 C 
BRANCH  19  25
ATOM     25  O   UNL A   1      39.317  22.160  26.397  1.00  0.00    -0.496 OA
ATOM     26  C   UNL A   1      39.621  23.299  27.199  1.00  0.00     0.278 C 
ENDBRANCH  19  25
ENDBRANCH   8  18
BRANCH  17  27
ATOM     27  C   UNL A   1      31.059  26.301  26.130  1.00  0.00     0.430 C 
ATOM     28  F   UNL A   1      32.057  26.690  26.971  1.00  0.00    -0.167 F 
ATOM     29  F   UNL A   1      30.873  27.348  25.281  1.00  0.00    -0.167 F 
ATOM     30  F   UNL A   1      29.948  26.227  26.878  1.00  0.00    -0.167 F 
ENDBRANCH  17  27
ENDBRANCH   5   7
ENDBRANCH   4   5
ENDBRANCH   3   4
ENDBRANCH   2   3
ENDBRANCH   1   2
BRANCH   1  31
ATOM     31  C   UNL A   1      33.599  29.321  25.880  1.00  0.00     0.202 C 
BRANCH  31  32
ATOM     32  C   UNL A   1      33.173  30.379  26.901  1.00  0.00     0.261 C 
BRANCH  32  33
ATOM     33  O   UNL A   1      34.220  31.360  26.998  1.00  0.00    -0.460 OA
BRANCH  33  34
ATOM     34  C   UNL A   1      34.773  31.453  28.234  1.00  0.00     0.338 C 
ATOM     35  O   UNL A   1      34.646  32.405  28.987  1.00  0.00    -0.246 OA
BRANCH  34  36
ATOM     36  C   UNL A   1      35.794  30.380  28.417  1.00  0.00     0.060 A 
ATOM     37  C   UNL A   1      35.846  29.703  29.642  1.00  0.00     0.016 A 
ATOM     38  C   UNL A   1      36.852  30.249  27.520  1.00  0.00     0.016 A 
ATOM     39  C   UNL A   1      37.026  29.058  30.043  1.00  0.00     0.010 A 
ATOM     40  C   UNL A   1      38.036  29.656  27.943  1.00  0.00     0.010 A 
ATOM     41  C   UNL A   1      38.163  29.122  29.234  1.00  0.00    -0.014 A 
BRANCH  41  42
ATOM     42  C   UNL A   1      39.539  28.942  29.759  1.00  0.00     0.031 A 
ATOM     43  C   UNL A   1      40.426  27.833  29.338  1.00  0.00     0.074 A 
ATOM     44  C   UNL A   1      40.120  29.964  30.437  1.00  0.00     0.049 A 
ATOM     45  N   UNL A   1      41.558  27.545  29.888  1.00  0.00    -0.248 NA
ATOM     46  C   UNL A   1      40.093  26.911  28.272  1.00  0.00     0.031 C 
ATOM     47  C   UNL A   1      41.550  30.240  30.581  1.00  0.00     0.029 A 
ATOM     48  N   UNL A   1      39.534  31.037  31.087  1.00  0.00    -0.354 N 
ATOM     49  C   UNL A   1      42.243  26.680  29.063  1.00  0.00     0.074 A 
ATOM     50  C   UNL A   1      41.242  26.245  28.122  1.00  0.00     0.031 C 
ATOM     51  C   UNL A   1      41.732  31.280  31.410  1.00  0.00     0.029 A 
ATOM     52  C   UNL A   1      40.445  31.620  31.974  1.00  0.00     0.049 A 
ATOM     53  H   UNL A   1      38.610  31.347  30.946  1.00  0.00     0.167 HD
ATOM     54  C   UNL A   1      43.594  26.529  29.233  1.00  0.00     0.037 A 
ATOM     55  C   UNL A   1      40.156  31.609  33.309  1.00  0.00     0.037 A 
ATOM     56  C   UNL A   1      44.046  27.245  30.441  1.00  0.00     0.049 A 
ATOM     57  C   UNL A   1      40.963  30.559  34.055  1.00  0.00     0.074 A 
ATOM     58  C   UNL A   1      44.785  28.396  30.667  1.00  0.00     0.029 A 
ATOM     59  N   UNL A   1      43.463  26.926  31.669  1.00  0.00    -0.354 N 
ATOM     60  N   UNL A   1      41.861  29.800  33.485  1.00  0.00    -0.248 NA
ATOM     61  C   UNL A   1      40.840  30.257  35.480  1.00  0.00     0.031 C 
ATOM     62  C   UNL A   1      44.559  28.813  32.011  1.00  0.00     0.029 A 
ATOM     63  C   UNL A   1      43.696  27.913  32.611  1.00  0.00     0.049 A 
ATOM     64  H   UNL A   1      42.951  26.103  31.841  1.00  0.00     0.167 HD
ATOM     65  C   UNL A   1      42.309  28.850  34.352  1.00  0.00     0.074 A 
ATOM     66  C   UNL A   1      41.690  29.219  35.612  1.00  0.00     0.031 C 
ATOM     67  C   UNL A   1      43.101  27.813  33.944  1.00  0.00     0.037 A 
BRANCH  54  68
ATOM     68  C   UNL A   1      44.552  25.910  28.215  1.00  0.00     0.057 A 
ATOM     69  C   UNL A   1      44.758  26.502  26.948  1.00  0.00     0.134 A 
ATOM     70  C   UNL A   1      45.285  24.720  28.390  1.00  0.00     0.134 A 
ATOM     71  F   UNL A   1      44.218  27.684  26.623  1.00  0.00    -0.206 F 
ATOM     72  C   UNL A   1      45.542  25.922  25.934  1.00  0.00     0.040 A 
ATOM     73  C   UNL A   1      46.041  24.107  27.375  1.00  0.00     0.040 A 
ATOM     74  F   UNL A   1      45.376  24.106  29.571  1.00  0.00    -0.206 F 
ATOM     75  C   UNL A   1      46.167  24.704  26.134  1.00  0.00     0.006 A 
ENDBRANCH  54  68
BRANCH  55  76
ATOM     76  C   UNL A   1      38.746  32.063  33.519  1.00  0.00     0.057 A 
ATOM     77  C   UNL A   1      38.504  33.427  33.249  1.00  0.00     0.134 A 
ATOM     78  C   UNL A   1      37.655  31.195  33.393  1.00  0.00     0.134 A 
ATOM     79  F   UNL A   1      39.505  34.317  33.347  1.00  0.00    -0.206 F 
ATOM     80  C   UNL A   1      37.295  33.875  32.707  1.00  0.00     0.040 A 
ATOM     81  C   UNL A   1      36.430  31.642  32.869  1.00  0.00     0.040 A 
ATOM     82  F   UNL A   1      37.802  29.878  33.596  1.00  0.00    -0.206 F 
ATOM     83  C   UNL A   1      36.266  32.972  32.474  1.00  0.00     0.006 A 
ENDBRANCH  55  76
BRANCH  67  84
ATOM     84  C   UNL A   1      43.391  26.596  34.779  1.00  0.00     0.057 A 
ATOM     85  C   UNL A   1      42.415  25.663  35.157  1.00  0.00     0.134 A 
ATOM     86  C   UNL A   1      44.722  26.241  35.082  1.00  0.00     0.134 A 
ATOM     87  F   UNL A   1      41.124  25.833  34.839  1.00  0.00    -0.206 F 
ATOM     88  C   UNL A   1      42.735  24.479  35.832  1.00  0.00     0.040 A 
ATOM     89  C   UNL A   1      45.058  25.039  35.708  1.00  0.00     0.040 A 
ATOM     90  F   UNL A   1      45.750  27.038  34.752  1.00  0.00    -0.206 F 
ATOM     91  C   UNL A   1      44.060  24.157  36.098  1.00  0.00     0.006 A 
ENDBRANCH  67  84
ENDBRANCH  41  42
ENDBRANCH  34  36
ENDBRANCH  33  34
ENDBRANCH  32  33
ENDBRANCH  31  32
ENDBRANCH   1  31
TORSDOF 17
ENDMDL
MODEL 3
REMARK VINA RESULT:     -12.2      3.248      8.782
REMARK SMILES COc1ccc(-c2cc(Cl)cc3c2O[C@@H](C(F)(F)F)C(C(=O)OCCOCCOC(=O)c2ccc(-c4c5nc(c(-c6c(F)cccc6F)c6ccc([nH]6)c(-c6c(F)cccc6F)c6nc(c(-c7c(F)cccc7F)c7ccc4[nH]7)C=C6)C=C5)cc2)=C3)cc1C
REMARK SMILES IDX 26 1 25 2 24 3 23 4 21 5 22 6 20 7 7 8 8 9 13 10 9 11 12 12
REMARK SMILES IDX 14 13 10 14 11 15 86 16 15 17 6 18 3 19 4 20 88 21 5 22
REMARK SMILES IDX 87 23 89 24 2 25 1 26 16 27 17 28 18 29 19 30 27 31 28 32
REMARK SMILES IDX 29 33 30 34 31 35 32 36 33 37 85 38 34 39 84 40 35 41 36 42
REMARK SMILES IDX 37 43 78 44 38 45 83 46 77 47 79 48 39 49 82 50 76 51 75 52
REMARK SMILES IDX 40 54 66 55 49 56 65 57 50 58 53 59 64 60 80 61 51 62 52 63
REMARK SMILES IDX 63 65 81 66 54 67 41 68 42 69 47 70 43 71 44 72 46 73 48 74
REMARK SMILES IDX 45 75 67 76 68 77 73 78 69 79 70 80 72 81 74 82 71 83 55 84
REMARK SMILES IDX 56 85 61 86 57 87 58 88 60 89 62 90 59 91
REMARK H PARENT 79 53 53 64
REMARK Flexibility Score: inf
ROOT
ATOM      1  O   UNL A   1      32.664  28.222  24.063  1.00  0.00    -0.374 OA
ENDROOT
BRANCH   1   2
ATOM      2  C   UNL A   1      32.820  27.418  22.898  1.00  0.00     0.202 C 
BRANCH   2   3
ATOM      3  C   UNL A   1      34.097  26.564  22.990  1.00  0.00     0.261 C 
BRANCH   3   4
ATOM      4  O   UNL A   1      33.817  25.150  23.008  1.00  0.00    -0.460 OA
BRANCH   4   5
ATOM      5  C   UNL A   1      33.222  24.700  24.162  1.00  0.00     0.338 C 
ATOM      6  O   UNL A   1      33.642  24.829  25.286  1.00  0.00    -0.246 OA
BRANCH   5   7
ATOM      7  C   UNL A   1      31.787  24.298  23.836  1.00  0.00     0.087 C 
ATOM      8  C   UNL A   1      33.449  20.826  24.895  1.00  0.00     0.026 A 
ATOM      9  C   UNL A   1      33.235  19.670  24.111  1.00  0.00     0.033 A 
ATOM     10  C   UNL A   1      32.558  21.894  24.646  1.00  0.00     0.135 A 
ATOM     11  C   UNL A   1      32.415  19.696  22.983  1.00  0.00     0.042 A 
ATOM     12  C   UNL A   1      32.003  22.022  23.346  1.00  0.00     0.019 A 
ATOM     13  O   UNL A   1      32.066  22.768  25.655  1.00  0.00    -0.475 OA
ATOM     14  Cl  UNL A   1      32.222  18.271  22.041  1.00  0.00    -0.084 Cl
ATOM     15  C   UNL A   1      31.873  20.896  22.542  1.00  0.00     0.032 A 
ATOM     16  C   UNL A   1      31.602  23.381  22.862  1.00  0.00     0.027 C 
ATOM     17  C   UNL A   1      31.128  23.802  25.110  1.00  0.00     0.316 C 
BRANCH   8  18
ATOM     18  C   UNL A   1      34.893  20.932  25.342  1.00  0.00    -0.014 A 
ATOM     19  C   UNL A   1      37.684  21.604  25.524  1.00  0.00     0.121 A 
ATOM     20  C   UNL A   1      37.258  20.346  25.084  1.00  0.00     0.047 A 
ATOM     21  C   UNL A   1      36.728  22.551  25.893  1.00  0.00    -0.008 A 
ATOM     22  C   UNL A   1      35.886  20.024  24.973  1.00  0.00     0.013 A 
ATOM     23  C   UNL A   1      35.356  22.180  25.858  1.00  0.00     0.016 A 
ATOM     24  C   UNL A   1      37.092  23.996  26.111  1.00  0.00     0.048 C 
BRANCH  19  25
ATOM     25  O   UNL A   1      39.009  21.908  25.328  1.00  0.00    -0.496 OA
ATOM     26  C   UNL A   1      39.864  21.596  26.425  1.00  0.00     0.278 C 
ENDBRANCH  19  25
ENDBRANCH   8  18
BRANCH  17  27
ATOM     27  C   UNL A   1      30.581  25.016  25.938  1.00  0.00     0.430 C 
ATOM     28  F   UNL A   1      30.235  26.049  25.121  1.00  0.00    -0.167 F 
ATOM     29  F   UNL A   1      29.433  24.659  26.574  1.00  0.00    -0.167 F 
ATOM     30  F   UNL A   1      31.382  25.537  26.880  1.00  0.00    -0.167 F 
ENDBRANCH  17  27
ENDBRANCH   5   7
ENDBRANCH   4   5
ENDBRANCH   3   4
ENDBRANCH   2   3
ENDBRANCH   1   2
BRANCH   1  31
ATOM     31  C   UNL A   1      33.853  28.344  24.852  1.00  0.00     0.202 C 
BRANCH  31  32
ATOM     32  C   UNL A   1      33.587  28.140  26.345  1.00  0.00     0.261 C 
BRANCH  32  33
ATOM     33  O   UNL A   1      34.795  28.447  27.065  1.00  0.00    -0.460 OA
BRANCH  33  34
ATOM     34  C   UNL A   1      34.735  29.606  27.770  1.00  0.00     0.338 C 
ATOM     35  O   UNL A   1      33.831  30.422  27.694  1.00  0.00    -0.246 OA
BRANCH  34  36
ATOM     36  C   UNL A   1      36.055  29.884  28.407  1.00  0.00     0.060 A 
ATOM     37  C   UNL A   1      37.078  30.430  27.621  1.00  0.00     0.016 A 
ATOM     38  C   UNL A   1      36.365  29.351  29.655  1.00  0.00     0.016 A 
ATOM     39  C   UNL A   1      38.419  30.274  28.000  1.00  0.00     0.010 A 
ATOM     40  C   UNL A   1      37.696  29.149  30.000  1.00  0.00     0.010 A 
ATOM     41  C   UNL A   1      38.738  29.538  29.144  1.00  0.00    -0.014 A 
BRANCH  41  42
ATOM     42  C   UNL A   1      40.057  28.892  29.348  1.00  0.00     0.031 A 
ATOM     43  C   UNL A   1      40.378  27.533  28.853  1.00  0.00     0.074 A 
ATOM     44  C   UNL A   1      41.102  29.653  29.759  1.00  0.00     0.049 A 
ATOM     45  N   UNL A   1      41.447  26.873  29.151  1.00  0.00    -0.248 NA
ATOM     46  C   UNL A   1      39.491  26.769  27.999  1.00  0.00     0.031 C 
ATOM     47  C   UNL A   1      42.528  29.408  29.534  1.00  0.00     0.029 A 
ATOM     48  N   UNL A   1      41.102  30.876  30.409  1.00  0.00    -0.354 N 
ATOM     49  C   UNL A   1      41.563  25.807  28.286  1.00  0.00     0.074 A 
ATOM     50  C   UNL A   1      40.268  25.737  27.657  1.00  0.00     0.031 C 
ATOM     51  C   UNL A   1      43.257  30.331  30.181  1.00  0.00     0.029 A 
ATOM     52  C   UNL A   1      42.351  31.115  30.990  1.00  0.00     0.049 A 
ATOM     53  H   UNL A   1      40.333  31.490  30.455  1.00  0.00     0.167 HD
ATOM     54  C   UNL A   1      42.780  25.191  28.150  1.00  0.00     0.037 A 
ATOM     55  C   UNL A   1      42.428  31.231  32.349  1.00  0.00     0.037 A 
ATOM     56  C   UNL A   1      43.740  25.722  29.135  1.00  0.00     0.049 A 
ATOM     57  C   UNL A   1      42.995  29.977  32.994  1.00  0.00     0.074 A 
ATOM     58  C   UNL A   1      44.857  26.541  29.058  1.00  0.00     0.029 A 
ATOM     59  N   UNL A   1      43.420  25.652  30.492  1.00  0.00    -0.354 N 
ATOM     60  N   UNL A   1      43.406  28.939  32.314  1.00  0.00    -0.248 NA
ATOM     61  C   UNL A   1      43.148  29.763  34.432  1.00  0.00     0.031 C 
ATOM     62  C   UNL A   1      45.138  27.035  30.365  1.00  0.00     0.029 A 
ATOM     63  C   UNL A   1      44.206  26.509  31.243  1.00  0.00     0.049 A 
ATOM     64  H   UNL A   1      42.722  25.067  30.867  1.00  0.00     0.167 HD
ATOM     65  C   UNL A   1      43.714  27.908  33.149  1.00  0.00     0.074 A 
ATOM     66  C   UNL A   1      43.601  28.494  34.472  1.00  0.00     0.031 C 
ATOM     67  C   UNL A   1      43.976  26.650  32.681  1.00  0.00     0.037 A 
BRANCH  54  68
ATOM     68  C   UNL A   1      43.177  24.254  27.008  1.00  0.00     0.057 A 
ATOM     69  C   UNL A   1      43.179  22.851  27.179  1.00  0.00     0.134 A 
ATOM     70  C   UNL A   1      43.599  24.652  25.725  1.00  0.00     0.134 A 
ATOM     71  F   UNL A   1      42.728  22.273  28.300  1.00  0.00    -0.206 F 
ATOM     72  C   UNL A   1      43.637  21.947  26.202  1.00  0.00     0.040 A 
ATOM     73  C   UNL A   1      44.095  23.766  24.752  1.00  0.00     0.040 A 
ATOM     74  F   UNL A   1      43.496  25.912  25.300  1.00  0.00    -0.206 F 
ATOM     75  C   UNL A   1      44.125  22.404  24.990  1.00  0.00     0.006 A 
ENDBRANCH  54  68
BRANCH  55  76
ATOM     76  C   UNL A   1      41.358  32.158  32.833  1.00  0.00     0.057 A 
ATOM     77  C   UNL A   1      41.538  33.517  32.495  1.00  0.00     0.134 A 
ATOM     78  C   UNL A   1      40.042  31.733  33.047  1.00  0.00     0.134 A 
ATOM     79  F   UNL A   1      42.773  33.993  32.272  1.00  0.00    -0.206 F 
ATOM     80  C   UNL A   1      40.461  34.360  32.205  1.00  0.00     0.040 A 
ATOM     81  C   UNL A   1      38.954  32.581  32.779  1.00  0.00     0.040 A 
ATOM     82  F   UNL A   1      39.776  30.452  33.339  1.00  0.00    -0.206 F 
ATOM     83  C   UNL A   1      39.161  33.879  32.305  1.00  0.00     0.006 A 
ENDBRANCH  55  76
BRANCH  67  84
ATOM     84  C   UNL A   1      44.041  25.425  33.550  1.00  0.00     0.057 A 
ATOM     85  C   UNL A   1      43.004  25.020  34.401  1.00  0.00     0.134 A 
ATOM     86  C   UNL A   1      45.108  24.512  33.415  1.00  0.00     0.134 A 
ATOM     87  F   UNL A   1      41.887  25.749  34.540  1.00  0.00    -0.206 F 
ATOM     88  C   UNL A   1      43.044  23.812  35.107  1.00  0.00     0.040 A 
ATOM     89  C   UNL A   1      45.136  23.281  34.073  1.00  0.00     0.040 A 
ATOM     90  F   UNL A   1      46.152  24.771  32.612  1.00  0.00    -0.206 F 
ATOM     91  C   UNL A   1      44.106  22.931  34.935  1.00  0.00     0.006 A 
ENDBRANCH  67  84
ENDBRANCH  41  42
ENDBRANCH  34  36
ENDBRANCH  33  34
ENDBRANCH  32  33
ENDBRANCH  31  32
ENDBRANCH   1  31
TORSDOF 17
ENDMDL
