MODEL 1
REMARK VINA RESULT:      -9.8      0.000      0.000
REMARK SMILES O=C(OCCOCCOC(=O)C1(O)CCC(F)(F)CC1)c1ccc(-c2c3nc(c(-c4c(F)cccc4F)c4ccc([nH]4)c(-c4c(F)cccc4F)c4nc(c(-c5c(F)cccc5F)c5ccc2[nH]5)C=C4)C=C3)cc1
REMARK SMILES IDX 5 1 4 2 3 3 2 4 1 5 21 6 22 7 74 8 23 9 73 10 24 11 25 12
REMARK SMILES IDX 26 13 67 14 27 15 72 16 66 17 68 18 28 19 71 20 65 21 64 22
REMARK SMILES IDX 29 24 55 25 38 26 54 27 39 28 42 29 53 30 69 31 40 32 41 33
REMARK SMILES IDX 52 35 70 36 43 37 30 38 31 39 36 40 32 41 33 42 35 43 37 44
REMARK SMILES IDX 34 45 56 46 57 47 62 48 58 49 59 50 61 51 63 52 60 53 44 54
REMARK SMILES IDX 45 55 50 56 46 57 47 58 49 59 51 60 48 61 6 62 7 63 8 64
REMARK SMILES IDX 9 65 10 66 11 67 12 68 14 69 20 70 15 71 19 72 16 73 17 74
REMARK SMILES IDX 18 75 13 76
REMARK H PARENT 68 23 42 34 13 77
REMARK Flexibility Score: inf
ROOT
ATOM      1  C   UNL A   1      40.443  19.388  26.106  1.00  0.00     0.202 C 
ENDROOT
BRANCH   1   2
ATOM      2  C   UNL A   1      40.815  20.595  26.974  1.00  0.00     0.261 C 
BRANCH   2   3
ATOM      3  O   UNL A   1      40.726  21.816  26.228  1.00  0.00    -0.460 OA
BRANCH   3   4
ATOM      4  C   UNL A   1      39.801  22.792  26.367  1.00  0.00     0.338 C 
ATOM      5  O   UNL A   1      38.626  22.535  26.111  1.00  0.00    -0.246 OA
BRANCH   4   6
ATOM      6  C   UNL A   1      40.124  24.174  26.837  1.00  0.00     0.060 A 
ATOM      7  C   UNL A   1      40.439  25.256  26.010  1.00  0.00     0.016 A 
ATOM      8  C   UNL A   1      40.010  24.412  28.215  1.00  0.00     0.016 A 
ATOM      9  C   UNL A   1      40.661  26.521  26.512  1.00  0.00     0.010 A 
ATOM     10  C   UNL A   1      40.218  25.689  28.737  1.00  0.00     0.010 A 
ATOM     11  C   UNL A   1      40.550  26.738  27.875  1.00  0.00    -0.014 A 
BRANCH  11  12
ATOM     12  C   UNL A   1      40.942  28.061  28.360  1.00  0.00     0.031 A 
ATOM     13  C   UNL A   1      42.387  28.418  28.295  1.00  0.00     0.074 A 
ATOM     14  C   UNL A   1      39.989  28.947  28.690  1.00  0.00     0.049 A 
ATOM     15  N   UNL A   1      42.995  29.483  28.732  1.00  0.00    -0.248 NA
ATOM     16  C   UNL A   1      43.268  27.439  27.633  1.00  0.00     0.031 C 
ATOM     17  C   UNL A   1      38.546  28.702  28.606  1.00  0.00     0.029 A 
ATOM     18  N   UNL A   1      40.086  30.232  29.138  1.00  0.00    -0.354 N 
ATOM     19  C   UNL A   1      44.337  29.284  28.440  1.00  0.00     0.074 A 
ATOM     20  C   UNL A   1      44.456  28.004  27.781  1.00  0.00     0.031 C 
ATOM     21  C   UNL A   1      37.892  29.805  29.005  1.00  0.00     0.029 A 
ATOM     22  C   UNL A   1      38.871  30.793  29.440  1.00  0.00     0.049 A 
ATOM     23  H   UNL A   1      40.942  30.709  29.234  1.00  0.00     0.167 HD
ATOM     24  C   UNL A   1      45.371  30.103  28.729  1.00  0.00     0.037 A 
ATOM     25  C   UNL A   1      38.602  31.953  30.062  1.00  0.00     0.037 A 
ATOM     26  C   UNL A   1      45.191  31.364  29.397  1.00  0.00     0.049 A 
ATOM     27  C   UNL A   1      39.771  32.805  30.471  1.00  0.00     0.074 A 
ATOM     28  C   UNL A   1      46.144  32.273  29.810  1.00  0.00     0.029 A 
ATOM     29  N   UNL A   1      43.951  31.884  29.754  1.00  0.00    -0.354 N 
ATOM     30  N   UNL A   1      41.052  32.591  30.273  1.00  0.00    -0.248 NA
ATOM     31  C   UNL A   1      39.471  34.041  31.198  1.00  0.00     0.031 C 
ATOM     32  C   UNL A   1      45.481  33.316  30.468  1.00  0.00     0.029 A 
ATOM     33  C   UNL A   1      44.112  33.090  30.408  1.00  0.00     0.049 A 
ATOM     34  H   UNL A   1      43.084  31.455  29.567  1.00  0.00     0.167 HD
ATOM     35  C   UNL A   1      41.714  33.670  30.839  1.00  0.00     0.074 A 
ATOM     36  C   UNL A   1      40.686  34.544  31.374  1.00  0.00     0.031 C 
ATOM     37  C   UNL A   1      43.046  33.921  30.916  1.00  0.00     0.037 A 
BRANCH  24  38
ATOM     38  C   UNL A   1      46.746  29.589  28.424  1.00  0.00     0.057 A 
ATOM     39  C   UNL A   1      47.383  29.814  27.196  1.00  0.00     0.134 A 
ATOM     40  C   UNL A   1      47.408  28.773  29.352  1.00  0.00     0.134 A 
ATOM     41  F   UNL A   1      46.788  30.554  26.247  1.00  0.00    -0.206 F 
ATOM     42  C   UNL A   1      48.605  29.211  26.885  1.00  0.00     0.040 A 
ATOM     43  C   UNL A   1      48.643  28.189  29.064  1.00  0.00     0.040 A 
ATOM     44  F   UNL A   1      46.852  28.506  30.543  1.00  0.00    -0.206 F 
ATOM     45  C   UNL A   1      49.237  28.397  27.821  1.00  0.00     0.006 A 
ENDBRANCH  24  38
BRANCH  25  46
ATOM     46  C   UNL A   1      37.199  32.310  30.392  1.00  0.00     0.057 A 
ATOM     47  C   UNL A   1      36.611  31.942  31.607  1.00  0.00     0.134 A 
ATOM     48  C   UNL A   1      36.414  33.060  29.502  1.00  0.00     0.134 A 
ATOM     49  F   UNL A   1      37.301  31.214  32.496  1.00  0.00    -0.206 F 
ATOM     50  C   UNL A   1      35.298  32.300  31.923  1.00  0.00     0.040 A 
ATOM     51  C   UNL A   1      35.110  33.447  29.816  1.00  0.00     0.040 A 
ATOM     52  F   UNL A   1      36.914  33.451  28.321  1.00  0.00    -0.206 F 
ATOM     53  C   UNL A   1      34.546  33.062  31.029  1.00  0.00     0.006 A 
ENDBRANCH  25  46
BRANCH  37  54
ATOM     54  C   UNL A   1      43.450  35.206  31.571  1.00  0.00     0.057 A 
ATOM     55  C   UNL A   1      43.694  36.367  30.830  1.00  0.00     0.134 A 
ATOM     56  C   UNL A   1      43.518  35.293  32.967  1.00  0.00     0.134 A 
ATOM     57  F   UNL A   1      43.657  36.339  29.488  1.00  0.00    -0.206 F 
ATOM     58  C   UNL A   1      44.003  37.573  31.457  1.00  0.00     0.040 A 
ATOM     59  C   UNL A   1      43.796  36.499  33.605  1.00  0.00     0.040 A 
ATOM     60  F   UNL A   1      43.282  34.214  33.729  1.00  0.00    -0.206 F 
ATOM     61  C   UNL A   1      44.043  37.643  32.849  1.00  0.00     0.006 A 
ENDBRANCH  37  54
ENDBRANCH  11  12
ENDBRANCH   4   6
ENDBRANCH   3   4
ENDBRANCH   2   3
ENDBRANCH   1   2
BRANCH   1  62
ATOM     62  O   UNL A   1      41.533  18.549  25.717  1.00  0.00    -0.374 OA
BRANCH  62  63
ATOM     63  C   UNL A   1      42.770  18.763  26.408  1.00  0.00     0.202 C 
BRANCH  63  64
ATOM     64  C   UNL A   1      43.898  18.984  25.402  1.00  0.00     0.261 C 
BRANCH  64  65
ATOM     65  O   UNL A   1      43.781  20.325  24.908  1.00  0.00    -0.461 OA
BRANCH  65  66
ATOM     66  C   UNL A   1      44.963  21.001  24.879  1.00  0.00     0.338 C 
ATOM     67  O   UNL A   1      45.993  20.630  25.435  1.00  0.00    -0.249 OA
BRANCH  66  68
ATOM     68  C   UNL A   1      44.833  22.315  24.072  1.00  0.00     0.162 C 
ATOM     69  C   UNL A   1      43.628  23.084  24.613  1.00  0.00     0.053 C 
ATOM     70  C   UNL A   1      46.115  23.164  24.179  1.00  0.00     0.053 C 
ATOM     71  C   UNL A   1      43.862  23.551  26.048  1.00  0.00     0.080 C 
ATOM     72  C   UNL A   1      46.372  23.728  25.575  1.00  0.00     0.080 C 
ATOM     73  C   UNL A   1      45.134  24.379  26.166  1.00  0.00     0.248 C 
ATOM     74  F   UNL A   1      45.358  24.683  27.466  1.00  0.00    -0.207 F 
ATOM     75  F   UNL A   1      44.930  25.560  25.521  1.00  0.00    -0.207 F 
BRANCH  68  76
ATOM     76  O   UNL A   1      44.613  22.045  22.683  1.00  0.00    -0.378 OA
ATOM     77  H   UNL A   1      44.952  22.784  22.153  1.00  0.00     0.212 HD
ENDBRANCH  68  76
ENDBRANCH  66  68
ENDBRANCH  65  66
ENDBRANCH  64  65
ENDBRANCH  63  64
ENDBRANCH  62  63
ENDBRANCH   1  62
TORSDOF 15
ENDMDL
MODEL 2
REMARK VINA RESULT:      -9.6      4.604     11.260
REMARK SMILES O=C(OCCOCCOC(=O)C1(O)CCC(F)(F)CC1)c1ccc(-c2c3nc(c(-c4c(F)cccc4F)c4ccc([nH]4)c(-c4c(F)cccc4F)c4nc(c(-c5c(F)cccc5F)c5ccc2[nH]5)C=C4)C=C3)cc1
REMARK SMILES IDX 5 1 4 2 3 3 2 4 1 5 21 6 22 7 74 8 23 9 73 10 24 11 25 12
REMARK SMILES IDX 26 13 67 14 27 15 72 16 66 17 68 18 28 19 71 20 65 21 64 22
REMARK SMILES IDX 29 24 55 25 38 26 54 27 39 28 42 29 53 30 69 31 40 32 41 33
REMARK SMILES IDX 52 35 70 36 43 37 30 38 31 39 36 40 32 41 33 42 35 43 37 44
REMARK SMILES IDX 34 45 56 46 57 47 62 48 58 49 59 50 61 51 63 52 60 53 44 54
REMARK SMILES IDX 45 55 50 56 46 57 47 58 49 59 51 60 48 61 6 62 7 63 8 64
REMARK SMILES IDX 9 65 10 66 11 67 12 68 14 69 20 70 15 71 19 72 16 73 17 74
REMARK SMILES IDX 18 75 13 76
REMARK H PARENT 68 23 42 34 13 77
REMARK Flexibility Score: inf
ROOT
ATOM      1  C   UNL A   1      33.280  33.903  27.950  1.00  0.00     0.202 C 
ENDROOT
BRANCH   1   2
ATOM      2  C   UNL A   1      34.427  32.986  28.385  1.00  0.00     0.261 C 
BRANCH   2   3
ATOM      3  O   UNL A   1      34.011  31.615  28.413  1.00  0.00    -0.460 OA
BRANCH   3   4
ATOM      4  C   UNL A   1      34.656  30.554  27.878  1.00  0.00     0.338 C 
ATOM      5  O   UNL A   1      34.102  29.911  26.988  1.00  0.00    -0.246 OA
BRANCH   4   6
ATOM      6  C   UNL A   1      36.027  30.125  28.295  1.00  0.00     0.060 A 
ATOM      7  C   UNL A   1      37.201  30.361  27.575  1.00  0.00     0.016 A 
ATOM      8  C   UNL A   1      36.139  29.516  29.554  1.00  0.00     0.016 A 
ATOM      9  C   UNL A   1      38.440  29.994  28.055  1.00  0.00     0.010 A 
ATOM     10  C   UNL A   1      37.387  29.152  30.060  1.00  0.00     0.010 A 
ATOM     11  C   UNL A   1      38.534  29.390  29.297  1.00  0.00    -0.014 A 
BRANCH  11  12
ATOM     12  C   UNL A   1      39.853  28.890  29.683  1.00  0.00     0.031 A 
ATOM     13  C   UNL A   1      40.569  29.609  30.775  1.00  0.00     0.074 A 
ATOM     14  C   UNL A   1      40.294  27.734  29.164  1.00  0.00     0.049 A 
ATOM     15  N   UNL A   1      41.769  29.419  31.241  1.00  0.00    -0.248 NA
ATOM     16  C   UNL A   1      39.818  30.687  31.444  1.00  0.00     0.031 C 
ATOM     17  C   UNL A   1      39.552  26.900  28.215  1.00  0.00     0.029 A 
ATOM     18  N   UNL A   1      41.456  27.051  29.374  1.00  0.00    -0.354 N 
ATOM     19  C   UNL A   1      41.938  30.382  32.226  1.00  0.00     0.074 A 
ATOM     20  C   UNL A   1      40.716  31.149  32.300  1.00  0.00     0.031 C 
ATOM     21  C   UNL A   1      40.287  25.818  27.915  1.00  0.00     0.029 A 
ATOM     22  C   UNL A   1      41.574  25.930  28.591  1.00  0.00     0.049 A 
ATOM     23  H   UNL A   1      42.141  27.334  30.022  1.00  0.00     0.167 HD
ATOM     24  C   UNL A   1      43.037  30.605  32.977  1.00  0.00     0.037 A 
ATOM     25  C   UNL A   1      42.639  25.132  28.405  1.00  0.00     0.037 A 
ATOM     26  C   UNL A   1      44.230  29.813  32.851  1.00  0.00     0.049 A 
ATOM     27  C   UNL A   1      43.890  25.459  29.171  1.00  0.00     0.074 A 
ATOM     28  C   UNL A   1      45.441  29.955  33.497  1.00  0.00     0.029 A 
ATOM     29  N   UNL A   1      44.349  28.718  32.000  1.00  0.00    -0.354 N 
ATOM     30  N   UNL A   1      44.089  26.418  30.047  1.00  0.00    -0.248 NA
ATOM     31  C   UNL A   1      45.063  24.618  28.919  1.00  0.00     0.031 C 
ATOM     32  C   UNL A   1      46.310  28.979  32.994  1.00  0.00     0.029 A 
ATOM     33  C   UNL A   1      45.623  28.189  32.082  1.00  0.00     0.049 A 
ATOM     34  H   UNL A   1      43.630  28.370  31.424  1.00  0.00     0.167 HD
ATOM     35  C   UNL A   1      45.406  26.290  30.464  1.00  0.00     0.074 A 
ATOM     36  C   UNL A   1      45.950  25.147  29.752  1.00  0.00     0.031 C 
ATOM     37  C   UNL A   1      46.107  27.043  31.349  1.00  0.00     0.037 A 
BRANCH  24  38
ATOM     38  C   UNL A   1      43.006  31.802  33.879  1.00  0.00     0.057 A 
ATOM     39  C   UNL A   1      42.522  31.745  35.194  1.00  0.00     0.134 A 
ATOM     40  C   UNL A   1      43.387  33.058  33.388  1.00  0.00     0.134 A 
ATOM     41  F   UNL A   1      42.104  30.581  35.716  1.00  0.00    -0.206 F 
ATOM     42  C   UNL A   1      42.376  32.899  35.970  1.00  0.00     0.040 A 
ATOM     43  C   UNL A   1      43.274  34.213  34.164  1.00  0.00     0.040 A 
ATOM     44  F   UNL A   1      43.849  33.188  32.135  1.00  0.00    -0.206 F 
ATOM     45  C   UNL A   1      42.754  34.137  35.453  1.00  0.00     0.006 A 
ENDBRANCH  24  38
BRANCH  25  46
ATOM     46  C   UNL A   1      42.576  24.031  27.411  1.00  0.00     0.057 A 
ATOM     47  C   UNL A   1      42.929  24.226  26.071  1.00  0.00     0.134 A 
ATOM     48  C   UNL A   1      42.183  22.737  27.788  1.00  0.00     0.134 A 
ATOM     49  F   UNL A   1      43.300  25.440  25.642  1.00  0.00    -0.206 F 
ATOM     50  C   UNL A   1      42.889  23.181  25.144  1.00  0.00     0.040 A 
ATOM     51  C   UNL A   1      42.165  21.678  26.878  1.00  0.00     0.040 A 
ATOM     52  F   UNL A   1      41.835  22.477  29.056  1.00  0.00    -0.206 F 
ATOM     53  C   UNL A   1      42.514  21.900  25.549  1.00  0.00     0.006 A 
ENDBRANCH  25  46
BRANCH  37  54
ATOM     54  C   UNL A   1      47.521  26.626  31.613  1.00  0.00     0.057 A 
ATOM     55  C   UNL A   1      47.842  25.694  32.606  1.00  0.00     0.134 A 
ATOM     56  C   UNL A   1      48.559  27.108  30.806  1.00  0.00     0.134 A 
ATOM     57  F   UNL A   1      46.890  25.208  33.418  1.00  0.00    -0.206 F 
ATOM     58  C   UNL A   1      49.155  25.264  32.796  1.00  0.00     0.040 A 
ATOM     59  C   UNL A   1      49.869  26.662  30.967  1.00  0.00     0.040 A 
ATOM     60  F   UNL A   1      48.308  27.995  29.831  1.00  0.00    -0.206 F 
ATOM     61  C   UNL A   1      50.170  25.740  31.967  1.00  0.00     0.006 A 
ENDBRANCH  37  54
ENDBRANCH  11  12
ENDBRANCH   4   6
ENDBRANCH   3   4
ENDBRANCH   2   3
ENDBRANCH   1   2
BRANCH   1  62
ATOM     62  O   UNL A   1      32.615  34.604  29.004  1.00  0.00    -0.374 OA
BRANCH  62  63
ATOM     63  C   UNL A   1      33.016  35.965  29.205  1.00  0.00     0.202 C 
BRANCH  63  64
ATOM     64  C   UNL A   1      33.108  36.266  30.699  1.00  0.00     0.261 C 
BRANCH  64  65
ATOM     65  O   UNL A   1      33.304  35.021  31.381  1.00  0.00    -0.461 OA
BRANCH  65  66
ATOM     66  C   UNL A   1      34.179  35.099  32.421  1.00  0.00     0.338 C 
ATOM     67  O   UNL A   1      34.786  36.115  32.748  1.00  0.00    -0.249 OA
BRANCH  66  68
ATOM     68  C   UNL A   1      34.332  33.729  33.125  1.00  0.00     0.162 C 
ATOM     69  C   UNL A   1      34.832  32.720  32.092  1.00  0.00     0.053 C 
ATOM     70  C   UNL A   1      35.306  33.819  34.316  1.00  0.00     0.053 C 
ATOM     71  C   UNL A   1      36.246  33.055  31.623  1.00  0.00     0.080 C 
ATOM     72  C   UNL A   1      36.756  34.079  33.914  1.00  0.00     0.080 C 
ATOM     73  C   UNL A   1      37.213  33.159  32.793  1.00  0.00     0.248 C 
ATOM     74  F   UNL A   1      38.426  33.559  32.345  1.00  0.00    -0.207 F 
ATOM     75  F   UNL A   1      37.383  31.913  33.314  1.00  0.00    -0.207 F 
BRANCH  68  76
ATOM     76  O   UNL A   1      33.074  33.271  33.635  1.00  0.00    -0.378 OA
ATOM     77  H   UNL A   1      33.196  32.925  34.533  1.00  0.00     0.212 HD
ENDBRANCH  68  76
ENDBRANCH  66  68
ENDBRANCH  65  66
ENDBRANCH  64  65
ENDBRANCH  63  64
ENDBRANCH  62  63
ENDBRANCH   1  62
TORSDOF 15
ENDMDL
MODEL 3
REMARK VINA RESULT:      -9.5      4.730      6.693
REMARK SMILES O=C(OCCOCCOC(=O)C1(O)CCC(F)(F)CC1)c1ccc(-c2c3nc(c(-c4c(F)cccc4F)c4ccc([nH]4)c(-c4c(F)cccc4F)c4nc(c(-c5c(F)cccc5F)c5ccc2[nH]5)C=C4)C=C3)cc1
REMARK SMILES IDX 5 1 4 2 3 3 2 4 1 5 21 6 22 7 74 8 23 9 73 10 24 11 25 12
REMARK SMILES IDX 26 13 67 14 27 15 72 16 66 17 68 18 28 19 71 20 65 21 64 22
REMARK SMILES IDX 29 24 55 25 38 26 54 27 39 28 42 29 53 30 69 31 40 32 41 33
REMARK SMILES IDX 52 35 70 36 43 37 30 38 31 39 36 40 32 41 33 42 35 43 37 44
REMARK SMILES IDX 34 45 56 46 57 47 62 48 58 49 59 50 61 51 63 52 60 53 44 54
REMARK SMILES IDX 45 55 50 56 46 57 47 58 49 59 51 60 48 61 6 62 7 63 8 64
REMARK SMILES IDX 9 65 10 66 11 67 12 68 14 69 20 70 15 71 19 72 16 73 17 74
REMARK SMILES IDX 18 75 13 76
REMARK H PARENT 68 23 42 34 13 77
REMARK Flexibility Score: inf
ROOT
ATOM      1  C   UNL A   1      40.999  20.758  26.165  1.00  0.00     0.202 C 
ENDROOT
BRANCH   1   2
ATOM      2  C   UNL A   1      42.373  21.426  26.048  1.00  0.00     0.261 C 
BRANCH   2   3
ATOM      3  O   UNL A   1      42.310  22.596  25.223  1.00  0.00    -0.460 OA
BRANCH   3   4
ATOM      4  C   UNL A   1      42.919  23.784  25.442  1.00  0.00     0.338 C 
ATOM      5  O   UNL A   1      43.816  24.139  24.681  1.00  0.00    -0.246 OA
BRANCH   4   6
ATOM      6  C   UNL A   1      42.546  24.709  26.557  1.00  0.00     0.060 A 
ATOM      7  C   UNL A   1      41.716  24.383  27.632  1.00  0.00     0.016 A 
ATOM      8  C   UNL A   1      43.157  25.972  26.556  1.00  0.00     0.016 A 
ATOM      9  C   UNL A   1      41.470  25.269  28.661  1.00  0.00     0.010 A 
ATOM     10  C   UNL A   1      42.930  26.873  27.596  1.00  0.00     0.010 A 
ATOM     11  C   UNL A   1      42.077  26.513  28.643  1.00  0.00    -0.014 A 
BRANCH  11  12
ATOM     12  C   UNL A   1      41.660  27.458  29.679  1.00  0.00     0.031 A 
ATOM     13  C   UNL A   1      42.470  27.511  30.929  1.00  0.00     0.074 A 
ATOM     14  C   UNL A   1      40.682  28.336  29.410  1.00  0.00     0.049 A 
ATOM     15  N   UNL A   1      42.265  28.195  32.017  1.00  0.00    -0.248 NA
ATOM     16  C   UNL A   1      43.690  26.684  30.947  1.00  0.00     0.031 C 
ATOM     17  C   UNL A   1      39.970  28.439  28.133  1.00  0.00     0.029 A 
ATOM     18  N   UNL A   1      40.134  29.321  30.180  1.00  0.00    -0.354 N 
ATOM     19  C   UNL A   1      43.304  27.847  32.870  1.00  0.00     0.074 A 
ATOM     20  C   UNL A   1      44.143  26.901  32.171  1.00  0.00     0.031 C 
ATOM     21  C   UNL A   1      39.066  29.428  28.214  1.00  0.00     0.029 A 
ATOM     22  C   UNL A   1      39.089  29.968  29.568  1.00  0.00     0.049 A 
ATOM     23  H   UNL A   1      40.455  29.543  31.084  1.00  0.00     0.167 HD
ATOM     24  C   UNL A   1      43.507  28.275  34.134  1.00  0.00     0.037 A 
ATOM     25  C   UNL A   1      38.217  30.849  30.084  1.00  0.00     0.037 A 
ATOM     26  C   UNL A   1      42.630  29.212  34.781  1.00  0.00     0.049 A 
ATOM     27  C   UNL A   1      38.396  31.235  31.526  1.00  0.00     0.074 A 
ATOM     28  C   UNL A   1      42.671  29.692  36.074  1.00  0.00     0.029 A 
ATOM     29  N   UNL A   1      41.535  29.807  34.160  1.00  0.00    -0.354 N 
ATOM     30  N   UNL A   1      39.328  30.851  32.369  1.00  0.00    -0.248 NA
ATOM     31  C   UNL A   1      37.406  32.153  32.096  1.00  0.00     0.031 C 
ATOM     32  C   UNL A   1      41.567  30.535  36.251  1.00  0.00     0.029 A 
ATOM     33  C   UNL A   1      40.874  30.631  35.050  1.00  0.00     0.049 A 
ATOM     34  H   UNL A   1      41.271  29.663  33.222  1.00  0.00     0.167 HD
ATOM     35  C   UNL A   1      39.048  31.490  33.568  1.00  0.00     0.074 A 
ATOM     36  C   UNL A   1      37.865  32.298  33.333  1.00  0.00     0.031 C 
ATOM     37  C   UNL A   1      39.700  31.418  34.756  1.00  0.00     0.037 A 
BRANCH  24  38
ATOM     38  C   UNL A   1      44.636  27.638  34.888  1.00  0.00     0.057 A 
ATOM     39  C   UNL A   1      44.460  26.514  35.707  1.00  0.00     0.134 A 
ATOM     40  C   UNL A   1      45.910  28.221  34.863  1.00  0.00     0.134 A 
ATOM     41  F   UNL A   1      43.256  25.928  35.809  1.00  0.00    -0.206 F 
ATOM     42  C   UNL A   1      45.495  26.020  36.505  1.00  0.00     0.040 A 
ATOM     43  C   UNL A   1      46.961  27.720  35.633  1.00  0.00     0.040 A 
ATOM     44  F   UNL A   1      46.148  29.306  34.110  1.00  0.00    -0.206 F 
ATOM     45  C   UNL A   1      46.750  26.625  36.468  1.00  0.00     0.006 A 
ENDBRANCH  24  38
BRANCH  25  46
ATOM     46  C   UNL A   1      37.082  31.339  29.261  1.00  0.00     0.057 A 
ATOM     47  C   UNL A   1      35.956  30.547  29.012  1.00  0.00     0.134 A 
ATOM     48  C   UNL A   1      37.085  32.635  28.723  1.00  0.00     0.134 A 
ATOM     49  F   UNL A   1      35.895  29.295  29.486  1.00  0.00    -0.206 F 
ATOM     50  C   UNL A   1      34.881  31.020  28.255  1.00  0.00     0.040 A 
ATOM     51  C   UNL A   1      36.006  33.130  27.988  1.00  0.00     0.040 A 
ATOM     52  F   UNL A   1      38.130  33.451  28.925  1.00  0.00    -0.206 F 
ATOM     53  C   UNL A   1      34.901  32.319  27.747  1.00  0.00     0.006 A 
ENDBRANCH  25  46
BRANCH  37  54
ATOM     54  C   UNL A   1      39.162  32.263  35.870  1.00  0.00     0.057 A 
ATOM     55  C   UNL A   1      38.255  31.757  36.807  1.00  0.00     0.134 A 
ATOM     56  C   UNL A   1      39.624  33.573  36.045  1.00  0.00     0.134 A 
ATOM     57  F   UNL A   1      37.768  30.513  36.681  1.00  0.00    -0.206 F 
ATOM     58  C   UNL A   1      37.815  32.533  37.878  1.00  0.00     0.040 A 
ATOM     59  C   UNL A   1      39.214  34.347  37.128  1.00  0.00     0.040 A 
ATOM     60  F   UNL A   1      40.503  34.107  35.183  1.00  0.00    -0.206 F 
ATOM     61  C   UNL A   1      38.304  33.828  38.047  1.00  0.00     0.006 A 
ENDBRANCH  37  54
ENDBRANCH  11  12
ENDBRANCH   4   6
ENDBRANCH   3   4
ENDBRANCH   2   3
ENDBRANCH   1   2
BRANCH   1  62
ATOM     62  O   UNL A   1      40.031  21.468  26.942  1.00  0.00    -0.374 OA
BRANCH  62  63
ATOM     63  C   UNL A   1      39.124  22.300  26.209  1.00  0.00     0.202 C 
BRANCH  63  64
ATOM     64  C   UNL A   1      38.184  21.436  25.372  1.00  0.00     0.261 C 
BRANCH  64  65
ATOM     65  O   UNL A   1      36.854  21.938  25.554  1.00  0.00    -0.461 OA
BRANCH  65  66
ATOM     66  C   UNL A   1      35.887  20.992  25.401  1.00  0.00     0.338 C 
ATOM     67  O   UNL A   1      36.034  19.935  24.794  1.00  0.00    -0.249 OA
BRANCH  66  68
ATOM     68  C   UNL A   1      34.564  21.435  26.071  1.00  0.00     0.162 C 
ATOM     69  C   UNL A   1      34.209  22.824  25.542  1.00  0.00     0.053 C 
ATOM     70  C   UNL A   1      33.429  20.433  25.781  1.00  0.00     0.053 C 
ATOM     71  C   UNL A   1      33.875  22.785  24.052  1.00  0.00     0.080 C 
ATOM     72  C   UNL A   1      32.992  20.396  24.318  1.00  0.00     0.080 C 
ATOM     73  C   UNL A   1      32.764  21.789  23.753  1.00  0.00     0.248 C 
ATOM     74  F   UNL A   1      32.573  21.710  22.415  1.00  0.00    -0.207 F 
ATOM     75  F   UNL A   1      31.608  22.273  24.282  1.00  0.00    -0.207 F 
BRANCH  68  76
ATOM     76  O   UNL A   1      34.711  21.515  27.493  1.00  0.00    -0.378 OA
ATOM     77  H   UNL A   1      34.923  20.636  27.846  1.00  0.00     0.212 HD
ENDBRANCH  68  76
ENDBRANCH  66  68
ENDBRANCH  65  66
ENDBRANCH  64  65
ENDBRANCH  63  64
ENDBRANCH  62  63
ENDBRANCH   1  62
TORSDOF 15
ENDMDL
