MODEL 1
REMARK VINA RESULT:     -11.0      0.000      0.000
REMARK SMILES COc1cc2cc(C(=O)OCCOCCOC(=O)c3ccc(-c4c5nc(c(-c6c(F)cccc6F)c6ccc([nH]6)c(-c6c(F)cccc6F)c6nc(c(-c7c(F)cccc7F)c7ccc4[nH]7)C=C6)C=C5)cc3)n(Cc3ccccc3)c2c(OC)c1OC
REMARK SMILES IDX 13 1 12 2 11 3 10 4 8 5 9 6 7 7 3 8 4 9 85 10 5 11 82 12
REMARK SMILES IDX 6 13 81 14 73 15 2 16 1 17 86 18 87 19 83 20 84 21 74 22
REMARK SMILES IDX 75 23 76 24 80 25 77 26 79 27 78 28 14 29 15 30 16 31 17 32
REMARK SMILES IDX 18 33 19 34 20 35 72 36 21 37 71 38 22 39 23 40 24 41 65 42
REMARK SMILES IDX 25 43 70 44 64 45 66 46 26 47 69 48 63 49 62 50 27 52 53 53
REMARK SMILES IDX 36 54 52 55 37 56 40 57 51 58 67 59 38 60 39 61 50 63 68 64
REMARK SMILES IDX 41 65 28 66 29 67 34 68 30 69 31 70 33 71 35 72 32 73 54 74
REMARK SMILES IDX 55 75 60 76 56 77 57 78 59 79 61 80 58 81 42 82 43 83 48 84
REMARK SMILES IDX 44 85 45 86 47 87 49 88 46 89
REMARK H PARENT 66 51 40 62
REMARK Flexibility Score: inf
ROOT
ATOM      1  O   UNL A   1      41.613  21.386  26.454  1.00  0.00    -0.374 OA
ENDROOT
BRANCH   1   2
ATOM      2  C   UNL A   1      40.244  21.344  26.829  1.00  0.00     0.202 C 
BRANCH   2   3
ATOM      3  C   UNL A   1      39.217  20.950  25.767  1.00  0.00     0.261 C 
BRANCH   3   4
ATOM      4  O   UNL A   1      37.977  21.630  25.999  1.00  0.00    -0.459 OA
BRANCH   4   5
ATOM      5  C   UNL A   1      37.020  21.303  25.104  1.00  0.00     0.355 C 
ATOM      6  O   UNL A   1      37.037  20.294  24.400  1.00  0.00    -0.244 OA
BRANCH   5   7
ATOM      7  C   UNL A   1      35.894  22.205  25.156  1.00  0.00     0.129 A 
ATOM      8  C   UNL A   1      33.337  26.018  25.645  1.00  0.00     0.165 A 
ATOM      9  C   UNL A   1      34.537  25.578  25.092  1.00  0.00     0.061 A 
ATOM     10  C   UNL A   1      32.430  25.112  26.218  1.00  0.00     0.205 A 
ATOM     11  C   UNL A   1      34.863  24.218  25.149  1.00  0.00     0.008 A 
ATOM     12  C   UNL A   1      32.734  23.718  26.261  1.00  0.00     0.189 A 
ATOM     13  C   UNL A   1      36.017  23.523  24.765  1.00  0.00     0.044 A 
ATOM     14  C   UNL A   1      33.972  23.295  25.705  1.00  0.00     0.096 A 
ATOM     15  N   UNL A   1      34.573  22.032  25.566  1.00  0.00    -0.327 N 
BRANCH   8  16
ATOM     16  O   UNL A   1      33.035  27.351  25.506  1.00  0.00    -0.493 OA
ATOM     17  C   UNL A   1      33.518  27.883  24.269  1.00  0.00     0.278 C 
ENDBRANCH   8  16
BRANCH  10  18
ATOM     18  O   UNL A   1      31.187  25.488  26.676  1.00  0.00    -0.490 OA
ATOM     19  C   UNL A   1      30.172  25.742  25.714  1.00  0.00     0.278 C 
ENDBRANCH  10  18
BRANCH  12  20
ATOM     20  O   UNL A   1      31.930  22.738  26.780  1.00  0.00    -0.491 OA
ATOM     21  C   UNL A   1      30.740  22.394  26.084  1.00  0.00     0.278 C 
ENDBRANCH  12  20
BRANCH  15  22
ATOM     22  C   UNL A   1      33.945  20.757  25.948  1.00  0.00     0.158 C 
BRANCH  22  23
ATOM     23  C   UNL A   1      33.537  19.865  24.786  1.00  0.00    -0.028 A 
ATOM     24  C   UNL A   1      33.972  18.541  24.667  1.00  0.00     0.005 A 
ATOM     25  C   UNL A   1      32.608  20.325  23.836  1.00  0.00     0.005 A 
ATOM     26  C   UNL A   1      33.508  17.707  23.641  1.00  0.00     0.000 A 
ATOM     27  C   UNL A   1      32.131  19.488  22.818  1.00  0.00     0.000 A 
ATOM     28  C   UNL A   1      32.574  18.173  22.726  1.00  0.00     0.000 A 
ENDBRANCH  22  23
ENDBRANCH  15  22
ENDBRANCH   5   7
ENDBRANCH   4   5
ENDBRANCH   3   4
ENDBRANCH   2   3
ENDBRANCH   1   2
BRANCH   1  29
ATOM     29  C   UNL A   1      42.101  22.647  25.989  1.00  0.00     0.202 C 
BRANCH  29  30
ATOM     30  C   UNL A   1      41.814  23.880  26.877  1.00  0.00     0.261 C 
BRANCH  30  31
ATOM     31  O   UNL A   1      40.845  24.739  26.250  1.00  0.00    -0.460 OA
BRANCH  31  32
ATOM     32  C   UNL A   1      39.778  25.123  26.995  1.00  0.00     0.338 C 
ATOM     33  O   UNL A   1      38.782  24.469  27.245  1.00  0.00    -0.246 OA
BRANCH  32  34
ATOM     34  C   UNL A   1      40.250  26.287  27.784  1.00  0.00     0.060 A 
ATOM     35  C   UNL A   1      40.250  26.272  29.187  1.00  0.00     0.016 A 
ATOM     36  C   UNL A   1      40.307  27.496  27.079  1.00  0.00     0.016 A 
ATOM     37  C   UNL A   1      40.153  27.478  29.879  1.00  0.00     0.010 A 
ATOM     38  C   UNL A   1      40.204  28.693  27.772  1.00  0.00     0.010 A 
ATOM     39  C   UNL A   1      40.055  28.681  29.164  1.00  0.00    -0.014 A 
BRANCH  39  40
ATOM     40  C   UNL A   1      39.927  29.953  29.890  1.00  0.00     0.031 A 
ATOM     41  C   UNL A   1      41.207  30.723  29.986  1.00  0.00     0.074 A 
ATOM     42  C   UNL A   1      38.723  30.477  30.223  1.00  0.00     0.049 A 
ATOM     43  N   UNL A   1      41.727  31.330  31.003  1.00  0.00    -0.248 NA
ATOM     44  C   UNL A   1      42.067  30.740  28.784  1.00  0.00     0.031 C 
ATOM     45  C   UNL A   1      37.405  29.919  29.925  1.00  0.00     0.029 A 
ATOM     46  N   UNL A   1      38.391  31.669  30.804  1.00  0.00    -0.354 N 
ATOM     47  C   UNL A   1      42.879  31.959  30.522  1.00  0.00     0.074 A 
ATOM     48  C   UNL A   1      43.111  31.450  29.199  1.00  0.00     0.031 C 
ATOM     49  C   UNL A   1      36.437  30.829  30.135  1.00  0.00     0.029 A 
ATOM     50  C   UNL A   1      37.052  32.031  30.642  1.00  0.00     0.049 A 
ATOM     51  H   UNL A   1      39.040  32.224  31.294  1.00  0.00     0.167 HD
ATOM     52  C   UNL A   1      43.443  33.023  31.154  1.00  0.00     0.037 A 
ATOM     53  C   UNL A   1      36.486  33.253  30.809  1.00  0.00     0.037 A 
ATOM     54  C   UNL A   1      43.088  33.060  32.544  1.00  0.00     0.049 A 
ATOM     55  C   UNL A   1      37.438  34.079  31.582  1.00  0.00     0.074 A 
ATOM     56  C   UNL A   1      43.324  32.235  33.626  1.00  0.00     0.029 A 
ATOM     57  N   UNL A   1      42.088  33.910  32.936  1.00  0.00    -0.354 N 
ATOM     58  N   UNL A   1      37.727  33.859  32.833  1.00  0.00    -0.248 NA
ATOM     59  C   UNL A   1      38.439  34.814  30.822  1.00  0.00     0.031 C 
ATOM     60  C   UNL A   1      42.133  32.302  34.404  1.00  0.00     0.029 A 
ATOM     61  C   UNL A   1      41.272  33.207  33.784  1.00  0.00     0.049 A 
ATOM     62  H   UNL A   1      41.976  34.849  32.662  1.00  0.00     0.167 HD
ATOM     63  C   UNL A   1      39.100  34.040  32.912  1.00  0.00     0.074 A 
ATOM     64  C   UNL A   1      39.476  34.681  31.653  1.00  0.00     0.031 C 
ATOM     65  C   UNL A   1      39.845  33.396  33.857  1.00  0.00     0.037 A 
BRANCH  52  66
ATOM     66  C   UNL A   1      44.018  34.216  30.428  1.00  0.00     0.057 A 
ATOM     67  C   UNL A   1      45.400  34.464  30.289  1.00  0.00     0.134 A 
ATOM     68  C   UNL A   1      43.189  34.973  29.581  1.00  0.00     0.134 A 
ATOM     69  F   UNL A   1      46.326  33.779  30.970  1.00  0.00    -0.206 F 
ATOM     70  C   UNL A   1      45.919  35.368  29.359  1.00  0.00     0.040 A 
ATOM     71  C   UNL A   1      43.702  35.846  28.613  1.00  0.00     0.040 A 
ATOM     72  F   UNL A   1      41.855  34.827  29.612  1.00  0.00    -0.206 F 
ATOM     73  C   UNL A   1      45.072  36.037  28.492  1.00  0.00     0.006 A 
ENDBRANCH  52  66
BRANCH  53  74
ATOM     74  C   UNL A   1      35.349  33.822  30.043  1.00  0.00     0.057 A 
ATOM     75  C   UNL A   1      35.408  33.970  28.643  1.00  0.00     0.134 A 
ATOM     76  C   UNL A   1      34.263  34.439  30.676  1.00  0.00     0.134 A 
ATOM     77  F   UNL A   1      36.452  33.507  27.941  1.00  0.00    -0.206 F 
ATOM     78  C   UNL A   1      34.442  34.670  27.915  1.00  0.00     0.040 A 
ATOM     79  C   UNL A   1      33.291  35.155  29.958  1.00  0.00     0.040 A 
ATOM     80  F   UNL A   1      34.143  34.402  32.011  1.00  0.00    -0.206 F 
ATOM     81  C   UNL A   1      33.380  35.275  28.574  1.00  0.00     0.006 A 
ENDBRANCH  53  74
BRANCH  65  82
ATOM     82  C   UNL A   1      39.111  32.627  34.920  1.00  0.00     0.057 A 
ATOM     83  C   UNL A   1      38.855  33.245  36.147  1.00  0.00     0.134 A 
ATOM     84  C   UNL A   1      38.798  31.261  34.820  1.00  0.00     0.134 A 
ATOM     85  F   UNL A   1      39.190  34.531  36.337  1.00  0.00    -0.206 F 
ATOM     86  C   UNL A   1      38.304  32.546  37.223  1.00  0.00     0.040 A 
ATOM     87  C   UNL A   1      38.214  30.558  35.879  1.00  0.00     0.040 A 
ATOM     88  F   UNL A   1      39.105  30.559  33.722  1.00  0.00    -0.206 F 
ATOM     89  C   UNL A   1      37.970  31.200  37.088  1.00  0.00     0.006 A 
ENDBRANCH  65  82
ENDBRANCH  39  40
ENDBRANCH  32  34
ENDBRANCH  31  32
ENDBRANCH  30  31
ENDBRANCH  29  30
ENDBRANCH   1  29
TORSDOF 19
ENDMDL
MODEL 2
REMARK VINA RESULT:     -10.2      1.963      6.104
REMARK SMILES COc1cc2cc(C(=O)OCCOCCOC(=O)c3ccc(-c4c5nc(c(-c6c(F)cccc6F)c6ccc([nH]6)c(-c6c(F)cccc6F)c6nc(c(-c7c(F)cccc7F)c7ccc4[nH]7)C=C6)C=C5)cc3)n(Cc3ccccc3)c2c(OC)c1OC
REMARK SMILES IDX 13 1 12 2 11 3 10 4 8 5 9 6 7 7 3 8 4 9 85 10 5 11 82 12
REMARK SMILES IDX 6 13 81 14 73 15 2 16 1 17 86 18 87 19 83 20 84 21 74 22
REMARK SMILES IDX 75 23 76 24 80 25 77 26 79 27 78 28 14 29 15 30 16 31 17 32
REMARK SMILES IDX 18 33 19 34 20 35 72 36 21 37 71 38 22 39 23 40 24 41 65 42
REMARK SMILES IDX 25 43 70 44 64 45 66 46 26 47 69 48 63 49 62 50 27 52 53 53
REMARK SMILES IDX 36 54 52 55 37 56 40 57 51 58 67 59 38 60 39 61 50 63 68 64
REMARK SMILES IDX 41 65 28 66 29 67 34 68 30 69 31 70 33 71 35 72 32 73 54 74
REMARK SMILES IDX 55 75 60 76 56 77 57 78 59 79 61 80 58 81 42 82 43 83 48 84
REMARK SMILES IDX 44 85 45 86 47 87 49 88 46 89
REMARK H PARENT 66 51 40 62
REMARK Flexibility Score: inf
ROOT
ATOM      1  O   UNL A   1      41.425  21.157  26.515  1.00  0.00    -0.374 OA
ENDROOT
BRANCH   1   2
ATOM      2  C   UNL A   1      40.049  21.060  26.849  1.00  0.00     0.202 C 
BRANCH   2   3
ATOM      3  C   UNL A   1      39.030  21.033  25.709  1.00  0.00     0.261 C 
BRANCH   3   4
ATOM      4  O   UNL A   1      37.809  21.663  26.119  1.00  0.00    -0.459 OA
BRANCH   4   5
ATOM      5  C   UNL A   1      36.732  21.224  25.433  1.00  0.00     0.355 C 
ATOM      6  O   UNL A   1      36.620  20.095  24.956  1.00  0.00    -0.244 OA
BRANCH   5   7
ATOM      7  C   UNL A   1      35.657  22.186  25.432  1.00  0.00     0.129 A 
ATOM      8  C   UNL A   1      33.300  26.143  25.767  1.00  0.00     0.165 A 
ATOM      9  C   UNL A   1      34.489  25.626  25.259  1.00  0.00     0.061 A 
ATOM     10  C   UNL A   1      32.328  25.300  26.332  1.00  0.00     0.205 A 
ATOM     11  C   UNL A   1      34.738  24.252  25.354  1.00  0.00     0.008 A 
ATOM     12  C   UNL A   1      32.554  23.893  26.412  1.00  0.00     0.189 A 
ATOM     13  C   UNL A   1      35.863  23.487  25.019  1.00  0.00     0.044 A 
ATOM     14  C   UNL A   1      33.783  23.391  25.902  1.00  0.00     0.096 A 
ATOM     15  N   UNL A   1      34.317  22.094  25.807  1.00  0.00    -0.327 N 
BRANCH   8  16
ATOM     16  O   UNL A   1      33.075  27.486  25.592  1.00  0.00    -0.493 OA
ATOM     17  C   UNL A   1      32.831  27.813  24.221  1.00  0.00     0.278 C 
ENDBRANCH   8  16
BRANCH  10  18
ATOM     18  O   UNL A   1      31.095  25.753  26.745  1.00  0.00    -0.490 OA
ATOM     19  C   UNL A   1      30.092  25.947  25.756  1.00  0.00     0.278 C 
ENDBRANCH  10  18
BRANCH  12  20
ATOM     20  O   UNL A   1      31.684  22.969  26.927  1.00  0.00    -0.491 OA
ATOM     21  C   UNL A   1      30.561  22.583  26.147  1.00  0.00     0.278 C 
ENDBRANCH  12  20
BRANCH  15  22
ATOM     22  C   UNL A   1      33.610  20.864  26.196  1.00  0.00     0.158 C 
BRANCH  22  23
ATOM     23  C   UNL A   1      33.077  20.033  25.039  1.00  0.00    -0.028 A 
ATOM     24  C   UNL A   1      32.555  20.611  23.877  1.00  0.00     0.005 A 
ATOM     25  C   UNL A   1      33.194  18.632  25.065  1.00  0.00     0.005 A 
ATOM     26  C   UNL A   1      32.158  19.829  22.785  1.00  0.00     0.000 A 
ATOM     27  C   UNL A   1      32.811  17.849  23.966  1.00  0.00     0.000 A 
ATOM     28  C   UNL A   1      32.302  18.449  22.821  1.00  0.00     0.000 A 
ENDBRANCH  22  23
ENDBRANCH  15  22
ENDBRANCH   5   7
ENDBRANCH   4   5
ENDBRANCH   3   4
ENDBRANCH   2   3
ENDBRANCH   1   2
BRANCH   1  29
ATOM     29  C   UNL A   1      41.897  22.459  26.158  1.00  0.00     0.202 C 
BRANCH  29  30
ATOM     30  C   UNL A   1      41.764  23.569  27.225  1.00  0.00     0.261 C 
BRANCH  30  31
ATOM     31  O   UNL A   1      41.389  24.816  26.613  1.00  0.00    -0.460 OA
BRANCH  31  32
ATOM     32  C   UNL A   1      40.063  25.056  26.452  1.00  0.00     0.338 C 
ATOM     33  O   UNL A   1      39.203  24.253  26.140  1.00  0.00    -0.246 OA
BRANCH  32  34
ATOM     34  C   UNL A   1      39.812  26.346  27.140  1.00  0.00     0.060 A 
ATOM     35  C   UNL A   1      40.407  27.539  26.703  1.00  0.00     0.016 A 
ATOM     36  C   UNL A   1      39.298  26.234  28.438  1.00  0.00     0.016 A 
ATOM     37  C   UNL A   1      40.620  28.567  27.619  1.00  0.00     0.010 A 
ATOM     38  C   UNL A   1      39.517  27.257  29.347  1.00  0.00     0.010 A 
ATOM     39  C   UNL A   1      40.240  28.392  28.958  1.00  0.00    -0.014 A 
BRANCH  39  40
ATOM     40  C   UNL A   1      40.486  29.464  29.934  1.00  0.00     0.031 A 
ATOM     41  C   UNL A   1      39.379  30.467  30.018  1.00  0.00     0.074 A 
ATOM     42  C   UNL A   1      41.502  29.408  30.828  1.00  0.00     0.049 A 
ATOM     43  N   UNL A   1      39.440  31.758  30.063  1.00  0.00    -0.248 NA
ATOM     44  C   UNL A   1      37.998  29.942  29.957  1.00  0.00     0.031 C 
ATOM     45  C   UNL A   1      42.473  28.328  30.994  1.00  0.00     0.029 A 
ATOM     46  N   UNL A   1      41.838  30.239  31.859  1.00  0.00    -0.354 N 
ATOM     47  C   UNL A   1      38.122  32.195  30.225  1.00  0.00     0.074 A 
ATOM     48  C   UNL A   1      37.275  31.056  30.013  1.00  0.00     0.031 C 
ATOM     49  C   UNL A   1      43.147  28.458  32.151  1.00  0.00     0.029 A 
ATOM     50  C   UNL A   1      42.702  29.668  32.796  1.00  0.00     0.049 A 
ATOM     51  H   UNL A   1      41.500  31.161  31.935  1.00  0.00     0.167 HD
ATOM     52  C   UNL A   1      37.821  33.417  30.742  1.00  0.00     0.037 A 
ATOM     53  C   UNL A   1      42.970  30.090  34.058  1.00  0.00     0.037 A 
ATOM     54  C   UNL A   1      38.909  34.340  30.583  1.00  0.00     0.049 A 
ATOM     55  C   UNL A   1      42.504  31.489  34.165  1.00  0.00     0.074 A 
ATOM     56  C   UNL A   1      39.546  34.908  29.497  1.00  0.00     0.029 A 
ATOM     57  N   UNL A   1      39.729  34.569  31.657  1.00  0.00    -0.354 N 
ATOM     58  N   UNL A   1      43.066  32.482  33.538  1.00  0.00    -0.248 NA
ATOM     59  C   UNL A   1      41.116  31.692  34.555  1.00  0.00     0.031 C 
ATOM     60  C   UNL A   1      40.916  34.993  29.880  1.00  0.00     0.029 A 
ATOM     61  C   UNL A   1      41.019  34.532  31.193  1.00  0.00     0.049 A 
ATOM     62  H   UNL A   1      39.446  34.730  32.585  1.00  0.00     0.167 HD
ATOM     63  C   UNL A   1      42.006  33.249  33.077  1.00  0.00     0.074 A 
ATOM     64  C   UNL A   1      40.830  32.742  33.781  1.00  0.00     0.031 C 
ATOM     65  C   UNL A   1      42.128  34.024  31.960  1.00  0.00     0.037 A 
BRANCH  52  66
ATOM     66  C   UNL A   1      36.683  33.658  31.705  1.00  0.00     0.057 A 
ATOM     67  C   UNL A   1      35.403  34.107  31.315  1.00  0.00     0.134 A 
ATOM     68  C   UNL A   1      36.761  33.139  33.009  1.00  0.00     0.134 A 
ATOM     69  F   UNL A   1      35.144  34.564  30.084  1.00  0.00    -0.206 F 
ATOM     70  C   UNL A   1      34.282  34.017  32.145  1.00  0.00     0.040 A 
ATOM     71  C   UNL A   1      35.634  33.000  33.830  1.00  0.00     0.040 A 
ATOM     72  F   UNL A   1      37.921  32.675  33.498  1.00  0.00    -0.206 F 
ATOM     73  C   UNL A   1      34.387  33.428  33.394  1.00  0.00     0.006 A 
ENDBRANCH  52  66
BRANCH  53  74
ATOM     74  C   UNL A   1      43.275  29.240  35.236  1.00  0.00     0.057 A 
ATOM     75  C   UNL A   1      44.557  29.230  35.821  1.00  0.00     0.134 A 
ATOM     76  C   UNL A   1      42.392  28.252  35.688  1.00  0.00     0.134 A 
ATOM     77  F   UNL A   1      45.518  30.064  35.399  1.00  0.00    -0.206 F 
ATOM     78  C   UNL A   1      44.933  28.311  36.805  1.00  0.00     0.040 A 
ATOM     79  C   UNL A   1      42.759  27.315  36.668  1.00  0.00     0.040 A 
ATOM     80  F   UNL A   1      41.166  28.142  35.158  1.00  0.00    -0.206 F 
ATOM     81  C   UNL A   1      44.034  27.341  37.227  1.00  0.00     0.006 A 
ENDBRANCH  53  74
BRANCH  65  82
ATOM     82  C   UNL A   1      43.495  34.160  31.349  1.00  0.00     0.057 A 
ATOM     83  C   UNL A   1      44.252  35.300  31.634  1.00  0.00     0.134 A 
ATOM     84  C   UNL A   1      44.007  33.285  30.378  1.00  0.00     0.134 A 
ATOM     85  F   UNL A   1      43.794  36.215  32.504  1.00  0.00    -0.206 F 
ATOM     86  C   UNL A   1      45.467  35.556  30.995  1.00  0.00     0.040 A 
ATOM     87  C   UNL A   1      45.238  33.512  29.754  1.00  0.00     0.040 A 
ATOM     88  F   UNL A   1      43.304  32.225  29.962  1.00  0.00    -0.206 F 
ATOM     89  C   UNL A   1      45.970  34.655  30.059  1.00  0.00     0.006 A 
ENDBRANCH  65  82
ENDBRANCH  39  40
ENDBRANCH  32  34
ENDBRANCH  31  32
ENDBRANCH  30  31
ENDBRANCH  29  30
ENDBRANCH   1  29
TORSDOF 19
ENDMDL
MODEL 3
REMARK VINA RESULT:     -10.1      5.036      9.967
REMARK SMILES COc1cc2cc(C(=O)OCCOCCOC(=O)c3ccc(-c4c5nc(c(-c6c(F)cccc6F)c6ccc([nH]6)c(-c6c(F)cccc6F)c6nc(c(-c7c(F)cccc7F)c7ccc4[nH]7)C=C6)C=C5)cc3)n(Cc3ccccc3)c2c(OC)c1OC
REMARK SMILES IDX 13 1 12 2 11 3 10 4 8 5 9 6 7 7 3 8 4 9 85 10 5 11 82 12
REMARK SMILES IDX 6 13 81 14 73 15 2 16 1 17 86 18 87 19 83 20 84 21 74 22
REMARK SMILES IDX 75 23 76 24 80 25 77 26 79 27 78 28 14 29 15 30 16 31 17 32
REMARK SMILES IDX 18 33 19 34 20 35 72 36 21 37 71 38 22 39 23 40 24 41 65 42
REMARK SMILES IDX 25 43 70 44 64 45 66 46 26 47 69 48 63 49 62 50 27 52 53 53
REMARK SMILES IDX 36 54 52 55 37 56 40 57 51 58 67 59 38 60 39 61 50 63 68 64
REMARK SMILES IDX 41 65 28 66 29 67 34 68 30 69 31 70 33 71 35 72 32 73 54 74
REMARK SMILES IDX 55 75 60 76 56 77 57 78 59 79 61 80 58 81 42 82 43 83 48 84
REMARK SMILES IDX 44 85 45 86 47 87 49 88 46 89
REMARK H PARENT 66 51 40 62
REMARK Flexibility Score: inf
ROOT
ATOM      1  O   UNL A   1      35.665  31.501  28.912  1.00  0.00    -0.374 OA
ENDROOT
BRANCH   1   2
ATOM      2  C   UNL A   1      35.209  31.192  27.603  1.00  0.00     0.202 C 
BRANCH   2   3
ATOM      3  C   UNL A   1      34.428  29.893  27.400  1.00  0.00     0.261 C 
BRANCH   3   4
ATOM      4  O   UNL A   1      33.640  29.969  26.205  1.00  0.00    -0.459 OA
BRANCH   4   5
ATOM      5  C   UNL A   1      32.319  29.798  26.431  1.00  0.00     0.355 C 
ATOM      6  O   UNL A   1      31.566  30.670  26.862  1.00  0.00    -0.244 OA
BRANCH   5   7
ATOM      7  C   UNL A   1      31.852  28.510  25.981  1.00  0.00     0.129 A 
ATOM      8  C   UNL A   1      31.287  23.948  25.542  1.00  0.00     0.165 A 
ATOM      9  C   UNL A   1      31.424  24.938  26.512  1.00  0.00     0.061 A 
ATOM     10  C   UNL A   1      31.181  24.280  24.180  1.00  0.00     0.205 A 
ATOM     11  C   UNL A   1      31.504  26.279  26.120  1.00  0.00     0.008 A 
ATOM     12  C   UNL A   1      31.233  25.645  23.766  1.00  0.00     0.189 A 
ATOM     13  C   UNL A   1      31.731  27.449  26.856  1.00  0.00     0.044 A 
ATOM     14  C   UNL A   1      31.391  26.635  24.773  1.00  0.00     0.096 A 
ATOM     15  N   UNL A   1      31.465  28.039  24.728  1.00  0.00    -0.327 N 
BRANCH   8  16
ATOM     16  O   UNL A   1      31.148  22.654  25.981  1.00  0.00    -0.493 OA
ATOM     17  C   UNL A   1      32.410  22.055  26.288  1.00  0.00     0.278 C 
ENDBRANCH   8  16
BRANCH  10  18
ATOM     18  O   UNL A   1      30.934  23.345  23.201  1.00  0.00    -0.490 OA
ATOM     19  C   UNL A   1      32.028  22.565  22.735  1.00  0.00     0.278 C 
ENDBRANCH  10  18
BRANCH  12  20
ATOM     20  O   UNL A   1      31.131  26.095  22.476  1.00  0.00    -0.491 OA
ATOM     21  C   UNL A   1      32.271  26.009  21.633  1.00  0.00     0.278 C 
ENDBRANCH  12  20
BRANCH  15  22
ATOM     22  C   UNL A   1      31.311  28.848  23.508  1.00  0.00     0.158 C 
BRANCH  22  23
ATOM     23  C   UNL A   1      29.963  29.536  23.356  1.00  0.00    -0.028 A 
ATOM     24  C   UNL A   1      28.851  28.893  22.800  1.00  0.00     0.005 A 
ATOM     25  C   UNL A   1      29.767  30.826  23.877  1.00  0.00     0.005 A 
ATOM     26  C   UNL A   1      27.595  29.511  22.756  1.00  0.00     0.000 A 
ATOM     27  C   UNL A   1      28.506  31.440  23.847  1.00  0.00     0.000 A 
ATOM     28  C   UNL A   1      27.416  30.777  23.295  1.00  0.00     0.000 A 
ENDBRANCH  22  23
ENDBRANCH  15  22
ENDBRANCH   5   7
ENDBRANCH   4   5
ENDBRANCH   3   4
ENDBRANCH   2   3
ENDBRANCH   1   2
BRANCH   1  29
ATOM     29  C   UNL A   1      36.120  32.840  29.120  1.00  0.00     0.202 C 
BRANCH  29  30
ATOM     30  C   UNL A   1      36.372  33.275  30.582  1.00  0.00     0.261 C 
BRANCH  30  31
ATOM     31  O   UNL A   1      37.637  32.773  31.048  1.00  0.00    -0.460 OA
BRANCH  31  32
ATOM     32  C   UNL A   1      38.694  32.867  30.202  1.00  0.00     0.338 C 
ATOM     33  O   UNL A   1      38.994  33.818  29.503  1.00  0.00    -0.246 OA
BRANCH  32  34
ATOM     34  C   UNL A   1      39.626  31.791  30.619  1.00  0.00     0.060 A 
ATOM     35  C   UNL A   1      41.018  31.963  30.562  1.00  0.00     0.016 A 
ATOM     36  C   UNL A   1      39.063  30.511  30.681  1.00  0.00     0.016 A 
ATOM     37  C   UNL A   1      41.835  30.843  30.414  1.00  0.00     0.010 A 
ATOM     38  C   UNL A   1      39.879  29.400  30.528  1.00  0.00     0.010 A 
ATOM     39  C   UNL A   1      41.254  29.569  30.322  1.00  0.00    -0.014 A 
BRANCH  39  40
ATOM     40  C   UNL A   1      42.110  28.388  30.140  1.00  0.00     0.031 A 
ATOM     41  C   UNL A   1      42.868  27.999  31.370  1.00  0.00     0.074 A 
ATOM     42  C   UNL A   1      42.030  27.600  29.041  1.00  0.00     0.049 A 
ATOM     43  N   UNL A   1      44.110  27.656  31.498  1.00  0.00    -0.248 NA
ATOM     44  C   UNL A   1      42.145  28.090  32.656  1.00  0.00     0.031 C 
ATOM     45  C   UNL A   1      41.120  27.756  27.908  1.00  0.00     0.029 A 
ATOM     46  N   UNL A   1      42.658  26.427  28.729  1.00  0.00    -0.354 N 
ATOM     47  C   UNL A   1      44.272  27.310  32.843  1.00  0.00     0.074 A 
ATOM     48  C   UNL A   1      43.081  27.727  33.528  1.00  0.00     0.031 C 
ATOM     49  C   UNL A   1      41.103  26.648  27.146  1.00  0.00     0.029 A 
ATOM     50  C   UNL A   1      42.049  25.709  27.698  1.00  0.00     0.049 A 
ATOM     51  H   UNL A   1      43.470  26.116  29.191  1.00  0.00     0.167 HD
ATOM     52  C   UNL A   1      45.280  26.503  33.268  1.00  0.00     0.037 A 
ATOM     53  C   UNL A   1      42.220  24.404  27.369  1.00  0.00     0.037 A 
ATOM     54  C   UNL A   1      46.385  26.512  32.352  1.00  0.00     0.049 A 
ATOM     55  C   UNL A   1      43.461  23.941  28.025  1.00  0.00     0.074 A 
ATOM     56  C   UNL A   1      47.278  27.474  31.921  1.00  0.00     0.029 A 
ATOM     57  N   UNL A   1      46.507  25.471  31.470  1.00  0.00    -0.354 N 
ATOM     58  N   UNL A   1      44.649  24.353  27.684  1.00  0.00    -0.248 NA
ATOM     59  C   UNL A   1      43.337  23.425  29.380  1.00  0.00     0.031 C 
ATOM     60  C   UNL A   1      47.507  27.172  30.548  1.00  0.00     0.029 A 
ATOM     61  C   UNL A   1      46.791  26.014  30.243  1.00  0.00     0.049 A 
ATOM     62  H   UNL A   1      46.409  24.514  31.677  1.00  0.00     0.167 HD
ATOM     63  C   UNL A   1      45.309  24.552  28.888  1.00  0.00     0.074 A 
ATOM     64  C   UNL A   1      44.468  23.910  29.897  1.00  0.00     0.031 C 
ATOM     65  C   UNL A   1      46.321  25.461  28.998  1.00  0.00     0.037 A 
BRANCH  52  66
ATOM     66  C   UNL A   1      45.108  25.439  34.324  1.00  0.00     0.057 A 
ATOM     67  C   UNL A   1      45.513  25.588  35.668  1.00  0.00     0.134 A 
ATOM     68  C   UNL A   1      44.241  24.359  34.081  1.00  0.00     0.134 A 
ATOM     69  F   UNL A   1      46.281  26.604  36.079  1.00  0.00    -0.206 F 
ATOM     70  C   UNL A   1      45.066  24.751  36.694  1.00  0.00     0.040 A 
ATOM     71  C   UNL A   1      43.749  23.545  35.110  1.00  0.00     0.040 A 
ATOM     72  F   UNL A   1      43.778  24.111  32.846  1.00  0.00    -0.206 F 
ATOM     73  C   UNL A   1      44.152  23.747  36.423  1.00  0.00     0.006 A 
ENDBRANCH  52  66
BRANCH  53  74
ATOM     74  C   UNL A   1      41.195  23.479  26.821  1.00  0.00     0.057 A 
ATOM     75  C   UNL A   1      39.840  23.585  27.190  1.00  0.00     0.134 A 
ATOM     76  C   UNL A   1      41.542  22.333  26.096  1.00  0.00     0.134 A 
ATOM     77  F   UNL A   1      39.410  24.589  27.969  1.00  0.00    -0.206 F 
ATOM     78  C   UNL A   1      38.884  22.624  26.846  1.00  0.00     0.040 A 
ATOM     79  C   UNL A   1      40.595  21.354  25.753  1.00  0.00     0.040 A 
ATOM     80  F   UNL A   1      42.815  22.111  25.742  1.00  0.00    -0.206 F 
ATOM     81  C   UNL A   1      39.262  21.496  26.131  1.00  0.00     0.006 A 
ENDBRANCH  53  74
BRANCH  65  82
ATOM     82  C   UNL A   1      46.817  26.111  27.736  1.00  0.00     0.057 A 
ATOM     83  C   UNL A   1      47.974  25.614  27.130  1.00  0.00     0.134 A 
ATOM     84  C   UNL A   1      46.279  27.295  27.204  1.00  0.00     0.134 A 
ATOM     85  F   UNL A   1      48.581  24.524  27.625  1.00  0.00    -0.206 F 
ATOM     86  C   UNL A   1      48.566  26.254  26.038  1.00  0.00     0.040 A 
ATOM     87  C   UNL A   1      46.843  27.926  26.091  1.00  0.00     0.040 A 
ATOM     88  F   UNL A   1      45.237  27.903  27.783  1.00  0.00    -0.206 F 
ATOM     89  C   UNL A   1      47.994  27.408  25.507  1.00  0.00     0.006 A 
ENDBRANCH  65  82
ENDBRANCH  39  40
ENDBRANCH  32  34
ENDBRANCH  31  32
ENDBRANCH  30  31
ENDBRANCH  29  30
ENDBRANCH   1  29
TORSDOF 19
ENDMDL
