MODEL 1
REMARK VINA RESULT:      -9.0      0.000      0.000
REMARK SMILES O=C(OCCOCCOC(=O)c1cc(Br)cn(Cc2cccc(F)c2)c1=O)c1ccc(-c2c3nc(c(-c4c(F)cccc4F)c4ccc([nH]4)c(-c4c(F)cccc4F)c4nc(c(-c5c(F)cccc5F)c5ccc2[nH]5)C=C4)C=C3)cc1
REMARK SMILES IDX 6 1 5 2 4 3 3 4 2 5 1 6 28 7 29 8 81 9 30 10 80 11 31 12
REMARK SMILES IDX 32 13 33 14 74 15 34 16 79 17 73 18 75 19 35 20 78 21 72 22
REMARK SMILES IDX 71 23 36 25 62 26 45 27 61 28 46 29 49 30 60 31 76 32 47 33
REMARK SMILES IDX 48 34 59 36 77 37 50 38 37 39 38 40 43 41 39 42 40 43 42 44
REMARK SMILES IDX 44 45 41 46 63 47 64 48 69 49 65 50 66 51 68 52 70 53 67 54
REMARK SMILES IDX 51 55 52 56 57 57 53 58 54 59 56 60 58 61 55 62 7 63 8 64
REMARK SMILES IDX 9 65 10 66 11 67 12 68 13 69 26 70 14 71 17 72 27 73 15 74
REMARK SMILES IDX 16 75 18 76 19 77 20 78 25 79 21 80 23 81 22 82 24 83
REMARK H PARENT 75 24 49 35
REMARK Flexibility Score: inf
ROOT
ATOM      1  O   UNL A   1      42.526  19.725  26.601  1.00  0.00    -0.374 OA
ENDROOT
BRANCH   1   2
ATOM      2  C   UNL A   1      41.118  19.960  26.602  1.00  0.00     0.202 C 
BRANCH   2   3
ATOM      3  C   UNL A   1      40.709  21.300  27.211  1.00  0.00     0.261 C 
BRANCH   3   4
ATOM      4  O   UNL A   1      40.137  22.168  26.225  1.00  0.00    -0.460 OA
BRANCH   4   5
ATOM      5  C   UNL A   1      39.243  23.169  26.367  1.00  0.00     0.338 C 
ATOM      6  O   UNL A   1      38.152  23.029  25.809  1.00  0.00    -0.246 OA
BRANCH   5   7
ATOM      7  C   UNL A   1      39.471  24.455  27.114  1.00  0.00     0.060 A 
ATOM      8  C   UNL A   1      40.350  25.372  26.501  1.00  0.00     0.016 A 
ATOM      9  C   UNL A   1      38.971  24.796  28.373  1.00  0.00     0.016 A 
ATOM     10  C   UNL A   1      40.749  26.549  27.143  1.00  0.00     0.010 A 
ATOM     11  C   UNL A   1      39.373  25.958  29.028  1.00  0.00     0.010 A 
ATOM     12  C   UNL A   1      40.273  26.832  28.422  1.00  0.00    -0.014 A 
BRANCH  12  13
ATOM     13  C   UNL A   1      40.625  28.069  29.136  1.00  0.00     0.031 A 
ATOM     14  C   UNL A   1      41.880  28.143  29.950  1.00  0.00     0.074 A 
ATOM     15  C   UNL A   1      39.709  29.052  29.154  1.00  0.00     0.049 A 
ATOM     16  N   UNL A   1      42.320  29.125  30.693  1.00  0.00    -0.248 NA
ATOM     17  C   UNL A   1      42.747  26.952  29.949  1.00  0.00     0.031 C 
ATOM     18  C   UNL A   1      38.422  29.010  28.456  1.00  0.00     0.029 A 
ATOM     19  N   UNL A   1      39.693  30.247  29.817  1.00  0.00    -0.354 N 
ATOM     20  C   UNL A   1      43.519  28.681  31.236  1.00  0.00     0.074 A 
ATOM     21  C   UNL A   1      43.721  27.326  30.770  1.00  0.00     0.031 C 
ATOM     22  C   UNL A   1      37.725  30.117  28.756  1.00  0.00     0.029 A 
ATOM     23  C   UNL A   1      38.516  30.936  29.668  1.00  0.00     0.049 A 
ATOM     24  H   UNL A   1      40.452  30.581  30.349  1.00  0.00     0.167 HD
ATOM     25  C   UNL A   1      44.369  29.359  32.042  1.00  0.00     0.037 A 
ATOM     26  C   UNL A   1      38.122  32.096  30.220  1.00  0.00     0.037 A 
ATOM     27  C   UNL A   1      44.122  30.700  32.507  1.00  0.00     0.049 A 
ATOM     28  C   UNL A   1      39.086  32.824  31.111  1.00  0.00     0.074 A 
ATOM     29  C   UNL A   1      44.946  31.525  33.251  1.00  0.00     0.029 A 
ATOM     30  N   UNL A   1      42.946  31.404  32.286  1.00  0.00    -0.354 N 
ATOM     31  N   UNL A   1      40.283  32.460  31.501  1.00  0.00    -0.248 NA
ATOM     32  C   UNL A   1      38.656  34.132  31.620  1.00  0.00     0.031 C 
ATOM     33  C   UNL A   1      44.248  32.705  33.525  1.00  0.00     0.029 A 
ATOM     34  C   UNL A   1      43.010  32.639  32.906  1.00  0.00     0.049 A 
ATOM     35  H   UNL A   1      42.178  31.072  31.766  1.00  0.00     0.167 HD
ATOM     36  C   UNL A   1      40.770  33.511  32.264  1.00  0.00     0.074 A 
ATOM     37  C   UNL A   1      39.736  34.526  32.280  1.00  0.00     0.031 C 
ATOM     38  C   UNL A   1      41.967  33.632  32.889  1.00  0.00     0.037 A 
BRANCH  25  39
ATOM     39  C   UNL A   1      45.641  28.684  32.468  1.00  0.00     0.057 A 
ATOM     40  C   UNL A   1      46.813  28.812  31.710  1.00  0.00     0.134 A 
ATOM     41  C   UNL A   1      45.684  27.831  33.578  1.00  0.00     0.134 A 
ATOM     42  F   UNL A   1      46.841  29.605  30.628  1.00  0.00    -0.206 F 
ATOM     43  C   UNL A   1      47.975  28.108  32.033  1.00  0.00     0.040 A 
ATOM     44  C   UNL A   1      46.846  27.137  33.925  1.00  0.00     0.040 A 
ATOM     45  F   UNL A   1      44.600  27.663  34.350  1.00  0.00    -0.206 F 
ATOM     46  C   UNL A   1      47.994  27.268  33.145  1.00  0.00     0.006 A 
ENDBRANCH  25  39
BRANCH  26  47
ATOM     47  C   UNL A   1      36.781  32.649  29.914  1.00  0.00     0.057 A 
ATOM     48  C   UNL A   1      35.666  32.344  30.703  1.00  0.00     0.134 A 
ATOM     49  C   UNL A   1      36.585  33.496  28.818  1.00  0.00     0.134 A 
ATOM     50  F   UNL A   1      35.784  31.522  31.757  1.00  0.00    -0.206 F 
ATOM     51  C   UNL A   1      34.404  32.868  30.417  1.00  0.00     0.040 A 
ATOM     52  C   UNL A   1      35.334  34.047  28.535  1.00  0.00     0.040 A 
ATOM     53  F   UNL A   1      37.617  33.827  28.029  1.00  0.00    -0.206 F 
ATOM     54  C   UNL A   1      34.238  33.731  29.336  1.00  0.00     0.006 A 
ENDBRANCH  26  47
BRANCH  38  55
ATOM     55  C   UNL A   1      42.233  34.927  33.594  1.00  0.00     0.057 A 
ATOM     56  C   UNL A   1      41.737  35.142  34.886  1.00  0.00     0.134 A 
ATOM     57  C   UNL A   1      42.943  35.968  32.987  1.00  0.00     0.134 A 
ATOM     58  F   UNL A   1      41.041  34.184  35.517  1.00  0.00    -0.206 F 
ATOM     59  C   UNL A   1      41.932  36.353  35.547  1.00  0.00     0.040 A 
ATOM     60  C   UNL A   1      43.169  37.174  33.649  1.00  0.00     0.040 A 
ATOM     61  F   UNL A   1      43.457  35.814  31.758  1.00  0.00    -0.206 F 
ATOM     62  C   UNL A   1      42.656  37.371  34.930  1.00  0.00     0.006 A 
ENDBRANCH  38  55
ENDBRANCH  12  13
ENDBRANCH   5   7
ENDBRANCH   4   5
ENDBRANCH   3   4
ENDBRANCH   2   3
ENDBRANCH   1   2
BRANCH   1  63
ATOM     63  C   UNL A   1      43.064  19.200  25.382  1.00  0.00     0.202 C 
BRANCH  63  64
ATOM     64  C   UNL A   1      44.195  20.095  24.873  1.00  0.00     0.261 C 
BRANCH  64  65
ATOM     65  O   UNL A   1      44.301  21.238  25.732  1.00  0.00    -0.459 OA
BRANCH  65  66
ATOM     66  C   UNL A   1      43.855  22.417  25.231  1.00  0.00     0.343 C 
ATOM     67  O   UNL A   1      43.085  22.577  24.297  1.00  0.00    -0.246 OA
BRANCH  66  68
ATOM     68  C   UNL A   1      44.227  23.466  26.193  1.00  0.00     0.126 A 
ATOM     69  C   UNL A   1      43.907  23.254  27.481  1.00  0.00     0.038 A 
ATOM     70  C   UNL A   1      45.056  24.639  25.806  1.00  0.00     0.265 A 
ATOM     71  C   UNL A   1      44.488  24.057  28.528  1.00  0.00     0.035 A 
ATOM     72  N   UNL A   1      45.521  25.418  26.871  1.00  0.00    -0.309 N 
ATOM     73  O   UNL A   1      45.255  24.910  24.626  1.00  0.00    -0.268 OA
ATOM     74  Br  UNL A   1      44.153  23.581  30.296  1.00  0.00    -0.049 Br
ATOM     75  C   UNL A   1      45.277  25.087  28.197  1.00  0.00     0.105 A 
BRANCH  72  76
ATOM     76  C   UNL A   1      46.104  26.722  26.560  1.00  0.00     0.161 C 
BRANCH  76  77
ATOM     77  C   UNL A   1      45.098  27.800  26.910  1.00  0.00    -0.025 A 
ATOM     78  C   UNL A   1      43.901  27.920  26.184  1.00  0.00     0.006 A 
ATOM     79  C   UNL A   1      45.426  28.791  27.847  1.00  0.00     0.044 A 
ATOM     80  C   UNL A   1      43.063  29.020  26.372  1.00  0.00     0.003 A 
ATOM     81  C   UNL A   1      44.578  29.877  28.032  1.00  0.00     0.123 A 
ATOM     82  C   UNL A   1      43.405  30.005  27.297  1.00  0.00     0.039 A 
ATOM     83  F   UNL A   1      44.911  30.832  28.910  1.00  0.00    -0.207 F 
ENDBRANCH  76  77
ENDBRANCH  72  76
ENDBRANCH  66  68
ENDBRANCH  65  66
ENDBRANCH  64  65
ENDBRANCH  63  64
ENDBRANCH   1  63
TORSDOF 16
ENDMDL
MODEL 2
REMARK VINA RESULT:      -8.9      4.478      7.078
REMARK SMILES O=C(OCCOCCOC(=O)c1cc(Br)cn(Cc2cccc(F)c2)c1=O)c1ccc(-c2c3nc(c(-c4c(F)cccc4F)c4ccc([nH]4)c(-c4c(F)cccc4F)c4nc(c(-c5c(F)cccc5F)c5ccc2[nH]5)C=C4)C=C3)cc1
REMARK SMILES IDX 6 1 5 2 4 3 3 4 2 5 1 6 28 7 29 8 81 9 30 10 80 11 31 12
REMARK SMILES IDX 32 13 33 14 74 15 34 16 79 17 73 18 75 19 35 20 78 21 72 22
REMARK SMILES IDX 71 23 36 25 62 26 45 27 61 28 46 29 49 30 60 31 76 32 47 33
REMARK SMILES IDX 48 34 59 36 77 37 50 38 37 39 38 40 43 41 39 42 40 43 42 44
REMARK SMILES IDX 44 45 41 46 63 47 64 48 69 49 65 50 66 51 68 52 70 53 67 54
REMARK SMILES IDX 51 55 52 56 57 57 53 58 54 59 56 60 58 61 55 62 7 63 8 64
REMARK SMILES IDX 9 65 10 66 11 67 12 68 13 69 26 70 14 71 17 72 27 73 15 74
REMARK SMILES IDX 16 75 18 76 19 77 20 78 25 79 21 80 23 81 22 82 24 83
REMARK H PARENT 75 24 49 35
REMARK Flexibility Score: inf
ROOT
ATOM      1  O   UNL A   1      40.271  21.333  26.835  1.00  0.00    -0.374 OA
ENDROOT
BRANCH   1   2
ATOM      2  C   UNL A   1      41.289  20.648  26.107  1.00  0.00     0.202 C 
BRANCH   2   3
ATOM      3  C   UNL A   1      42.639  21.364  26.097  1.00  0.00     0.261 C 
BRANCH   3   4
ATOM      4  O   UNL A   1      42.627  22.485  25.205  1.00  0.00    -0.460 OA
BRANCH   4   5
ATOM      5  C   UNL A   1      43.100  23.737  25.381  1.00  0.00     0.338 C 
ATOM      6  O   UNL A   1      44.004  24.105  24.627  1.00  0.00    -0.246 OA
BRANCH   5   7
ATOM      7  C   UNL A   1      42.648  24.710  26.435  1.00  0.00     0.060 A 
ATOM      8  C   UNL A   1      43.352  25.932  26.484  1.00  0.00     0.016 A 
ATOM      9  C   UNL A   1      41.668  24.501  27.409  1.00  0.00     0.016 A 
ATOM     10  C   UNL A   1      43.120  26.873  27.492  1.00  0.00     0.010 A 
ATOM     11  C   UNL A   1      41.440  25.425  28.427  1.00  0.00     0.010 A 
ATOM     12  C   UNL A   1      42.174  26.607  28.480  1.00  0.00    -0.014 A 
BRANCH  12  13
ATOM     13  C   UNL A   1      41.858  27.571  29.546  1.00  0.00     0.031 A 
ATOM     14  C   UNL A   1      42.538  27.478  30.877  1.00  0.00     0.074 A 
ATOM     15  C   UNL A   1      40.839  28.419  29.328  1.00  0.00     0.049 A 
ATOM     16  N   UNL A   1      42.343  28.198  31.950  1.00  0.00    -0.248 NA
ATOM     17  C   UNL A   1      43.556  26.425  31.034  1.00  0.00     0.031 C 
ATOM     18  C   UNL A   1      40.070  28.502  28.083  1.00  0.00     0.029 A 
ATOM     19  N   UNL A   1      40.241  29.330  30.154  1.00  0.00    -0.354 N 
ATOM     20  C   UNL A   1      43.221  27.700  32.905  1.00  0.00     0.074 A 
ATOM     21  C   UNL A   1      43.922  26.589  32.299  1.00  0.00     0.031 C 
ATOM     22  C   UNL A   1      39.078  29.392  28.240  1.00  0.00     0.029 A 
ATOM     23  C   UNL A   1      39.143  29.933  29.593  1.00  0.00     0.049 A 
ATOM     24  H   UNL A   1      40.566  29.533  31.060  1.00  0.00     0.167 HD
ATOM     25  C   UNL A   1      43.417  28.147  34.168  1.00  0.00     0.037 A 
ATOM     26  C   UNL A   1      38.282  30.816  30.126  1.00  0.00     0.037 A 
ATOM     27  C   UNL A   1      42.680  29.241  34.746  1.00  0.00     0.049 A 
ATOM     28  C   UNL A   1      38.525  31.292  31.529  1.00  0.00     0.074 A 
ATOM     29  C   UNL A   1      42.850  29.843  35.980  1.00  0.00     0.029 A 
ATOM     30  N   UNL A   1      41.613  29.882  34.131  1.00  0.00    -0.354 N 
ATOM     31  N   UNL A   1      39.454  30.918  32.375  1.00  0.00    -0.248 NA
ATOM     32  C   UNL A   1      37.620  32.325  32.042  1.00  0.00     0.031 C 
ATOM     33  C   UNL A   1      41.852  30.812  36.132  1.00  0.00     0.029 A 
ATOM     34  C   UNL A   1      41.095  30.851  34.972  1.00  0.00     0.049 A 
ATOM     35  H   UNL A   1      41.274  29.675  33.230  1.00  0.00     0.167 HD
ATOM     36  C   UNL A   1      39.273  31.701  33.506  1.00  0.00     0.074 A 
ATOM     37  C   UNL A   1      38.146  32.570  33.234  1.00  0.00     0.031 C 
ATOM     38  C   UNL A   1      39.980  31.708  34.663  1.00  0.00     0.037 A 
BRANCH  25  39
ATOM     39  C   UNL A   1      44.465  27.474  35.008  1.00  0.00     0.057 A 
ATOM     40  C   UNL A   1      45.801  27.895  34.965  1.00  0.00     0.134 A 
ATOM     41  C   UNL A   1      44.169  26.350  35.790  1.00  0.00     0.134 A 
ATOM     42  F   UNL A   1      46.157  28.958  34.230  1.00  0.00    -0.206 F 
ATOM     43  C   UNL A   1      46.805  27.216  35.659  1.00  0.00     0.040 A 
ATOM     44  C   UNL A   1      45.161  25.674  36.505  1.00  0.00     0.040 A 
ATOM     45  F   UNL A   1      42.911  25.894  35.878  1.00  0.00    -0.206 F 
ATOM     46  C   UNL A   1      46.486  26.102  36.433  1.00  0.00     0.006 A 
ENDBRANCH  25  39
BRANCH  26  47
ATOM     47  C   UNL A   1      37.148  31.329  29.320  1.00  0.00     0.057 A 
ATOM     48  C   UNL A   1      35.998  30.562  29.104  1.00  0.00     0.134 A 
ATOM     49  C   UNL A   1      37.193  32.603  28.744  1.00  0.00     0.134 A 
ATOM     50  F   UNL A   1      35.901  29.324  29.612  1.00  0.00    -0.206 F 
ATOM     51  C   UNL A   1      34.928  31.047  28.348  1.00  0.00     0.040 A 
ATOM     52  C   UNL A   1      36.121  33.111  28.007  1.00  0.00     0.040 A 
ATOM     53  F   UNL A   1      38.267  33.386  28.922  1.00  0.00    -0.206 F 
ATOM     54  C   UNL A   1      34.985  32.330  27.806  1.00  0.00     0.006 A 
ENDBRANCH  26  47
BRANCH  38  55
ATOM     55  C   UNL A   1      39.581  32.723  35.691  1.00  0.00     0.057 A 
ATOM     56  C   UNL A   1      40.187  33.985  35.710  1.00  0.00     0.134 A 
ATOM     57  C   UNL A   1      38.631  32.440  36.679  1.00  0.00     0.134 A 
ATOM     58  F   UNL A   1      41.111  34.311  34.794  1.00  0.00    -0.206 F 
ATOM     59  C   UNL A   1      39.866  34.931  36.682  1.00  0.00     0.040 A 
ATOM     60  C   UNL A   1      38.280  33.389  37.640  1.00  0.00     0.040 A 
ATOM     61  F   UNL A   1      38.004  31.255  36.701  1.00  0.00    -0.206 F 
ATOM     62  C   UNL A   1      38.905  34.635  37.647  1.00  0.00     0.006 A 
ENDBRANCH  38  55
ENDBRANCH  12  13
ENDBRANCH   5   7
ENDBRANCH   4   5
ENDBRANCH   3   4
ENDBRANCH   2   3
ENDBRANCH   1   2
BRANCH   1  63
ATOM     63  C   UNL A   1      39.441  22.208  26.064  1.00  0.00     0.202 C 
BRANCH  63  64
ATOM     64  C   UNL A   1      38.271  21.430  25.458  1.00  0.00     0.261 C 
BRANCH  64  65
ATOM     65  O   UNL A   1      37.424  22.347  24.752  1.00  0.00    -0.459 OA
BRANCH  65  66
ATOM     66  C   UNL A   1      36.721  23.227  25.508  1.00  0.00     0.343 C 
ATOM     67  O   UNL A   1      37.170  24.105  26.229  1.00  0.00    -0.246 OA
BRANCH  66  68
ATOM     68  C   UNL A   1      35.315  23.136  25.084  1.00  0.00     0.126 A 
ATOM     69  C   UNL A   1      34.873  24.077  24.232  1.00  0.00     0.038 A 
ATOM     70  C   UNL A   1      34.451  21.981  25.444  1.00  0.00     0.265 A 
ATOM     71  C   UNL A   1      33.627  23.907  23.526  1.00  0.00     0.035 A 
ATOM     72  N   UNL A   1      33.223  21.923  24.776  1.00  0.00    -0.309 N 
ATOM     73  O   UNL A   1      34.795  21.181  26.309  1.00  0.00    -0.268 OA
ATOM     74  Br  UNL A   1      33.176  25.152  22.218  1.00  0.00    -0.049 Br
ATOM     75  C   UNL A   1      32.861  22.845  23.803  1.00  0.00     0.105 A 
BRANCH  72  76
ATOM     76  C   UNL A   1      32.220  20.981  25.271  1.00  0.00     0.161 C 
BRANCH  76  77
ATOM     77  C   UNL A   1      32.388  19.664  24.541  1.00  0.00    -0.025 A 
ATOM     78  C   UNL A   1      32.903  18.540  25.210  1.00  0.00     0.006 A 
ATOM     79  C   UNL A   1      32.193  19.598  23.154  1.00  0.00     0.044 A 
ATOM     80  C   UNL A   1      33.239  17.385  24.503  1.00  0.00     0.003 A 
ATOM     81  C   UNL A   1      32.524  18.438  22.463  1.00  0.00     0.123 A 
ATOM     82  C   UNL A   1      33.053  17.335  23.123  1.00  0.00     0.039 A 
ATOM     83  F   UNL A   1      32.358  18.392  21.134  1.00  0.00    -0.207 F 
ENDBRANCH  76  77
ENDBRANCH  72  76
ENDBRANCH  66  68
ENDBRANCH  65  66
ENDBRANCH  64  65
ENDBRANCH  63  64
ENDBRANCH   1  63
TORSDOF 16
ENDMDL
MODEL 3
REMARK VINA RESULT:      -8.8      4.681      9.944
REMARK SMILES O=C(OCCOCCOC(=O)c1cc(Br)cn(Cc2cccc(F)c2)c1=O)c1ccc(-c2c3nc(c(-c4c(F)cccc4F)c4ccc([nH]4)c(-c4c(F)cccc4F)c4nc(c(-c5c(F)cccc5F)c5ccc2[nH]5)C=C4)C=C3)cc1
REMARK SMILES IDX 6 1 5 2 4 3 3 4 2 5 1 6 28 7 29 8 81 9 30 10 80 11 31 12
REMARK SMILES IDX 32 13 33 14 74 15 34 16 79 17 73 18 75 19 35 20 78 21 72 22
REMARK SMILES IDX 71 23 36 25 62 26 45 27 61 28 46 29 49 30 60 31 76 32 47 33
REMARK SMILES IDX 48 34 59 36 77 37 50 38 37 39 38 40 43 41 39 42 40 43 42 44
REMARK SMILES IDX 44 45 41 46 63 47 64 48 69 49 65 50 66 51 68 52 70 53 67 54
REMARK SMILES IDX 51 55 52 56 57 57 53 58 54 59 56 60 58 61 55 62 7 63 8 64
REMARK SMILES IDX 9 65 10 66 11 67 12 68 13 69 26 70 14 71 17 72 27 73 15 74
REMARK SMILES IDX 16 75 18 76 19 77 20 78 25 79 21 80 23 81 22 82 24 83
REMARK H PARENT 75 24 49 35
REMARK Flexibility Score: inf
ROOT
ATOM      1  O   UNL A   1      38.035  21.616  25.676  1.00  0.00    -0.374 OA
ENDROOT
BRANCH   1   2
ATOM      2  C   UNL A   1      38.201  20.411  24.930  1.00  0.00     0.202 C 
BRANCH   2   3
ATOM      3  C   UNL A   1      38.698  19.227  25.759  1.00  0.00     0.261 C 
BRANCH   3   4
ATOM      4  O   UNL A   1      40.044  18.878  25.413  1.00  0.00    -0.460 OA
BRANCH   4   5
ATOM      5  C   UNL A   1      41.207  19.214  26.011  1.00  0.00     0.338 C 
ATOM      6  O   UNL A   1      42.051  18.324  26.131  1.00  0.00    -0.246 OA
BRANCH   5   7
ATOM      7  C   UNL A   1      41.550  20.566  26.574  1.00  0.00     0.060 A 
ATOM      8  C   UNL A   1      41.821  21.574  25.625  1.00  0.00     0.016 A 
ATOM      9  C   UNL A   1      41.702  20.903  27.921  1.00  0.00     0.016 A 
ATOM     10  C   UNL A   1      42.274  22.841  26.007  1.00  0.00     0.010 A 
ATOM     11  C   UNL A   1      42.167  22.157  28.313  1.00  0.00     0.010 A 
ATOM     12  C   UNL A   1      42.468  23.125  27.358  1.00  0.00    -0.014 A 
BRANCH  12  13
ATOM     13  C   UNL A   1      42.907  24.448  27.828  1.00  0.00     0.031 A 
ATOM     14  C   UNL A   1      41.900  25.508  28.156  1.00  0.00     0.074 A 
ATOM     15  C   UNL A   1      44.225  24.707  27.797  1.00  0.00     0.049 A 
ATOM     16  N   UNL A   1      42.102  26.746  28.524  1.00  0.00    -0.248 NA
ATOM     17  C   UNL A   1      40.480  25.139  28.035  1.00  0.00     0.031 C 
ATOM     18  C   UNL A   1      45.258  23.747  27.399  1.00  0.00     0.029 A 
ATOM     19  N   UNL A   1      44.916  25.859  28.051  1.00  0.00    -0.354 N 
ATOM     20  C   UNL A   1      40.840  27.301  28.694  1.00  0.00     0.074 A 
ATOM     21  C   UNL A   1      39.876  26.278  28.351  1.00  0.00     0.031 C 
ATOM     22  C   UNL A   1      46.451  24.362  27.404  1.00  0.00     0.029 A 
ATOM     23  C   UNL A   1      46.261  25.753  27.798  1.00  0.00     0.049 A 
ATOM     24  H   UNL A   1      44.491  26.683  28.383  1.00  0.00     0.167 HD
ATOM     25  C   UNL A   1      40.530  28.551  29.109  1.00  0.00     0.037 A 
ATOM     26  C   UNL A   1      47.225  26.686  27.869  1.00  0.00     0.037 A 
ATOM     27  C   UNL A   1      41.519  29.553  29.418  1.00  0.00     0.049 A 
ATOM     28  C   UNL A   1      46.850  28.065  28.331  1.00  0.00     0.074 A 
ATOM     29  C   UNL A   1      41.333  30.823  29.933  1.00  0.00     0.029 A 
ATOM     30  N   UNL A   1      42.884  29.398  29.216  1.00  0.00    -0.354 N 
ATOM     31  N   UNL A   1      45.666  28.539  28.632  1.00  0.00    -0.248 NA
ATOM     32  C   UNL A   1      47.945  29.030  28.485  1.00  0.00     0.031 C 
ATOM     33  C   UNL A   1      42.580  31.455  29.991  1.00  0.00     0.029 A 
ATOM     34  C   UNL A   1      43.548  30.560  29.565  1.00  0.00     0.049 A 
ATOM     35  H   UNL A   1      43.315  28.582  28.872  1.00  0.00     0.167 HD
ATOM     36  C   UNL A   1      45.875  29.843  29.054  1.00  0.00     0.074 A 
ATOM     37  C   UNL A   1      47.302  30.083  28.970  1.00  0.00     0.031 C 
ATOM     38  C   UNL A   1      44.972  30.759  29.482  1.00  0.00     0.037 A 
BRANCH  25  39
ATOM     39  C   UNL A   1      39.081  28.913  29.265  1.00  0.00     0.057 A 
ATOM     40  C   UNL A   1      38.367  29.497  28.209  1.00  0.00     0.134 A 
ATOM     41  C   UNL A   1      38.416  28.770  30.490  1.00  0.00     0.134 A 
ATOM     42  F   UNL A   1      38.945  29.673  27.012  1.00  0.00    -0.206 F 
ATOM     43  C   UNL A   1      37.051  29.935  28.369  1.00  0.00     0.040 A 
ATOM     44  C   UNL A   1      37.092  29.185  30.656  1.00  0.00     0.040 A 
ATOM     45  F   UNL A   1      39.037  28.218  31.542  1.00  0.00    -0.206 F 
ATOM     46  C   UNL A   1      36.409  29.778  29.596  1.00  0.00     0.006 A 
ENDBRANCH  25  39
BRANCH  26  47
ATOM     47  C   UNL A   1      48.626  26.335  27.535  1.00  0.00     0.057 A 
ATOM     48  C   UNL A   1      49.114  26.438  26.227  1.00  0.00     0.134 A 
ATOM     49  C   UNL A   1      49.510  25.886  28.521  1.00  0.00     0.134 A 
ATOM     50  F   UNL A   1      48.310  26.844  25.232  1.00  0.00    -0.206 F 
ATOM     51  C   UNL A   1      50.435  26.112  25.912  1.00  0.00     0.040 A 
ATOM     52  C   UNL A   1      50.840  25.580  28.226  1.00  0.00     0.040 A 
ATOM     53  F   UNL A   1      49.101  25.773  29.792  1.00  0.00    -0.206 F 
ATOM     54  C   UNL A   1      51.305  25.691  26.917  1.00  0.00     0.006 A 
ENDBRANCH  26  47
BRANCH  38  55
ATOM     55  C   UNL A   1      45.514  32.080  29.937  1.00  0.00     0.057 A 
ATOM     56  C   UNL A   1      45.652  33.137  29.029  1.00  0.00     0.134 A 
ATOM     57  C   UNL A   1      45.931  32.294  31.255  1.00  0.00     0.134 A 
ATOM     58  F   UNL A   1      45.276  32.989  27.749  1.00  0.00    -0.206 F 
ATOM     59  C   UNL A   1      46.193  34.362  29.415  1.00  0.00     0.040 A 
ATOM     60  C   UNL A   1      46.448  33.525  31.661  1.00  0.00     0.040 A 
ATOM     61  F   UNL A   1      45.807  31.325  32.174  1.00  0.00    -0.206 F 
ATOM     62  C   UNL A   1      46.588  34.559  30.737  1.00  0.00     0.006 A 
ENDBRANCH  38  55
ENDBRANCH  12  13
ENDBRANCH   5   7
ENDBRANCH   4   5
ENDBRANCH   3   4
ENDBRANCH   2   3
ENDBRANCH   1   2
BRANCH   1  63
ATOM     63  C   UNL A   1      37.256  22.635  25.039  1.00  0.00     0.202 C 
BRANCH  63  64
ATOM     64  C   UNL A   1      36.333  23.309  26.055  1.00  0.00     0.261 C 
BRANCH  64  65
ATOM     65  O   UNL A   1      35.485  24.236  25.364  1.00  0.00    -0.459 OA
BRANCH  65  66
ATOM     66  C   UNL A   1      34.178  24.247  25.725  1.00  0.00     0.343 C 
ATOM     67  O   UNL A   1      33.620  23.487  26.501  1.00  0.00    -0.246 OA
BRANCH  66  68
ATOM     68  C   UNL A   1      33.606  25.516  25.247  1.00  0.00     0.126 A 
ATOM     69  C   UNL A   1      33.711  26.578  26.064  1.00  0.00     0.038 A 
ATOM     70  C   UNL A   1      33.074  25.676  23.868  1.00  0.00     0.265 A 
ATOM     71  C   UNL A   1      33.467  27.912  25.575  1.00  0.00     0.035 A 
ATOM     72  N   UNL A   1      32.786  26.992  23.489  1.00  0.00    -0.309 N 
ATOM     73  O   UNL A   1      32.862  24.700  23.155  1.00  0.00    -0.268 OA
ATOM     74  Br  UNL A   1      33.822  29.347  26.706  1.00  0.00    -0.049 Br
ATOM     75  C   UNL A   1      33.034  28.077  24.318  1.00  0.00     0.105 A 
BRANCH  72  76
ATOM     76  C   UNL A   1      32.013  27.196  22.264  1.00  0.00     0.161 C 
BRANCH  76  77
ATOM     77  C   UNL A   1      30.741  27.942  22.611  1.00  0.00    -0.025 A 
ATOM     78  C   UNL A   1      29.666  27.271  23.219  1.00  0.00     0.006 A 
ATOM     79  C   UNL A   1      30.557  29.263  22.177  1.00  0.00     0.044 A 
ATOM     80  C   UNL A   1      28.428  27.899  23.366  1.00  0.00     0.003 A 
ATOM     81  C   UNL A   1      29.322  29.880  22.337  1.00  0.00     0.123 A 
ATOM     82  C   UNL A   1      28.255  29.207  22.920  1.00  0.00     0.039 A 
ATOM     83  F   UNL A   1      29.149  31.133  21.896  1.00  0.00    -0.207 F 
ENDBRANCH  76  77
ENDBRANCH  72  76
ENDBRANCH  66  68
ENDBRANCH  65  66
ENDBRANCH  64  65
ENDBRANCH  63  64
ENDBRANCH   1  63
TORSDOF 16
ENDMDL
