MODEL 1
REMARK VINA RESULT:     -13.3      0.000      0.000
REMARK SMILES Cc1c(NC(=O)c2cccc(-c3cc4ccccc4oc3=O)c2)cccc1C(=O)OCCOCCOC(=O)c1ccc(-c2c3nc(c(-c4c(F)cccc4F)c4ccc([nH]4)c(-c4c(F)cccc4F)c4nc(c(-c5c(F)cccc5F)c5ccc2[nH]5)C=C4)C=C3)cc1
REMARK SMILES IDX 32 1 31 2 30 3 28 4 29 5 27 6 1 7 2 8 3 9 24 10 26 11 25 12
REMARK SMILES IDX 4 13 5 14 6 16 7 17 8 18 23 19 9 20 11 21 10 22 12 23 13 24
REMARK SMILES IDX 21 25 14 26 20 27 22 28 15 29 19 30 16 31 18 32 17 33 33 34
REMARK SMILES IDX 34 35 35 36 36 37 37 38 38 39 39 40 40 41 92 42 41 43 91 44
REMARK SMILES IDX 42 45 43 46 44 47 85 48 45 49 90 50 84 51 86 52 46 53 89 54
REMARK SMILES IDX 83 55 82 56 47 58 73 59 56 60 72 61 57 62 60 63 71 64 87 65
REMARK SMILES IDX 58 66 59 67 70 69 88 70 61 71 48 72 49 73 54 74 50 75 51 76
REMARK SMILES IDX 53 77 55 78 52 79 74 80 75 81 80 82 76 83 77 84 79 85 81 86
REMARK SMILES IDX 78 87 62 88 63 89 68 90 64 91 65 92 67 93 69 94 66 95
REMARK H PARENT 4 15 86 57 60 68
REMARK Flexibility Score: inf
ROOT
ATOM      1  C   UNL A   1      40.638  20.375  26.636  1.00  0.00     0.202 C 
ENDROOT
BRANCH   1   2
ATOM      2  C   UNL A   1      40.125  21.720  26.237  1.00  0.00     0.261 C 
BRANCH   2   3
ATOM      3  O   UNL A   1      38.700  21.827  26.041  1.00  0.00    -0.460 OA
BRANCH   3   4
ATOM      4  C   UNL A   1      37.994  22.983  26.200  1.00  0.00     0.338 C 
ATOM      5  O   UNL A   1      38.316  23.947  26.857  1.00  0.00    -0.246 OA
BRANCH   4   6
ATOM      6  C   UNL A   1      36.822  22.956  25.257  1.00  0.00     0.065 A 
ATOM      7  C   UNL A   1      35.093  21.972  26.915  1.00  0.00     0.047 C 
ATOM      8  C   UNL A   1      35.559  22.373  25.533  1.00  0.00    -0.013 A 
ATOM      9  C   UNL A   1      34.700  22.090  24.440  1.00  0.00     0.045 A 
ATOM     10  C   UNL A   1      35.023  22.521  23.150  1.00  0.00     0.026 A 
ATOM     11  C   UNL A   1      37.120  23.389  23.949  1.00  0.00     0.016 A 
ATOM     12  C   UNL A   1      36.220  23.183  22.905  1.00  0.00     0.003 A 
BRANCH   9  13
ATOM     13  N   UNL A   1      33.528  21.353  24.690  1.00  0.00    -0.322 N 
ATOM     14  C   UNL A   1      32.252  21.722  25.041  1.00  0.00     0.255 C 
ATOM     15  H   UNL A   1      33.647  20.380  24.598  1.00  0.00     0.170 HD
ATOM     16  O   UNL A   1      31.461  20.833  25.362  1.00  0.00    -0.269 OA
BRANCH  14  17
ATOM     17  C   UNL A   1      31.741  23.116  24.942  1.00  0.00     0.040 A 
ATOM     18  C   UNL A   1      30.869  23.555  25.938  1.00  0.00     0.014 A 
ATOM     19  C   UNL A   1      31.974  23.938  23.829  1.00  0.00     0.022 A 
ATOM     20  C   UNL A   1      30.292  24.821  25.858  1.00  0.00     0.001 A 
ATOM     21  C   UNL A   1      31.373  25.209  23.716  1.00  0.00    -0.010 A 
ATOM     22  C   UNL A   1      30.551  25.644  24.761  1.00  0.00     0.009 A 
BRANCH  21  23
ATOM     23  C   UNL A   1      31.418  26.091  22.509  1.00  0.00     0.068 A 
ATOM     24  C   UNL A   1      30.807  27.291  22.404  1.00  0.00     0.028 A 
ATOM     25  C   UNL A   1      32.795  26.263  21.926  1.00  0.00     0.344 A 
ATOM     26  C   UNL A   1      31.506  28.266  23.249  1.00  0.00     0.018 A 
ATOM     27  O   UNL A   1      33.586  27.174  22.637  1.00  0.00    -0.422 OA
ATOM     28  O   UNL A   1      33.191  25.635  20.954  1.00  0.00    -0.246 OA
ATOM     29  C   UNL A   1      30.799  29.165  23.999  1.00  0.00     0.012 A 
ATOM     30  C   UNL A   1      32.895  28.102  23.442  1.00  0.00     0.138 A 
ATOM     31  C   UNL A   1      31.492  29.793  25.012  1.00  0.00     0.001 A 
ATOM     32  C   UNL A   1      33.577  28.751  24.461  1.00  0.00     0.048 A 
ATOM     33  C   UNL A   1      32.849  29.589  25.283  1.00  0.00     0.004 A 
ENDBRANCH  21  23
ENDBRANCH  14  17
ENDBRANCH   9  13
ENDBRANCH   4   6
ENDBRANCH   3   4
ENDBRANCH   2   3
ENDBRANCH   1   2
BRANCH   1  34
ATOM     34  O   UNL A   1      41.626  20.030  25.684  1.00  0.00    -0.374 OA
BRANCH  34  35
ATOM     35  C   UNL A   1      42.560  19.040  26.069  1.00  0.00     0.202 C 
BRANCH  35  36
ATOM     36  C   UNL A   1      43.909  19.116  25.336  1.00  0.00     0.261 C 
BRANCH  36  37
ATOM     37  O   UNL A   1      44.017  20.365  24.611  1.00  0.00    -0.460 OA
BRANCH  37  38
ATOM     38  C   UNL A   1      44.826  21.327  25.141  1.00  0.00     0.338 C 
ATOM     39  O   UNL A   1      45.967  21.147  25.537  1.00  0.00    -0.246 OA
BRANCH  38  40
ATOM     40  C   UNL A   1      44.015  22.544  25.469  1.00  0.00     0.060 A 
ATOM     41  C   UNL A   1      43.991  23.648  24.591  1.00  0.00     0.016 A 
ATOM     42  C   UNL A   1      43.625  22.712  26.792  1.00  0.00     0.016 A 
ATOM     43  C   UNL A   1      43.732  24.940  25.083  1.00  0.00     0.010 A 
ATOM     44  C   UNL A   1      43.536  23.992  27.291  1.00  0.00     0.010 A 
ATOM     45  C   UNL A   1      43.599  25.122  26.456  1.00  0.00    -0.014 A 
BRANCH  45  46
ATOM     46  C   UNL A   1      43.613  26.395  27.193  1.00  0.00     0.031 A 
ATOM     47  C   UNL A   1      42.295  27.034  27.437  1.00  0.00     0.074 A 
ATOM     48  C   UNL A   1      44.703  26.819  27.889  1.00  0.00     0.049 A 
ATOM     49  N   UNL A   1      42.158  28.170  28.015  1.00  0.00    -0.248 NA
ATOM     50  C   UNL A   1      41.004  26.472  27.026  1.00  0.00     0.031 C 
ATOM     51  C   UNL A   1      44.756  27.705  29.059  1.00  0.00     0.029 A 
ATOM     52  N   UNL A   1      46.056  26.510  27.706  1.00  0.00    -0.354 N 
ATOM     53  C   UNL A   1      40.838  28.329  28.350  1.00  0.00     0.074 A 
ATOM     54  C   UNL A   1      40.144  27.315  27.606  1.00  0.00     0.031 C 
ATOM     55  C   UNL A   1      46.024  28.097  29.285  1.00  0.00     0.029 A 
ATOM     56  C   UNL A   1      46.833  27.562  28.206  1.00  0.00     0.049 A 
ATOM     57  H   UNL A   1      46.404  25.687  27.292  1.00  0.00     0.167 HD
ATOM     58  C   UNL A   1      40.542  29.247  29.309  1.00  0.00     0.037 A 
ATOM     59  C   UNL A   1      47.697  28.212  27.387  1.00  0.00     0.037 A 
ATOM     60  C   UNL A   1      41.740  30.048  29.617  1.00  0.00     0.049 A 
ATOM     61  C   UNL A   1      47.142  29.594  27.234  1.00  0.00     0.074 A 
ATOM     62  C   UNL A   1      42.603  30.112  30.696  1.00  0.00     0.029 A 
ATOM     63  N   UNL A   1      42.388  30.706  28.565  1.00  0.00    -0.354 N 
ATOM     64  N   UNL A   1      45.866  29.852  27.374  1.00  0.00    -0.248 NA
ATOM     65  C   UNL A   1      47.960  30.796  27.142  1.00  0.00     0.031 C 
ATOM     66  C   UNL A   1      43.819  30.716  30.241  1.00  0.00     0.029 A 
ATOM     67  C   UNL A   1      43.684  31.052  28.898  1.00  0.00     0.049 A 
ATOM     68  H   UNL A   1      41.971  30.899  27.695  1.00  0.00     0.167 HD
ATOM     69  C   UNL A   1      45.708  31.187  27.560  1.00  0.00     0.074 A 
ATOM     70  C   UNL A   1      47.031  31.750  27.335  1.00  0.00     0.031 C 
ATOM     71  C   UNL A   1      44.535  31.764  27.945  1.00  0.00     0.037 A 
BRANCH  58  72
ATOM     72  C   UNL A   1      39.233  29.352  30.064  1.00  0.00     0.057 A 
ATOM     73  C   UNL A   1      38.196  30.164  29.564  1.00  0.00     0.134 A 
ATOM     74  C   UNL A   1      38.940  28.757  31.311  1.00  0.00     0.134 A 
ATOM     75  F   UNL A   1      38.329  30.829  28.408  1.00  0.00    -0.206 F 
ATOM     76  C   UNL A   1      36.975  30.351  30.233  1.00  0.00     0.040 A 
ATOM     77  C   UNL A   1      37.705  28.897  31.966  1.00  0.00     0.040 A 
ATOM     78  F   UNL A   1      39.839  28.052  32.003  1.00  0.00    -0.206 F 
ATOM     79  C   UNL A   1      36.718  29.702  31.430  1.00  0.00     0.006 A 
ENDBRANCH  58  72
BRANCH  59  80
ATOM     80  C   UNL A   1      48.320  27.264  26.408  1.00  0.00     0.057 A 
ATOM     81  C   UNL A   1      47.867  27.364  25.073  1.00  0.00     0.134 A 
ATOM     82  C   UNL A   1      49.610  26.746  26.583  1.00  0.00     0.134 A 
ATOM     83  F   UNL A   1      46.651  27.876  24.814  1.00  0.00    -0.206 F 
ATOM     84  C   UNL A   1      48.697  27.107  23.972  1.00  0.00     0.040 A 
ATOM     85  C   UNL A   1      50.452  26.492  25.484  1.00  0.00     0.040 A 
ATOM     86  F   UNL A   1      50.140  26.638  27.809  1.00  0.00    -0.206 F 
ATOM     87  C   UNL A   1      50.014  26.715  24.179  1.00  0.00     0.006 A 
ENDBRANCH  59  80
BRANCH  71  88
ATOM     88  C   UNL A   1      44.140  33.114  27.422  1.00  0.00     0.057 A 
ATOM     89  C   UNL A   1      43.931  33.371  26.055  1.00  0.00     0.134 A 
ATOM     90  C   UNL A   1      43.755  34.147  28.296  1.00  0.00     0.134 A 
ATOM     91  F   UNL A   1      44.120  32.432  25.117  1.00  0.00    -0.206 F 
ATOM     92  C   UNL A   1      43.458  34.596  25.588  1.00  0.00     0.040 A 
ATOM     93  C   UNL A   1      43.212  35.348  27.843  1.00  0.00     0.040 A 
ATOM     94  F   UNL A   1      43.848  34.024  29.629  1.00  0.00    -0.206 F 
ATOM     95  C   UNL A   1      43.086  35.587  26.483  1.00  0.00     0.006 A 
ENDBRANCH  71  88
ENDBRANCH  45  46
ENDBRANCH  38  40
ENDBRANCH  37  38
ENDBRANCH  36  37
ENDBRANCH  35  36
ENDBRANCH  34  35
ENDBRANCH   1  34
TORSDOF 17
ENDMDL
MODEL 2
REMARK VINA RESULT:     -13.1      1.364      2.453
REMARK SMILES Cc1c(NC(=O)c2cccc(-c3cc4ccccc4oc3=O)c2)cccc1C(=O)OCCOCCOC(=O)c1ccc(-c2c3nc(c(-c4c(F)cccc4F)c4ccc([nH]4)c(-c4c(F)cccc4F)c4nc(c(-c5c(F)cccc5F)c5ccc2[nH]5)C=C4)C=C3)cc1
REMARK SMILES IDX 32 1 31 2 30 3 28 4 29 5 27 6 1 7 2 8 3 9 24 10 26 11 25 12
REMARK SMILES IDX 4 13 5 14 6 16 7 17 8 18 23 19 9 20 11 21 10 22 12 23 13 24
REMARK SMILES IDX 21 25 14 26 20 27 22 28 15 29 19 30 16 31 18 32 17 33 33 34
REMARK SMILES IDX 34 35 35 36 36 37 37 38 38 39 39 40 40 41 92 42 41 43 91 44
REMARK SMILES IDX 42 45 43 46 44 47 85 48 45 49 90 50 84 51 86 52 46 53 89 54
REMARK SMILES IDX 83 55 82 56 47 58 73 59 56 60 72 61 57 62 60 63 71 64 87 65
REMARK SMILES IDX 58 66 59 67 70 69 88 70 61 71 48 72 49 73 54 74 50 75 51 76
REMARK SMILES IDX 53 77 55 78 52 79 74 80 75 81 80 82 76 83 77 84 79 85 81 86
REMARK SMILES IDX 78 87 62 88 63 89 68 90 64 91 65 92 67 93 69 94 66 95
REMARK H PARENT 4 15 86 57 60 68
REMARK Flexibility Score: inf
ROOT
ATOM      1  C   UNL A   1      42.641  18.379  27.520  1.00  0.00     0.202 C 
ENDROOT
BRANCH   1   2
ATOM      2  C   UNL A   1      42.270  19.812  27.320  1.00  0.00     0.261 C 
BRANCH   2   3
ATOM      3  O   UNL A   1      40.860  20.119  27.362  1.00  0.00    -0.460 OA
BRANCH   3   4
ATOM      4  C   UNL A   1      40.021  19.995  26.295  1.00  0.00     0.338 C 
ATOM      5  O   UNL A   1      39.824  18.998  25.638  1.00  0.00    -0.246 OA
BRANCH   4   6
ATOM      6  C   UNL A   1      39.213  21.259  26.178  1.00  0.00     0.065 A 
ATOM      7  C   UNL A   1      37.611  20.448  24.310  1.00  0.00     0.047 C 
ATOM      8  C   UNL A   1      38.225  21.513  25.193  1.00  0.00    -0.013 A 
ATOM      9  C   UNL A   1      37.828  22.858  24.977  1.00  0.00     0.045 A 
ATOM     10  C   UNL A   1      38.280  23.879  25.818  1.00  0.00     0.026 A 
ATOM     11  C   UNL A   1      39.645  22.304  27.019  1.00  0.00     0.016 A 
ATOM     12  C   UNL A   1      39.172  23.603  26.847  1.00  0.00     0.003 A 
BRANCH   9  13
ATOM     13  N   UNL A   1      36.985  23.133  23.884  1.00  0.00    -0.322 N 
ATOM     14  C   UNL A   1      35.619  23.224  23.762  1.00  0.00     0.255 C 
ATOM     15  H   UNL A   1      37.468  23.289  23.041  1.00  0.00     0.170 HD
ATOM     16  O   UNL A   1      35.146  23.314  22.627  1.00  0.00    -0.269 OA
BRANCH  14  17
ATOM     17  C   UNL A   1      34.693  23.337  24.921  1.00  0.00     0.040 A 
ATOM     18  C   UNL A   1      34.416  22.174  25.641  1.00  0.00     0.014 A 
ATOM     19  C   UNL A   1      33.983  24.510  25.221  1.00  0.00     0.022 A 
ATOM     20  C   UNL A   1      33.494  22.198  26.686  1.00  0.00     0.001 A 
ATOM     21  C   UNL A   1      33.024  24.544  26.255  1.00  0.00    -0.010 A 
ATOM     22  C   UNL A   1      32.813  23.376  26.996  1.00  0.00     0.009 A 
BRANCH  21  23
ATOM     23  C   UNL A   1      32.098  25.681  26.548  1.00  0.00     0.068 A 
ATOM     24  C   UNL A   1      32.434  26.988  26.488  1.00  0.00     0.028 A 
ATOM     25  C   UNL A   1      30.749  25.558  25.892  1.00  0.00     0.344 A 
ATOM     26  C   UNL A   1      32.609  27.379  25.085  1.00  0.00     0.018 A 
ATOM     27  O   UNL A   1      30.762  25.903  24.535  1.00  0.00    -0.422 OA
ATOM     28  O   UNL A   1      29.755  25.158  26.481  1.00  0.00    -0.246 OA
ATOM     29  C   UNL A   1      33.646  28.191  24.717  1.00  0.00     0.012 A 
ATOM     30  C   UNL A   1      31.830  26.720  24.110  1.00  0.00     0.138 A 
ATOM     31  C   UNL A   1      33.948  28.223  23.372  1.00  0.00     0.001 A 
ATOM     32  C   UNL A   1      32.144  26.771  22.759  1.00  0.00     0.048 A 
ATOM     33  C   UNL A   1      33.249  27.515  22.389  1.00  0.00     0.004 A 
ENDBRANCH  21  23
ENDBRANCH  14  17
ENDBRANCH   9  13
ENDBRANCH   4   6
ENDBRANCH   3   4
ENDBRANCH   2   3
ENDBRANCH   1   2
BRANCH   1  34
ATOM     34  O   UNL A   1      43.610  18.079  26.534  1.00  0.00    -0.374 OA
BRANCH  34  35
ATOM     35  C   UNL A   1      43.414  18.656  25.257  1.00  0.00     0.202 C 
BRANCH  35  36
ATOM     36  C   UNL A   1      44.703  19.138  24.571  1.00  0.00     0.261 C 
BRANCH  36  37
ATOM     37  O   UNL A   1      44.594  20.540  24.225  1.00  0.00    -0.460 OA
BRANCH  37  38
ATOM     38  C   UNL A   1      45.288  21.428  24.994  1.00  0.00     0.338 C 
ATOM     39  O   UNL A   1      46.366  21.210  25.521  1.00  0.00    -0.246 OA
BRANCH  38  40
ATOM     40  C   UNL A   1      44.398  22.576  25.367  1.00  0.00     0.060 A 
ATOM     41  C   UNL A   1      44.220  23.661  24.483  1.00  0.00     0.016 A 
ATOM     42  C   UNL A   1      44.085  22.729  26.712  1.00  0.00     0.016 A 
ATOM     43  C   UNL A   1      43.884  24.933  24.981  1.00  0.00     0.010 A 
ATOM     44  C   UNL A   1      43.919  24.003  27.204  1.00  0.00     0.010 A 
ATOM     45  C   UNL A   1      43.828  25.122  26.358  1.00  0.00    -0.014 A 
BRANCH  45  46
ATOM     46  C   UNL A   1      43.781  26.402  27.082  1.00  0.00     0.031 A 
ATOM     47  C   UNL A   1      42.444  27.030  27.231  1.00  0.00     0.074 A 
ATOM     48  C   UNL A   1      44.818  26.843  27.844  1.00  0.00     0.049 A 
ATOM     49  N   UNL A   1      42.259  28.170  27.788  1.00  0.00    -0.248 NA
ATOM     50  C   UNL A   1      41.189  26.452  26.741  1.00  0.00     0.031 C 
ATOM     51  C   UNL A   1      44.785  27.740  29.007  1.00  0.00     0.029 A 
ATOM     52  N   UNL A   1      46.184  26.545  27.755  1.00  0.00    -0.354 N 
ATOM     53  C   UNL A   1      40.919  28.320  28.032  1.00  0.00     0.074 A 
ATOM     54  C   UNL A   1      40.284  27.292  27.254  1.00  0.00     0.031 C 
ATOM     55  C   UNL A   1      46.032  28.147  29.313  1.00  0.00     0.029 A 
ATOM     56  C   UNL A   1      46.916  27.610  28.296  1.00  0.00     0.049 A 
ATOM     57  H   UNL A   1      46.566  25.722  27.374  1.00  0.00     0.167 HD
ATOM     58  C   UNL A   1      40.550  29.244  28.960  1.00  0.00     0.037 A 
ATOM     59  C   UNL A   1      47.826  28.261  27.530  1.00  0.00     0.037 A 
ATOM     60  C   UNL A   1      41.718  30.058  29.340  1.00  0.00     0.049 A 
ATOM     61  C   UNL A   1      47.271  29.636  27.326  1.00  0.00     0.074 A 
ATOM     62  C   UNL A   1      42.507  30.141  30.474  1.00  0.00     0.029 A 
ATOM     63  N   UNL A   1      42.428  30.714  28.328  1.00  0.00    -0.354 N 
ATOM     64  N   UNL A   1      45.986  29.883  27.379  1.00  0.00    -0.248 NA
ATOM     65  C   UNL A   1      48.082  30.845  27.278  1.00  0.00     0.031 C 
ATOM     66  C   UNL A   1      43.744  30.752  30.095  1.00  0.00     0.029 A 
ATOM     67  C   UNL A   1      43.696  31.075  28.743  1.00  0.00     0.049 A 
ATOM     68  H   UNL A   1      42.069  30.895  27.429  1.00  0.00     0.167 HD
ATOM     69  C   UNL A   1      45.803  31.218  27.541  1.00  0.00     0.074 A 
ATOM     70  C   UNL A   1      47.133  31.791  27.399  1.00  0.00     0.031 C 
ATOM     71  C   UNL A   1      44.602  31.786  27.841  1.00  0.00     0.037 A 
BRANCH  58  72
ATOM     72  C   UNL A   1      39.193  29.342  29.626  1.00  0.00     0.057 A 
ATOM     73  C   UNL A   1      39.002  28.808  30.915  1.00  0.00     0.134 A 
ATOM     74  C   UNL A   1      38.017  29.869  29.047  1.00  0.00     0.134 A 
ATOM     75  F   UNL A   1      40.011  28.237  31.588  1.00  0.00    -0.206 F 
ATOM     76  C   UNL A   1      37.762  28.816  31.574  1.00  0.00     0.040 A 
ATOM     77  C   UNL A   1      36.783  29.927  29.715  1.00  0.00     0.040 A 
ATOM     78  F   UNL A   1      37.968  30.309  27.786  1.00  0.00    -0.206 F 
ATOM     79  C   UNL A   1      36.649  29.393  30.983  1.00  0.00     0.006 A 
ENDBRANCH  58  72
BRANCH  59  80
ATOM     80  C   UNL A   1      48.523  27.310  26.604  1.00  0.00     0.057 A 
ATOM     81  C   UNL A   1      48.148  27.383  25.243  1.00  0.00     0.134 A 
ATOM     82  C   UNL A   1      49.808  26.816  26.863  1.00  0.00     0.134 A 
ATOM     83  F   UNL A   1      46.942  27.871  24.905  1.00  0.00    -0.206 F 
ATOM     84  C   UNL A   1      49.046  27.125  24.197  1.00  0.00     0.040 A 
ATOM     85  C   UNL A   1      50.718  26.561  25.820  1.00  0.00     0.040 A 
ATOM     86  F   UNL A   1      50.265  26.734  28.120  1.00  0.00    -0.206 F 
ATOM     87  C   UNL A   1      50.355  26.758  24.487  1.00  0.00     0.006 A 
ENDBRANCH  59  80
BRANCH  71  88
ATOM     88  C   UNL A   1      44.231  33.128  27.280  1.00  0.00     0.057 A 
ATOM     89  C   UNL A   1      43.852  33.315  25.939  1.00  0.00     0.134 A 
ATOM     90  C   UNL A   1      44.043  34.240  28.122  1.00  0.00     0.134 A 
ATOM     91  F   UNL A   1      43.845  32.308  25.053  1.00  0.00    -0.206 F 
ATOM     92  C   UNL A   1      43.403  34.542  25.452  1.00  0.00     0.040 A 
ATOM     93  C   UNL A   1      43.525  35.449  27.659  1.00  0.00     0.040 A 
ATOM     94  F   UNL A   1      44.311  34.193  29.435  1.00  0.00    -0.206 F 
ATOM     95  C   UNL A   1      43.227  35.611  26.315  1.00  0.00     0.006 A 
ENDBRANCH  71  88
ENDBRANCH  45  46
ENDBRANCH  38  40
ENDBRANCH  37  38
ENDBRANCH  36  37
ENDBRANCH  35  36
ENDBRANCH  34  35
ENDBRANCH   1  34
TORSDOF 17
ENDMDL
MODEL 3
REMARK VINA RESULT:     -12.4      4.400     10.021
REMARK SMILES Cc1c(NC(=O)c2cccc(-c3cc4ccccc4oc3=O)c2)cccc1C(=O)OCCOCCOC(=O)c1ccc(-c2c3nc(c(-c4c(F)cccc4F)c4ccc([nH]4)c(-c4c(F)cccc4F)c4nc(c(-c5c(F)cccc5F)c5ccc2[nH]5)C=C4)C=C3)cc1
REMARK SMILES IDX 32 1 31 2 30 3 28 4 29 5 27 6 1 7 2 8 3 9 24 10 26 11 25 12
REMARK SMILES IDX 4 13 5 14 6 16 7 17 8 18 23 19 9 20 11 21 10 22 12 23 13 24
REMARK SMILES IDX 21 25 14 26 20 27 22 28 15 29 19 30 16 31 18 32 17 33 33 34
REMARK SMILES IDX 34 35 35 36 36 37 37 38 38 39 39 40 40 41 92 42 41 43 91 44
REMARK SMILES IDX 42 45 43 46 44 47 85 48 45 49 90 50 84 51 86 52 46 53 89 54
REMARK SMILES IDX 83 55 82 56 47 58 73 59 56 60 72 61 57 62 60 63 71 64 87 65
REMARK SMILES IDX 58 66 59 67 70 69 88 70 61 71 48 72 49 73 54 74 50 75 51 76
REMARK SMILES IDX 53 77 55 78 52 79 74 80 75 81 80 82 76 83 77 84 79 85 81 86
REMARK SMILES IDX 78 87 62 88 63 89 68 90 64 91 65 92 67 93 69 94 66 95
REMARK H PARENT 4 15 86 57 60 68
REMARK Flexibility Score: inf
ROOT
ATOM      1  C   UNL A   1      34.643  32.669  28.023  1.00  0.00     0.202 C 
ENDROOT
BRANCH   1   2
ATOM      2  C   UNL A   1      33.573  31.705  27.625  1.00  0.00     0.261 C 
BRANCH   2   3
ATOM      3  O   UNL A   1      33.868  30.855  26.497  1.00  0.00    -0.460 OA
BRANCH   3   4
ATOM      4  C   UNL A   1      34.066  29.509  26.588  1.00  0.00     0.338 C 
ATOM      5  O   UNL A   1      34.490  28.901  27.545  1.00  0.00    -0.246 OA
BRANCH   4   6
ATOM      6  C   UNL A   1      33.480  28.859  25.364  1.00  0.00     0.065 A 
ATOM      7  C   UNL A   1      31.004  29.461  25.831  1.00  0.00     0.047 C 
ATOM      8  C   UNL A   1      32.095  28.715  25.095  1.00  0.00    -0.013 A 
ATOM      9  C   UNL A   1      31.700  27.767  24.116  1.00  0.00     0.045 A 
ATOM     10  C   UNL A   1      32.654  27.114  23.331  1.00  0.00     0.026 A 
ATOM     11  C   UNL A   1      34.422  28.196  24.552  1.00  0.00     0.016 A 
ATOM     12  C   UNL A   1      34.011  27.338  23.534  1.00  0.00     0.003 A 
BRANCH   9  13
ATOM     13  N   UNL A   1      30.328  27.493  23.974  1.00  0.00    -0.322 N 
ATOM     14  C   UNL A   1      29.589  26.341  24.101  1.00  0.00     0.255 C 
ATOM     15  H   UNL A   1      29.790  28.282  23.734  1.00  0.00     0.170 HD
ATOM     16  O   UNL A   1      28.409  26.369  23.747  1.00  0.00    -0.269 OA
BRANCH  14  17
ATOM     17  C   UNL A   1      30.101  25.102  24.746  1.00  0.00     0.040 A 
ATOM     18  C   UNL A   1      30.146  25.073  26.141  1.00  0.00     0.014 A 
ATOM     19  C   UNL A   1      30.672  24.043  24.024  1.00  0.00     0.022 A 
ATOM     20  C   UNL A   1      30.691  23.974  26.803  1.00  0.00     0.001 A 
ATOM     21  C   UNL A   1      31.256  22.938  24.678  1.00  0.00    -0.010 A 
ATOM     22  C   UNL A   1      31.232  22.912  26.077  1.00  0.00     0.009 A 
BRANCH  21  23
ATOM     23  C   UNL A   1      32.034  21.845  24.017  1.00  0.00     0.068 A 
ATOM     24  C   UNL A   1      33.089  22.033  23.196  1.00  0.00     0.028 A 
ATOM     25  C   UNL A   1      32.410  20.716  24.940  1.00  0.00     0.344 A 
ATOM     26  C   UNL A   1      34.239  22.494  23.982  1.00  0.00     0.018 A 
ATOM     27  O   UNL A   1      33.504  21.015  25.761  1.00  0.00    -0.422 OA
ATOM     28  O   UNL A   1      31.791  19.662  24.991  1.00  0.00    -0.246 OA
ATOM     29  C   UNL A   1      35.049  23.489  23.509  1.00  0.00     0.012 A 
ATOM     30  C   UNL A   1      34.349  22.053  25.319  1.00  0.00     0.138 A 
ATOM     31  C   UNL A   1      35.871  24.099  24.432  1.00  0.00     0.001 A 
ATOM     32  C   UNL A   1      35.189  22.673  26.232  1.00  0.00     0.048 A 
ATOM     33  C   UNL A   1      35.942  23.742  25.782  1.00  0.00     0.004 A 
ENDBRANCH  21  23
ENDBRANCH  14  17
ENDBRANCH   9  13
ENDBRANCH   4   6
ENDBRANCH   3   4
ENDBRANCH   2   3
ENDBRANCH   1   2
BRANCH   1  34
ATOM     34  O   UNL A   1      34.120  33.962  27.782  1.00  0.00    -0.374 OA
BRANCH  34  35
ATOM     35  C   UNL A   1      33.077  34.393  28.634  1.00  0.00     0.202 C 
BRANCH  35  36
ATOM     36  C   UNL A   1      33.532  35.291  29.796  1.00  0.00     0.261 C 
BRANCH  36  37
ATOM     37  O   UNL A   1      33.435  34.576  31.051  1.00  0.00    -0.460 OA
BRANCH  37  38
ATOM     38  C   UNL A   1      34.568  34.486  31.807  1.00  0.00     0.338 C 
ATOM     39  O   UNL A   1      35.007  35.371  32.524  1.00  0.00    -0.246 OA
BRANCH  38  40
ATOM     40  C   UNL A   1      35.363  33.288  31.386  1.00  0.00     0.060 A 
ATOM     41  C   UNL A   1      35.253  32.070  32.091  1.00  0.00     0.016 A 
ATOM     42  C   UNL A   1      36.463  33.508  30.566  1.00  0.00     0.016 A 
ATOM     43  C   UNL A   1      36.322  31.155  32.097  1.00  0.00     0.010 A 
ATOM     44  C   UNL A   1      37.560  32.689  30.709  1.00  0.00     0.010 A 
ATOM     45  C   UNL A   1      37.516  31.514  31.479  1.00  0.00    -0.014 A 
BRANCH  45  46
ATOM     46  C   UNL A   1      38.823  30.849  31.609  1.00  0.00     0.031 A 
ATOM     47  C   UNL A   1      39.049  29.660  30.750  1.00  0.00     0.074 A 
ATOM     48  C   UNL A   1      39.881  31.443  32.226  1.00  0.00     0.049 A 
ATOM     49  N   UNL A   1      40.115  28.949  30.797  1.00  0.00    -0.248 NA
ATOM     50  C   UNL A   1      38.085  29.135  29.777  1.00  0.00     0.031 C 
ATOM     51  C   UNL A   1      41.315  31.222  31.999  1.00  0.00     0.029 A 
ATOM     52  N   UNL A   1      39.899  32.438  33.210  1.00  0.00    -0.354 N 
ATOM     53  C   UNL A   1      40.138  28.132  29.696  1.00  0.00     0.074 A 
ATOM     54  C   UNL A   1      38.805  28.189  29.164  1.00  0.00     0.031 C 
ATOM     55  C   UNL A   1      42.032  31.794  32.985  1.00  0.00     0.029 A 
ATOM     56  C   UNL A   1      41.084  32.324  33.948  1.00  0.00     0.049 A 
ATOM     57  H   UNL A   1      39.193  33.107  33.360  1.00  0.00     0.167 HD
ATOM     58  C   UNL A   1      41.339  27.604  29.334  1.00  0.00     0.037 A 
ATOM     59  C   UNL A   1      41.028  32.122  35.288  1.00  0.00     0.037 A 
ATOM     60  C   UNL A   1      42.335  27.867  30.387  1.00  0.00     0.049 A 
ATOM     61  C   UNL A   1      41.558  30.739  35.507  1.00  0.00     0.074 A 
ATOM     62  C   UNL A   1      43.432  28.705  30.487  1.00  0.00     0.029 A 
ATOM     63  N   UNL A   1      42.049  27.450  31.692  1.00  0.00    -0.354 N 
ATOM     64  N   UNL A   1      41.497  29.814  34.582  1.00  0.00    -0.248 NA
ATOM     65  C   UNL A   1      42.375  30.350  36.649  1.00  0.00     0.031 C 
ATOM     66  C   UNL A   1      43.723  28.871  31.878  1.00  0.00     0.029 A 
ATOM     67  C   UNL A   1      42.830  28.108  32.623  1.00  0.00     0.049 A 
ATOM     68  H   UNL A   1      41.373  26.771  31.919  1.00  0.00     0.167 HD
ATOM     69  C   UNL A   1      42.364  28.820  34.900  1.00  0.00     0.074 A 
ATOM     70  C   UNL A   1      42.838  29.157  36.233  1.00  0.00     0.031 C 
ATOM     71  C   UNL A   1      42.701  27.810  34.050  1.00  0.00     0.037 A 
BRANCH  58  72
ATOM     72  C   UNL A   1      41.663  26.970  27.997  1.00  0.00     0.057 A 
ATOM     73  C   UNL A   1      41.836  27.781  26.858  1.00  0.00     0.134 A 
ATOM     74  C   UNL A   1      41.744  25.586  27.728  1.00  0.00     0.134 A 
ATOM     75  F   UNL A   1      41.753  29.117  26.936  1.00  0.00    -0.206 F 
ATOM     76  C   UNL A   1      42.087  27.264  25.577  1.00  0.00     0.040 A 
ATOM     77  C   UNL A   1      42.044  25.058  26.461  1.00  0.00     0.040 A 
ATOM     78  F   UNL A   1      41.487  24.655  28.652  1.00  0.00    -0.206 F 
ATOM     79  C   UNL A   1      42.210  25.898  25.376  1.00  0.00     0.006 A 
ENDBRANCH  58  72
BRANCH  59  80
ATOM     80  C   UNL A   1      39.877  32.866  35.893  1.00  0.00     0.057 A 
ATOM     81  C   UNL A   1      38.746  32.089  36.234  1.00  0.00     0.134 A 
ATOM     82  C   UNL A   1      40.049  34.054  36.616  1.00  0.00     0.134 A 
ATOM     83  F   UNL A   1      38.522  30.921  35.607  1.00  0.00    -0.206 F 
ATOM     84  C   UNL A   1      37.921  32.395  37.326  1.00  0.00     0.040 A 
ATOM     85  C   UNL A   1      39.229  34.365  37.717  1.00  0.00     0.040 A 
ATOM     86  F   UNL A   1      41.106  34.845  36.385  1.00  0.00    -0.206 F 
ATOM     87  C   UNL A   1      38.193  33.515  38.103  1.00  0.00     0.006 A 
ENDBRANCH  59  80
BRANCH  71  88
ATOM     88  C   UNL A   1      42.963  26.427  34.572  1.00  0.00     0.057 A 
ATOM     89  C   UNL A   1      41.943  25.591  35.061  1.00  0.00     0.134 A 
ATOM     90  C   UNL A   1      44.219  25.815  34.408  1.00  0.00     0.134 A 
ATOM     91  F   UNL A   1      40.667  25.996  35.140  1.00  0.00    -0.206 F 
ATOM     92  C   UNL A   1      42.176  24.271  35.441  1.00  0.00     0.040 A 
ATOM     93  C   UNL A   1      44.444  24.474  34.716  1.00  0.00     0.040 A 
ATOM     94  F   UNL A   1      45.272  26.474  33.902  1.00  0.00    -0.206 F 
ATOM     95  C   UNL A   1      43.427  23.704  35.259  1.00  0.00     0.006 A 
ENDBRANCH  71  88
ENDBRANCH  45  46
ENDBRANCH  38  40
ENDBRANCH  37  38
ENDBRANCH  36  37
ENDBRANCH  35  36
ENDBRANCH  34  35
ENDBRANCH   1  34
TORSDOF 17
ENDMDL
