MODEL 1
REMARK VINA RESULT:     -11.5      0.000      0.000
REMARK SMILES CCc1ccc2[nH]c(C(=O)c3cc(C)ccn3)c(CC(=O)OCCOCCOC(=O)c3ccc(-c4c5nc(c(-c6c(F)cccc6F)c6ccc([nH]6)c(-c6c(F)cccc6F)c6nc(c(-c7c(F)cccc7F)c7ccc4[nH]7)C=C6)C=C5)cc3)c2c1
REMARK SMILES IDX 24 1 23 2 22 3 20 4 21 5 19 6 18 7 3 8 4 9 86 10 5 11 85 12
REMARK SMILES IDX 6 13 7 14 8 15 2 17 1 18 9 19 10 20 11 21 12 22 17 23 13 24
REMARK SMILES IDX 16 25 14 26 15 27 25 28 26 29 27 30 28 31 29 32 30 33 31 34
REMARK SMILES IDX 32 35 84 36 33 37 83 38 34 39 35 40 36 41 77 42 37 43 82 44
REMARK SMILES IDX 76 45 78 46 38 47 81 48 75 49 74 50 39 52 65 53 48 54 64 55
REMARK SMILES IDX 49 56 52 57 63 58 79 59 50 60 51 61 62 63 80 64 53 65 40 66
REMARK SMILES IDX 41 67 46 68 42 69 43 70 45 71 47 72 44 73 66 74 67 75 72 76
REMARK SMILES IDX 68 77 69 78 71 79 73 80 70 81 54 82 55 83 60 84 56 85 57 86
REMARK SMILES IDX 59 87 61 88 58 89
REMARK H PARENT 7 16 78 51 52 62
REMARK Flexibility Score: inf
ROOT
ATOM      1  C   UNL A   1      33.156  30.277  26.697  1.00  0.00     0.202 C 
ENDROOT
BRANCH   1   2
ATOM      2  C   UNL A   1      33.338  28.755  26.813  1.00  0.00     0.261 C 
BRANCH   2   3
ATOM      3  O   UNL A   1      32.518  27.991  25.904  1.00  0.00    -0.463 OA
BRANCH   3   4
ATOM      4  C   UNL A   1      31.406  27.435  26.465  1.00  0.00     0.310 C 
ATOM      5  O   UNL A   1      31.135  27.511  27.662  1.00  0.00    -0.252 OA
BRANCH   4   6
ATOM      6  C   UNL A   1      30.429  26.818  25.481  1.00  0.00     0.161 C 
BRANCH   6   7
ATOM      7  C   UNL A   1      30.741  26.932  24.013  1.00  0.00     0.000 A 
ATOM      8  C   UNL A   1      33.407  24.440  22.776  1.00  0.00    -0.048 A 
ATOM      9  C   UNL A   1      33.306  24.811  21.431  1.00  0.00     0.006 A 
ATOM     10  C   UNL A   1      32.633  25.132  23.733  1.00  0.00     0.014 A 
ATOM     11  C   UNL A   1      32.462  25.847  21.015  1.00  0.00     0.027 A 
ATOM     12  C   UNL A   1      31.736  26.149  23.332  1.00  0.00     0.004 A 
ATOM     13  C   UNL A   1      31.678  26.478  21.985  1.00  0.00     0.046 A 
ATOM     14  N   UNL A   1      30.732  27.464  21.853  1.00  0.00    -0.352 N 
ATOM     15  C   UNL A   1      30.028  27.632  23.029  1.00  0.00     0.093 A 
ATOM     16  H   UNL A   1      30.576  27.981  21.031  1.00  0.00     0.167 HD
BRANCH   8  17
ATOM     17  C   UNL A   1      34.237  23.266  23.250  1.00  0.00     0.032 C 
ATOM     18  C   UNL A   1      35.559  23.589  23.937  1.00  0.00     0.009 C 
ENDBRANCH   8  17
BRANCH  15  19
ATOM     19  C   UNL A   1      28.780  28.389  23.141  1.00  0.00     0.227 C 
ATOM     20  O   UNL A   1      27.777  27.964  23.710  1.00  0.00    -0.285 OA
BRANCH  19  21
ATOM     21  C   UNL A   1      28.716  29.769  22.568  1.00  0.00     0.113 A 
ATOM     22  C   UNL A   1      29.069  30.885  23.314  1.00  0.00     0.036 A 
ATOM     23  N   UNL A   1      28.246  29.839  21.298  1.00  0.00    -0.253 NA
ATOM     24  C   UNL A   1      28.909  32.144  22.722  1.00  0.00    -0.047 A 
ATOM     25  C   UNL A   1      28.094  31.057  20.751  1.00  0.00     0.112 A 
ATOM     26  C   UNL A   1      29.267  33.407  23.445  1.00  0.00     0.044 C 
ATOM     27  C   UNL A   1      28.404  32.225  21.418  1.00  0.00     0.023 A 
ENDBRANCH  19  21
ENDBRANCH  15  19
ENDBRANCH   6   7
ENDBRANCH   4   6
ENDBRANCH   3   4
ENDBRANCH   2   3
ENDBRANCH   1   2
BRANCH   1  28
ATOM     28  O   UNL A   1      31.951  30.840  27.216  1.00  0.00    -0.374 OA
BRANCH  28  29
ATOM     29  C   UNL A   1      31.431  31.986  26.550  1.00  0.00     0.202 C 
BRANCH  29  30
ATOM     30  C   UNL A   1      32.080  33.332  26.875  1.00  0.00     0.261 C 
BRANCH  30  31
ATOM     31  O   UNL A   1      32.206  33.619  28.268  1.00  0.00    -0.460 OA
BRANCH  31  32
ATOM     32  C   UNL A   1      33.217  34.452  28.577  1.00  0.00     0.338 C 
ATOM     33  O   UNL A   1      33.205  35.671  28.675  1.00  0.00    -0.246 OA
BRANCH  32  34
ATOM     34  C   UNL A   1      34.405  33.642  28.848  1.00  0.00     0.060 A 
ATOM     35  C   UNL A   1      34.241  32.393  29.453  1.00  0.00     0.016 A 
ATOM     36  C   UNL A   1      35.672  34.167  28.590  1.00  0.00     0.016 A 
ATOM     37  C   UNL A   1      35.368  31.682  29.856  1.00  0.00     0.010 A 
ATOM     38  C   UNL A   1      36.799  33.447  28.985  1.00  0.00     0.010 A 
ATOM     39  C   UNL A   1      36.648  32.221  29.656  1.00  0.00    -0.014 A 
BRANCH  39  40
ATOM     40  C   UNL A   1      37.817  31.553  30.269  1.00  0.00     0.031 A 
ATOM     41  C   UNL A   1      38.172  31.869  31.695  1.00  0.00     0.074 A 
ATOM     42  C   UNL A   1      38.513  30.640  29.572  1.00  0.00     0.049 A 
ATOM     43  N   UNL A   1      39.122  31.369  32.443  1.00  0.00    -0.248 NA
ATOM     44  C   UNL A   1      37.345  32.882  32.373  1.00  0.00     0.031 C 
ATOM     45  C   UNL A   1      38.241  30.248  28.189  1.00  0.00     0.029 A 
ATOM     46  N   UNL A   1      39.586  29.869  29.936  1.00  0.00    -0.354 N 
ATOM     47  C   UNL A   1      38.999  31.994  33.678  1.00  0.00     0.074 A 
ATOM     48  C   UNL A   1      37.911  32.941  33.569  1.00  0.00     0.031 C 
ATOM     49  C   UNL A   1      39.122  29.302  27.823  1.00  0.00     0.029 A 
ATOM     50  C   UNL A   1      40.028  29.038  28.937  1.00  0.00     0.049 A 
ATOM     51  H   UNL A   1      39.999  29.907  30.829  1.00  0.00     0.167 HD
ATOM     52  C   UNL A   1      39.718  31.781  34.805  1.00  0.00     0.037 A 
ATOM     53  C   UNL A   1      41.055  28.168  28.928  1.00  0.00     0.037 A 
ATOM     54  C   UNL A   1      40.802  30.841  34.902  1.00  0.00     0.049 A 
ATOM     55  C   UNL A   1      41.871  27.991  30.180  1.00  0.00     0.074 A 
ATOM     56  C   UNL A   1      41.601  30.552  35.994  1.00  0.00     0.029 A 
ATOM     57  N   UNL A   1      41.240  30.037  33.860  1.00  0.00    -0.354 N 
ATOM     58  N   UNL A   1      41.729  28.568  31.349  1.00  0.00    -0.248 NA
ATOM     59  C   UNL A   1      42.987  27.037  30.113  1.00  0.00     0.031 C 
ATOM     60  C   UNL A   1      42.545  29.596  35.603  1.00  0.00     0.029 A 
ATOM     61  C   UNL A   1      42.307  29.261  34.279  1.00  0.00     0.049 A 
ATOM     62  H   UNL A   1      40.850  30.020  32.956  1.00  0.00     0.167 HD
ATOM     63  C   UNL A   1      42.716  28.029  32.163  1.00  0.00     0.074 A 
ATOM     64  C   UNL A   1      43.441  27.067  31.359  1.00  0.00     0.031 C 
ATOM     65  C   UNL A   1      43.004  28.305  33.459  1.00  0.00     0.037 A 
BRANCH  52  66
ATOM     66  C   UNL A   1      39.356  32.583  36.019  1.00  0.00     0.057 A 
ATOM     67  C   UNL A   1      38.455  32.099  36.977  1.00  0.00     0.134 A 
ATOM     68  C   UNL A   1      39.943  33.831  36.258  1.00  0.00     0.134 A 
ATOM     69  F   UNL A   1      37.846  30.916  36.800  1.00  0.00    -0.206 F 
ATOM     70  C   UNL A   1      38.141  32.834  38.121  1.00  0.00     0.040 A 
ATOM     71  C   UNL A   1      39.654  34.567  37.408  1.00  0.00     0.040 A 
ATOM     72  F   UNL A   1      40.815  34.353  35.381  1.00  0.00    -0.206 F 
ATOM     73  C   UNL A   1      38.747  34.069  38.343  1.00  0.00     0.006 A 
ENDBRANCH  52  66
BRANCH  53  74
ATOM     74  C   UNL A   1      41.369  27.394  27.701  1.00  0.00     0.057 A 
ATOM     75  C   UNL A   1      42.172  27.929  26.687  1.00  0.00     0.134 A 
ATOM     76  C   UNL A   1      40.847  26.110  27.499  1.00  0.00     0.134 A 
ATOM     77  F   UNL A   1      42.684  29.162  26.813  1.00  0.00    -0.206 F 
ATOM     78  C   UNL A   1      42.429  27.226  25.509  1.00  0.00     0.040 A 
ATOM     79  C   UNL A   1      41.116  25.385  26.336  1.00  0.00     0.040 A 
ATOM     80  F   UNL A   1      40.073  25.539  28.432  1.00  0.00    -0.206 F 
ATOM     81  C   UNL A   1      41.902  25.949  25.332  1.00  0.00     0.006 A 
ENDBRANCH  53  74
BRANCH  65  82
ATOM     82  C   UNL A   1      44.125  27.533  34.087  1.00  0.00     0.057 A 
ATOM     83  C   UNL A   1      43.915  26.284  34.684  1.00  0.00     0.134 A 
ATOM     84  C   UNL A   1      45.432  28.035  34.069  1.00  0.00     0.134 A 
ATOM     85  F   UNL A   1      42.683  25.757  34.743  1.00  0.00    -0.206 F 
ATOM     86  C   UNL A   1      44.965  25.570  35.264  1.00  0.00     0.040 A 
ATOM     87  C   UNL A   1      46.494  27.319  34.624  1.00  0.00     0.040 A 
ATOM     88  F   UNL A   1      45.700  29.221  33.504  1.00  0.00    -0.206 F 
ATOM     89  C   UNL A   1      46.259  26.086  35.229  1.00  0.00     0.006 A 
ENDBRANCH  65  82
ENDBRANCH  39  40
ENDBRANCH  32  34
ENDBRANCH  31  32
ENDBRANCH  30  31
ENDBRANCH  29  30
ENDBRANCH  28  29
ENDBRANCH   1  28
TORSDOF 18
ENDMDL
MODEL 2
REMARK VINA RESULT:     -11.3      4.536      9.055
REMARK SMILES CCc1ccc2[nH]c(C(=O)c3cc(C)ccn3)c(CC(=O)OCCOCCOC(=O)c3ccc(-c4c5nc(c(-c6c(F)cccc6F)c6ccc([nH]6)c(-c6c(F)cccc6F)c6nc(c(-c7c(F)cccc7F)c7ccc4[nH]7)C=C6)C=C5)cc3)c2c1
REMARK SMILES IDX 24 1 23 2 22 3 20 4 21 5 19 6 18 7 3 8 4 9 86 10 5 11 85 12
REMARK SMILES IDX 6 13 7 14 8 15 2 17 1 18 9 19 10 20 11 21 12 22 17 23 13 24
REMARK SMILES IDX 16 25 14 26 15 27 25 28 26 29 27 30 28 31 29 32 30 33 31 34
REMARK SMILES IDX 32 35 84 36 33 37 83 38 34 39 35 40 36 41 77 42 37 43 82 44
REMARK SMILES IDX 76 45 78 46 38 47 81 48 75 49 74 50 39 52 65 53 48 54 64 55
REMARK SMILES IDX 49 56 52 57 63 58 79 59 50 60 51 61 62 63 80 64 53 65 40 66
REMARK SMILES IDX 41 67 46 68 42 69 43 70 45 71 47 72 44 73 66 74 67 75 72 76
REMARK SMILES IDX 68 77 69 78 71 79 73 80 70 81 54 82 55 83 60 84 56 85 57 86
REMARK SMILES IDX 59 87 61 88 58 89
REMARK H PARENT 7 16 78 51 52 62
REMARK Flexibility Score: inf
ROOT
ATOM      1  C   UNL A   1      38.341  23.400  26.385  1.00  0.00     0.202 C 
ENDROOT
BRANCH   1   2
ATOM      2  C   UNL A   1      37.016  23.443  25.607  1.00  0.00     0.261 C 
BRANCH   2   3
ATOM      3  O   UNL A   1      35.841  23.475  26.446  1.00  0.00    -0.463 OA
BRANCH   3   4
ATOM      4  C   UNL A   1      34.734  24.016  25.861  1.00  0.00     0.310 C 
ATOM      5  O   UNL A   1      33.705  24.291  26.476  1.00  0.00    -0.252 OA
BRANCH   4   6
ATOM      6  C   UNL A   1      34.895  24.392  24.401  1.00  0.00     0.161 C 
BRANCH   6   7
ATOM      7  C   UNL A   1      33.957  23.766  23.404  1.00  0.00     0.000 A 
ATOM      8  C   UNL A   1      33.066  20.098  24.180  1.00  0.00    -0.048 A 
ATOM      9  C   UNL A   1      32.154  19.968  23.127  1.00  0.00     0.006 A 
ATOM     10  C   UNL A   1      33.770  21.313  24.325  1.00  0.00     0.014 A 
ATOM     11  C   UNL A   1      31.927  21.009  22.217  1.00  0.00     0.027 A 
ATOM     12  C   UNL A   1      33.522  22.396  23.451  1.00  0.00     0.004 A 
ATOM     13  C   UNL A   1      32.609  22.212  22.421  1.00  0.00     0.046 A 
ATOM     14  N   UNL A   1      32.533  23.398  21.736  1.00  0.00    -0.352 N 
ATOM     15  C   UNL A   1      33.199  24.401  22.411  1.00  0.00     0.093 A 
ATOM     16  H   UNL A   1      32.065  23.518  20.878  1.00  0.00     0.167 HD
BRANCH   8  17
ATOM     17  C   UNL A   1      33.268  19.030  25.234  1.00  0.00     0.032 C 
ATOM     18  C   UNL A   1      32.924  17.598  24.840  1.00  0.00     0.009 C 
ENDBRANCH   8  17
BRANCH  15  19
ATOM     19  C   UNL A   1      33.071  25.827  22.104  1.00  0.00     0.227 C 
ATOM     20  O   UNL A   1      33.681  26.382  21.192  1.00  0.00    -0.285 OA
BRANCH  19  21
ATOM     21  C   UNL A   1      32.126  26.660  22.910  1.00  0.00     0.113 A 
ATOM     22  C   UNL A   1      32.297  26.841  24.275  1.00  0.00     0.036 A 
ATOM     23  N   UNL A   1      31.082  27.175  22.215  1.00  0.00    -0.253 NA
ATOM     24  C   UNL A   1      31.325  27.578  24.964  1.00  0.00    -0.047 A 
ATOM     25  C   UNL A   1      30.157  27.872  22.895  1.00  0.00     0.112 A 
ATOM     26  C   UNL A   1      31.424  27.830  26.438  1.00  0.00     0.044 C 
ATOM     27  C   UNL A   1      30.232  28.093  24.256  1.00  0.00     0.023 A 
ENDBRANCH  19  21
ENDBRANCH  15  19
ENDBRANCH   6   7
ENDBRANCH   4   6
ENDBRANCH   3   4
ENDBRANCH   2   3
ENDBRANCH   1   2
BRANCH   1  28
ATOM     28  O   UNL A   1      39.061  22.167  26.396  1.00  0.00    -0.374 OA
BRANCH  28  29
ATOM     29  C   UNL A   1      38.642  21.163  25.478  1.00  0.00     0.202 C 
BRANCH  29  30
ATOM     30  C   UNL A   1      39.390  19.830  25.518  1.00  0.00     0.261 C 
BRANCH  30  31
ATOM     31  O   UNL A   1      40.409  19.741  26.514  1.00  0.00    -0.460 OA
BRANCH  31  32
ATOM     32  C   UNL A   1      41.665  19.847  26.040  1.00  0.00     0.338 C 
ATOM     33  O   UNL A   1      42.265  19.100  25.281  1.00  0.00    -0.246 OA
BRANCH  32  34
ATOM     34  C   UNL A   1      42.238  21.092  26.553  1.00  0.00     0.060 A 
ATOM     35  C   UNL A   1      42.267  21.298  27.935  1.00  0.00     0.016 A 
ATOM     36  C   UNL A   1      42.651  22.081  25.659  1.00  0.00     0.016 A 
ATOM     37  C   UNL A   1      42.665  22.538  28.427  1.00  0.00     0.010 A 
ATOM     38  C   UNL A   1      43.060  23.318  26.156  1.00  0.00     0.010 A 
ATOM     39  C   UNL A   1      43.028  23.562  27.539  1.00  0.00    -0.014 A 
BRANCH  39  40
ATOM     40  C   UNL A   1      43.251  24.927  28.065  1.00  0.00     0.031 A 
ATOM     41  C   UNL A   1      44.659  25.403  28.289  1.00  0.00     0.074 A 
ATOM     42  C   UNL A   1      42.205  25.742  28.285  1.00  0.00     0.049 A 
ATOM     43  N   UNL A   1      45.084  26.570  28.697  1.00  0.00    -0.248 NA
ATOM     44  C   UNL A   1      45.734  24.433  28.014  1.00  0.00     0.031 C 
ATOM     45  C   UNL A   1      40.801  25.386  28.083  1.00  0.00     0.029 A 
ATOM     46  N   UNL A   1      42.165  27.042  28.717  1.00  0.00    -0.354 N 
ATOM     47  C   UNL A   1      46.471  26.482  28.714  1.00  0.00     0.074 A 
ATOM     48  C   UNL A   1      46.817  25.134  28.319  1.00  0.00     0.031 C 
ATOM     49  C   UNL A   1      40.034  26.447  28.386  1.00  0.00     0.029 A 
ATOM     50  C   UNL A   1      40.892  27.547  28.819  1.00  0.00     0.049 A 
ATOM     51  H   UNL A   1      42.971  27.565  28.934  1.00  0.00     0.167 HD
ATOM     52  C   UNL A   1      47.373  27.445  29.016  1.00  0.00     0.037 A 
ATOM     53  C   UNL A   1      40.473  28.761  29.223  1.00  0.00     0.037 A 
ATOM     54  C   UNL A   1      47.020  28.781  29.414  1.00  0.00     0.049 A 
ATOM     55  C   UNL A   1      41.497  29.795  29.604  1.00  0.00     0.074 A 
ATOM     56  C   UNL A   1      47.854  29.833  29.748  1.00  0.00     0.029 A 
ATOM     57  N   UNL A   1      45.719  29.248  29.533  1.00  0.00    -0.354 N 
ATOM     58  N   UNL A   1      42.806  29.708  29.592  1.00  0.00    -0.248 NA
ATOM     59  C   UNL A   1      40.986  31.099  30.048  1.00  0.00     0.031 C 
ATOM     60  C   UNL A   1      47.057  30.927  30.101  1.00  0.00     0.029 A 
ATOM     61  C   UNL A   1      45.727  30.568  29.949  1.00  0.00     0.049 A 
ATOM     62  H   UNL A   1      44.910  28.718  29.349  1.00  0.00     0.167 HD
ATOM     63  C   UNL A   1      43.274  30.950  29.999  1.00  0.00     0.074 A 
ATOM     64  C   UNL A   1      42.110  31.778  30.236  1.00  0.00     0.031 C 
ATOM     65  C   UNL A   1      44.552  31.371  30.168  1.00  0.00     0.037 A 
BRANCH  52  66
ATOM     66  C   UNL A   1      48.826  27.085  28.930  1.00  0.00     0.057 A 
ATOM     67  C   UNL A   1      49.511  26.532  30.020  1.00  0.00     0.134 A 
ATOM     68  C   UNL A   1      49.539  27.252  27.737  1.00  0.00     0.134 A 
ATOM     69  F   UNL A   1      48.889  26.360  31.197  1.00  0.00    -0.206 F 
ATOM     70  C   UNL A   1      50.856  26.170  29.930  1.00  0.00     0.040 A 
ATOM     71  C   UNL A   1      50.879  26.875  27.628  1.00  0.00     0.040 A 
ATOM     72  F   UNL A   1      48.943  27.775  26.654  1.00  0.00    -0.206 F 
ATOM     73  C   UNL A   1      51.542  26.335  28.729  1.00  0.00     0.006 A 
ENDBRANCH  52  66
BRANCH  53  74
ATOM     74  C   UNL A   1      39.022  29.069  29.286  1.00  0.00     0.057 A 
ATOM     75  C   UNL A   1      38.327  29.535  28.164  1.00  0.00     0.134 A 
ATOM     76  C   UNL A   1      38.302  28.934  30.479  1.00  0.00     0.134 A 
ATOM     77  F   UNL A   1      38.967  29.705  26.997  1.00  0.00    -0.206 F 
ATOM     78  C   UNL A   1      36.975  29.875  28.230  1.00  0.00     0.040 A 
ATOM     79  C   UNL A   1      36.944  29.246  30.554  1.00  0.00     0.040 A 
ATOM     80  F   UNL A   1      38.908  28.490  31.590  1.00  0.00    -0.206 F 
ATOM     81  C   UNL A   1      36.279  29.728  29.428  1.00  0.00     0.006 A 
ENDBRANCH  53  74
BRANCH  65  82
ATOM     82  C   UNL A   1      44.750  32.793  30.596  1.00  0.00     0.057 A 
ATOM     83  C   UNL A   1      44.862  33.146  31.947  1.00  0.00     0.134 A 
ATOM     84  C   UNL A   1      44.856  33.816  29.645  1.00  0.00     0.134 A 
ATOM     85  F   UNL A   1      44.755  32.213  32.905  1.00  0.00    -0.206 F 
ATOM     86  C   UNL A   1      45.048  34.473  32.338  1.00  0.00     0.040 A 
ATOM     87  C   UNL A   1      45.067  35.142  30.024  1.00  0.00     0.040 A 
ATOM     88  F   UNL A   1      44.766  33.541  28.336  1.00  0.00    -0.206 F 
ATOM     89  C   UNL A   1      45.157  35.473  31.374  1.00  0.00     0.006 A 
ENDBRANCH  65  82
ENDBRANCH  39  40
ENDBRANCH  32  34
ENDBRANCH  31  32
ENDBRANCH  30  31
ENDBRANCH  29  30
ENDBRANCH  28  29
ENDBRANCH   1  28
TORSDOF 18
ENDMDL
MODEL 3
REMARK VINA RESULT:     -11.3      4.923      9.797
REMARK SMILES CCc1ccc2[nH]c(C(=O)c3cc(C)ccn3)c(CC(=O)OCCOCCOC(=O)c3ccc(-c4c5nc(c(-c6c(F)cccc6F)c6ccc([nH]6)c(-c6c(F)cccc6F)c6nc(c(-c7c(F)cccc7F)c7ccc4[nH]7)C=C6)C=C5)cc3)c2c1
REMARK SMILES IDX 24 1 23 2 22 3 20 4 21 5 19 6 18 7 3 8 4 9 86 10 5 11 85 12
REMARK SMILES IDX 6 13 7 14 8 15 2 17 1 18 9 19 10 20 11 21 12 22 17 23 13 24
REMARK SMILES IDX 16 25 14 26 15 27 25 28 26 29 27 30 28 31 29 32 30 33 31 34
REMARK SMILES IDX 32 35 84 36 33 37 83 38 34 39 35 40 36 41 77 42 37 43 82 44
REMARK SMILES IDX 76 45 78 46 38 47 81 48 75 49 74 50 39 52 65 53 48 54 64 55
REMARK SMILES IDX 49 56 52 57 63 58 79 59 50 60 51 61 62 63 80 64 53 65 40 66
REMARK SMILES IDX 41 67 46 68 42 69 43 70 45 71 47 72 44 73 66 74 67 75 72 76
REMARK SMILES IDX 68 77 69 78 71 79 73 80 70 81 54 82 55 83 60 84 56 85 57 86
REMARK SMILES IDX 59 87 61 88 58 89
REMARK H PARENT 7 16 78 51 52 62
REMARK Flexibility Score: inf
ROOT
ATOM      1  C   UNL A   1      38.382  23.566  26.446  1.00  0.00     0.202 C 
ENDROOT
BRANCH   1   2
ATOM      2  C   UNL A   1      36.933  23.560  25.935  1.00  0.00     0.261 C 
BRANCH   2   3
ATOM      3  O   UNL A   1      36.804  23.836  24.524  1.00  0.00    -0.463 OA
BRANCH   3   4
ATOM      4  C   UNL A   1      35.755  23.217  23.912  1.00  0.00     0.310 C 
ATOM      5  O   UNL A   1      35.630  23.134  22.691  1.00  0.00    -0.252 OA
BRANCH   4   6
ATOM      6  C   UNL A   1      34.795  22.502  24.844  1.00  0.00     0.161 C 
BRANCH   6   7
ATOM      7  C   UNL A   1      33.360  22.953  24.860  1.00  0.00     0.000 A 
ATOM      8  C   UNL A   1      32.861  26.556  26.132  1.00  0.00    -0.048 A 
ATOM      9  C   UNL A   1      31.484  26.582  25.890  1.00  0.00     0.006 A 
ATOM     10  C   UNL A   1      33.575  25.366  25.877  1.00  0.00     0.014 A 
ATOM     11  C   UNL A   1      30.800  25.460  25.405  1.00  0.00     0.027 A 
ATOM     12  C   UNL A   1      32.918  24.234  25.341  1.00  0.00     0.004 A 
ATOM     13  C   UNL A   1      31.549  24.314  25.122  1.00  0.00     0.046 A 
ATOM     14  N   UNL A   1      31.158  23.113  24.587  1.00  0.00    -0.352 N 
ATOM     15  C   UNL A   1      32.253  22.341  24.254  1.00  0.00     0.093 A 
ATOM     16  H   UNL A   1      30.221  22.838  24.456  1.00  0.00     0.167 HD
BRANCH   8  17
ATOM     17  C   UNL A   1      33.647  27.775  26.567  1.00  0.00     0.032 C 
ATOM     18  C   UNL A   1      33.307  29.094  25.882  1.00  0.00     0.009 C 
ENDBRANCH   8  17
BRANCH  15  19
ATOM     19  C   UNL A   1      32.193  21.144  23.414  1.00  0.00     0.227 C 
ATOM     20  O   UNL A   1      31.846  21.159  22.235  1.00  0.00    -0.285 OA
BRANCH  19  21
ATOM     21  C   UNL A   1      32.605  19.829  23.995  1.00  0.00     0.113 A 
ATOM     22  C   UNL A   1      33.200  18.843  23.220  1.00  0.00     0.036 A 
ATOM     23  N   UNL A   1      32.309  19.667  25.308  1.00  0.00    -0.253 NA
ATOM     24  C   UNL A   1      33.487  17.616  23.830  1.00  0.00    -0.047 A 
ATOM     25  C   UNL A   1      32.586  18.479  25.873  1.00  0.00     0.112 A 
ATOM     26  C   UNL A   1      34.132  16.493  23.076  1.00  0.00     0.044 C 
ATOM     27  C   UNL A   1      33.163  17.433  25.181  1.00  0.00     0.023 A 
ENDBRANCH  19  21
ENDBRANCH  15  19
ENDBRANCH   6   7
ENDBRANCH   4   6
ENDBRANCH   3   4
ENDBRANCH   2   3
ENDBRANCH   1   2
BRANCH   1  28
ATOM     28  O   UNL A   1      39.213  22.463  26.090  1.00  0.00    -0.374 OA
BRANCH  28  29
ATOM     29  C   UNL A   1      38.561  21.263  25.688  1.00  0.00     0.202 C 
BRANCH  29  30
ATOM     30  C   UNL A   1      39.451  20.053  25.394  1.00  0.00     0.261 C 
BRANCH  30  31
ATOM     31  O   UNL A   1      40.415  19.755  26.404  1.00  0.00    -0.460 OA
BRANCH  31  32
ATOM     32  C   UNL A   1      41.695  19.876  26.007  1.00  0.00     0.338 C 
ATOM     33  O   UNL A   1      42.341  19.149  25.265  1.00  0.00    -0.246 OA
BRANCH  32  34
ATOM     34  C   UNL A   1      42.234  21.107  26.585  1.00  0.00     0.060 A 
ATOM     35  C   UNL A   1      42.118  21.310  27.962  1.00  0.00     0.016 A 
ATOM     36  C   UNL A   1      42.762  22.090  25.745  1.00  0.00     0.016 A 
ATOM     37  C   UNL A   1      42.484  22.540  28.500  1.00  0.00     0.010 A 
ATOM     38  C   UNL A   1      43.139  23.317  26.289  1.00  0.00     0.010 A 
ATOM     39  C   UNL A   1      42.963  23.559  27.662  1.00  0.00    -0.014 A 
BRANCH  39  40
ATOM     40  C   UNL A   1      43.154  24.918  28.214  1.00  0.00     0.031 A 
ATOM     41  C   UNL A   1      44.544  25.378  28.555  1.00  0.00     0.074 A 
ATOM     42  C   UNL A   1      42.102  25.741  28.357  1.00  0.00     0.049 A 
ATOM     43  N   UNL A   1      44.945  26.539  29.005  1.00  0.00    -0.248 NA
ATOM     44  C   UNL A   1      45.629  24.401  28.360  1.00  0.00     0.031 C 
ATOM     45  C   UNL A   1      40.715  25.399  28.040  1.00  0.00     0.029 A 
ATOM     46  N   UNL A   1      42.038  27.038  28.795  1.00  0.00    -0.354 N 
ATOM     47  C   UNL A   1      46.325  26.437  29.134  1.00  0.00     0.074 A 
ATOM     48  C   UNL A   1      46.690  25.089  28.757  1.00  0.00     0.031 C 
ATOM     49  C   UNL A   1      39.936  26.465  28.288  1.00  0.00     0.029 A 
ATOM     50  C   UNL A   1      40.766  27.554  28.798  1.00  0.00     0.049 A 
ATOM     51  H   UNL A   1      42.829  27.551  29.079  1.00  0.00     0.167 HD
ATOM     52  C   UNL A   1      47.209  27.389  29.514  1.00  0.00     0.037 A 
ATOM     53  C   UNL A   1      40.326  28.769  29.177  1.00  0.00     0.037 A 
ATOM     54  C   UNL A   1      46.836  28.726  29.893  1.00  0.00     0.049 A 
ATOM     55  C   UNL A   1      41.325  29.791  29.647  1.00  0.00     0.074 A 
ATOM     56  C   UNL A   1      47.650  29.767  30.302  1.00  0.00     0.029 A 
ATOM     57  N   UNL A   1      45.534  29.204  29.911  1.00  0.00    -0.354 N 
ATOM     58  N   UNL A   1      42.630  29.691  29.740  1.00  0.00    -0.248 NA
ATOM     59  C   UNL A   1      40.792  31.096  30.059  1.00  0.00     0.031 C 
ATOM     60  C   UNL A   1      46.837  30.866  30.599  1.00  0.00     0.029 A 
ATOM     61  C   UNL A   1      45.521  30.521  30.337  1.00  0.00     0.049 A 
ATOM     62  H   UNL A   1      44.738  28.683  29.658  1.00  0.00     0.167 HD
ATOM     63  C   UNL A   1      43.075  30.926  30.193  1.00  0.00     0.074 A 
ATOM     64  C   UNL A   1      41.903  31.763  30.342  1.00  0.00     0.031 C 
ATOM     65  C   UNL A   1      44.339  31.333  30.467  1.00  0.00     0.037 A 
BRANCH  52  66
ATOM     66  C   UNL A   1      48.661  27.016  29.543  1.00  0.00     0.057 A 
ATOM     67  C   UNL A   1      49.498  27.239  28.442  1.00  0.00     0.134 A 
ATOM     68  C   UNL A   1      49.239  26.468  30.694  1.00  0.00     0.134 A 
ATOM     69  F   UNL A   1      49.002  27.748  27.303  1.00  0.00    -0.206 F 
ATOM     70  C   UNL A   1      50.856  26.918  28.480  1.00  0.00     0.040 A 
ATOM     71  C   UNL A   1      50.600  26.162  30.752  1.00  0.00     0.040 A 
ATOM     72  F   UNL A   1      48.494  26.229  31.784  1.00  0.00    -0.206 F 
ATOM     73  C   UNL A   1      51.412  26.384  29.641  1.00  0.00     0.006 A 
ENDBRANCH  52  66
BRANCH  53  74
ATOM     74  C   UNL A   1      38.878  29.090  29.125  1.00  0.00     0.057 A 
ATOM     75  C   UNL A   1      38.276  29.554  27.949  1.00  0.00     0.134 A 
ATOM     76  C   UNL A   1      38.066  28.970  30.260  1.00  0.00     0.134 A 
ATOM     77  F   UNL A   1      39.005  29.710  26.834  1.00  0.00    -0.206 F 
ATOM     78  C   UNL A   1      36.926  29.906  27.908  1.00  0.00     0.040 A 
ATOM     79  C   UNL A   1      36.710  29.295  30.227  1.00  0.00     0.040 A 
ATOM     80  F   UNL A   1      38.581  28.529  31.417  1.00  0.00    -0.206 F 
ATOM     81  C   UNL A   1      36.138  29.774  29.050  1.00  0.00     0.006 A 
ENDBRANCH  53  74
BRANCH  65  82
ATOM     82  C   UNL A   1      44.514  32.751  30.922  1.00  0.00     0.057 A 
ATOM     83  C   UNL A   1      44.692  33.799  30.010  1.00  0.00     0.134 A 
ATOM     84  C   UNL A   1      44.477  33.071  32.284  1.00  0.00     0.134 A 
ATOM     85  F   UNL A   1      44.749  33.553  28.693  1.00  0.00    -0.206 F 
ATOM     86  C   UNL A   1      44.851  35.117  30.441  1.00  0.00     0.040 A 
ATOM     87  C   UNL A   1      44.610  34.389  32.725  1.00  0.00     0.040 A 
ATOM     88  F   UNL A   1      44.300  32.114  33.206  1.00  0.00    -0.206 F 
ATOM     89  C   UNL A   1      44.804  35.414  31.802  1.00  0.00     0.006 A 
ENDBRANCH  65  82
ENDBRANCH  39  40
ENDBRANCH  32  34
ENDBRANCH  31  32
ENDBRANCH  30  31
ENDBRANCH  29  30
ENDBRANCH  28  29
ENDBRANCH   1  28
TORSDOF 18
ENDMDL
