MODEL 1
REMARK VINA RESULT:      -9.7      0.000      0.000
REMARK SMILES Cc1c(Cl)cc2c(c1C)O[C@H](C(F)(F)F)C(C(=O)OCCOCCOC(=O)c1ccc(-c3c4nc(c(-c5c(F)cccc5F)c5ccc([nH]5)c(-c5c(F)cccc5F)c5nc(c(-c6c(F)cccc6F)c6ccc3[nH]6)C=C5)C=C4)cc1)=C2
REMARK SMILES IDX 23 1 22 2 21 3 20 4 19 5 17 6 18 7 16 8 1 9 2 10 3 11 8 12
REMARK SMILES IDX 4 13 5 14 7 15 9 16 6 17 10 18 82 19 11 20 12 21 13 22 14 23
REMARK SMILES IDX 15 24 24 25 25 26 26 27 27 28 28 29 29 30 81 31 30 32 80 33
REMARK SMILES IDX 31 34 32 35 33 36 74 37 34 38 79 39 73 40 75 41 35 42 78 43
REMARK SMILES IDX 72 44 71 45 36 47 62 48 45 49 61 50 46 51 49 52 60 53 76 54
REMARK SMILES IDX 47 55 48 56 59 58 77 59 50 60 37 61 38 62 43 63 39 64 40 65
REMARK SMILES IDX 42 66 44 67 41 68 63 69 64 70 69 71 65 72 66 73 68 74 70 75
REMARK SMILES IDX 67 76 51 77 52 78 57 79 53 80 54 81 56 82 58 83 55 84
REMARK H PARENT 75 46 49 57
REMARK Flexibility Score: inf
ROOT
ATOM      1  C   UNL A   1      33.229  37.265  31.610  1.00  0.00     0.202 C 
ENDROOT
BRANCH   1   2
ATOM      2  O   UNL A   1      34.341  37.064  32.483  1.00  0.00    -0.374 OA
BRANCH   2   3
ATOM      3  C   UNL A   1      34.172  36.178  33.586  1.00  0.00     0.202 C 
BRANCH   3   4
ATOM      4  C   UNL A   1      34.880  34.824  33.491  1.00  0.00     0.261 C 
BRANCH   4   5
ATOM      5  O   UNL A   1      36.178  34.864  34.107  1.00  0.00    -0.460 OA
BRANCH   5   6
ATOM      6  C   UNL A   1      36.371  33.935  35.072  1.00  0.00     0.338 C 
ATOM      7  O   UNL A   1      35.670  33.742  36.052  1.00  0.00    -0.246 OA
BRANCH   6   8
ATOM      8  C   UNL A   1      37.517  33.077  34.721  1.00  0.00     0.087 C 
ATOM      9  C   UNL A   1      41.225  27.898  33.457  1.00  0.00     0.046 C 
ATOM     10  C   UNL A   1      40.224  29.027  33.481  1.00  0.00    -0.026 A 
ATOM     11  C   UNL A   1      38.962  28.892  32.872  1.00  0.00     0.045 A 
ATOM     12  C   UNL A   1      40.545  30.255  34.119  1.00  0.00    -0.004 A 
ATOM     13  Cl  UNL A   1      38.505  27.486  31.973  1.00  0.00    -0.084 Cl
ATOM     14  C   UNL A   1      38.004  29.900  32.980  1.00  0.00     0.032 A 
ATOM     15  C   UNL A   1      39.560  31.261  34.226  1.00  0.00     0.131 A 
ATOM     16  C   UNL A   1      41.895  30.511  34.743  1.00  0.00     0.049 C 
ATOM     17  C   UNL A   1      38.286  31.065  33.692  1.00  0.00     0.019 A 
ATOM     18  O   UNL A   1      39.916  32.417  34.867  1.00  0.00    -0.475 OA
ATOM     19  C   UNL A   1      37.233  32.032  33.936  1.00  0.00     0.027 C 
ATOM     20  C   UNL A   1      38.887  33.366  35.265  1.00  0.00     0.316 C 
BRANCH  20  21
ATOM     21  C   UNL A   1      38.908  33.486  36.796  1.00  0.00     0.430 C 
ATOM     22  F   UNL A   1      40.164  33.324  37.281  1.00  0.00    -0.167 F 
ATOM     23  F   UNL A   1      38.490  34.705  37.212  1.00  0.00    -0.167 F 
ATOM     24  F   UNL A   1      38.122  32.562  37.390  1.00  0.00    -0.167 F 
ENDBRANCH  20  21
ENDBRANCH   6   8
ENDBRANCH   5   6
ENDBRANCH   4   5
ENDBRANCH   3   4
ENDBRANCH   2   3
ENDBRANCH   1   2
BRANCH   1  25
ATOM     25  C   UNL A   1      33.277  36.564  30.246  1.00  0.00     0.261 C 
BRANCH  25  26
ATOM     26  O   UNL A   1      32.976  35.160  30.342  1.00  0.00    -0.460 OA
BRANCH  26  27
ATOM     27  C   UNL A   1      33.191  34.453  29.206  1.00  0.00     0.338 C 
ATOM     28  O   UNL A   1      32.532  34.483  28.176  1.00  0.00    -0.246 OA
BRANCH  27  29
ATOM     29  C   UNL A   1      34.475  33.739  29.298  1.00  0.00     0.060 A 
ATOM     30  C   UNL A   1      34.681  32.905  30.404  1.00  0.00     0.016 A 
ATOM     31  C   UNL A   1      35.490  33.938  28.360  1.00  0.00     0.016 A 
ATOM     32  C   UNL A   1      35.917  32.293  30.596  1.00  0.00     0.010 A 
ATOM     33  C   UNL A   1      36.734  33.331  28.559  1.00  0.00     0.010 A 
ATOM     34  C   UNL A   1      36.962  32.529  29.691  1.00  0.00    -0.014 A 
BRANCH  34  35
ATOM     35  C   UNL A   1      38.321  32.025  30.001  1.00  0.00     0.031 A 
ATOM     36  C   UNL A   1      38.746  30.683  29.473  1.00  0.00     0.074 A 
ATOM     37  C   UNL A   1      39.183  32.779  30.705  1.00  0.00     0.049 A 
ATOM     38  N   UNL A   1      39.887  30.060  29.617  1.00  0.00    -0.248 NA
ATOM     39  C   UNL A   1      37.755  29.947  28.669  1.00  0.00     0.031 C 
ATOM     40  C   UNL A   1      38.902  34.114  31.230  1.00  0.00     0.029 A 
ATOM     41  N   UNL A   1      40.476  32.530  31.092  1.00  0.00    -0.354 N 
ATOM     42  C   UNL A   1      39.757  28.868  28.917  1.00  0.00     0.074 A 
ATOM     43  C   UNL A   1      38.413  28.834  28.380  1.00  0.00     0.031 C 
ATOM     44  C   UNL A   1      39.994  34.571  31.866  1.00  0.00     0.029 A 
ATOM     45  C   UNL A   1      41.039  33.551  31.818  1.00  0.00     0.049 A 
ATOM     46  H   UNL A   1      40.954  31.698  30.870  1.00  0.00     0.167 HD
ATOM     47  C   UNL A   1      40.681  27.898  28.724  1.00  0.00     0.037 A 
ATOM     48  C   UNL A   1      42.258  33.646  32.384  1.00  0.00     0.037 A 
ATOM     49  C   UNL A   1      42.015  27.932  29.261  1.00  0.00     0.049 A 
ATOM     50  C   UNL A   1      43.236  32.511  32.233  1.00  0.00     0.074 A 
ATOM     51  C   UNL A   1      43.022  26.991  29.123  1.00  0.00     0.029 A 
ATOM     52  N   UNL A   1      42.528  28.957  30.039  1.00  0.00    -0.354 N 
ATOM     53  N   UNL A   1      43.106  31.394  31.560  1.00  0.00    -0.248 NA
ATOM     54  C   UNL A   1      44.529  32.650  32.918  1.00  0.00     0.031 C 
ATOM     55  C   UNL A   1      44.131  27.428  29.853  1.00  0.00     0.029 A 
ATOM     56  C   UNL A   1      43.831  28.663  30.405  1.00  0.00     0.049 A 
ATOM     57  H   UNL A   1      42.040  29.773  30.293  1.00  0.00     0.167 HD
ATOM     58  C   UNL A   1      44.307  30.712  31.715  1.00  0.00     0.074 A 
ATOM     59  C   UNL A   1      45.157  31.544  32.541  1.00  0.00     0.031 C 
ATOM     60  C   UNL A   1      44.672  29.507  31.214  1.00  0.00     0.037 A 
BRANCH  47  61
ATOM     61  C   UNL A   1      40.288  26.712  27.895  1.00  0.00     0.057 A 
ATOM     62  C   UNL A   1      40.760  26.543  26.588  1.00  0.00     0.134 A 
ATOM     63  C   UNL A   1      39.492  25.693  28.433  1.00  0.00     0.134 A 
ATOM     64  F   UNL A   1      41.515  27.490  26.011  1.00  0.00    -0.206 F 
ATOM     65  C   UNL A   1      40.449  25.406  25.841  1.00  0.00     0.040 A 
ATOM     66  C   UNL A   1      39.193  24.539  27.706  1.00  0.00     0.040 A 
ATOM     67  F   UNL A   1      39.013  25.791  29.683  1.00  0.00    -0.206 F 
ATOM     68  C   UNL A   1      39.672  24.395  26.404  1.00  0.00     0.006 A 
ENDBRANCH  47  61
BRANCH  48  69
ATOM     69  C   UNL A   1      42.630  34.869  33.140  1.00  0.00     0.057 A 
ATOM     70  C   UNL A   1      43.059  36.024  32.477  1.00  0.00     0.134 A 
ATOM     71  C   UNL A   1      42.570  34.912  34.539  1.00  0.00     0.134 A 
ATOM     72  F   UNL A   1      43.158  36.037  31.140  1.00  0.00    -0.206 F 
ATOM     73  C   UNL A   1      43.423  37.176  33.176  1.00  0.00     0.040 A 
ATOM     74  C   UNL A   1      42.908  36.064  35.249  1.00  0.00     0.040 A 
ATOM     75  F   UNL A   1      42.168  33.837  35.233  1.00  0.00    -0.206 F 
ATOM     76  C   UNL A   1      43.342  37.200  34.567  1.00  0.00     0.006 A 
ENDBRANCH  48  69
BRANCH  60  77
ATOM     77  C   UNL A   1      46.058  29.016  31.510  1.00  0.00     0.057 A 
ATOM     78  C   UNL A   1      47.149  29.361  30.704  1.00  0.00     0.134 A 
ATOM     79  C   UNL A   1      46.315  28.267  32.665  1.00  0.00     0.134 A 
ATOM     80  F   UNL A   1      46.968  30.070  29.580  1.00  0.00    -0.206 F 
ATOM     81  C   UNL A   1      48.449  28.975  31.037  1.00  0.00     0.040 A 
ATOM     82  C   UNL A   1      47.613  27.895  33.020  1.00  0.00     0.040 A 
ATOM     83  F   UNL A   1      45.314  27.913  33.486  1.00  0.00    -0.206 F 
ATOM     84  C   UNL A   1      48.684  28.249  32.203  1.00  0.00     0.006 A 
ENDBRANCH  60  77
ENDBRANCH  34  35
ENDBRANCH  27  29
ENDBRANCH  26  27
ENDBRANCH  25  26
ENDBRANCH   1  25
TORSDOF 15
ENDMDL
MODEL 2
REMARK VINA RESULT:      -9.6      0.349      6.285
REMARK SMILES Cc1c(Cl)cc2c(c1C)O[C@H](C(F)(F)F)C(C(=O)OCCOCCOC(=O)c1ccc(-c3c4nc(c(-c5c(F)cccc5F)c5ccc([nH]5)c(-c5c(F)cccc5F)c5nc(c(-c6c(F)cccc6F)c6ccc3[nH]6)C=C5)C=C4)cc1)=C2
REMARK SMILES IDX 23 1 22 2 21 3 20 4 19 5 17 6 18 7 16 8 1 9 2 10 3 11 8 12
REMARK SMILES IDX 4 13 5 14 7 15 9 16 6 17 10 18 82 19 11 20 12 21 13 22 14 23
REMARK SMILES IDX 15 24 24 25 25 26 26 27 27 28 28 29 29 30 81 31 30 32 80 33
REMARK SMILES IDX 31 34 32 35 33 36 74 37 34 38 79 39 73 40 75 41 35 42 78 43
REMARK SMILES IDX 72 44 71 45 36 47 62 48 45 49 61 50 46 51 49 52 60 53 76 54
REMARK SMILES IDX 47 55 48 56 59 58 77 59 50 60 37 61 38 62 43 63 39 64 40 65
REMARK SMILES IDX 42 66 44 67 41 68 63 69 64 70 69 71 65 72 66 73 68 74 70 75
REMARK SMILES IDX 67 76 51 77 52 78 57 79 53 80 54 81 56 82 58 83 55 84
REMARK H PARENT 75 46 49 57
REMARK Flexibility Score: inf
ROOT
ATOM      1  C   UNL A   1      32.937  36.673  31.297  1.00  0.00     0.202 C 
ENDROOT
BRANCH   1   2
ATOM      2  O   UNL A   1      34.156  36.797  32.030  1.00  0.00    -0.374 OA
BRANCH   2   3
ATOM      3  C   UNL A   1      34.178  36.325  33.375  1.00  0.00     0.202 C 
BRANCH   3   4
ATOM      4  C   UNL A   1      34.682  34.895  33.590  1.00  0.00     0.261 C 
BRANCH   4   5
ATOM      5  O   UNL A   1      36.023  34.882  34.104  1.00  0.00    -0.460 OA
BRANCH   5   6
ATOM      6  C   UNL A   1      36.233  33.993  35.103  1.00  0.00     0.338 C 
ATOM      7  O   UNL A   1      35.548  33.839  36.101  1.00  0.00    -0.246 OA
BRANCH   6   8
ATOM      8  C   UNL A   1      37.374  33.122  34.769  1.00  0.00     0.087 C 
ATOM      9  C   UNL A   1      41.016  27.909  33.450  1.00  0.00     0.046 C 
ATOM     10  C   UNL A   1      40.042  29.061  33.478  1.00  0.00    -0.026 A 
ATOM     11  C   UNL A   1      38.807  28.986  32.805  1.00  0.00     0.045 A 
ATOM     12  C   UNL A   1      40.360  30.253  34.184  1.00  0.00    -0.004 A 
ATOM     13  Cl  UNL A   1      38.361  27.631  31.825  1.00  0.00    -0.084 Cl
ATOM     14  C   UNL A   1      37.869  30.012  32.913  1.00  0.00     0.032 A 
ATOM     15  C   UNL A   1      39.395  31.278  34.289  1.00  0.00     0.131 A 
ATOM     16  C   UNL A   1      41.685  30.447  34.881  1.00  0.00     0.049 C 
ATOM     17  C   UNL A   1      38.144  31.138  33.688  1.00  0.00     0.019 A 
ATOM     18  O   UNL A   1      39.748  32.396  34.997  1.00  0.00    -0.475 OA
ATOM     19  C   UNL A   1      37.103  32.119  33.926  1.00  0.00     0.027 C 
ATOM     20  C   UNL A   1      38.723  33.352  35.388  1.00  0.00     0.316 C 
BRANCH  20  21
ATOM     21  C   UNL A   1      38.674  33.405  36.922  1.00  0.00     0.430 C 
ATOM     22  F   UNL A   1      39.891  33.146  37.459  1.00  0.00    -0.167 F 
ATOM     23  F   UNL A   1      38.309  34.629  37.372  1.00  0.00    -0.167 F 
ATOM     24  F   UNL A   1      37.805  32.507  37.435  1.00  0.00    -0.167 F 
ENDBRANCH  20  21
ENDBRANCH   6   8
ENDBRANCH   5   6
ENDBRANCH   4   5
ENDBRANCH   3   4
ENDBRANCH   2   3
ENDBRANCH   1   2
BRANCH   1  25
ATOM     25  C   UNL A   1      33.037  36.143  29.861  1.00  0.00     0.261 C 
BRANCH  25  26
ATOM     26  O   UNL A   1      32.532  34.800  29.738  1.00  0.00    -0.460 OA
BRANCH  26  27
ATOM     27  C   UNL A   1      33.123  34.056  28.773  1.00  0.00     0.338 C 
ATOM     28  O   UNL A   1      32.705  33.830  27.646  1.00  0.00    -0.246 OA
BRANCH  27  29
ATOM     29  C   UNL A   1      34.480  33.673  29.199  1.00  0.00     0.060 A 
ATOM     30  C   UNL A   1      35.543  33.970  28.336  1.00  0.00     0.016 A 
ATOM     31  C   UNL A   1      34.703  32.970  30.385  1.00  0.00     0.016 A 
ATOM     32  C   UNL A   1      36.829  33.534  28.640  1.00  0.00     0.010 A 
ATOM     33  C   UNL A   1      35.994  32.524  30.684  1.00  0.00     0.010 A 
ATOM     34  C   UNL A   1      37.057  32.779  29.800  1.00  0.00    -0.014 A 
BRANCH  34  35
ATOM     35  C   UNL A   1      38.388  32.165  30.019  1.00  0.00     0.031 A 
ATOM     36  C   UNL A   1      39.397  32.881  30.872  1.00  0.00     0.074 A 
ATOM     37  C   UNL A   1      38.674  30.957  29.503  1.00  0.00     0.049 A 
ATOM     38  N   UNL A   1      40.611  32.519  31.198  1.00  0.00    -0.248 NA
ATOM     39  C   UNL A   1      38.982  34.176  31.438  1.00  0.00     0.031 C 
ATOM     40  C   UNL A   1      37.761  30.145  28.699  1.00  0.00     0.029 A 
ATOM     41  N   UNL A   1      39.815  30.198  29.586  1.00  0.00    -0.354 N 
ATOM     42  C   UNL A   1      41.101  33.531  32.013  1.00  0.00     0.074 A 
ATOM     43  C   UNL A   1      40.069  34.543  32.101  1.00  0.00     0.031 C 
ATOM     44  C   UNL A   1      38.376  28.997  28.368  1.00  0.00     0.029 A 
ATOM     45  C   UNL A   1      39.732  29.005  28.911  1.00  0.00     0.049 A 
ATOM     46  H   UNL A   1      40.616  30.483  30.083  1.00  0.00     0.167 HD
ATOM     47  C   UNL A   1      42.295  33.603  32.645  1.00  0.00     0.037 A 
ATOM     48  C   UNL A   1      40.652  28.033  28.746  1.00  0.00     0.037 A 
ATOM     49  C   UNL A   1      43.321  32.598  32.554  1.00  0.00     0.049 A 
ATOM     50  C   UNL A   1      42.008  28.180  29.384  1.00  0.00     0.074 A 
ATOM     51  C   UNL A   1      44.568  32.586  33.156  1.00  0.00     0.029 A 
ATOM     52  N   UNL A   1      43.221  31.431  31.813  1.00  0.00    -0.354 N 
ATOM     53  N   UNL A   1      42.455  29.137  30.161  1.00  0.00    -0.248 NA
ATOM     54  C   UNL A   1      42.986  27.114  29.123  1.00  0.00     0.031 C 
ATOM     55  C   UNL A   1      45.239  31.430  32.746  1.00  0.00     0.029 A 
ATOM     56  C   UNL A   1      44.391  30.700  31.928  1.00  0.00     0.049 A 
ATOM     57  H   UNL A   1      42.434  31.162  31.286  1.00  0.00     0.167 HD
ATOM     58  C   UNL A   1      43.751  28.774  30.506  1.00  0.00     0.074 A 
ATOM     59  C   UNL A   1      44.018  27.507  29.858  1.00  0.00     0.031 C 
ATOM     60  C   UNL A   1      44.638  29.432  31.291  1.00  0.00     0.037 A 
BRANCH  47  61
ATOM     61  C   UNL A   1      42.565  34.806  33.497  1.00  0.00     0.057 A 
ATOM     62  C   UNL A   1      42.480  34.749  34.894  1.00  0.00     0.134 A 
ATOM     63  C   UNL A   1      42.987  36.012  32.923  1.00  0.00     0.134 A 
ATOM     64  F   UNL A   1      42.069  33.627  35.504  1.00  0.00    -0.206 F 
ATOM     65  C   UNL A   1      42.798  35.850  35.690  1.00  0.00     0.040 A 
ATOM     66  C   UNL A   1      43.331  37.113  33.709  1.00  0.00     0.040 A 
ATOM     67  F   UNL A   1      43.096  36.130  31.591  1.00  0.00    -0.206 F 
ATOM     68  C   UNL A   1      43.235  37.034  35.097  1.00  0.00     0.006 A 
ENDBRANCH  47  61
BRANCH  48  69
ATOM     69  C   UNL A   1      40.318  26.825  27.949  1.00  0.00     0.057 A 
ATOM     70  C   UNL A   1      39.539  25.797  28.490  1.00  0.00     0.134 A 
ATOM     71  C   UNL A   1      40.770  26.668  26.633  1.00  0.00     0.134 A 
ATOM     72  F   UNL A   1      39.095  25.879  29.753  1.00  0.00    -0.206 F 
ATOM     73  C   UNL A   1      39.229  24.651  27.757  1.00  0.00     0.040 A 
ATOM     74  C   UNL A   1      40.447  25.539  25.879  1.00  0.00     0.040 A 
ATOM     75  F   UNL A   1      41.521  27.618  26.057  1.00  0.00    -0.206 F 
ATOM     76  C   UNL A   1      39.678  24.523  26.444  1.00  0.00     0.006 A 
ENDBRANCH  48  69
BRANCH  60  77
ATOM     77  C   UNL A   1      45.973  28.791  31.530  1.00  0.00     0.057 A 
ATOM     78  C   UNL A   1      46.149  27.796  32.498  1.00  0.00     0.134 A 
ATOM     79  C   UNL A   1      47.069  29.108  30.717  1.00  0.00     0.134 A 
ATOM     80  F   UNL A   1      45.141  27.453  33.314  1.00  0.00    -0.206 F 
ATOM     81  C   UNL A   1      47.373  27.141  32.653  1.00  0.00     0.040 A 
ATOM     82  C   UNL A   1      48.290  28.443  30.847  1.00  0.00     0.040 A 
ATOM     83  F   UNL A   1      46.963  30.045  29.762  1.00  0.00    -0.206 F 
ATOM     84  C   UNL A   1      48.444  27.457  31.818  1.00  0.00     0.006 A 
ENDBRANCH  60  77
ENDBRANCH  34  35
ENDBRANCH  27  29
ENDBRANCH  26  27
ENDBRANCH  25  26
ENDBRANCH   1  25
TORSDOF 15
ENDMDL
MODEL 3
REMARK VINA RESULT:      -8.7      4.310      9.622
REMARK SMILES Cc1c(Cl)cc2c(c1C)O[C@H](C(F)(F)F)C(C(=O)OCCOCCOC(=O)c1ccc(-c3c4nc(c(-c5c(F)cccc5F)c5ccc([nH]5)c(-c5c(F)cccc5F)c5nc(c(-c6c(F)cccc6F)c6ccc3[nH]6)C=C5)C=C4)cc1)=C2
REMARK SMILES IDX 23 1 22 2 21 3 20 4 19 5 17 6 18 7 16 8 1 9 2 10 3 11 8 12
REMARK SMILES IDX 4 13 5 14 7 15 9 16 6 17 10 18 82 19 11 20 12 21 13 22 14 23
REMARK SMILES IDX 15 24 24 25 25 26 26 27 27 28 28 29 29 30 81 31 30 32 80 33
REMARK SMILES IDX 31 34 32 35 33 36 74 37 34 38 79 39 73 40 75 41 35 42 78 43
REMARK SMILES IDX 72 44 71 45 36 47 62 48 45 49 61 50 46 51 49 52 60 53 76 54
REMARK SMILES IDX 47 55 48 56 59 58 77 59 50 60 37 61 38 62 43 63 39 64 40 65
REMARK SMILES IDX 42 66 44 67 41 68 63 69 64 70 69 71 65 72 66 73 68 74 70 75
REMARK SMILES IDX 67 76 51 77 52 78 57 79 53 80 54 81 56 82 58 83 55 84
REMARK H PARENT 75 46 49 57
REMARK Flexibility Score: inf
ROOT
ATOM      1  C   UNL A   1      31.740  31.150  26.774  1.00  0.00     0.202 C 
ENDROOT
BRANCH   1   2
ATOM      2  O   UNL A   1      31.522  30.537  25.504  1.00  0.00    -0.374 OA
BRANCH   2   3
ATOM      3  C   UNL A   1      32.475  29.578  25.053  1.00  0.00     0.202 C 
BRANCH   3   4
ATOM      4  C   UNL A   1      32.002  28.595  23.979  1.00  0.00     0.261 C 
BRANCH   4   5
ATOM      5  O   UNL A   1      32.580  27.293  24.166  1.00  0.00    -0.460 OA
BRANCH   5   6
ATOM      6  C   UNL A   1      31.820  26.440  24.891  1.00  0.00     0.338 C 
ATOM      7  O   UNL A   1      30.679  26.628  25.281  1.00  0.00    -0.246 OA
BRANCH   6   8
ATOM      8  C   UNL A   1      32.527  25.158  25.063  1.00  0.00     0.087 C 
ATOM      9  C   UNL A   1      37.104  20.551  25.040  1.00  0.00     0.046 C 
ATOM     10  C   UNL A   1      36.217  21.750  25.270  1.00  0.00    -0.026 A 
ATOM     11  C   UNL A   1      36.750  22.976  25.711  1.00  0.00     0.045 A 
ATOM     12  C   UNL A   1      34.816  21.658  25.048  1.00  0.00    -0.004 A 
ATOM     13  Cl  UNL A   1      38.421  23.173  26.117  1.00  0.00    -0.084 Cl
ATOM     14  C   UNL A   1      35.943  24.107  25.827  1.00  0.00     0.032 A 
ATOM     15  C   UNL A   1      34.016  22.815  25.163  1.00  0.00     0.131 A 
ATOM     16  C   UNL A   1      34.148  20.368  24.635  1.00  0.00     0.049 C 
ATOM     17  C   UNL A   1      34.587  24.039  25.514  1.00  0.00     0.019 A 
ATOM     18  O   UNL A   1      32.676  22.674  24.920  1.00  0.00    -0.475 OA
ATOM     19  C   UNL A   1      33.794  25.253  25.482  1.00  0.00     0.027 C 
ATOM     20  C   UNL A   1      31.849  23.858  24.738  1.00  0.00     0.316 C 
BRANCH  20  21
ATOM     21  C   UNL A   1      31.269  23.826  23.316  1.00  0.00     0.430 C 
ATOM     22  F   UNL A   1      31.250  22.563  22.825  1.00  0.00    -0.167 F 
ATOM     23  F   UNL A   1      29.990  24.270  23.284  1.00  0.00    -0.167 F 
ATOM     24  F   UNL A   1      31.985  24.584  22.458  1.00  0.00    -0.167 F 
ENDBRANCH  20  21
ENDBRANCH   6   8
ENDBRANCH   5   6
ENDBRANCH   4   5
ENDBRANCH   3   4
ENDBRANCH   2   3
ENDBRANCH   1   2
BRANCH   1  25
ATOM     25  C   UNL A   1      31.575  32.674  26.851  1.00  0.00     0.261 C 
BRANCH  25  26
ATOM     26  O   UNL A   1      32.838  33.363  26.803  1.00  0.00    -0.460 OA
BRANCH  26  27
ATOM     27  C   UNL A   1      33.282  33.822  27.997  1.00  0.00     0.338 C 
ATOM     28  O   UNL A   1      32.708  34.586  28.760  1.00  0.00    -0.246 OA
BRANCH  27  29
ATOM     29  C   UNL A   1      34.523  33.123  28.371  1.00  0.00     0.060 A 
ATOM     30  C   UNL A   1      34.417  31.798  28.813  1.00  0.00     0.016 A 
ATOM     31  C   UNL A   1      35.759  33.773  28.363  1.00  0.00     0.016 A 
ATOM     32  C   UNL A   1      35.544  31.128  29.281  1.00  0.00     0.010 A 
ATOM     33  C   UNL A   1      36.888  33.102  28.843  1.00  0.00     0.010 A 
ATOM     34  C   UNL A   1      36.781  31.787  29.330  1.00  0.00    -0.014 A 
BRANCH  34  35
ATOM     35  C   UNL A   1      37.930  31.131  29.998  1.00  0.00     0.031 A 
ATOM     36  C   UNL A   1      38.219  31.446  31.440  1.00  0.00     0.074 A 
ATOM     37  C   UNL A   1      38.676  30.227  29.341  1.00  0.00     0.049 A 
ATOM     38  N   UNL A   1      39.164  30.981  32.215  1.00  0.00    -0.248 NA
ATOM     39  C   UNL A   1      37.321  32.411  32.097  1.00  0.00     0.031 C 
ATOM     40  C   UNL A   1      38.464  29.805  27.957  1.00  0.00     0.029 A 
ATOM     41  N   UNL A   1      39.759  29.493  29.755  1.00  0.00    -0.354 N 
ATOM     42  C   UNL A   1      38.969  31.584  33.451  1.00  0.00     0.074 A 
ATOM     43  C   UNL A   1      37.841  32.480  33.314  1.00  0.00     0.031 C 
ATOM     44  C   UNL A   1      39.386  28.880  27.638  1.00  0.00     0.029 A 
ATOM     45  C   UNL A   1      40.268  28.667  28.783  1.00  0.00     0.049 A 
ATOM     46  H   UNL A   1      40.136  29.555  30.663  1.00  0.00     0.167 HD
ATOM     47  C   UNL A   1      39.657  31.393  34.601  1.00  0.00     0.037 A 
ATOM     48  C   UNL A   1      41.330  27.838  28.814  1.00  0.00     0.037 A 
ATOM     49  C   UNL A   1      40.780  30.504  34.735  1.00  0.00     0.049 A 
ATOM     50  C   UNL A   1      42.136  27.714  30.080  1.00  0.00     0.074 A 
ATOM     51  C   UNL A   1      41.545  30.249  35.861  1.00  0.00     0.029 A 
ATOM     52  N   UNL A   1      41.300  29.728  33.711  1.00  0.00    -0.354 N 
ATOM     53  N   UNL A   1      41.936  28.282  31.245  1.00  0.00    -0.248 NA
ATOM     54  C   UNL A   1      43.315  26.836  30.036  1.00  0.00     0.031 C 
ATOM     55  C   UNL A   1      42.555  29.350  35.507  1.00  0.00     0.029 A 
ATOM     56  C   UNL A   1      42.388  29.008  34.174  1.00  0.00     0.049 A 
ATOM     57  H   UNL A   1      40.948  29.693  32.793  1.00  0.00     0.167 HD
ATOM     58  C   UNL A   1      42.942  27.808  32.078  1.00  0.00     0.074 A 
ATOM     59  C   UNL A   1      43.748  26.901  31.288  1.00  0.00     0.031 C 
ATOM     60  C   UNL A   1      43.173  28.096  33.382  1.00  0.00     0.037 A 
BRANCH  47  61
ATOM     61  C   UNL A   1      39.219  32.159  35.813  1.00  0.00     0.057 A 
ATOM     62  C   UNL A   1      39.675  33.459  36.063  1.00  0.00     0.134 A 
ATOM     63  C   UNL A   1      38.278  31.621  36.700  1.00  0.00     0.134 A 
ATOM     64  F   UNL A   1      40.586  34.025  35.258  1.00  0.00    -0.206 F 
ATOM     65  C   UNL A   1      39.215  34.196  37.154  1.00  0.00     0.040 A 
ATOM     66  C   UNL A   1      37.792  32.357  37.782  1.00  0.00     0.040 A 
ATOM     67  F   UNL A   1      37.797  30.382  36.514  1.00  0.00    -0.206 F 
ATOM     68  C   UNL A   1      38.262  33.649  38.012  1.00  0.00     0.006 A 
ENDBRANCH  47  61
BRANCH  48  69
ATOM     69  C   UNL A   1      41.688  27.047  27.609  1.00  0.00     0.057 A 
ATOM     70  C   UNL A   1      42.481  27.597  26.596  1.00  0.00     0.134 A 
ATOM     71  C   UNL A   1      41.246  25.729  27.440  1.00  0.00     0.134 A 
ATOM     72  F   UNL A   1      42.917  28.861  26.690  1.00  0.00    -0.206 F 
ATOM     73  C   UNL A   1      42.815  26.869  25.453  1.00  0.00     0.040 A 
ATOM     74  C   UNL A   1      41.591  24.982  26.314  1.00  0.00     0.040 A 
ATOM     75  F   UNL A   1      40.482  25.146  28.375  1.00  0.00    -0.206 F 
ATOM     76  C   UNL A   1      42.374  25.554  25.313  1.00  0.00     0.006 A 
ENDBRANCH  48  69
BRANCH  60  77
ATOM     77  C   UNL A   1      44.321  27.408  34.059  1.00  0.00     0.057 A 
ATOM     78  C   UNL A   1      44.179  26.146  34.648  1.00  0.00     0.134 A 
ATOM     79  C   UNL A   1      45.601  27.975  34.039  1.00  0.00     0.134 A 
ATOM     80  F   UNL A   1      42.977  25.554  34.708  1.00  0.00    -0.206 F 
ATOM     81  C   UNL A   1      45.273  25.473  35.197  1.00  0.00     0.040 A 
ATOM     82  C   UNL A   1      46.706  27.302  34.563  1.00  0.00     0.040 A 
ATOM     83  F   UNL A   1      45.806  29.177  33.479  1.00  0.00    -0.206 F 
ATOM     84  C   UNL A   1      46.542  26.047  35.145  1.00  0.00     0.006 A 
ENDBRANCH  60  77
ENDBRANCH  34  35
ENDBRANCH  27  29
ENDBRANCH  26  27
ENDBRANCH  25  26
ENDBRANCH   1  25
TORSDOF 15
ENDMDL
