MODEL 1
REMARK VINA RESULT:     -11.2      0.000      0.000
REMARK SMILES CCOc1ccc(C(=O)NC(=S)Nc2cccc(C(=O)OCCOCCOC(=O)c3ccc(-c4c5nc(c(-c6c(F)cccc6F)c6ccc([nH]6)c(-c6c(F)cccc6F)c6nc(c(-c7c(F)cccc7F)c7ccc4[nH]7)C=C6)C=C5)cc3)c2C)cc1Br
REMARK SMILES IDX 22 1 21 2 19 3 20 4 18 5 14 6 15 7 84 8 16 9 85 10 17 11
REMARK SMILES IDX 13 12 11 14 12 15 10 16 8 17 9 18 7 20 4 21 5 22 87 23 6 24
REMARK SMILES IDX 86 25 88 26 3 27 2 28 1 29 23 30 24 31 25 32 26 33 27 34
REMARK SMILES IDX 28 35 29 36 30 37 31 38 83 39 32 40 82 41 33 42 34 43 35 44
REMARK SMILES IDX 76 45 36 46 81 47 75 48 77 49 37 50 80 51 74 52 73 53 38 55
REMARK SMILES IDX 64 56 47 57 63 58 48 59 51 60 62 61 78 62 49 63 50 64 61 66
REMARK SMILES IDX 79 67 52 68 39 69 40 70 45 71 41 72 42 73 44 74 46 75 43 76
REMARK SMILES IDX 65 77 66 78 71 79 67 80 68 81 70 82 72 83 69 84 53 85 54 86
REMARK SMILES IDX 59 87 55 88 56 89 58 90 60 91 57 92
REMARK H PARENT 13 13 10 19 77 54 51 65
REMARK Flexibility Score: inf
ROOT
ATOM      1  C   UNL A   1      31.457  27.210  23.167  1.00  0.00     0.261 C 
ENDROOT
BRANCH   1   2
ATOM      2  O   UNL A   1      31.447  25.783  23.054  1.00  0.00    -0.460 OA
BRANCH   2   3
ATOM      3  C   UNL A   1      32.381  25.085  22.343  1.00  0.00     0.338 C 
ATOM      4  O   UNL A   1      33.129  25.567  21.509  1.00  0.00    -0.246 OA
BRANCH   3   5
ATOM      5  C   UNL A   1      32.606  23.593  22.907  1.00  0.00     0.065 A 
ATOM      6  C   UNL A   1      34.619  22.272  24.884  1.00  0.00     0.044 A 
ATOM      7  C   UNL A   1      33.901  20.657  24.617  1.00  0.00     0.026 A 
ATOM      8  C   UNL A   1      33.928  23.774  24.158  1.00  0.00    -0.013 A 
ATOM      9  C   UNL A   1      32.550  20.342  23.543  1.00  0.00     0.003 A 
ATOM     10  C   UNL A   1      34.677  25.067  24.326  1.00  0.00     0.047 C 
ATOM     11  C   UNL A   1      31.868  21.731  22.634  1.00  0.00     0.016 A 
BRANCH   6  12
ATOM     12  N   UNL A   1      36.043  22.146  24.460  1.00  0.00    -0.332 N 
ATOM     13  H   UNL A   1      36.262  22.548  23.589  1.00  0.00     0.169 HD
BRANCH  12  14
ATOM     14  C   UNL A   1      37.126  21.527  25.133  1.00  0.00     0.177 C 
ATOM     15  S   UNL A   1      37.281  19.868  24.934  1.00  0.00    -0.040 S 
BRANCH  14  16
ATOM     16  N   UNL A   1      38.078  22.188  26.073  1.00  0.00    -0.299 N 
ATOM     17  C   UNL A   1      39.511  22.427  26.683  1.00  0.00     0.257 C 
ATOM     18  O   UNL A   1      39.676  23.354  27.468  1.00  0.00    -0.269 OA
ATOM     19  H   UNL A   1      37.505  22.804  26.585  1.00  0.00     0.172 HD
BRANCH  17  20
ATOM     20  C   UNL A   1      40.638  21.442  26.391  1.00  0.00     0.041 A 
ATOM     21  C   UNL A   1      44.070  20.260  25.371  1.00  0.00     0.133 A 
ATOM     22  C   UNL A   1      42.705  19.140  25.784  1.00  0.00     0.048 A 
ATOM     23  C   UNL A   1      43.717  22.024  25.400  1.00  0.00     0.060 A 
ATOM     24  C   UNL A   1      41.055  19.742  26.290  1.00  0.00     0.018 A 
ATOM     25  C   UNL A   1      41.866  22.506  25.974  1.00  0.00     0.033 A 
ATOM     26  Br  UNL A   1      45.143  22.946  24.271  1.00  0.00    -0.047 Br
BRANCH  21  27
ATOM     27  O   UNL A   1      45.399  19.903  25.369  1.00  0.00    -0.493 OA
BRANCH  27  28
ATOM     28  C   UNL A   1      45.894  19.582  24.045  1.00  0.00     0.226 C 
ATOM     29  C   UNL A   1      45.109  18.831  22.986  1.00  0.00     0.049 C 
ENDBRANCH  27  28
ENDBRANCH  21  27
ENDBRANCH  17  20
ENDBRANCH  14  16
ENDBRANCH  12  14
ENDBRANCH   6  12
ENDBRANCH   3   5
ENDBRANCH   2   3
ENDBRANCH   1   2
BRANCH   1  30
ATOM     30  C   UNL A   1      31.025  27.728  24.512  1.00  0.00     0.202 C 
BRANCH  30  31
ATOM     31  O   UNL A   1      31.902  28.782  24.850  1.00  0.00    -0.374 OA
BRANCH  31  32
ATOM     32  C   UNL A   1      31.958  29.200  26.206  1.00  0.00     0.202 C 
BRANCH  32  33
ATOM     33  C   UNL A   1      32.788  30.445  26.566  1.00  0.00     0.261 C 
BRANCH  33  34
ATOM     34  O   UNL A   1      33.428  30.248  27.848  1.00  0.00    -0.460 OA
BRANCH  34  35
ATOM     35  C   UNL A   1      34.311  31.206  28.245  1.00  0.00     0.338 C 
ATOM     36  O   UNL A   1      34.023  32.358  28.521  1.00  0.00    -0.246 OA
BRANCH  35  37
ATOM     37  C   UNL A   1      35.706  30.747  27.933  1.00  0.00     0.060 A 
ATOM     38  C   UNL A   1      36.052  29.403  28.154  1.00  0.00     0.016 A 
ATOM     39  C   UNL A   1      36.703  31.712  27.930  1.00  0.00     0.016 A 
ATOM     40  C   UNL A   1      37.349  29.067  28.589  1.00  0.00     0.010 A 
ATOM     41  C   UNL A   1      37.904  31.396  28.536  1.00  0.00     0.010 A 
ATOM     42  C   UNL A   1      38.246  30.081  28.902  1.00  0.00    -0.014 A 
BRANCH  42  43
ATOM     43  C   UNL A   1      39.521  29.927  29.642  1.00  0.00     0.031 A 
ATOM     44  C   UNL A   1      40.312  28.698  29.358  1.00  0.00     0.074 A 
ATOM     45  C   UNL A   1      40.099  30.904  30.402  1.00  0.00     0.049 A 
ATOM     46  N   UNL A   1      41.305  28.312  30.073  1.00  0.00    -0.248 NA
ATOM     47  C   UNL A   1      40.035  27.762  28.272  1.00  0.00     0.031 C 
ATOM     48  C   UNL A   1      41.488  30.997  30.873  1.00  0.00     0.029 A 
ATOM     49  N   UNL A   1      39.553  32.085  30.933  1.00  0.00    -0.354 N 
ATOM     50  C   UNL A   1      41.970  27.310  29.409  1.00  0.00     0.074 A 
ATOM     51  C   UNL A   1      41.079  26.938  28.347  1.00  0.00     0.031 C 
ATOM     52  C   UNL A   1      41.583  31.935  31.835  1.00  0.00     0.029 A 
ATOM     53  C   UNL A   1      40.241  32.402  32.114  1.00  0.00     0.049 A 
ATOM     54  H   UNL A   1      38.812  32.603  30.542  1.00  0.00     0.167 HD
ATOM     55  C   UNL A   1      43.235  27.007  29.816  1.00  0.00     0.037 A 
ATOM     56  C   UNL A   1      39.540  32.427  33.277  1.00  0.00     0.037 A 
ATOM     57  C   UNL A   1      43.553  27.749  31.062  1.00  0.00     0.049 A 
ATOM     58  C   UNL A   1      39.963  31.226  34.082  1.00  0.00     0.074 A 
ATOM     59  C   UNL A   1      44.383  28.807  31.396  1.00  0.00     0.029 A 
ATOM     60  N   UNL A   1      42.684  27.623  32.148  1.00  0.00    -0.354 N 
ATOM     61  N   UNL A   1      40.901  30.413  33.677  1.00  0.00    -0.248 NA
ATOM     62  C   UNL A   1      39.395  30.805  35.351  1.00  0.00     0.031 C 
ATOM     63  C   UNL A   1      43.976  29.315  32.678  1.00  0.00     0.029 A 
ATOM     64  C   UNL A   1      42.921  28.549  33.149  1.00  0.00     0.049 A 
ATOM     65  H   UNL A   1      41.973  26.943  32.195  1.00  0.00     0.167 HD
ATOM     66  C   UNL A   1      41.110  29.415  34.560  1.00  0.00     0.074 A 
ATOM     67  C   UNL A   1      40.090  29.671  35.576  1.00  0.00     0.031 C 
ATOM     68  C   UNL A   1      42.106  28.492  34.373  1.00  0.00     0.037 A 
BRANCH  55  69
ATOM     69  C   UNL A   1      44.235  26.162  29.030  1.00  0.00     0.057 A 
ATOM     70  C   UNL A   1      44.842  26.681  27.869  1.00  0.00     0.134 A 
ATOM     71  C   UNL A   1      44.623  24.828  29.300  1.00  0.00     0.134 A 
ATOM     72  F   UNL A   1      44.617  27.938  27.465  1.00  0.00    -0.206 F 
ATOM     73  C   UNL A   1      45.715  25.938  27.050  1.00  0.00     0.040 A 
ATOM     74  C   UNL A   1      45.495  24.078  28.497  1.00  0.00     0.040 A 
ATOM     75  F   UNL A   1      44.198  24.142  30.358  1.00  0.00    -0.206 F 
ATOM     76  C   UNL A   1      46.042  24.628  27.357  1.00  0.00     0.006 A 
ENDBRANCH  55  69
BRANCH  56  77
ATOM     77  C   UNL A   1      38.189  33.046  33.028  1.00  0.00     0.057 A 
ATOM     78  C   UNL A   1      37.109  32.140  32.856  1.00  0.00     0.134 A 
ATOM     79  C   UNL A   1      37.851  34.310  33.522  1.00  0.00     0.134 A 
ATOM     80  F   UNL A   1      37.342  30.903  32.385  1.00  0.00    -0.206 F 
ATOM     81  C   UNL A   1      35.821  32.402  33.342  1.00  0.00     0.040 A 
ATOM     82  C   UNL A   1      36.550  34.591  33.981  1.00  0.00     0.040 A 
ATOM     83  F   UNL A   1      38.802  35.231  33.736  1.00  0.00    -0.206 F 
ATOM     84  C   UNL A   1      35.552  33.618  33.956  1.00  0.00     0.006 A 
ENDBRANCH  56  77
BRANCH  68  85
ATOM     85  C   UNL A   1      42.339  27.384  35.356  1.00  0.00     0.057 A 
ATOM     86  C   UNL A   1      41.670  26.158  35.287  1.00  0.00     0.134 A 
ATOM     87  C   UNL A   1      43.244  27.516  36.426  1.00  0.00     0.134 A 
ATOM     88  F   UNL A   1      40.613  25.985  34.480  1.00  0.00    -0.206 F 
ATOM     89  C   UNL A   1      42.049  25.064  36.064  1.00  0.00     0.040 A 
ATOM     90  C   UNL A   1      43.591  26.449  37.250  1.00  0.00     0.040 A 
ATOM     91  F   UNL A   1      43.854  28.669  36.726  1.00  0.00    -0.206 F 
ATOM     92  C   UNL A   1      43.036  25.201  37.031  1.00  0.00     0.006 A 
ENDBRANCH  68  85
ENDBRANCH  42  43
ENDBRANCH  35  37
ENDBRANCH  34  35
ENDBRANCH  33  34
ENDBRANCH  32  33
ENDBRANCH  31  32
ENDBRANCH  30  31
ENDBRANCH   1  30
TORSDOF 20
ENDMDL
MODEL 2
REMARK VINA RESULT:     -11.2      2.630      4.351
REMARK SMILES CCOc1ccc(C(=O)NC(=S)Nc2cccc(C(=O)OCCOCCOC(=O)c3ccc(-c4c5nc(c(-c6c(F)cccc6F)c6ccc([nH]6)c(-c6c(F)cccc6F)c6nc(c(-c7c(F)cccc7F)c7ccc4[nH]7)C=C6)C=C5)cc3)c2C)cc1Br
REMARK SMILES IDX 22 1 21 2 19 3 20 4 18 5 14 6 15 7 84 8 16 9 85 10 17 11
REMARK SMILES IDX 13 12 11 14 12 15 10 16 8 17 9 18 7 20 4 21 5 22 87 23 6 24
REMARK SMILES IDX 86 25 88 26 3 27 2 28 1 29 23 30 24 31 25 32 26 33 27 34
REMARK SMILES IDX 28 35 29 36 30 37 31 38 83 39 32 40 82 41 33 42 34 43 35 44
REMARK SMILES IDX 76 45 36 46 81 47 75 48 77 49 37 50 80 51 74 52 73 53 38 55
REMARK SMILES IDX 64 56 47 57 63 58 48 59 51 60 62 61 78 62 49 63 50 64 61 66
REMARK SMILES IDX 79 67 52 68 39 69 40 70 45 71 41 72 42 73 44 74 46 75 43 76
REMARK SMILES IDX 65 77 66 78 71 79 67 80 68 81 70 82 72 83 69 84 53 85 54 86
REMARK SMILES IDX 59 87 55 88 56 89 58 90 60 91 57 92
REMARK H PARENT 13 13 10 19 77 54 51 65
REMARK Flexibility Score: inf
ROOT
ATOM      1  C   UNL A   1      33.639  28.347  26.917  1.00  0.00     0.261 C 
ENDROOT
BRANCH   1   2
ATOM      2  O   UNL A   1      33.727  27.202  26.063  1.00  0.00    -0.460 OA
BRANCH   2   3
ATOM      3  C   UNL A   1      33.580  27.271  24.706  1.00  0.00     0.338 C 
ATOM      4  O   UNL A   1      33.711  28.284  24.039  1.00  0.00    -0.246 OA
BRANCH   3   5
ATOM      5  C   UNL A   1      33.491  25.819  24.016  1.00  0.00     0.065 A 
ATOM      6  C   UNL A   1      31.233  23.707  23.627  1.00  0.00     0.044 A 
ATOM      7  C   UNL A   1      32.361  22.575  22.825  1.00  0.00     0.026 A 
ATOM      8  C   UNL A   1      31.719  25.376  24.117  1.00  0.00    -0.013 A 
ATOM      9  C   UNL A   1      34.060  22.906  22.542  1.00  0.00     0.003 A 
ATOM     10  C   UNL A   1      30.747  26.207  24.906  1.00  0.00     0.047 C 
ATOM     11  C   UNL A   1      34.710  24.473  23.128  1.00  0.00     0.016 A 
BRANCH   6  12
ATOM     12  N   UNL A   1      30.734  22.980  24.829  1.00  0.00    -0.332 N 
ATOM     13  H   UNL A   1      29.765  23.042  24.988  1.00  0.00     0.169 HD
BRANCH  12  14
ATOM     14  C   UNL A   1      31.458  22.212  25.775  1.00  0.00     0.177 C 
ATOM     15  S   UNL A   1      32.112  23.049  27.074  1.00  0.00    -0.040 S 
BRANCH  14  16
ATOM     16  N   UNL A   1      31.775  20.757  25.678  1.00  0.00    -0.299 N 
ATOM     17  C   UNL A   1      32.771  19.538  25.612  1.00  0.00     0.257 C 
ATOM     18  O   UNL A   1      32.323  18.400  25.685  1.00  0.00    -0.269 OA
ATOM     19  H   UNL A   1      30.888  20.331  25.630  1.00  0.00     0.172 HD
BRANCH  17  20
ATOM     20  C   UNL A   1      34.252  19.777  25.338  1.00  0.00     0.041 A 
ATOM     21  C   UNL A   1      37.543  21.616  25.273  1.00  0.00     0.133 A 
ATOM     22  C   UNL A   1      37.295  19.977  24.538  1.00  0.00     0.048 A 
ATOM     23  C   UNL A   1      36.105  22.406  26.011  1.00  0.00     0.060 A 
ATOM     24  C   UNL A   1      35.692  19.102  24.597  1.00  0.00     0.018 A 
ATOM     25  C   UNL A   1      34.435  21.312  25.990  1.00  0.00     0.033 A 
ATOM     26  Br  UNL A   1      36.496  24.405  26.109  1.00  0.00    -0.047 Br
BRANCH  21  27
ATOM     27  O   UNL A   1      38.769  22.145  25.607  1.00  0.00    -0.493 OA
BRANCH  27  28
ATOM     28  C   UNL A   1      39.582  21.232  26.387  1.00  0.00     0.226 C 
ATOM     29  C   UNL A   1      40.665  21.655  27.362  1.00  0.00     0.049 C 
ENDBRANCH  27  28
ENDBRANCH  21  27
ENDBRANCH  17  20
ENDBRANCH  14  16
ENDBRANCH  12  14
ENDBRANCH   6  12
ENDBRANCH   3   5
ENDBRANCH   2   3
ENDBRANCH   1   2
BRANCH   1  30
ATOM     30  C   UNL A   1      32.247  28.899  27.073  1.00  0.00     0.202 C 
BRANCH  30  31
ATOM     31  O   UNL A   1      32.373  30.292  27.259  1.00  0.00    -0.374 OA
BRANCH  31  32
ATOM     32  C   UNL A   1      33.676  30.857  27.231  1.00  0.00     0.202 C 
BRANCH  32  33
ATOM     33  C   UNL A   1      33.928  32.179  27.980  1.00  0.00     0.261 C 
BRANCH  33  34
ATOM     34  O   UNL A   1      35.304  32.231  28.422  1.00  0.00    -0.460 OA
BRANCH  34  35
ATOM     35  C   UNL A   1      35.589  31.621  29.607  1.00  0.00     0.338 C 
ATOM     36  O   UNL A   1      35.500  32.142  30.706  1.00  0.00    -0.246 OA
BRANCH  35  37
ATOM     37  C   UNL A   1      36.374  30.370  29.338  1.00  0.00     0.060 A 
ATOM     38  C   UNL A   1      36.623  29.476  30.392  1.00  0.00     0.016 A 
ATOM     39  C   UNL A   1      37.228  30.382  28.243  1.00  0.00     0.016 A 
ATOM     40  C   UNL A   1      37.839  28.766  30.448  1.00  0.00     0.010 A 
ATOM     41  C   UNL A   1      38.485  29.833  28.404  1.00  0.00     0.010 A 
ATOM     42  C   UNL A   1      38.830  29.039  29.513  1.00  0.00    -0.014 A 
BRANCH  42  43
ATOM     43  C   UNL A   1      40.249  28.619  29.592  1.00  0.00     0.031 A 
ATOM     44  C   UNL A   1      40.586  27.296  28.999  1.00  0.00     0.074 A 
ATOM     45  C   UNL A   1      41.277  29.429  29.986  1.00  0.00     0.049 A 
ATOM     46  N   UNL A   1      41.706  26.698  29.188  1.00  0.00    -0.248 NA
ATOM     47  C   UNL A   1      39.682  26.497  28.176  1.00  0.00     0.031 C 
ATOM     48  C   UNL A   1      42.719  29.251  29.769  1.00  0.00     0.029 A 
ATOM     49  N   UNL A   1      41.256  30.647  30.688  1.00  0.00    -0.354 N 
ATOM     50  C   UNL A   1      41.802  25.645  28.311  1.00  0.00     0.074 A 
ATOM     51  C   UNL A   1      40.477  25.504  27.780  1.00  0.00     0.031 C 
ATOM     52  C   UNL A   1      43.409  30.091  30.564  1.00  0.00     0.029 A 
ATOM     53  C   UNL A   1      42.449  30.760  31.418  1.00  0.00     0.049 A 
ATOM     54  H   UNL A   1      40.528  31.309  30.669  1.00  0.00     0.167 HD
ATOM     55  C   UNL A   1      43.035  25.103  28.101  1.00  0.00     0.037 A 
ATOM     56  C   UNL A   1      42.367  30.825  32.772  1.00  0.00     0.037 A 
ATOM     57  C   UNL A   1      44.012  25.693  29.051  1.00  0.00     0.049 A 
ATOM     58  C   UNL A   1      42.880  29.517  33.316  1.00  0.00     0.074 A 
ATOM     59  C   UNL A   1      45.081  26.568  28.950  1.00  0.00     0.029 A 
ATOM     60  N   UNL A   1      43.721  25.643  30.415  1.00  0.00    -0.354 N 
ATOM     61  N   UNL A   1      43.367  28.586  32.541  1.00  0.00    -0.248 NA
ATOM     62  C   UNL A   1      42.881  29.113  34.711  1.00  0.00     0.031 C 
ATOM     63  C   UNL A   1      45.399  27.049  30.267  1.00  0.00     0.029 A 
ATOM     64  C   UNL A   1      44.550  26.445  31.182  1.00  0.00     0.049 A 
ATOM     65  H   UNL A   1      42.997  25.093  30.795  1.00  0.00     0.167 HD
ATOM     66  C   UNL A   1      43.766  27.508  33.249  1.00  0.00     0.074 A 
ATOM     67  C   UNL A   1      43.382  27.865  34.614  1.00  0.00     0.031 C 
ATOM     68  C   UNL A   1      44.382  26.444  32.643  1.00  0.00     0.037 A 
BRANCH  55  69
ATOM     69  C   UNL A   1      43.398  24.155  26.959  1.00  0.00     0.057 A 
ATOM     70  C   UNL A   1      44.223  23.038  27.201  1.00  0.00     0.134 A 
ATOM     71  C   UNL A   1      43.034  24.282  25.598  1.00  0.00     0.134 A 
ATOM     72  F   UNL A   1      44.649  22.738  28.434  1.00  0.00    -0.206 F 
ATOM     73  C   UNL A   1      44.662  22.164  26.188  1.00  0.00     0.040 A 
ATOM     74  C   UNL A   1      43.459  23.416  24.579  1.00  0.00     0.040 A 
ATOM     75  F   UNL A   1      42.238  25.245  25.139  1.00  0.00    -0.206 F 
ATOM     76  C   UNL A   1      44.286  22.352  24.868  1.00  0.00     0.006 A 
ENDBRANCH  55  69
BRANCH  56  77
ATOM     77  C   UNL A   1      41.189  31.681  33.157  1.00  0.00     0.057 A 
ATOM     78  C   UNL A   1      41.317  33.072  32.898  1.00  0.00     0.134 A 
ATOM     79  C   UNL A   1      39.883  31.183  33.171  1.00  0.00     0.134 A 
ATOM     80  F   UNL A   1      42.536  33.637  32.865  1.00  0.00    -0.206 F 
ATOM     81  C   UNL A   1      40.240  33.862  32.471  1.00  0.00     0.040 A 
ATOM     82  C   UNL A   1      38.792  31.981  32.777  1.00  0.00     0.040 A 
ATOM     83  F   UNL A   1      39.657  29.879  33.390  1.00  0.00    -0.206 F 
ATOM     84  C   UNL A   1      38.976  33.298  32.361  1.00  0.00     0.006 A 
ENDBRANCH  56  77
BRANCH  68  85
ATOM     85  C   UNL A   1      44.826  25.248  33.431  1.00  0.00     0.057 A 
ATOM     86  C   UNL A   1      46.151  24.801  33.444  1.00  0.00     0.134 A 
ATOM     87  C   UNL A   1      43.927  24.488  34.203  1.00  0.00     0.134 A 
ATOM     88  F   UNL A   1      47.055  25.271  32.572  1.00  0.00    -0.206 F 
ATOM     89  C   UNL A   1      46.595  23.832  34.344  1.00  0.00     0.040 A 
ATOM     90  C   UNL A   1      44.346  23.477  35.063  1.00  0.00     0.040 A 
ATOM     91  F   UNL A   1      42.603  24.687  34.184  1.00  0.00    -0.206 F 
ATOM     92  C   UNL A   1      45.693  23.187  35.179  1.00  0.00     0.006 A 
ENDBRANCH  68  85
ENDBRANCH  42  43
ENDBRANCH  35  37
ENDBRANCH  34  35
ENDBRANCH  33  34
ENDBRANCH  32  33
ENDBRANCH  31  32
ENDBRANCH  30  31
ENDBRANCH   1  30
TORSDOF 20
ENDMDL
MODEL 3
REMARK VINA RESULT:     -11.0      2.355      3.899
REMARK SMILES CCOc1ccc(C(=O)NC(=S)Nc2cccc(C(=O)OCCOCCOC(=O)c3ccc(-c4c5nc(c(-c6c(F)cccc6F)c6ccc([nH]6)c(-c6c(F)cccc6F)c6nc(c(-c7c(F)cccc7F)c7ccc4[nH]7)C=C6)C=C5)cc3)c2C)cc1Br
REMARK SMILES IDX 22 1 21 2 19 3 20 4 18 5 14 6 15 7 84 8 16 9 85 10 17 11
REMARK SMILES IDX 13 12 11 14 12 15 10 16 8 17 9 18 7 20 4 21 5 22 87 23 6 24
REMARK SMILES IDX 86 25 88 26 3 27 2 28 1 29 23 30 24 31 25 32 26 33 27 34
REMARK SMILES IDX 28 35 29 36 30 37 31 38 83 39 32 40 82 41 33 42 34 43 35 44
REMARK SMILES IDX 76 45 36 46 81 47 75 48 77 49 37 50 80 51 74 52 73 53 38 55
REMARK SMILES IDX 64 56 47 57 63 58 48 59 51 60 62 61 78 62 49 63 50 64 61 66
REMARK SMILES IDX 79 67 52 68 39 69 40 70 45 71 41 72 42 73 44 74 46 75 43 76
REMARK SMILES IDX 65 77 66 78 71 79 67 80 68 81 70 82 72 83 69 84 53 85 54 86
REMARK SMILES IDX 59 87 55 88 56 89 58 90 60 91 57 92
REMARK H PARENT 13 13 10 19 77 54 51 65
REMARK Flexibility Score: inf
ROOT
ATOM      1  C   UNL A   1      33.323  27.786  26.144  1.00  0.00     0.261 C 
ENDROOT
BRANCH   1   2
ATOM      2  O   UNL A   1      32.950  27.870  24.764  1.00  0.00    -0.460 OA
BRANCH   2   3
ATOM      3  C   UNL A   1      31.787  27.348  24.273  1.00  0.00     0.338 C 
ATOM      4  O   UNL A   1      30.748  27.971  24.127  1.00  0.00    -0.246 OA
BRANCH   3   5
ATOM      5  C   UNL A   1      31.983  25.884  23.632  1.00  0.00     0.065 A 
ATOM      6  C   UNL A   1      31.376  22.976  24.571  1.00  0.00     0.044 A 
ATOM      7  C   UNL A   1      32.084  22.292  23.079  1.00  0.00     0.026 A 
ATOM      8  C   UNL A   1      31.188  24.753  24.830  1.00  0.00    -0.013 A 
ATOM      9  C   UNL A   1      32.774  23.251  21.782  1.00  0.00     0.003 A 
ATOM     10  C   UNL A   1      30.709  25.240  26.169  1.00  0.00     0.047 C 
ATOM     11  C   UNL A   1      32.794  25.034  21.987  1.00  0.00     0.016 A 
BRANCH   6  12
ATOM     12  N   UNL A   1      32.189  22.412  25.687  1.00  0.00    -0.332 N 
ATOM     13  H   UNL A   1      31.675  22.062  26.449  1.00  0.00     0.169 HD
BRANCH  12  14
ATOM     14  C   UNL A   1      33.598  22.309  25.805  1.00  0.00     0.177 C 
ATOM     15  S   UNL A   1      34.199  21.999  27.341  1.00  0.00    -0.040 S 
BRANCH  14  16
ATOM     16  N   UNL A   1      34.597  22.544  24.722  1.00  0.00    -0.299 N 
ATOM     17  C   UNL A   1      36.060  22.779  24.188  1.00  0.00     0.257 C 
ATOM     18  O   UNL A   1      36.262  22.763  22.979  1.00  0.00    -0.269 OA
ATOM     19  H   UNL A   1      34.049  22.559  23.903  1.00  0.00     0.172 HD
BRANCH  17  20
ATOM     20  C   UNL A   1      37.177  23.144  25.160  1.00  0.00     0.041 A 
ATOM     21  C   UNL A   1      40.383  22.753  27.106  1.00  0.00     0.133 A 
ATOM     22  C   UNL A   1      39.254  24.159  27.303  1.00  0.00     0.048 A 
ATOM     23  C   UNL A   1      39.886  21.462  25.957  1.00  0.00     0.060 A 
ATOM     24  C   UNL A   1      37.714  24.330  26.335  1.00  0.00     0.018 A 
ATOM     25  C   UNL A   1      38.177  21.808  24.983  1.00  0.00     0.033 A 
ATOM     26  Br  UNL A   1      40.929  19.780  26.447  1.00  0.00    -0.047 Br
BRANCH  21  27
ATOM     27  O   UNL A   1      41.704  22.752  27.492  1.00  0.00    -0.493 OA
BRANCH  27  28
ATOM     28  C   UNL A   1      41.870  22.708  28.932  1.00  0.00     0.226 C 
ATOM     29  C   UNL A   1      43.188  22.896  29.658  1.00  0.00     0.049 C 
ENDBRANCH  27  28
ENDBRANCH  21  27
ENDBRANCH  17  20
ENDBRANCH  14  16
ENDBRANCH  12  14
ENDBRANCH   6  12
ENDBRANCH   3   5
ENDBRANCH   2   3
ENDBRANCH   1   2
BRANCH   1  30
ATOM     30  C   UNL A   1      32.410  28.534  27.079  1.00  0.00     0.202 C 
BRANCH  30  31
ATOM     31  O   UNL A   1      32.797  29.890  27.037  1.00  0.00    -0.374 OA
BRANCH  31  32
ATOM     32  C   UNL A   1      34.167  30.203  27.243  1.00  0.00     0.202 C 
BRANCH  32  33
ATOM     33  C   UNL A   1      34.538  31.600  27.775  1.00  0.00     0.261 C 
BRANCH  33  34
ATOM     34  O   UNL A   1      35.923  31.608  28.191  1.00  0.00    -0.460 OA
BRANCH  34  35
ATOM     35  C   UNL A   1      36.217  30.957  29.351  1.00  0.00     0.338 C 
ATOM     36  O   UNL A   1      35.961  31.364  30.472  1.00  0.00    -0.246 OA
BRANCH  35  37
ATOM     37  C   UNL A   1      37.218  29.876  29.067  1.00  0.00     0.060 A 
ATOM     38  C   UNL A   1      37.354  28.810  29.972  1.00  0.00     0.016 A 
ATOM     39  C   UNL A   1      38.284  30.202  28.239  1.00  0.00     0.016 A 
ATOM     40  C   UNL A   1      38.617  28.230  30.200  1.00  0.00     0.010 A 
ATOM     41  C   UNL A   1      39.540  29.761  28.607  1.00  0.00     0.010 A 
ATOM     42  C   UNL A   1      39.741  28.790  29.607  1.00  0.00    -0.014 A 
BRANCH  42  43
ATOM     43  C   UNL A   1      41.153  28.508  29.959  1.00  0.00     0.031 A 
ATOM     44  C   UNL A   1      41.860  27.500  29.122  1.00  0.00     0.074 A 
ATOM     45  C   UNL A   1      41.888  29.232  30.854  1.00  0.00     0.049 A 
ATOM     46  N   UNL A   1      42.992  26.985  29.436  1.00  0.00    -0.248 NA
ATOM     47  C   UNL A   1      41.343  26.942  27.875  1.00  0.00     0.031 C 
ATOM     48  C   UNL A   1      43.348  29.278  31.016  1.00  0.00     0.029 A 
ATOM     49  N   UNL A   1      41.476  30.135  31.850  1.00  0.00    -0.354 N 
ATOM     50  C   UNL A   1      43.489  26.304  28.351  1.00  0.00     0.074 A 
ATOM     51  C   UNL A   1      42.378  26.223  27.446  1.00  0.00     0.031 C 
ATOM     52  C   UNL A   1      43.660  29.864  32.189  1.00  0.00     0.029 A 
ATOM     53  C   UNL A   1      42.417  30.110  32.891  1.00  0.00     0.049 A 
ATOM     54  H   UNL A   1      40.664  30.691  31.822  1.00  0.00     0.167 HD
ATOM     55  C   UNL A   1      44.815  25.986  28.351  1.00  0.00     0.037 A 
ATOM     56  C   UNL A   1      42.003  29.706  34.119  1.00  0.00     0.037 A 
ATOM     57  C   UNL A   1      45.409  26.313  29.672  1.00  0.00     0.049 A 
ATOM     58  C   UNL A   1      42.603  28.348  34.371  1.00  0.00     0.074 A 
ATOM     59  C   UNL A   1      46.291  27.270  30.147  1.00  0.00     0.029 A 
ATOM     60  N   UNL A   1      44.814  25.779  30.816  1.00  0.00    -0.354 N 
ATOM     61  N   UNL A   1      43.425  27.784  33.528  1.00  0.00    -0.248 NA
ATOM     62  C   UNL A   1      42.344  27.500  35.522  1.00  0.00     0.031 C 
ATOM     63  C   UNL A   1      46.189  27.307  31.581  1.00  0.00     0.029 A 
ATOM     64  C   UNL A   1      45.273  26.351  31.991  1.00  0.00     0.049 A 
ATOM     65  H   UNL A   1      44.135  25.065  30.790  1.00  0.00     0.167 HD
ATOM     66  C   UNL A   1      43.834  26.575  33.965  1.00  0.00     0.074 A 
ATOM     67  C   UNL A   1      43.076  26.411  35.204  1.00  0.00     0.031 C 
ATOM     68  C   UNL A   1      44.763  25.841  33.273  1.00  0.00     0.037 A 
BRANCH  55  69
ATOM     69  C   UNL A   1      45.609  25.519  27.133  1.00  0.00     0.057 A 
ATOM     70  C   UNL A   1      45.975  26.439  26.132  1.00  0.00     0.134 A 
ATOM     71  C   UNL A   1      46.010  24.195  26.834  1.00  0.00     0.134 A 
ATOM     72  F   UNL A   1      45.704  27.745  26.249  1.00  0.00    -0.206 F 
ATOM     73  C   UNL A   1      46.640  26.072  24.946  1.00  0.00     0.040 A 
ATOM     74  C   UNL A   1      46.678  23.816  25.660  1.00  0.00     0.040 A 
ATOM     75  F   UNL A   1      45.796  23.163  27.647  1.00  0.00    -0.206 F 
ATOM     76  C   UNL A   1      46.991  24.755  24.701  1.00  0.00     0.006 A 
ENDBRANCH  55  69
BRANCH  56  77
ATOM     77  C   UNL A   1      40.630  30.265  34.387  1.00  0.00     0.057 A 
ATOM     78  C   UNL A   1      40.574  31.637  34.750  1.00  0.00     0.134 A 
ATOM     79  C   UNL A   1      39.487  29.752  33.767  1.00  0.00     0.134 A 
ATOM     80  F   UNL A   1      41.629  32.214  35.352  1.00  0.00    -0.206 F 
ATOM     81  C   UNL A   1      39.541  32.486  34.331  1.00  0.00     0.040 A 
ATOM     82  C   UNL A   1      38.429  30.595  33.374  1.00  0.00     0.040 A 
ATOM     83  F   UNL A   1      39.446  28.472  33.370  1.00  0.00    -0.206 F 
ATOM     84  C   UNL A   1      38.485  31.970  33.592  1.00  0.00     0.006 A 
ENDBRANCH  56  77
BRANCH  68  85
ATOM     85  C   UNL A   1      45.218  24.499  33.761  1.00  0.00     0.057 A 
ATOM     86  C   UNL A   1      46.492  24.280  34.294  1.00  0.00     0.134 A 
ATOM     87  C   UNL A   1      44.389  23.363  33.701  1.00  0.00     0.134 A 
ATOM     88  F   UNL A   1      47.461  25.201  34.187  1.00  0.00    -0.206 F 
ATOM     89  C   UNL A   1      46.829  23.092  34.943  1.00  0.00     0.040 A 
ATOM     90  C   UNL A   1      44.733  22.151  34.292  1.00  0.00     0.040 A 
ATOM     91  F   UNL A   1      43.200  23.362  33.086  1.00  0.00    -0.206 F 
ATOM     92  C   UNL A   1      45.933  22.032  34.969  1.00  0.00     0.006 A 
ENDBRANCH  68  85
ENDBRANCH  42  43
ENDBRANCH  35  37
ENDBRANCH  34  35
ENDBRANCH  33  34
ENDBRANCH  32  33
ENDBRANCH  31  32
ENDBRANCH  30  31
ENDBRANCH   1  30
TORSDOF 20
ENDMDL
