MODEL 1
REMARK VINA RESULT:     -11.3      0.000      0.000
REMARK SMILES NC(=O)C1CC[NH+](CC[C@H]2CN(C(=O)c3ccccc3)CC[C@H]2CC(=O)OCCOCCOC(=O)c2ccc(-c3c4nc(c(-c5c(F)cccc5F)c5ccc([nH]5)c(-c5c(F)cccc5F)c5nc(c(-c6c(F)cccc6F)c6ccc3[nH]6)C=C5)C=C4)cc2)CC1
REMARK SMILES IDX 28 1 27 2 25 3 26 4 24 5 23 6 10 7 11 8 12 9 22 10 21 11
REMARK SMILES IDX 9 12 8 13 7 14 4 15 5 16 91 17 6 18 90 19 2 21 1 22 3 25
REMARK SMILES IDX 13 26 14 27 15 28 16 29 20 30 17 31 19 32 18 33 29 34 30 35
REMARK SMILES IDX 31 36 32 37 33 38 34 39 35 40 36 41 37 42 89 43 38 44 88 45
REMARK SMILES IDX 39 46 40 47 41 48 82 49 42 50 87 51 81 52 83 53 43 54 86 55
REMARK SMILES IDX 80 56 79 57 44 59 70 60 53 61 69 62 54 63 57 64 68 65 84 66
REMARK SMILES IDX 55 67 56 68 67 70 85 71 58 72 45 73 46 74 51 75 47 76 48 77
REMARK SMILES IDX 50 78 52 79 49 80 71 81 72 82 77 83 73 84 74 85 76 86 78 87
REMARK SMILES IDX 75 88 59 89 60 90 65 91 61 92 62 93 64 94 66 95 63 96
REMARK H PARENT 7 20 1 23 1 24 83 58 57 69
REMARK Flexibility Score: inf
ROOT
ATOM      1  C   UNL A   1      40.683  22.257  27.173  1.00  0.00     0.261 C 
ENDROOT
BRANCH   1   2
ATOM      2  O   UNL A   1      39.312  22.330  26.728  1.00  0.00    -0.463 OA
BRANCH   2   3
ATOM      3  C   UNL A   1      38.844  23.590  26.508  1.00  0.00     0.306 C 
ATOM      4  O   UNL A   1      39.350  24.605  26.976  1.00  0.00    -0.252 OA
BRANCH   3   5
ATOM      5  C   UNL A   1      37.566  23.645  25.694  1.00  0.00     0.126 C 
BRANCH   5   6
ATOM      6  C   UNL A   1      36.430  22.638  25.963  1.00  0.00     0.007 C 
ATOM      7  C   UNL A   1      35.083  23.233  26.497  1.00  0.00     0.018 C 
ATOM      8  C   UNL A   1      34.096  22.048  26.689  1.00  0.00     0.124 C 
ATOM      9  N   UNL A   1      33.875  21.342  25.418  1.00  0.00    -0.338 N 
ATOM     10  C   UNL A   1      36.168  21.850  24.656  1.00  0.00     0.026 C 
ATOM     11  C   UNL A   1      35.077  20.794  24.801  1.00  0.00     0.120 C 
BRANCH   7  12
ATOM     12  C   UNL A   1      34.431  24.301  25.568  1.00  0.00     0.067 C 
BRANCH  12  13
ATOM     13  C   UNL A   1      33.382  25.224  26.239  1.00  0.00     0.262 C 
BRANCH  13  14
ATOM     14  N   UNL A   1      33.448  26.673  25.946  1.00  0.00    -0.335 N 
ATOM     15  C   UNL A   1      32.531  29.189  24.686  1.00  0.00     0.089 C 
ATOM     16  C   UNL A   1      33.756  28.419  24.186  1.00  0.00     0.075 C 
ATOM     17  C   UNL A   1      32.319  28.895  26.172  1.00  0.00     0.075 C 
ATOM     18  C   UNL A   1      33.676  26.932  24.531  1.00  0.00     0.263 C 
ATOM     19  C   UNL A   1      32.280  27.394  26.476  1.00  0.00     0.263 C 
ATOM     20  H   UNL A   1      34.260  27.044  26.438  1.00  0.00     0.348 HD
BRANCH  15  21
ATOM     21  C   UNL A   1      31.292  28.877  23.849  1.00  0.00     0.220 C 
ATOM     22  N   UNL A   1      31.115  29.673  22.756  1.00  0.00    -0.369 N 
ATOM     23  H   UNL A   1      30.338  29.533  22.167  1.00  0.00     0.159 HD
ATOM     24  H   UNL A   1      31.763  30.386  22.556  1.00  0.00     0.159 HD
ATOM     25  O   UNL A   1      30.490  27.986  24.096  1.00  0.00    -0.275 OA
ENDBRANCH  15  21
ENDBRANCH  13  14
ENDBRANCH  12  13
ENDBRANCH   7  12
BRANCH   9  26
ATOM     26  C   UNL A   1      32.596  21.362  24.857  1.00  0.00     0.253 C 
ATOM     27  O   UNL A   1      31.769  20.471  25.047  1.00  0.00    -0.269 OA
BRANCH  26  28
ATOM     28  C   UNL A   1      32.135  22.536  24.080  1.00  0.00     0.040 A 
ATOM     29  C   UNL A   1      32.914  22.935  22.986  1.00  0.00     0.014 A 
ATOM     30  C   UNL A   1      31.018  23.288  24.456  1.00  0.00     0.014 A 
ATOM     31  C   UNL A   1      32.555  24.061  22.244  1.00  0.00     0.001 A 
ATOM     32  C   UNL A   1      30.657  24.410  23.703  1.00  0.00     0.001 A 
ATOM     33  C   UNL A   1      31.422  24.794  22.599  1.00  0.00     0.000 A 
ENDBRANCH  26  28
ENDBRANCH   9  26
ENDBRANCH   5   6
ENDBRANCH   3   5
ENDBRANCH   2   3
ENDBRANCH   1   2
BRANCH   1  34
ATOM     34  C   UNL A   1      41.610  21.439  26.271  1.00  0.00     0.202 C 
BRANCH  34  35
ATOM     35  O   UNL A   1      42.413  22.153  25.341  1.00  0.00    -0.374 OA
BRANCH  35  36
ATOM     36  C   UNL A   1      43.815  21.899  25.337  1.00  0.00     0.202 C 
BRANCH  36  37
ATOM     37  C   UNL A   1      44.720  22.947  24.677  1.00  0.00     0.261 C 
BRANCH  37  38
ATOM     38  O   UNL A   1      44.109  24.250  24.566  1.00  0.00    -0.460 OA
BRANCH  38  39
ATOM     39  C   UNL A   1      44.753  25.229  25.252  1.00  0.00     0.338 C 
ATOM     40  O   UNL A   1      45.921  25.562  25.145  1.00  0.00    -0.246 OA
BRANCH  39  41
ATOM     41  C   UNL A   1      43.824  25.977  26.117  1.00  0.00     0.060 A 
ATOM     42  C   UNL A   1      44.120  27.317  26.403  1.00  0.00     0.016 A 
ATOM     43  C   UNL A   1      42.807  25.313  26.803  1.00  0.00     0.016 A 
ATOM     44  C   UNL A   1      43.431  27.983  27.418  1.00  0.00     0.010 A 
ATOM     45  C   UNL A   1      42.126  25.980  27.828  1.00  0.00     0.010 A 
ATOM     46  C   UNL A   1      42.464  27.302  28.168  1.00  0.00    -0.014 A 
BRANCH  46  47
ATOM     47  C   UNL A   1      41.908  27.916  29.401  1.00  0.00     0.031 A 
ATOM     48  C   UNL A   1      40.658  28.750  29.311  1.00  0.00     0.074 A 
ATOM     49  C   UNL A   1      42.506  27.736  30.591  1.00  0.00     0.049 A 
ATOM     50  N   UNL A   1      40.064  29.458  30.238  1.00  0.00    -0.248 NA
ATOM     51  C   UNL A   1      39.986  28.785  28.002  1.00  0.00     0.031 C 
ATOM     52  C   UNL A   1      43.688  26.910  30.826  1.00  0.00     0.029 A 
ATOM     53  N   UNL A   1      42.203  28.256  31.824  1.00  0.00    -0.354 N 
ATOM     54  C   UNL A   1      38.955  30.029  29.625  1.00  0.00     0.074 A 
ATOM     55  C   UNL A   1      38.965  29.595  28.244  1.00  0.00     0.031 C 
ATOM     56  C   UNL A   1      44.027  26.998  32.124  1.00  0.00     0.029 A 
ATOM     57  C   UNL A   1      43.108  27.915  32.798  1.00  0.00     0.049 A 
ATOM     58  H   UNL A   1      41.412  28.817  31.995  1.00  0.00     0.167 HD
ATOM     59  C   UNL A   1      38.013  30.838  30.165  1.00  0.00     0.037 A 
ATOM     60  C   UNL A   1      43.210  28.330  34.075  1.00  0.00     0.037 A 
ATOM     61  C   UNL A   1      37.999  31.275  31.536  1.00  0.00     0.049 A 
ATOM     62  C   UNL A   1      42.214  29.318  34.623  1.00  0.00     0.074 A 
ATOM     63  C   UNL A   1      37.069  32.074  32.179  1.00  0.00     0.029 A 
ATOM     64  N   UNL A   1      38.968  30.956  32.473  1.00  0.00    -0.354 N 
ATOM     65  N   UNL A   1      41.165  29.845  34.041  1.00  0.00    -0.248 NA
ATOM     66  C   UNL A   1      42.428  29.780  36.002  1.00  0.00     0.031 C 
ATOM     67  C   UNL A   1      37.499  32.274  33.495  1.00  0.00     0.029 A 
ATOM     68  C   UNL A   1      38.677  31.570  33.680  1.00  0.00     0.049 A 
ATOM     69  H   UNL A   1      39.748  30.379  32.306  1.00  0.00     0.167 HD
ATOM     70  C   UNL A   1      40.589  30.688  34.982  1.00  0.00     0.074 A 
ATOM     71  C   UNL A   1      41.396  30.593  36.181  1.00  0.00     0.031 C 
ATOM     72  C   UNL A   1      39.491  31.473  34.864  1.00  0.00     0.037 A 
BRANCH  59  73
ATOM     73  C   UNL A   1      36.924  31.329  29.261  1.00  0.00     0.057 A 
ATOM     74  C   UNL A   1      35.831  30.523  28.918  1.00  0.00     0.134 A 
ATOM     75  C   UNL A   1      36.945  32.639  28.764  1.00  0.00     0.134 A 
ATOM     76  F   UNL A   1      35.759  29.256  29.354  1.00  0.00    -0.206 F 
ATOM     77  C   UNL A   1      34.804  30.998  28.102  1.00  0.00     0.040 A 
ATOM     78  C   UNL A   1      35.916  33.131  27.961  1.00  0.00     0.040 A 
ATOM     79  F   UNL A   1      37.963  33.462  29.060  1.00  0.00    -0.206 F 
ATOM     80  C   UNL A   1      34.842  32.308  27.626  1.00  0.00     0.006 A 
ENDBRANCH  59  73
BRANCH  60  81
ATOM     81  C   UNL A   1      44.330  27.852  34.922  1.00  0.00     0.057 A 
ATOM     82  C   UNL A   1      44.201  26.706  35.713  1.00  0.00     0.134 A 
ATOM     83  C   UNL A   1      45.544  28.545  34.976  1.00  0.00     0.134 A 
ATOM     84  F   UNL A   1      43.050  26.019  35.724  1.00  0.00    -0.206 F 
ATOM     85  C   UNL A   1      45.240  26.270  36.538  1.00  0.00     0.040 A 
ATOM     86  C   UNL A   1      46.599  28.107  35.778  1.00  0.00     0.040 A 
ATOM     87  F   UNL A   1      45.723  29.655  34.245  1.00  0.00    -0.206 F 
ATOM     88  C   UNL A   1      46.445  26.969  36.566  1.00  0.00     0.006 A 
ENDBRANCH  60  81
BRANCH  72  89
ATOM     89  C   UNL A   1      39.089  32.281  36.061  1.00  0.00     0.057 A 
ATOM     90  C   UNL A   1      38.240  31.760  37.045  1.00  0.00     0.134 A 
ATOM     91  C   UNL A   1      39.590  33.574  36.254  1.00  0.00     0.134 A 
ATOM     92  F   UNL A   1      37.718  30.532  36.910  1.00  0.00    -0.206 F 
ATOM     93  C   UNL A   1      37.892  32.503  38.173  1.00  0.00     0.040 A 
ATOM     94  C   UNL A   1      39.264  34.320  37.389  1.00  0.00     0.040 A 
ATOM     95  F   UNL A   1      40.414  34.129  35.352  1.00  0.00    -0.206 F 
ATOM     96  C   UNL A   1      38.410  33.785  38.351  1.00  0.00     0.006 A 
ENDBRANCH  72  89
ENDBRANCH  46  47
ENDBRANCH  39  41
ENDBRANCH  38  39
ENDBRANCH  37  38
ENDBRANCH  36  37
ENDBRANCH  35  36
ENDBRANCH  34  35
ENDBRANCH   1  34
TORSDOF 21
ENDMDL
MODEL 2
REMARK VINA RESULT:     -11.3      0.739      5.917
REMARK SMILES NC(=O)C1CC[NH+](CC[C@H]2CN(C(=O)c3ccccc3)CC[C@H]2CC(=O)OCCOCCOC(=O)c2ccc(-c3c4nc(c(-c5c(F)cccc5F)c5ccc([nH]5)c(-c5c(F)cccc5F)c5nc(c(-c6c(F)cccc6F)c6ccc3[nH]6)C=C5)C=C4)cc2)CC1
REMARK SMILES IDX 28 1 27 2 25 3 26 4 24 5 23 6 10 7 11 8 12 9 22 10 21 11
REMARK SMILES IDX 9 12 8 13 7 14 4 15 5 16 91 17 6 18 90 19 2 21 1 22 3 25
REMARK SMILES IDX 13 26 14 27 15 28 16 29 20 30 17 31 19 32 18 33 29 34 30 35
REMARK SMILES IDX 31 36 32 37 33 38 34 39 35 40 36 41 37 42 89 43 38 44 88 45
REMARK SMILES IDX 39 46 40 47 41 48 82 49 42 50 87 51 81 52 83 53 43 54 86 55
REMARK SMILES IDX 80 56 79 57 44 59 70 60 53 61 69 62 54 63 57 64 68 65 84 66
REMARK SMILES IDX 55 67 56 68 67 70 85 71 58 72 45 73 46 74 51 75 47 76 48 77
REMARK SMILES IDX 50 78 52 79 49 80 71 81 72 82 77 83 73 84 74 85 76 86 78 87
REMARK SMILES IDX 75 88 59 89 60 90 65 91 61 92 62 93 64 94 66 95 63 96
REMARK H PARENT 7 20 1 23 1 24 83 58 57 69
REMARK Flexibility Score: inf
ROOT
ATOM      1  C   UNL A   1      40.479  21.601  27.222  1.00  0.00     0.261 C 
ENDROOT
BRANCH   1   2
ATOM      2  O   UNL A   1      39.573  22.113  26.223  1.00  0.00    -0.463 OA
BRANCH   2   3
ATOM      3  C   UNL A   1      38.932  23.266  26.563  1.00  0.00     0.306 C 
ATOM      4  O   UNL A   1      39.307  24.027  27.450  1.00  0.00    -0.252 OA
BRANCH   3   5
ATOM      5  C   UNL A   1      37.638  23.505  25.809  1.00  0.00     0.126 C 
BRANCH   5   6
ATOM      6  C   UNL A   1      36.436  22.561  26.013  1.00  0.00     0.007 C 
ATOM      7  C   UNL A   1      35.108  23.224  26.512  1.00  0.00     0.018 C 
ATOM      8  C   UNL A   1      34.045  22.096  26.639  1.00  0.00     0.124 C 
ATOM      9  N   UNL A   1      33.831  21.433  25.345  1.00  0.00    -0.338 N 
ATOM     10  C   UNL A   1      36.177  21.819  24.678  1.00  0.00     0.026 C 
ATOM     11  C   UNL A   1      35.021  20.827  24.758  1.00  0.00     0.120 C 
BRANCH   7  12
ATOM     12  C   UNL A   1      34.554  24.349  25.587  1.00  0.00     0.067 C 
BRANCH  12  13
ATOM     13  C   UNL A   1      33.372  25.170  26.160  1.00  0.00     0.262 C 
BRANCH  13  14
ATOM     14  N   UNL A   1      33.357  26.629  25.911  1.00  0.00    -0.335 N 
ATOM     15  C   UNL A   1      32.471  29.097  24.539  1.00  0.00     0.089 C 
ATOM     16  C   UNL A   1      33.838  28.457  24.278  1.00  0.00     0.075 C 
ATOM     17  C   UNL A   1      32.001  28.732  25.948  1.00  0.00     0.075 C 
ATOM     18  C   UNL A   1      33.832  26.957  24.574  1.00  0.00     0.263 C 
ATOM     19  C   UNL A   1      32.045  27.224  26.212  1.00  0.00     0.263 C 
ATOM     20  H   UNL A   1      34.018  27.052  26.561  1.00  0.00     0.348 HD
BRANCH  15  21
ATOM     21  C   UNL A   1      31.456  28.707  23.467  1.00  0.00     0.220 C 
ATOM     22  N   UNL A   1      31.951  28.623  22.201  1.00  0.00    -0.369 N 
ATOM     23  H   UNL A   1      31.357  28.377  21.455  1.00  0.00     0.159 HD
ATOM     24  H   UNL A   1      32.903  28.808  22.031  1.00  0.00     0.159 HD
ATOM     25  O   UNL A   1      30.272  28.471  23.681  1.00  0.00    -0.275 OA
ENDBRANCH  15  21
ENDBRANCH  13  14
ENDBRANCH  12  13
ENDBRANCH   7  12
BRANCH   9  26
ATOM     26  C   UNL A   1      32.577  21.542  24.739  1.00  0.00     0.253 C 
ATOM     27  O   UNL A   1      31.698  20.689  24.864  1.00  0.00    -0.269 OA
BRANCH  26  28
ATOM     28  C   UNL A   1      32.207  22.767  23.993  1.00  0.00     0.040 A 
ATOM     29  C   UNL A   1      31.052  23.449  24.397  1.00  0.00     0.014 A 
ATOM     30  C   UNL A   1      32.917  23.198  22.868  1.00  0.00     0.014 A 
ATOM     31  C   UNL A   1      30.628  24.583  23.703  1.00  0.00     0.001 A 
ATOM     32  C   UNL A   1      32.494  24.340  22.182  1.00  0.00     0.001 A 
ATOM     33  C   UNL A   1      31.354  25.032  22.600  1.00  0.00     0.000 A 
ENDBRANCH  26  28
ENDBRANCH   9  26
ENDBRANCH   5   6
ENDBRANCH   3   5
ENDBRANCH   2   3
ENDBRANCH   1   2
BRANCH   1  34
ATOM     34  C   UNL A   1      41.308  20.393  26.781  1.00  0.00     0.202 C 
BRANCH  34  35
ATOM     35  O   UNL A   1      42.215  20.582  25.703  1.00  0.00    -0.374 OA
BRANCH  35  36
ATOM     36  C   UNL A   1      43.407  21.320  25.956  1.00  0.00     0.202 C 
BRANCH  36  37
ATOM     37  C   UNL A   1      44.070  22.021  24.763  1.00  0.00     0.261 C 
BRANCH  37  38
ATOM     38  O   UNL A   1      43.520  23.325  24.480  1.00  0.00    -0.460 OA
BRANCH  38  39
ATOM     39  C   UNL A   1      44.241  24.357  24.988  1.00  0.00     0.338 C 
ATOM     40  O   UNL A   1      45.413  24.615  24.776  1.00  0.00    -0.246 OA
BRANCH  39  41
ATOM     41  C   UNL A   1      43.394  25.262  25.786  1.00  0.00     0.060 A 
ATOM     42  C   UNL A   1      43.585  26.643  25.643  1.00  0.00     0.016 A 
ATOM     43  C   UNL A   1      42.587  24.757  26.806  1.00  0.00     0.016 A 
ATOM     44  C   UNL A   1      43.007  27.525  26.558  1.00  0.00     0.010 A 
ATOM     45  C   UNL A   1      42.018  25.644  27.728  1.00  0.00     0.010 A 
ATOM     46  C   UNL A   1      42.261  27.026  27.633  1.00  0.00    -0.014 A 
BRANCH  46  47
ATOM     47  C   UNL A   1      41.857  27.927  28.742  1.00  0.00     0.031 A 
ATOM     48  C   UNL A   1      42.670  27.949  30.009  1.00  0.00     0.074 A 
ATOM     49  C   UNL A   1      40.778  28.720  28.628  1.00  0.00     0.049 A 
ATOM     50  N   UNL A   1      42.439  28.578  31.133  1.00  0.00    -0.248 NA
ATOM     51  C   UNL A   1      43.911  27.158  30.004  1.00  0.00     0.031 C 
ATOM     52  C   UNL A   1      39.937  28.837  27.439  1.00  0.00     0.029 A 
ATOM     53  N   UNL A   1      40.199  29.568  29.539  1.00  0.00    -0.354 N 
ATOM     54  C   UNL A   1      43.499  28.255  31.972  1.00  0.00     0.074 A 
ATOM     55  C   UNL A   1      44.368  27.364  31.232  1.00  0.00     0.031 C 
ATOM     56  C   UNL A   1      38.931  29.689  27.702  1.00  0.00     0.029 A 
ATOM     57  C   UNL A   1      39.040  30.147  29.087  1.00  0.00     0.049 A 
ATOM     58  H   UNL A   1      40.580  29.745  30.430  1.00  0.00     0.167 HD
ATOM     59  C   UNL A   1      43.729  28.665  33.242  1.00  0.00     0.037 A 
ATOM     60  C   UNL A   1      38.145  30.921  29.731  1.00  0.00     0.037 A 
ATOM     61  C   UNL A   1      42.868  29.549  33.983  1.00  0.00     0.049 A 
ATOM     62  C   UNL A   1      38.366  31.274  31.178  1.00  0.00     0.074 A 
ATOM     63  C   UNL A   1      43.035  30.041  35.267  1.00  0.00     0.029 A 
ATOM     64  N   UNL A   1      41.673  30.063  33.509  1.00  0.00    -0.354 N 
ATOM     65  N   UNL A   1      39.373  30.974  31.959  1.00  0.00    -0.248 NA
ATOM     66  C   UNL A   1      37.313  32.064  31.835  1.00  0.00     0.031 C 
ATOM     67  C   UNL A   1      41.917  30.821  35.585  1.00  0.00     0.029 A 
ATOM     68  C   UNL A   1      41.074  30.841  34.486  1.00  0.00     0.049 A 
ATOM     69  H   UNL A   1      41.303  29.901  32.611  1.00  0.00     0.167 HD
ATOM     70  C   UNL A   1      39.083  31.543  33.192  1.00  0.00     0.074 A 
ATOM     71  C   UNL A   1      37.812  32.222  33.053  1.00  0.00     0.031 C 
ATOM     72  C   UNL A   1      39.805  31.506  34.339  1.00  0.00     0.037 A 
BRANCH  59  73
ATOM     73  C   UNL A   1      44.955  28.142  33.926  1.00  0.00     0.057 A 
ATOM     74  C   UNL A   1      44.941  26.942  34.647  1.00  0.00     0.134 A 
ATOM     75  C   UNL A   1      46.174  28.825  33.824  1.00  0.00     0.134 A 
ATOM     76  F   UNL A   1      43.801  26.249  34.790  1.00  0.00    -0.206 F 
ATOM     77  C   UNL A   1      46.095  26.445  35.255  1.00  0.00     0.040 A 
ATOM     78  C   UNL A   1      47.338  28.329  34.412  1.00  0.00     0.040 A 
ATOM     79  F   UNL A   1      46.253  29.978  33.142  1.00  0.00    -0.206 F 
ATOM     80  C   UNL A   1      47.300  27.136  35.132  1.00  0.00     0.006 A 
ENDBRANCH  59  73
BRANCH  60  81
ATOM     81  C   UNL A   1      36.923  31.381  29.027  1.00  0.00     0.057 A 
ATOM     82  C   UNL A   1      36.810  32.692  28.555  1.00  0.00     0.134 A 
ATOM     83  C   UNL A   1      35.833  30.525  28.834  1.00  0.00     0.134 A 
ATOM     84  F   UNL A   1      37.811  33.565  28.739  1.00  0.00    -0.206 F 
ATOM     85  C   UNL A   1      35.649  33.141  27.922  1.00  0.00     0.040 A 
ATOM     86  C   UNL A   1      34.676  30.952  28.183  1.00  0.00     0.040 A 
ATOM     87  F   UNL A   1      35.882  29.258  29.272  1.00  0.00    -0.206 F 
ATOM     88  C   UNL A   1      34.580  32.266  27.730  1.00  0.00     0.006 A 
ENDBRANCH  60  81
BRANCH  72  89
ATOM     89  C   UNL A   1      39.246  32.228  35.528  1.00  0.00     0.057 A 
ATOM     90  C   UNL A   1      39.499  33.588  35.744  1.00  0.00     0.134 A 
ATOM     91  C   UNL A   1      38.415  31.568  36.441  1.00  0.00     0.134 A 
ATOM     92  F   UNL A   1      40.298  34.271  34.912  1.00  0.00    -0.206 F 
ATOM     93  C   UNL A   1      38.953  34.264  36.837  1.00  0.00     0.040 A 
ATOM     94  C   UNL A   1      37.847  32.238  37.526  1.00  0.00     0.040 A 
ATOM     95  F   UNL A   1      38.129  30.266  36.287  1.00  0.00    -0.206 F 
ATOM     96  C   UNL A   1      38.118  33.590  37.728  1.00  0.00     0.006 A 
ENDBRANCH  72  89
ENDBRANCH  46  47
ENDBRANCH  39  41
ENDBRANCH  38  39
ENDBRANCH  37  38
ENDBRANCH  36  37
ENDBRANCH  35  36
ENDBRANCH  34  35
ENDBRANCH   1  34
TORSDOF 21
ENDMDL
MODEL 3
REMARK VINA RESULT:     -10.8      1.223      2.275
REMARK SMILES NC(=O)C1CC[NH+](CC[C@H]2CN(C(=O)c3ccccc3)CC[C@H]2CC(=O)OCCOCCOC(=O)c2ccc(-c3c4nc(c(-c5c(F)cccc5F)c5ccc([nH]5)c(-c5c(F)cccc5F)c5nc(c(-c6c(F)cccc6F)c6ccc3[nH]6)C=C5)C=C4)cc2)CC1
REMARK SMILES IDX 28 1 27 2 25 3 26 4 24 5 23 6 10 7 11 8 12 9 22 10 21 11
REMARK SMILES IDX 9 12 8 13 7 14 4 15 5 16 91 17 6 18 90 19 2 21 1 22 3 25
REMARK SMILES IDX 13 26 14 27 15 28 16 29 20 30 17 31 19 32 18 33 29 34 30 35
REMARK SMILES IDX 31 36 32 37 33 38 34 39 35 40 36 41 37 42 89 43 38 44 88 45
REMARK SMILES IDX 39 46 40 47 41 48 82 49 42 50 87 51 81 52 83 53 43 54 86 55
REMARK SMILES IDX 80 56 79 57 44 59 70 60 53 61 69 62 54 63 57 64 68 65 84 66
REMARK SMILES IDX 55 67 56 68 67 70 85 71 58 72 45 73 46 74 51 75 47 76 48 77
REMARK SMILES IDX 50 78 52 79 49 80 71 81 72 82 77 83 73 84 74 85 76 86 78 87
REMARK SMILES IDX 75 88 59 89 60 90 65 91 61 92 62 93 64 94 66 95 63 96
REMARK H PARENT 7 20 1 23 1 24 83 58 57 69
REMARK Flexibility Score: inf
ROOT
ATOM      1  C   UNL A   1      40.424  22.010  27.060  1.00  0.00     0.261 C 
ENDROOT
BRANCH   1   2
ATOM      2  O   UNL A   1      39.371  22.323  26.124  1.00  0.00    -0.463 OA
BRANCH   2   3
ATOM      3  C   UNL A   1      38.702  23.482  26.376  1.00  0.00     0.306 C 
ATOM      4  O   UNL A   1      39.142  24.395  27.069  1.00  0.00    -0.252 OA
BRANCH   3   5
ATOM      5  C   UNL A   1      37.301  23.531  25.796  1.00  0.00     0.126 C 
BRANCH   5   6
ATOM      6  C   UNL A   1      36.287  22.417  26.126  1.00  0.00     0.007 C 
ATOM      7  C   UNL A   1      34.867  22.885  26.592  1.00  0.00     0.018 C 
ATOM      8  C   UNL A   1      34.022  21.608  26.859  1.00  0.00     0.124 C 
ATOM      9  N   UNL A   1      33.918  20.788  25.644  1.00  0.00    -0.338 N 
ATOM     10  C   UNL A   1      36.152  21.508  24.880  1.00  0.00     0.026 C 
ATOM     11  C   UNL A   1      35.191  20.342  25.089  1.00  0.00     0.120 C 
BRANCH   7  12
ATOM     12  C   UNL A   1      34.115  23.794  25.573  1.00  0.00     0.067 C 
BRANCH  12  13
ATOM     13  C   UNL A   1      32.744  24.342  26.045  1.00  0.00     0.262 C 
BRANCH  13  14
ATOM     14  N   UNL A   1      31.931  25.104  25.070  1.00  0.00    -0.335 N 
ATOM     15  C   UNL A   1      31.489  26.630  22.574  1.00  0.00     0.089 C 
ATOM     16  C   UNL A   1      31.571  27.306  23.946  1.00  0.00     0.075 C 
ATOM     17  C   UNL A   1      31.009  25.189  22.746  1.00  0.00     0.075 C 
ATOM     18  C   UNL A   1      32.389  26.481  24.940  1.00  0.00     0.263 C 
ATOM     19  C   UNL A   1      31.833  24.411  23.776  1.00  0.00     0.263 C 
ATOM     20  H   UNL A   1      30.983  25.152  25.441  1.00  0.00     0.348 HD
BRANCH  15  21
ATOM     21  C   UNL A   1      32.819  26.715  21.827  1.00  0.00     0.220 C 
ATOM     22  N   UNL A   1      33.506  27.880  21.995  1.00  0.00    -0.369 N 
ATOM     23  H   UNL A   1      34.372  28.010  21.545  1.00  0.00     0.159 HD
ATOM     24  H   UNL A   1      33.137  28.591  22.567  1.00  0.00     0.159 HD
ATOM     25  O   UNL A   1      33.279  25.827  21.120  1.00  0.00    -0.275 OA
ENDBRANCH  15  21
ENDBRANCH  13  14
ENDBRANCH  12  13
ENDBRANCH   7  12
BRANCH   9  26
ATOM     26  C   UNL A   1      32.659  20.611  25.064  1.00  0.00     0.253 C 
ATOM     27  O   UNL A   1      31.625  21.056  25.561  1.00  0.00    -0.269 OA
BRANCH  26  28
ATOM     28  C   UNL A   1      32.527  19.959  23.740  1.00  0.00     0.040 A 
ATOM     29  C   UNL A   1      32.153  20.763  22.655  1.00  0.00     0.014 A 
ATOM     30  C   UNL A   1      32.676  18.579  23.570  1.00  0.00     0.014 A 
ATOM     31  C   UNL A   1      31.969  20.196  21.394  1.00  0.00     0.001 A 
ATOM     32  C   UNL A   1      32.500  18.017  22.302  1.00  0.00     0.001 A 
ATOM     33  C   UNL A   1      32.149  18.825  21.216  1.00  0.00     0.000 A 
ENDBRANCH  26  28
ENDBRANCH   9  26
ENDBRANCH   5   6
ENDBRANCH   3   5
ENDBRANCH   2   3
ENDBRANCH   1   2
BRANCH   1  34
ATOM     34  C   UNL A   1      41.306  20.824  26.663  1.00  0.00     0.202 C 
BRANCH  34  35
ATOM     35  O   UNL A   1      42.282  21.046  25.654  1.00  0.00    -0.374 OA
BRANCH  35  36
ATOM     36  C   UNL A   1      43.297  22.014  25.907  1.00  0.00     0.202 C 
BRANCH  36  37
ATOM     37  C   UNL A   1      43.870  22.768  24.700  1.00  0.00     0.261 C 
BRANCH  37  38
ATOM     38  O   UNL A   1      43.454  24.148  24.630  1.00  0.00    -0.460 OA
BRANCH  38  39
ATOM     39  C   UNL A   1      44.187  24.992  25.399  1.00  0.00     0.338 C 
ATOM     40  O   UNL A   1      45.393  25.171  25.359  1.00  0.00    -0.246 OA
BRANCH  39  41
ATOM     41  C   UNL A   1      43.325  25.808  26.273  1.00  0.00     0.060 A 
ATOM     42  C   UNL A   1      43.670  27.151  26.474  1.00  0.00     0.016 A 
ATOM     43  C   UNL A   1      42.329  25.207  27.043  1.00  0.00     0.016 A 
ATOM     44  C   UNL A   1      43.052  27.886  27.487  1.00  0.00     0.010 A 
ATOM     45  C   UNL A   1      41.720  25.943  28.066  1.00  0.00     0.010 A 
ATOM     46  C   UNL A   1      42.109  27.270  28.320  1.00  0.00    -0.014 A 
BRANCH  46  47
ATOM     47  C   UNL A   1      41.635  27.960  29.547  1.00  0.00     0.031 A 
ATOM     48  C   UNL A   1      40.438  28.868  29.467  1.00  0.00     0.074 A 
ATOM     49  C   UNL A   1      42.260  27.781  30.724  1.00  0.00     0.049 A 
ATOM     50  N   UNL A   1      39.921  29.643  30.386  1.00  0.00    -0.248 NA
ATOM     51  C   UNL A   1      39.726  28.903  28.180  1.00  0.00     0.031 C 
ATOM     52  C   UNL A   1      43.395  26.889  30.951  1.00  0.00     0.029 A 
ATOM     53  N   UNL A   1      42.032  28.361  31.947  1.00  0.00    -0.354 N 
ATOM     54  C   UNL A   1      38.830  30.264  29.789  1.00  0.00     0.074 A 
ATOM     55  C   UNL A   1      38.766  29.784  28.424  1.00  0.00     0.031 C 
ATOM     56  C   UNL A   1      43.783  27.000  32.233  1.00  0.00     0.029 A 
ATOM     57  C   UNL A   1      42.947  27.996  32.903  1.00  0.00     0.049 A 
ATOM     58  H   UNL A   1      41.285  28.978  32.121  1.00  0.00     0.167 HD
ATOM     59  C   UNL A   1      37.960  31.150  30.329  1.00  0.00     0.037 A 
ATOM     60  C   UNL A   1      43.117  28.447  34.161  1.00  0.00     0.037 A 
ATOM     61  C   UNL A   1      38.020  31.632  31.683  1.00  0.00     0.049 A 
ATOM     62  C   UNL A   1      42.205  29.515  34.703  1.00  0.00     0.074 A 
ATOM     63  C   UNL A   1      37.164  32.511  32.326  1.00  0.00     0.029 A 
ATOM     64  N   UNL A   1      38.998  31.284  32.600  1.00  0.00    -0.354 N 
ATOM     65  N   UNL A   1      41.172  30.087  34.136  1.00  0.00    -0.248 NA
ATOM     66  C   UNL A   1      42.494  30.008  36.058  1.00  0.00     0.031 C 
ATOM     67  C   UNL A   1      37.650  32.727  33.620  1.00  0.00     0.029 A 
ATOM     68  C   UNL A   1      38.787  31.955  33.793  1.00  0.00     0.049 A 
ATOM     69  H   UNL A   1      39.734  30.653  32.429  1.00  0.00     0.167 HD
ATOM     70  C   UNL A   1      40.683  30.997  35.064  1.00  0.00     0.074 A 
ATOM     71  C   UNL A   1      41.522  30.891  36.240  1.00  0.00     0.031 C 
ATOM     72  C   UNL A   1      39.633  31.846  34.953  1.00  0.00     0.037 A 
BRANCH  59  73
ATOM     73  C   UNL A   1      36.874  31.679  29.442  1.00  0.00     0.057 A 
ATOM     74  C   UNL A   1      36.958  32.945  28.849  1.00  0.00     0.134 A 
ATOM     75  C   UNL A   1      35.753  30.895  29.143  1.00  0.00     0.134 A 
ATOM     76  F   UNL A   1      38.002  33.747  29.106  1.00  0.00    -0.206 F 
ATOM     77  C   UNL A   1      35.957  33.418  27.999  1.00  0.00     0.040 A 
ATOM     78  C   UNL A   1      34.754  31.349  28.281  1.00  0.00     0.040 A 
ATOM     79  F   UNL A   1      35.616  29.671  29.677  1.00  0.00    -0.206 F 
ATOM     80  C   UNL A   1      34.854  32.616  27.708  1.00  0.00     0.006 A 
ENDBRANCH  59  73
BRANCH  60  81
ATOM     81  C   UNL A   1      44.233  27.926  34.988  1.00  0.00     0.057 A 
ATOM     82  C   UNL A   1      45.500  28.515  34.948  1.00  0.00     0.134 A 
ATOM     83  C   UNL A   1      44.061  26.812  35.817  1.00  0.00     0.134 A 
ATOM     84  F   UNL A   1      45.732  29.566  34.148  1.00  0.00    -0.206 F 
ATOM     85  C   UNL A   1      46.563  28.008  35.698  1.00  0.00     0.040 A 
ATOM     86  C   UNL A   1      45.108  26.308  36.590  1.00  0.00     0.040 A 
ATOM     87  F   UNL A   1      42.869  26.200  35.890  1.00  0.00    -0.206 F 
ATOM     88  C   UNL A   1      46.365  26.905  36.527  1.00  0.00     0.006 A 
ENDBRANCH  60  81
BRANCH  72  89
ATOM     89  C   UNL A   1      39.323  32.719  36.133  1.00  0.00     0.057 A 
ATOM     90  C   UNL A   1      39.920  33.976  36.289  1.00  0.00     0.134 A 
ATOM     91  C   UNL A   1      38.391  32.317  37.096  1.00  0.00     0.134 A 
ATOM     92  F   UNL A   1      40.831  34.411  35.406  1.00  0.00    -0.206 F 
ATOM     93  C   UNL A   1      39.608  34.798  37.373  1.00  0.00     0.040 A 
ATOM     94  C   UNL A   1      38.056  33.140  38.174  1.00  0.00     0.040 A 
ATOM     95  F   UNL A   1      37.780  31.127  37.000  1.00  0.00    -0.206 F 
ATOM     96  C   UNL A   1      38.668  34.384  38.316  1.00  0.00     0.006 A 
ENDBRANCH  72  89
ENDBRANCH  46  47
ENDBRANCH  39  41
ENDBRANCH  38  39
ENDBRANCH  37  38
ENDBRANCH  36  37
ENDBRANCH  35  36
ENDBRANCH  34  35
ENDBRANCH   1  34
TORSDOF 21
ENDMDL
