MODEL 1
REMARK VINA RESULT:      -9.1      0.000      0.000
REMARK SMILES CC(C)Cc1cc2c(cc1Cl)C=C(C(=O)OCCOCCOC(=O)c1ccc(-c3c4nc(c(-c5c(F)cccc5F)c5ccc([nH]5)c(-c5c(F)cccc5F)c5nc(c(-c6c(F)cccc6F)c6ccc3[nH]6)C=C5)C=C4)cc1)[C@@H](C(F)(F)F)O2
REMARK SMILES IDX 19 1 18 2 17 3 16 4 14 5 15 6 13 7 5 8 6 9 10 10 7 11 9 12
REMARK SMILES IDX 11 13 8 14 84 15 12 16 79 17 4 18 2 19 1 20 3 21 80 22 81 23
REMARK SMILES IDX 82 24 83 25 20 26 21 27 22 28 23 29 24 30 25 31 26 32 78 33
REMARK SMILES IDX 27 34 77 35 28 36 29 37 30 38 71 39 31 40 76 41 70 42 72 43
REMARK SMILES IDX 32 44 75 45 69 46 68 47 33 49 59 50 42 51 58 52 43 53 46 54
REMARK SMILES IDX 57 55 73 56 44 57 45 58 56 60 74 61 47 62 34 63 35 64 40 65
REMARK SMILES IDX 36 66 37 67 39 68 41 69 38 70 60 71 61 72 66 73 62 74 63 75
REMARK SMILES IDX 65 76 67 77 64 78 48 79 49 80 54 81 50 82 51 83 53 84 55 85
REMARK SMILES IDX 52 86
REMARK H PARENT 72 48 46 59
REMARK Flexibility Score: inf
ROOT
ATOM      1  O   UNL A   1      45.986  19.813  24.947  1.00  0.00    -0.374 OA
ENDROOT
BRANCH   1   2
ATOM      2  C   UNL A   1      45.547  21.122  24.598  1.00  0.00     0.202 C 
BRANCH   2   3
ATOM      3  C   UNL A   1      45.592  22.201  25.684  1.00  0.00     0.261 C 
BRANCH   3   4
ATOM      4  O   UNL A   1      46.819  22.947  25.650  1.00  0.00    -0.460 OA
BRANCH   4   5
ATOM      5  C   UNL A   1      46.765  24.070  24.895  1.00  0.00     0.338 C 
ATOM      6  O   UNL A   1      46.993  24.159  23.700  1.00  0.00    -0.246 OA
BRANCH   5   7
ATOM      7  C   UNL A   1      46.253  25.194  25.701  1.00  0.00     0.087 C 
ATOM      8  C   UNL A   1      43.557  29.146  27.210  1.00  0.00    -0.025 A 
ATOM      9  C   UNL A   1      44.815  28.619  27.562  1.00  0.00     0.052 A 
ATOM     10  C   UNL A   1      42.757  28.425  26.308  1.00  0.00     0.045 A 
ATOM     11  C   UNL A   1      45.274  27.424  27.008  1.00  0.00     0.128 A 
ATOM     12  C   UNL A   1      43.211  27.221  25.767  1.00  0.00     0.032 A 
ATOM     13  Cl  UNL A   1      41.209  28.990  25.790  1.00  0.00    -0.084 Cl
ATOM     14  C   UNL A   1      44.476  26.732  26.100  1.00  0.00     0.019 A 
ATOM     15  O   UNL A   1      46.508  26.998  27.408  1.00  0.00    -0.475 OA
ATOM     16  C   UNL A   1      44.987  25.543  25.449  1.00  0.00     0.027 C 
ATOM     17  C   UNL A   1      47.139  25.897  26.691  1.00  0.00     0.316 C 
BRANCH   8  18
ATOM     18  C   UNL A   1      43.116  30.456  27.821  1.00  0.00     0.040 C 
BRANCH  18  19
ATOM     19  C   UNL A   1      44.163  31.581  27.705  1.00  0.00    -0.013 C 
ATOM     20  C   UNL A   1      44.265  32.128  26.278  1.00  0.00     0.008 C 
ATOM     21  C   UNL A   1      43.816  32.712  28.674  1.00  0.00     0.008 C 
ENDBRANCH  18  19
ENDBRANCH   8  18
BRANCH  17  22
ATOM     22  C   UNL A   1      48.439  26.409  26.053  1.00  0.00     0.430 C 
ATOM     23  F   UNL A   1      49.371  25.429  25.980  1.00  0.00    -0.167 F 
ATOM     24  F   UNL A   1      48.238  26.844  24.786  1.00  0.00    -0.167 F 
ATOM     25  F   UNL A   1      48.979  27.433  26.752  1.00  0.00    -0.167 F 
ENDBRANCH  17  22
ENDBRANCH   5   7
ENDBRANCH   4   5
ENDBRANCH   3   4
ENDBRANCH   2   3
ENDBRANCH   1   2
BRANCH   1  26
ATOM     26  C   UNL A   1      45.032  18.753  24.967  1.00  0.00     0.202 C 
BRANCH  26  27
ATOM     27  C   UNL A   1      43.756  18.938  25.799  1.00  0.00     0.261 C 
BRANCH  27  28
ATOM     28  O   UNL A   1      42.707  19.610  25.084  1.00  0.00    -0.460 OA
BRANCH  28  29
ATOM     29  C   UNL A   1      41.571  19.808  25.798  1.00  0.00     0.338 C 
ATOM     30  O   UNL A   1      40.668  19.008  25.992  1.00  0.00    -0.246 OA
BRANCH  29  31
ATOM     31  C   UNL A   1      41.646  21.109  26.489  1.00  0.00     0.060 A 
ATOM     32  C   UNL A   1      41.378  21.218  27.854  1.00  0.00     0.016 A 
ATOM     33  C   UNL A   1      42.031  22.233  25.747  1.00  0.00     0.016 A 
ATOM     34  C   UNL A   1      41.526  22.457  28.481  1.00  0.00     0.010 A 
ATOM     35  C   UNL A   1      42.188  23.468  26.379  1.00  0.00     0.010 A 
ATOM     36  C   UNL A   1      41.952  23.584  27.755  1.00  0.00    -0.014 A 
BRANCH  36  37
ATOM     37  C   UNL A   1      42.242  24.849  28.476  1.00  0.00     0.031 A 
ATOM     38  C   UNL A   1      41.222  25.942  28.583  1.00  0.00     0.074 A 
ATOM     39  C   UNL A   1      43.448  24.994  29.058  1.00  0.00     0.049 A 
ATOM     40  N   UNL A   1      41.263  27.039  29.296  1.00  0.00    -0.248 NA
ATOM     41  C   UNL A   1      39.999  25.789  27.782  1.00  0.00     0.031 C 
ATOM     42  C   UNL A   1      44.542  24.025  28.979  1.00  0.00     0.029 A 
ATOM     43  N   UNL A   1      43.946  25.999  29.848  1.00  0.00    -0.354 N 
ATOM     44  C   UNL A   1      40.064  27.695  29.055  1.00  0.00     0.074 A 
ATOM     45  C   UNL A   1      39.344  26.904  28.078  1.00  0.00     0.031 C 
ATOM     46  C   UNL A   1      45.565  24.458  29.733  1.00  0.00     0.029 A 
ATOM     47  C   UNL A   1      45.210  25.744  30.323  1.00  0.00     0.049 A 
ATOM     48  H   UNL A   1      43.448  26.821  30.054  1.00  0.00     0.167 HD
ATOM     49  C   UNL A   1      39.595  28.838  29.616  1.00  0.00     0.037 A 
ATOM     50  C   UNL A   1      45.989  26.461  31.155  1.00  0.00     0.037 A 
ATOM     51  C   UNL A   1      40.331  29.642  30.561  1.00  0.00     0.049 A 
ATOM     52  C   UNL A   1      45.463  27.752  31.720  1.00  0.00     0.074 A 
ATOM     53  C   UNL A   1      39.935  30.805  31.198  1.00  0.00     0.029 A 
ATOM     54  N   UNL A   1      41.624  29.376  30.987  1.00  0.00    -0.354 N 
ATOM     55  N   UNL A   1      44.290  28.313  31.557  1.00  0.00    -0.248 NA
ATOM     56  C   UNL A   1      46.371  28.501  32.600  1.00  0.00     0.031 C 
ATOM     57  C   UNL A   1      41.008  31.272  31.967  1.00  0.00     0.029 A 
ATOM     58  C   UNL A   1      42.050  30.366  31.860  1.00  0.00     0.049 A 
ATOM     59  H   UNL A   1      42.161  28.598  30.711  1.00  0.00     0.167 HD
ATOM     60  C   UNL A   1      44.306  29.461  32.341  1.00  0.00     0.074 A 
ATOM     61  C   UNL A   1      45.598  29.500  32.994  1.00  0.00     0.031 C 
ATOM     62  C   UNL A   1      43.339  30.397  32.506  1.00  0.00     0.037 A 
BRANCH  49  63
ATOM     63  C   UNL A   1      38.218  29.285  29.212  1.00  0.00     0.057 A 
ATOM     64  C   UNL A   1      37.975  29.814  27.939  1.00  0.00     0.134 A 
ATOM     65  C   UNL A   1      37.132  29.208  30.096  1.00  0.00     0.134 A 
ATOM     66  F   UNL A   1      38.969  29.927  27.046  1.00  0.00    -0.206 F 
ATOM     67  C   UNL A   1      36.702  30.246  27.558  1.00  0.00     0.040 A 
ATOM     68  C   UNL A   1      35.849  29.608  29.716  1.00  0.00     0.040 A 
ATOM     69  F   UNL A   1      37.292  28.705  31.329  1.00  0.00    -0.206 F 
ATOM     70  C   UNL A   1      35.634  30.133  28.444  1.00  0.00     0.006 A 
ENDBRANCH  49  63
BRANCH  50  71
ATOM     71  C   UNL A   1      47.339  25.971  31.531  1.00  0.00     0.057 A 
ATOM     72  C   UNL A   1      47.546  25.228  32.698  1.00  0.00     0.134 A 
ATOM     73  C   UNL A   1      48.447  26.194  30.703  1.00  0.00     0.134 A 
ATOM     74  F   UNL A   1      46.529  24.988  33.538  1.00  0.00    -0.206 F 
ATOM     75  C   UNL A   1      48.802  24.717  33.026  1.00  0.00     0.040 A 
ATOM     76  C   UNL A   1      49.701  25.662  31.002  1.00  0.00     0.040 A 
ATOM     77  F   UNL A   1      48.309  26.886  29.562  1.00  0.00    -0.206 F 
ATOM     78  C   UNL A   1      49.881  24.922  32.168  1.00  0.00     0.006 A 
ENDBRANCH  50  71
BRANCH  62  79
ATOM     79  C   UNL A   1      43.631  31.515  33.469  1.00  0.00     0.057 A 
ATOM     80  C   UNL A   1      43.300  31.390  34.825  1.00  0.00     0.134 A 
ATOM     81  C   UNL A   1      44.245  32.709  33.064  1.00  0.00     0.134 A 
ATOM     82  F   UNL A   1      42.703  30.279  35.281  1.00  0.00    -0.206 F 
ATOM     83  C   UNL A   1      43.578  32.404  35.743  1.00  0.00     0.040 A 
ATOM     84  C   UNL A   1      44.559  33.716  33.980  1.00  0.00     0.040 A 
ATOM     85  F   UNL A   1      44.601  32.891  31.784  1.00  0.00    -0.206 F 
ATOM     86  C   UNL A   1      44.222  33.566  35.323  1.00  0.00     0.006 A 
ENDBRANCH  62  79
ENDBRANCH  36  37
ENDBRANCH  29  31
ENDBRANCH  28  29
ENDBRANCH  27  28
ENDBRANCH  26  27
ENDBRANCH   1  26
TORSDOF 17
ENDMDL
MODEL 2
REMARK VINA RESULT:      -8.6      5.297     10.325
REMARK SMILES CC(C)Cc1cc2c(cc1Cl)C=C(C(=O)OCCOCCOC(=O)c1ccc(-c3c4nc(c(-c5c(F)cccc5F)c5ccc([nH]5)c(-c5c(F)cccc5F)c5nc(c(-c6c(F)cccc6F)c6ccc3[nH]6)C=C5)C=C4)cc1)[C@@H](C(F)(F)F)O2
REMARK SMILES IDX 19 1 18 2 17 3 16 4 14 5 15 6 13 7 5 8 6 9 10 10 7 11 9 12
REMARK SMILES IDX 11 13 8 14 84 15 12 16 79 17 4 18 2 19 1 20 3 21 80 22 81 23
REMARK SMILES IDX 82 24 83 25 20 26 21 27 22 28 23 29 24 30 25 31 26 32 78 33
REMARK SMILES IDX 27 34 77 35 28 36 29 37 30 38 71 39 31 40 76 41 70 42 72 43
REMARK SMILES IDX 32 44 75 45 69 46 68 47 33 49 59 50 42 51 58 52 43 53 46 54
REMARK SMILES IDX 57 55 73 56 44 57 45 58 56 60 74 61 47 62 34 63 35 64 40 65
REMARK SMILES IDX 36 66 37 67 39 68 41 69 38 70 60 71 61 72 66 73 62 74 63 75
REMARK SMILES IDX 65 76 67 77 64 78 48 79 49 80 54 81 50 82 51 83 53 84 55 85
REMARK SMILES IDX 52 86
REMARK H PARENT 72 48 46 59
REMARK Flexibility Score: inf
ROOT
ATOM      1  O   UNL A   1      35.807  21.977  26.126  1.00  0.00    -0.374 OA
ENDROOT
BRANCH   1   2
ATOM      2  C   UNL A   1      34.562  22.460  26.622  1.00  0.00     0.202 C 
BRANCH   2   3
ATOM      3  C   UNL A   1      34.083  23.829  26.131  1.00  0.00     0.261 C 
BRANCH   3   4
ATOM      4  O   UNL A   1      32.649  23.921  26.109  1.00  0.00    -0.460 OA
BRANCH   4   5
ATOM      5  C   UNL A   1      32.104  23.783  24.878  1.00  0.00     0.338 C 
ATOM      6  O   UNL A   1      31.915  22.740  24.274  1.00  0.00    -0.246 OA
BRANCH   5   7
ATOM      7  C   UNL A   1      31.632  25.091  24.388  1.00  0.00     0.087 C 
ATOM      8  C   UNL A   1      28.671  28.765  22.683  1.00  0.00    -0.025 A 
ATOM      9  C   UNL A   1      30.060  28.532  22.669  1.00  0.00     0.052 A 
ATOM     10  C   UNL A   1      27.850  27.872  23.391  1.00  0.00     0.045 A 
ATOM     11  C   UNL A   1      30.610  27.425  23.315  1.00  0.00     0.128 A 
ATOM     12  C   UNL A   1      28.403  26.773  24.051  1.00  0.00     0.032 A 
ATOM     13  Cl  UNL A   1      26.132  28.049  23.455  1.00  0.00    -0.084 Cl
ATOM     14  C   UNL A   1      29.779  26.539  23.996  1.00  0.00     0.019 A 
ATOM     15  O   UNL A   1      31.966  27.283  23.239  1.00  0.00    -0.475 OA
ATOM     16  C   UNL A   1      30.332  25.338  24.586  1.00  0.00     0.027 C 
ATOM     17  C   UNL A   1      32.569  26.032  23.682  1.00  0.00     0.316 C 
BRANCH   8  18
ATOM     18  C   UNL A   1      28.123  29.966  21.948  1.00  0.00     0.040 C 
BRANCH  18  19
ATOM     19  C   UNL A   1      28.494  31.315  22.596  1.00  0.00    -0.013 C 
ATOM     20  C   UNL A   1      28.428  32.471  21.595  1.00  0.00     0.008 C 
ATOM     21  C   UNL A   1      27.564  31.594  23.778  1.00  0.00     0.008 C 
ENDBRANCH  18  19
ENDBRANCH   8  18
BRANCH  17  22
ATOM     22  C   UNL A   1      33.267  25.373  22.483  1.00  0.00     0.430 C 
ATOM     23  F   UNL A   1      34.388  24.717  22.867  1.00  0.00    -0.167 F 
ATOM     24  F   UNL A   1      32.472  24.458  21.881  1.00  0.00    -0.167 F 
ATOM     25  F   UNL A   1      33.625  26.279  21.545  1.00  0.00    -0.167 F 
ENDBRANCH  17  22
ENDBRANCH   5   7
ENDBRANCH   4   5
ENDBRANCH   3   4
ENDBRANCH   2   3
ENDBRANCH   1   2
BRANCH   1  26
ATOM     26  C   UNL A   1      35.809  20.822  25.289  1.00  0.00     0.202 C 
BRANCH  26  27
ATOM     27  C   UNL A   1      37.154  20.158  24.966  1.00  0.00     0.261 C 
BRANCH  27  28
ATOM     28  O   UNL A   1      38.259  21.074  24.999  1.00  0.00    -0.460 OA
BRANCH  28  29
ATOM     29  C   UNL A   1      39.213  20.778  25.916  1.00  0.00     0.338 C 
ATOM     30  O   UNL A   1      39.696  19.681  26.156  1.00  0.00    -0.246 OA
BRANCH  29  31
ATOM     31  C   UNL A   1      39.745  22.026  26.494  1.00  0.00     0.060 A 
ATOM     32  C   UNL A   1      40.809  22.008  27.396  1.00  0.00     0.016 A 
ATOM     33  C   UNL A   1      39.180  23.241  26.083  1.00  0.00     0.016 A 
ATOM     34  C   UNL A   1      41.324  23.217  27.866  1.00  0.00     0.010 A 
ATOM     35  C   UNL A   1      39.704  24.448  26.547  1.00  0.00     0.010 A 
ATOM     36  C   UNL A   1      40.792  24.445  27.429  1.00  0.00    -0.014 A 
BRANCH  36  37
ATOM     37  C   UNL A   1      41.455  25.711  27.830  1.00  0.00     0.031 A 
ATOM     38  C   UNL A   1      42.850  26.039  27.394  1.00  0.00     0.074 A 
ATOM     39  C   UNL A   1      40.763  26.585  28.588  1.00  0.00     0.049 A 
ATOM     40  N   UNL A   1      43.515  27.158  27.534  1.00  0.00    -0.248 NA
ATOM     41  C   UNL A   1      43.602  24.972  26.719  1.00  0.00     0.031 C 
ATOM     42  C   UNL A   1      39.419  26.358  29.119  1.00  0.00     0.029 A 
ATOM     43  N   UNL A   1      41.086  27.846  29.023  1.00  0.00    -0.354 N 
ATOM     44  C   UNL A   1      44.751  26.944  26.941  1.00  0.00     0.074 A 
ATOM     45  C   UNL A   1      44.768  25.564  26.498  1.00  0.00     0.031 C 
ATOM     46  C   UNL A   1      39.010  27.461  29.766  1.00  0.00     0.029 A 
ATOM     47  C   UNL A   1      40.073  28.459  29.718  1.00  0.00     0.049 A 
ATOM     48  H   UNL A   1      41.958  28.268  28.853  1.00  0.00     0.167 HD
ATOM     49  C   UNL A   1      45.769  27.822  26.760  1.00  0.00     0.037 A 
ATOM     50  C   UNL A   1      40.004  29.696  30.246  1.00  0.00     0.037 A 
ATOM     51  C   UNL A   1      45.762  29.184  27.236  1.00  0.00     0.049 A 
ATOM     52  C   UNL A   1      41.169  30.632  30.075  1.00  0.00     0.074 A 
ATOM     53  C   UNL A   1      46.736  30.156  27.086  1.00  0.00     0.029 A 
ATOM     54  N   UNL A   1      44.738  29.759  27.973  1.00  0.00    -0.354 N 
ATOM     55  N   UNL A   1      42.295  30.447  29.430  1.00  0.00    -0.248 NA
ATOM     56  C   UNL A   1      41.042  31.957  30.696  1.00  0.00     0.031 C 
ATOM     57  C   UNL A   1      46.325  31.301  27.780  1.00  0.00     0.029 A 
ATOM     58  C   UNL A   1      45.066  31.065  28.307  1.00  0.00     0.049 A 
ATOM     59  H   UNL A   1      43.899  29.307  28.223  1.00  0.00     0.167 HD
ATOM     60  C   UNL A   1      42.995  31.642  29.538  1.00  0.00     0.074 A 
ATOM     61  C   UNL A   1      42.154  32.550  30.290  1.00  0.00     0.031 C 
ATOM     62  C   UNL A   1      44.222  31.962  29.057  1.00  0.00     0.037 A 
BRANCH  49  63
ATOM     63  C   UNL A   1      46.978  27.327  26.017  1.00  0.00     0.057 A 
ATOM     64  C   UNL A   1      48.055  26.745  26.696  1.00  0.00     0.134 A 
ATOM     65  C   UNL A   1      47.084  27.446  24.624  1.00  0.00     0.134 A 
ATOM     66  F   UNL A   1      48.028  26.610  28.031  1.00  0.00    -0.206 F 
ATOM     67  C   UNL A   1      49.190  26.295  26.017  1.00  0.00     0.040 A 
ATOM     68  C   UNL A   1      48.199  26.971  23.931  1.00  0.00     0.040 A 
ATOM     69  F   UNL A   1      46.085  27.986  23.909  1.00  0.00    -0.206 F 
ATOM     70  C   UNL A   1      49.259  26.398  24.630  1.00  0.00     0.006 A 
ENDBRANCH  49  63
BRANCH  50  71
ATOM     71  C   UNL A   1      38.783  30.141  30.963  1.00  0.00     0.057 A 
ATOM     72  C   UNL A   1      38.651  29.981  32.348  1.00  0.00     0.134 A 
ATOM     73  C   UNL A   1      37.737  30.782  30.286  1.00  0.00     0.134 A 
ATOM     74  F   UNL A   1      39.611  29.366  33.052  1.00  0.00    -0.206 F 
ATOM     75  C   UNL A   1      37.530  30.449  33.034  1.00  0.00     0.040 A 
ATOM     76  C   UNL A   1      36.626  31.283  30.964  1.00  0.00     0.040 A 
ATOM     77  F   UNL A   1      37.811  30.979  28.961  1.00  0.00    -0.206 F 
ATOM     78  C   UNL A   1      36.520  31.116  32.343  1.00  0.00     0.006 A 
ENDBRANCH  50  71
BRANCH  62  79
ATOM     79  C   UNL A   1      44.702  33.367  29.292  1.00  0.00     0.057 A 
ATOM     80  C   UNL A   1      45.457  33.679  30.431  1.00  0.00     0.134 A 
ATOM     81  C   UNL A   1      44.430  34.410  28.396  1.00  0.00     0.134 A 
ATOM     82  F   UNL A   1      45.747  32.733  31.336  1.00  0.00    -0.206 F 
ATOM     83  C   UNL A   1      45.932  34.971  30.664  1.00  0.00     0.040 A 
ATOM     84  C   UNL A   1      44.929  35.699  28.600  1.00  0.00     0.040 A 
ATOM     85  F   UNL A   1      43.725  34.180  27.278  1.00  0.00    -0.206 F 
ATOM     86  C   UNL A   1      45.680  35.982  29.739  1.00  0.00     0.006 A 
ENDBRANCH  62  79
ENDBRANCH  36  37
ENDBRANCH  29  31
ENDBRANCH  28  29
ENDBRANCH  27  28
ENDBRANCH  26  27
ENDBRANCH   1  26
TORSDOF 17
ENDMDL
MODEL 3
REMARK VINA RESULT:      -8.6      6.016     11.480
REMARK SMILES CC(C)Cc1cc2c(cc1Cl)C=C(C(=O)OCCOCCOC(=O)c1ccc(-c3c4nc(c(-c5c(F)cccc5F)c5ccc([nH]5)c(-c5c(F)cccc5F)c5nc(c(-c6c(F)cccc6F)c6ccc3[nH]6)C=C5)C=C4)cc1)[C@@H](C(F)(F)F)O2
REMARK SMILES IDX 19 1 18 2 17 3 16 4 14 5 15 6 13 7 5 8 6 9 10 10 7 11 9 12
REMARK SMILES IDX 11 13 8 14 84 15 12 16 79 17 4 18 2 19 1 20 3 21 80 22 81 23
REMARK SMILES IDX 82 24 83 25 20 26 21 27 22 28 23 29 24 30 25 31 26 32 78 33
REMARK SMILES IDX 27 34 77 35 28 36 29 37 30 38 71 39 31 40 76 41 70 42 72 43
REMARK SMILES IDX 32 44 75 45 69 46 68 47 33 49 59 50 42 51 58 52 43 53 46 54
REMARK SMILES IDX 57 55 73 56 44 57 45 58 56 60 74 61 47 62 34 63 35 64 40 65
REMARK SMILES IDX 36 66 37 67 39 68 41 69 38 70 60 71 61 72 66 73 62 74 63 75
REMARK SMILES IDX 65 76 67 77 64 78 48 79 49 80 54 81 50 82 51 83 53 84 55 85
REMARK SMILES IDX 52 86
REMARK H PARENT 72 48 46 59
REMARK Flexibility Score: inf
ROOT
ATOM      1  O   UNL A   1      32.197  30.410  26.288  1.00  0.00    -0.374 OA
ENDROOT
BRANCH   1   2
ATOM      2  C   UNL A   1      32.093  29.492  25.204  1.00  0.00     0.202 C 
BRANCH   2   3
ATOM      3  C   UNL A   1      31.804  28.026  25.537  1.00  0.00     0.261 C 
BRANCH   3   4
ATOM      4  O   UNL A   1      33.003  27.235  25.569  1.00  0.00    -0.460 OA
BRANCH   4   5
ATOM      5  C   UNL A   1      33.243  26.546  24.428  1.00  0.00     0.338 C 
ATOM      6  O   UNL A   1      33.707  26.989  23.391  1.00  0.00    -0.246 OA
BRANCH   5   7
ATOM      7  C   UNL A   1      32.983  25.110  24.643  1.00  0.00     0.087 C 
ATOM      8  C   UNL A   1      33.566  20.132  24.843  1.00  0.00    -0.025 A 
ATOM      9  C   UNL A   1      32.452  20.993  24.816  1.00  0.00     0.052 A 
ATOM     10  C   UNL A   1      34.848  20.698  24.930  1.00  0.00     0.045 A 
ATOM     11  C   UNL A   1      32.614  22.378  24.844  1.00  0.00     0.128 A 
ATOM     12  C   UNL A   1      35.008  22.084  24.974  1.00  0.00     0.032 A 
ATOM     13  Cl  UNL A   1      36.283  19.736  24.947  1.00  0.00    -0.084 Cl
ATOM     14  C   UNL A   1      33.894  22.923  24.910  1.00  0.00     0.019 A 
ATOM     15  O   UNL A   1      31.473  23.129  24.808  1.00  0.00    -0.475 OA
ATOM     16  C   UNL A   1      34.072  24.359  24.841  1.00  0.00     0.027 C 
ATOM     17  C   UNL A   1      31.583  24.566  24.592  1.00  0.00     0.316 C 
BRANCH   8  18
ATOM     18  C   UNL A   1      33.337  18.639  24.788  1.00  0.00     0.040 C 
BRANCH  18  19
ATOM     19  C   UNL A   1      33.599  18.020  23.401  1.00  0.00    -0.013 C 
ATOM     20  C   UNL A   1      34.045  16.559  23.497  1.00  0.00     0.008 C 
ATOM     21  C   UNL A   1      32.337  18.124  22.543  1.00  0.00     0.008 C 
ENDBRANCH  18  19
ENDBRANCH   8  18
BRANCH  17  22
ATOM     22  C   UNL A   1      30.865  24.920  23.281  1.00  0.00     0.430 C 
ATOM     23  F   UNL A   1      29.921  23.999  22.972  1.00  0.00    -0.167 F 
ATOM     24  F   UNL A   1      30.229  26.112  23.363  1.00  0.00    -0.167 F 
ATOM     25  F   UNL A   1      31.722  24.990  22.237  1.00  0.00    -0.167 F 
ENDBRANCH  17  22
ENDBRANCH   5   7
ENDBRANCH   4   5
ENDBRANCH   3   4
ENDBRANCH   2   3
ENDBRANCH   1   2
BRANCH   1  26
ATOM     26  C   UNL A   1      31.486  31.645  26.210  1.00  0.00     0.202 C 
BRANCH  26  27
ATOM     27  C   UNL A   1      31.699  32.679  27.323  1.00  0.00     0.261 C 
BRANCH  27  28
ATOM     28  O   UNL A   1      32.981  33.323  27.259  1.00  0.00    -0.460 OA
BRANCH  28  29
ATOM     29  C   UNL A   1      33.261  34.134  28.309  1.00  0.00     0.338 C 
ATOM     30  O   UNL A   1      32.579  35.054  28.738  1.00  0.00    -0.246 OA
BRANCH  29  31
ATOM     31  C   UNL A   1      34.459  33.636  29.011  1.00  0.00     0.060 A 
ATOM     32  C   UNL A   1      34.358  32.684  30.025  1.00  0.00     0.016 A 
ATOM     33  C   UNL A   1      35.712  34.116  28.607  1.00  0.00     0.016 A 
ATOM     34  C   UNL A   1      35.522  32.191  30.616  1.00  0.00     0.010 A 
ATOM     35  C   UNL A   1      36.875  33.614  29.193  1.00  0.00     0.010 A 
ATOM     36  C   UNL A   1      36.789  32.634  30.191  1.00  0.00    -0.014 A 
BRANCH  36  37
ATOM     37  C   UNL A   1      38.009  31.987  30.733  1.00  0.00     0.031 A 
ATOM     38  C   UNL A   1      38.562  32.355  32.076  1.00  0.00     0.074 A 
ATOM     39  C   UNL A   1      38.610  31.033  29.995  1.00  0.00     0.049 A 
ATOM     40  N   UNL A   1      39.526  31.785  32.754  1.00  0.00    -0.248 NA
ATOM     41  C   UNL A   1      37.960  33.516  32.745  1.00  0.00     0.031 C 
ATOM     42  C   UNL A   1      38.199  30.624  28.652  1.00  0.00     0.029 A 
ATOM     43  N   UNL A   1      39.678  30.220  30.280  1.00  0.00    -0.354 N 
ATOM     44  C   UNL A   1      39.630  32.497  33.940  1.00  0.00     0.074 A 
ATOM     45  C   UNL A   1      38.674  33.583  33.861  1.00  0.00     0.031 C 
ATOM     46  C   UNL A   1      38.973  29.604  28.248  1.00  0.00     0.029 A 
ATOM     47  C   UNL A   1      39.949  29.307  29.290  1.00  0.00     0.049 A 
ATOM     48  H   UNL A   1      40.200  30.286  31.112  1.00  0.00     0.167 HD
ATOM     49  C   UNL A   1      40.432  32.253  35.007  1.00  0.00     0.037 A 
ATOM     50  C   UNL A   1      40.872  28.329  29.237  1.00  0.00     0.037 A 
ATOM     51  C   UNL A   1      41.408  31.194  35.067  1.00  0.00     0.049 A 
ATOM     52  C   UNL A   1      41.783  28.116  30.415  1.00  0.00     0.074 A 
ATOM     53  C   UNL A   1      42.253  30.855  36.109  1.00  0.00     0.029 A 
ATOM     54  N   UNL A   1      41.685  30.314  34.030  1.00  0.00    -0.354 N 
ATOM     55  N   UNL A   1      41.808  28.737  31.569  1.00  0.00    -0.248 NA
ATOM     56  C   UNL A   1      42.786  27.050  30.284  1.00  0.00     0.031 C 
ATOM     57  C   UNL A   1      43.079  29.807  35.684  1.00  0.00     0.029 A 
ATOM     58  C   UNL A   1      42.704  29.449  34.399  1.00  0.00     0.049 A 
ATOM     59  H   UNL A   1      41.224  30.305  33.160  1.00  0.00     0.167 HD
ATOM     60  C   UNL A   1      42.803  28.116  32.313  1.00  0.00     0.074 A 
ATOM     61  C   UNL A   1      43.340  27.055  31.487  1.00  0.00     0.031 C 
ATOM     62  C   UNL A   1      43.233  28.395  33.569  1.00  0.00     0.037 A 
BRANCH  49  63
ATOM     63  C   UNL A   1      40.282  33.160  36.197  1.00  0.00     0.057 A 
ATOM     64  C   UNL A   1      41.074  34.306  36.336  1.00  0.00     0.134 A 
ATOM     65  C   UNL A   1      39.363  32.884  37.220  1.00  0.00     0.134 A 
ATOM     66  F   UNL A   1      41.982  34.625  35.401  1.00  0.00    -0.206 F 
ATOM     67  C   UNL A   1      40.954  35.148  37.444  1.00  0.00     0.040 A 
ATOM     68  C   UNL A   1      39.212  33.735  38.317  1.00  0.00     0.040 A 
ATOM     69  F   UNL A   1      38.568  31.807  37.148  1.00  0.00    -0.206 F 
ATOM     70  C   UNL A   1      40.014  34.868  38.433  1.00  0.00     0.006 A 
ENDBRANCH  49  63
BRANCH  50  71
ATOM     71  C   UNL A   1      40.973  27.454  28.042  1.00  0.00     0.057 A 
ATOM     72  C   UNL A   1      40.223  26.277  27.934  1.00  0.00     0.134 A 
ATOM     73  C   UNL A   1      41.787  27.801  26.956  1.00  0.00     0.134 A 
ATOM     74  F   UNL A   1      39.432  25.884  28.942  1.00  0.00    -0.206 F 
ATOM     75  C   UNL A   1      40.271  25.482  26.788  1.00  0.00     0.040 A 
ATOM     76  C   UNL A   1      41.821  27.032  25.793  1.00  0.00     0.040 A 
ATOM     77  F   UNL A   1      42.519  28.925  26.993  1.00  0.00    -0.206 F 
ATOM     78  C   UNL A   1      41.062  25.868  25.707  1.00  0.00     0.006 A 
ENDBRANCH  50  71
BRANCH  62  79
ATOM     79  C   UNL A   1      44.305  27.507  34.135  1.00  0.00     0.057 A 
ATOM     80  C   UNL A   1      45.656  27.862  34.020  1.00  0.00     0.134 A 
ATOM     81  C   UNL A   1      44.010  26.310  34.803  1.00  0.00     0.134 A 
ATOM     82  F   UNL A   1      46.014  28.989  33.386  1.00  0.00    -0.206 F 
ATOM     83  C   UNL A   1      46.671  27.066  34.554  1.00  0.00     0.040 A 
ATOM     84  C   UNL A   1      45.014  25.523  35.372  1.00  0.00     0.040 A 
ATOM     85  F   UNL A   1      42.738  25.916  34.962  1.00  0.00    -0.206 F 
ATOM     86  C   UNL A   1      46.350  25.899  35.245  1.00  0.00     0.006 A 
ENDBRANCH  62  79
ENDBRANCH  36  37
ENDBRANCH  29  31
ENDBRANCH  28  29
ENDBRANCH  27  28
ENDBRANCH  26  27
ENDBRANCH   1  26
TORSDOF 17
ENDMDL
