MODEL 1
REMARK VINA RESULT:     -10.1      0.000      0.000
REMARK SMILES CC(=O)N1CCC[C@H]([N@H+](CC(=O)OCCOCCOC(=O)c2ccc(-c3c4nc(c(-c5c(F)cccc5F)c5ccc([nH]5)c(-c5c(F)cccc5F)c5nc(c(-c6c(F)cccc6F)c6ccc3[nH]6)C=C5)C=C4)cc2)C(C)C)C1
REMARK SMILES IDX 15 1 14 2 13 3 11 4 12 5 10 6 9 7 8 9 4 10 5 11 79 12 6 13
REMARK SMILES IDX 7 14 2 15 1 16 3 17 76 18 77 19 78 20 16 21 17 22 18 23
REMARK SMILES IDX 19 24 20 25 21 26 22 27 23 28 75 29 24 30 74 31 25 32 26 33
REMARK SMILES IDX 27 34 68 35 28 36 73 37 67 38 69 39 29 40 72 41 66 42 65 43
REMARK SMILES IDX 30 45 56 46 39 47 55 48 40 49 43 50 54 51 70 52 41 53 42 54
REMARK SMILES IDX 53 56 71 57 44 58 31 59 32 60 37 61 33 62 34 63 36 64 38 65
REMARK SMILES IDX 35 66 57 67 58 68 63 69 59 70 60 71 62 72 64 73 61 74 45 75
REMARK SMILES IDX 46 76 51 77 47 78 48 79 50 80 52 81 49 82
REMARK H PARENT 9 8 69 44 43 55
REMARK Flexibility Score: inf
ROOT
ATOM      1  C   UNL A   1      33.603  21.284  26.518  1.00  0.00     0.202 C 
ENDROOT
BRANCH   1   2
ATOM      2  C   UNL A   1      32.958  22.233  27.543  1.00  0.00     0.261 C 
BRANCH   2   3
ATOM      3  O   UNL A   1      32.643  23.546  27.080  1.00  0.00    -0.459 OA
BRANCH   3   4
ATOM      4  C   UNL A   1      31.392  23.804  26.612  1.00  0.00     0.361 C 
ATOM      5  O   UNL A   1      30.369  23.699  27.251  1.00  0.00    -0.245 OA
BRANCH   4   6
ATOM      6  C   UNL A   1      31.478  24.187  25.133  1.00  0.00     0.387 C 
BRANCH   6   7
ATOM      7  N   UNL A   1      32.569  25.151  24.870  1.00  0.00    -0.320 N 
ATOM      8  H   UNL A   1      32.617  25.712  24.019  1.00  0.00     0.349 HD
BRANCH   7   9
ATOM      9  C   UNL A   1      32.386  26.462  25.544  1.00  0.00     0.204 C 
ATOM     10  N   UNL A   1      31.076  27.765  23.823  1.00  0.00    -0.337 N 
ATOM     11  C   UNL A   1      32.296  28.462  23.424  1.00  0.00     0.120 C 
ATOM     12  C   UNL A   1      31.061  27.221  25.165  1.00  0.00     0.184 C 
ATOM     13  C   UNL A   1      33.629  28.025  24.016  1.00  0.00     0.028 C 
ATOM     14  C   UNL A   1      33.475  27.536  25.436  1.00  0.00     0.069 C 
BRANCH  10  15
ATOM     15  C   UNL A   1      29.933  27.927  23.058  1.00  0.00     0.219 C 
ATOM     16  C   UNL A   1      28.590  27.455  23.502  1.00  0.00     0.114 C 
ATOM     17  O   UNL A   1      29.906  28.541  22.001  1.00  0.00    -0.275 OA
ENDBRANCH  10  15
ENDBRANCH   7   9
BRANCH   7  18
ATOM     18  C   UNL A   1      33.812  24.497  24.415  1.00  0.00     0.178 C 
ATOM     19  C   UNL A   1      34.029  24.690  22.908  1.00  0.00     0.075 C 
ATOM     20  C   UNL A   1      35.128  24.668  25.182  1.00  0.00     0.075 C 
ENDBRANCH   7  18
ENDBRANCH   6   7
ENDBRANCH   4   6
ENDBRANCH   3   4
ENDBRANCH   2   3
ENDBRANCH   1   2
BRANCH   1  21
ATOM     21  O   UNL A   1      35.034  21.331  26.366  1.00  0.00    -0.374 OA
BRANCH  21  22
ATOM     22  C   UNL A   1      35.516  20.994  25.049  1.00  0.00     0.202 C 
BRANCH  22  23
ATOM     23  C   UNL A   1      36.905  20.240  25.000  1.00  0.00     0.261 C 
BRANCH  23  24
ATOM     24  O   UNL A   1      38.076  21.119  25.002  1.00  0.00    -0.460 OA
BRANCH  24  25
ATOM     25  C   UNL A   1      39.131  20.867  25.837  1.00  0.00     0.338 C 
ATOM     26  O   UNL A   1      39.658  19.776  25.988  1.00  0.00    -0.246 OA
BRANCH  25  27
ATOM     27  C   UNL A   1      39.712  22.143  26.432  1.00  0.00     0.060 A 
ATOM     28  C   UNL A   1      39.050  23.349  26.139  1.00  0.00     0.016 A 
ATOM     29  C   UNL A   1      40.757  22.197  27.364  1.00  0.00     0.016 A 
ATOM     30  C   UNL A   1      39.340  24.550  26.829  1.00  0.00     0.010 A 
ATOM     31  C   UNL A   1      41.040  23.402  28.072  1.00  0.00     0.010 A 
ATOM     32  C   UNL A   1      40.341  24.606  27.810  1.00  0.00    -0.014 A 
BRANCH  32  33
ATOM     33  C   UNL A   1      40.900  25.955  28.220  1.00  0.00     0.031 A 
ATOM     34  C   UNL A   1      42.310  26.243  27.742  1.00  0.00     0.074 A 
ATOM     35  C   UNL A   1      40.260  26.948  28.886  1.00  0.00     0.049 A 
ATOM     36  N   UNL A   1      43.067  27.299  27.910  1.00  0.00    -0.248 NA
ATOM     37  C   UNL A   1      42.957  25.161  26.983  1.00  0.00     0.031 C 
ATOM     38  C   UNL A   1      38.902  26.906  29.425  1.00  0.00     0.029 A 
ATOM     39  N   UNL A   1      40.690  28.227  29.219  1.00  0.00    -0.354 N 
ATOM     40  C   UNL A   1      44.273  26.990  27.291  1.00  0.00     0.074 A 
ATOM     41  C   UNL A   1      44.180  25.626  26.831  1.00  0.00     0.031 C 
ATOM     42  C   UNL A   1      38.608  28.094  29.996  1.00  0.00     0.029 A 
ATOM     43  C   UNL A   1      39.756  28.998  29.882  1.00  0.00     0.049 A 
ATOM     44  H   UNL A   1      41.591  28.557  28.997  1.00  0.00     0.167 HD
ATOM     45  C   UNL A   1      45.357  27.767  27.061  1.00  0.00     0.037 A 
ATOM     46  C   UNL A   1      39.811  30.276  30.336  1.00  0.00     0.037 A 
ATOM     47  C   UNL A   1      45.485  29.138  27.455  1.00  0.00     0.049 A 
ATOM     48  C   UNL A   1      41.059  31.118  30.123  1.00  0.00     0.074 A 
ATOM     49  C   UNL A   1      46.548  29.996  27.237  1.00  0.00     0.029 A 
ATOM     50  N   UNL A   1      44.522  29.853  28.141  1.00  0.00    -0.354 N 
ATOM     51  N   UNL A   1      42.171  30.817  29.497  1.00  0.00    -0.248 NA
ATOM     52  C   UNL A   1      41.050  32.488  30.674  1.00  0.00     0.031 C 
ATOM     53  C   UNL A   1      46.247  31.223  27.835  1.00  0.00     0.029 A 
ATOM     54  C   UNL A   1      44.973  31.142  28.373  1.00  0.00     0.049 A 
ATOM     55  H   UNL A   1      43.648  29.500  28.424  1.00  0.00     0.167 HD
ATOM     56  C   UNL A   1      42.965  31.963  29.546  1.00  0.00     0.074 A 
ATOM     57  C   UNL A   1      42.207  32.972  30.248  1.00  0.00     0.031 C 
ATOM     58  C   UNL A   1      44.214  32.158  29.052  1.00  0.00     0.037 A 
BRANCH  45  59
ATOM     59  C   UNL A   1      46.499  27.116  26.338  1.00  0.00     0.057 A 
ATOM     60  C   UNL A   1      47.523  26.448  27.025  1.00  0.00     0.134 A 
ATOM     61  C   UNL A   1      46.599  27.202  24.945  1.00  0.00     0.134 A 
ATOM     62  F   UNL A   1      47.500  26.361  28.364  1.00  0.00    -0.206 F 
ATOM     63  C   UNL A   1      48.632  25.933  26.355  1.00  0.00     0.040 A 
ATOM     64  C   UNL A   1      47.683  26.656  24.261  1.00  0.00     0.040 A 
ATOM     65  F   UNL A   1      45.652  27.830  24.232  1.00  0.00    -0.206 F 
ATOM     66  C   UNL A   1      48.710  26.032  24.968  1.00  0.00     0.006 A 
ENDBRANCH  45  59
BRANCH  46  67
ATOM     67  C   UNL A   1      38.655  30.902  31.057  1.00  0.00     0.057 A 
ATOM     68  C   UNL A   1      38.459  30.711  32.435  1.00  0.00     0.134 A 
ATOM     69  C   UNL A   1      37.651  31.593  30.368  1.00  0.00     0.134 A 
ATOM     70  F   UNL A   1      39.350  30.009  33.151  1.00  0.00    -0.206 F 
ATOM     71  C   UNL A   1      37.306  31.158  33.090  1.00  0.00     0.040 A 
ATOM     72  C   UNL A   1      36.505  32.070  31.016  1.00  0.00     0.040 A 
ATOM     73  F   UNL A   1      37.751  31.792  29.047  1.00  0.00    -0.206 F 
ATOM     74  C   UNL A   1      36.324  31.844  32.379  1.00  0.00     0.006 A 
ENDBRANCH  46  67
BRANCH  58  75
ATOM     75  C   UNL A   1      44.835  33.521  29.196  1.00  0.00     0.057 A 
ATOM     76  C   UNL A   1      45.675  33.851  30.267  1.00  0.00     0.134 A 
ATOM     77  C   UNL A   1      44.636  34.501  28.213  1.00  0.00     0.134 A 
ATOM     78  F   UNL A   1      45.910  32.964  31.245  1.00  0.00    -0.206 F 
ATOM     79  C   UNL A   1      46.270  35.111  30.371  1.00  0.00     0.040 A 
ATOM     80  C   UNL A   1      45.249  35.754  28.289  1.00  0.00     0.040 A 
ATOM     81  F   UNL A   1      43.860  34.251  27.147  1.00  0.00    -0.206 F 
ATOM     82  C   UNL A   1      46.063  36.065  29.375  1.00  0.00     0.006 A 
ENDBRANCH  58  75
ENDBRANCH  32  33
ENDBRANCH  25  27
ENDBRANCH  24  25
ENDBRANCH  23  24
ENDBRANCH  22  23
ENDBRANCH  21  22
ENDBRANCH   1  21
TORSDOF 18
ENDMDL
MODEL 2
REMARK VINA RESULT:     -10.0      4.098      9.339
REMARK SMILES CC(=O)N1CCC[C@H]([N@H+](CC(=O)OCCOCCOC(=O)c2ccc(-c3c4nc(c(-c5c(F)cccc5F)c5ccc([nH]5)c(-c5c(F)cccc5F)c5nc(c(-c6c(F)cccc6F)c6ccc3[nH]6)C=C5)C=C4)cc2)C(C)C)C1
REMARK SMILES IDX 15 1 14 2 13 3 11 4 12 5 10 6 9 7 8 9 4 10 5 11 79 12 6 13
REMARK SMILES IDX 7 14 2 15 1 16 3 17 76 18 77 19 78 20 16 21 17 22 18 23
REMARK SMILES IDX 19 24 20 25 21 26 22 27 23 28 75 29 24 30 74 31 25 32 26 33
REMARK SMILES IDX 27 34 68 35 28 36 73 37 67 38 69 39 29 40 72 41 66 42 65 43
REMARK SMILES IDX 30 45 56 46 39 47 55 48 40 49 43 50 54 51 70 52 41 53 42 54
REMARK SMILES IDX 53 56 71 57 44 58 31 59 32 60 37 61 33 62 34 63 36 64 38 65
REMARK SMILES IDX 35 66 57 67 58 68 63 69 59 70 60 71 62 72 64 73 61 74 45 75
REMARK SMILES IDX 46 76 51 77 47 78 48 79 50 80 52 81 49 82
REMARK H PARENT 9 8 69 44 43 55
REMARK Flexibility Score: inf
ROOT
ATOM      1  C   UNL A   1      31.926  28.981  26.842  1.00  0.00     0.202 C 
ENDROOT
BRANCH   1   2
ATOM      2  C   UNL A   1      31.802  28.792  25.320  1.00  0.00     0.261 C 
BRANCH   2   3
ATOM      3  O   UNL A   1      31.597  27.455  24.863  1.00  0.00    -0.459 OA
BRANCH   3   4
ATOM      4  C   UNL A   1      32.673  26.701  24.508  1.00  0.00     0.361 C 
ATOM      5  O   UNL A   1      33.401  26.919  23.565  1.00  0.00    -0.245 OA
BRANCH   4   6
ATOM      6  C   UNL A   1      32.778  25.499  25.449  1.00  0.00     0.387 C 
BRANCH   6   7
ATOM      7  N   UNL A   1      32.880  24.221  24.711  1.00  0.00    -0.320 N 
ATOM      8  H   UNL A   1      32.975  24.175  23.696  1.00  0.00     0.349 HD
BRANCH   7   9
ATOM      9  C   UNL A   1      34.245  23.634  24.715  1.00  0.00     0.204 C 
ATOM     10  N   UNL A   1      33.780  21.216  25.270  1.00  0.00    -0.337 N 
ATOM     11  C   UNL A   1      34.188  21.455  26.652  1.00  0.00     0.120 C 
ATOM     12  C   UNL A   1      34.316  22.125  24.278  1.00  0.00     0.184 C 
ATOM     13  C   UNL A   1      34.493  22.878  27.101  1.00  0.00     0.028 C 
ATOM     14  C   UNL A   1      35.099  23.696  25.986  1.00  0.00     0.069 C 
BRANCH  10  15
ATOM     15  C   UNL A   1      33.190  20.005  24.947  1.00  0.00     0.219 C 
ATOM     16  C   UNL A   1      33.976  18.816  24.505  1.00  0.00     0.114 C 
ATOM     17  O   UNL A   1      31.997  19.776  25.077  1.00  0.00    -0.275 OA
ENDBRANCH  10  15
ENDBRANCH   7   9
BRANCH   7  18
ATOM     18  C   UNL A   1      31.574  23.555  24.540  1.00  0.00     0.178 C 
ATOM     19  C   UNL A   1      30.812  23.462  25.868  1.00  0.00     0.075 C 
ATOM     20  C   UNL A   1      30.629  23.939  23.395  1.00  0.00     0.075 C 
ENDBRANCH   7  18
ENDBRANCH   6   7
ENDBRANCH   4   6
ENDBRANCH   3   4
ENDBRANCH   2   3
ENDBRANCH   1   2
BRANCH   1  21
ATOM     21  O   UNL A   1      32.490  30.216  27.322  1.00  0.00    -0.374 OA
BRANCH  21  22
ATOM     22  C   UNL A   1      31.800  31.407  26.889  1.00  0.00     0.202 C 
BRANCH  22  23
ATOM     23  C   UNL A   1      32.666  32.731  26.870  1.00  0.00     0.261 C 
BRANCH  23  24
ATOM     24  O   UNL A   1      32.125  33.824  27.681  1.00  0.00    -0.460 OA
BRANCH  24  25
ATOM     25  C   UNL A   1      32.951  34.570  28.478  1.00  0.00     0.338 C 
ATOM     26  O   UNL A   1      32.714  35.705  28.861  1.00  0.00    -0.246 OA
BRANCH  25  27
ATOM     27  C   UNL A   1      34.132  33.762  28.999  1.00  0.00     0.060 A 
ATOM     28  C   UNL A   1      35.419  34.202  28.642  1.00  0.00     0.016 A 
ATOM     29  C   UNL A   1      34.047  32.711  29.921  1.00  0.00     0.016 A 
ATOM     30  C   UNL A   1      36.584  33.692  29.264  1.00  0.00     0.010 A 
ATOM     31  C   UNL A   1      35.218  32.207  30.561  1.00  0.00     0.010 A 
ATOM     32  C   UNL A   1      36.512  32.683  30.236  1.00  0.00    -0.014 A 
BRANCH  32  33
ATOM     33  C   UNL A   1      37.759  31.886  30.569  1.00  0.00     0.031 A 
ATOM     34  C   UNL A   1      38.299  32.087  31.971  1.00  0.00     0.074 A 
ATOM     35  C   UNL A   1      38.384  30.965  29.792  1.00  0.00     0.049 A 
ATOM     36  N   UNL A   1      39.334  31.550  32.570  1.00  0.00    -0.248 NA
ATOM     37  C   UNL A   1      37.568  33.057  32.801  1.00  0.00     0.031 C 
ATOM     38  C   UNL A   1      38.035  30.593  28.423  1.00  0.00     0.029 A 
ATOM     39  N   UNL A   1      39.475  30.150  30.071  1.00  0.00    -0.354 N 
ATOM     40  C   UNL A   1      39.374  32.135  33.831  1.00  0.00     0.074 A 
ATOM     41  C   UNL A   1      38.327  33.127  33.875  1.00  0.00     0.031 C 
ATOM     42  C   UNL A   1      38.871  29.623  27.994  1.00  0.00     0.029 A 
ATOM     43  C   UNL A   1      39.836  29.297  29.047  1.00  0.00     0.049 A 
ATOM     44  H   UNL A   1      39.951  30.180  30.932  1.00  0.00     0.167 HD
ATOM     45  C   UNL A   1      40.162  31.856  34.894  1.00  0.00     0.037 A 
ATOM     46  C   UNL A   1      40.816  28.361  28.967  1.00  0.00     0.037 A 
ATOM     47  C   UNL A   1      41.185  30.854  34.920  1.00  0.00     0.049 A 
ATOM     48  C   UNL A   1      41.733  28.100  30.151  1.00  0.00     0.074 A 
ATOM     49  C   UNL A   1      42.011  30.499  35.971  1.00  0.00     0.029 A 
ATOM     50  N   UNL A   1      41.519  30.042  33.852  1.00  0.00    -0.354 N 
ATOM     51  N   UNL A   1      41.724  28.637  31.347  1.00  0.00    -0.248 NA
ATOM     52  C   UNL A   1      42.793  27.088  29.971  1.00  0.00     0.031 C 
ATOM     53  C   UNL A   1      42.881  29.501  35.524  1.00  0.00     0.029 A 
ATOM     54  C   UNL A   1      42.555  29.197  34.213  1.00  0.00     0.049 A 
ATOM     55  H   UNL A   1      41.087  30.063  32.968  1.00  0.00     0.167 HD
ATOM     56  C   UNL A   1      42.740  28.003  32.063  1.00  0.00     0.074 A 
ATOM     57  C   UNL A   1      43.338  27.031  31.178  1.00  0.00     0.031 C 
ATOM     58  C   UNL A   1      43.140  28.212  33.342  1.00  0.00     0.037 A 
BRANCH  45  59
ATOM     59  C   UNL A   1      39.927  32.676  36.128  1.00  0.00     0.057 A 
ATOM     60  C   UNL A   1      38.923  32.352  37.052  1.00  0.00     0.134 A 
ATOM     61  C   UNL A   1      40.682  33.831  36.366  1.00  0.00     0.134 A 
ATOM     62  F   UNL A   1      38.144  31.276  36.860  1.00  0.00    -0.206 F 
ATOM     63  C   UNL A   1      38.645  33.175  38.142  1.00  0.00     0.040 A 
ATOM     64  C   UNL A   1      40.439  34.639  37.475  1.00  0.00     0.040 A 
ATOM     65  F   UNL A   1      41.655  34.196  35.519  1.00  0.00    -0.206 F 
ATOM     66  C   UNL A   1      39.409  34.319  38.359  1.00  0.00     0.006 A 
ENDBRANCH  45  59
BRANCH  46  67
ATOM     67  C   UNL A   1      41.030  27.557  27.720  1.00  0.00     0.057 A 
ATOM     68  C   UNL A   1      40.510  26.258  27.586  1.00  0.00     0.134 A 
ATOM     69  C   UNL A   1      41.864  28.010  26.691  1.00  0.00     0.134 A 
ATOM     70  F   UNL A   1      39.749  25.734  28.558  1.00  0.00    -0.206 F 
ATOM     71  C   UNL A   1      40.829  25.439  26.498  1.00  0.00     0.040 A 
ATOM     72  C   UNL A   1      42.170  27.211  25.582  1.00  0.00     0.040 A 
ATOM     73  F   UNL A   1      42.421  29.227  26.757  1.00  0.00    -0.206 F 
ATOM     74  C   UNL A   1      41.661  25.917  25.487  1.00  0.00     0.006 A 
ENDBRANCH  46  67
BRANCH  58  75
ATOM     75  C   UNL A   1      44.240  27.348  33.898  1.00  0.00     0.057 A 
ATOM     76  C   UNL A   1      43.983  26.120  34.522  1.00  0.00     0.134 A 
ATOM     77  C   UNL A   1      45.583  27.724  33.754  1.00  0.00     0.134 A 
ATOM     78  F   UNL A   1      42.722  25.697  34.696  1.00  0.00    -0.206 F 
ATOM     79  C   UNL A   1      45.016  25.314  35.005  1.00  0.00     0.040 A 
ATOM     80  C   UNL A   1      46.627  26.913  34.205  1.00  0.00     0.040 A 
ATOM     81  F   UNL A   1      45.907  28.878  33.150  1.00  0.00    -0.206 F 
ATOM     82  C   UNL A   1      46.344  25.707  34.842  1.00  0.00     0.006 A 
ENDBRANCH  58  75
ENDBRANCH  32  33
ENDBRANCH  25  27
ENDBRANCH  24  25
ENDBRANCH  23  24
ENDBRANCH  22  23
ENDBRANCH  21  22
ENDBRANCH   1  21
TORSDOF 18
ENDMDL
MODEL 3
REMARK VINA RESULT:      -9.9      2.166      3.253
REMARK SMILES CC(=O)N1CCC[C@H]([N@H+](CC(=O)OCCOCCOC(=O)c2ccc(-c3c4nc(c(-c5c(F)cccc5F)c5ccc([nH]5)c(-c5c(F)cccc5F)c5nc(c(-c6c(F)cccc6F)c6ccc3[nH]6)C=C5)C=C4)cc2)C(C)C)C1
REMARK SMILES IDX 15 1 14 2 13 3 11 4 12 5 10 6 9 7 8 9 4 10 5 11 79 12 6 13
REMARK SMILES IDX 7 14 2 15 1 16 3 17 76 18 77 19 78 20 16 21 17 22 18 23
REMARK SMILES IDX 19 24 20 25 21 26 22 27 23 28 75 29 24 30 74 31 25 32 26 33
REMARK SMILES IDX 27 34 68 35 28 36 73 37 67 38 69 39 29 40 72 41 66 42 65 43
REMARK SMILES IDX 30 45 56 46 39 47 55 48 40 49 43 50 54 51 70 52 41 53 42 54
REMARK SMILES IDX 53 56 71 57 44 58 31 59 32 60 37 61 33 62 34 63 36 64 38 65
REMARK SMILES IDX 35 66 57 67 58 68 63 69 59 70 60 71 62 72 64 73 61 74 45 75
REMARK SMILES IDX 46 76 51 77 47 78 48 79 50 80 52 81 49 82
REMARK H PARENT 9 8 69 44 43 55
REMARK Flexibility Score: inf
ROOT
ATOM      1  C   UNL A   1      37.642  22.004  25.313  1.00  0.00     0.202 C 
ENDROOT
BRANCH   1   2
ATOM      2  C   UNL A   1      36.536  22.939  25.832  1.00  0.00     0.261 C 
BRANCH   2   3
ATOM      3  O   UNL A   1      35.854  23.719  24.850  1.00  0.00    -0.459 OA
BRANCH   3   4
ATOM      4  C   UNL A   1      34.503  23.857  24.931  1.00  0.00     0.361 C 
ATOM      5  O   UNL A   1      33.752  23.087  25.487  1.00  0.00    -0.245 OA
BRANCH   4   6
ATOM      6  C   UNL A   1      34.078  25.106  24.155  1.00  0.00     0.387 C 
BRANCH   6   7
ATOM      7  N   UNL A   1      32.689  25.508  24.467  1.00  0.00    -0.320 N 
ATOM      8  H   UNL A   1      32.063  24.939  25.037  1.00  0.00     0.349 HD
BRANCH   7   9
ATOM      9  C   UNL A   1      32.582  26.479  25.586  1.00  0.00     0.204 C 
ATOM     10  N   UNL A   1      31.435  28.437  24.482  1.00  0.00    -0.337 N 
ATOM     11  C   UNL A   1      32.717  29.130  24.379  1.00  0.00     0.120 C 
ATOM     12  C   UNL A   1      31.332  27.432  25.518  1.00  0.00     0.184 C 
ATOM     13  C   UNL A   1      33.992  28.394  24.767  1.00  0.00     0.028 C 
ATOM     14  C   UNL A   1      33.752  27.420  25.896  1.00  0.00     0.069 C 
BRANCH  10  15
ATOM     15  C   UNL A   1      30.335  28.970  23.831  1.00  0.00     0.219 C 
ATOM     16  C   UNL A   1      29.408  28.145  23.003  1.00  0.00     0.114 C 
ATOM     17  O   UNL A   1      29.977  30.133  23.944  1.00  0.00    -0.275 OA
ENDBRANCH  10  15
ENDBRANCH   7   9
BRANCH   7  18
ATOM     18  C   UNL A   1      31.759  25.264  23.346  1.00  0.00     0.178 C 
ATOM     19  C   UNL A   1      32.481  25.328  21.993  1.00  0.00     0.075 C 
ATOM     20  C   UNL A   1      30.762  24.100  23.377  1.00  0.00     0.075 C 
ENDBRANCH   7  18
ENDBRANCH   6   7
ENDBRANCH   4   6
ENDBRANCH   3   4
ENDBRANCH   2   3
ENDBRANCH   1   2
BRANCH   1  21
ATOM     21  O   UNL A   1      37.243  20.745  24.739  1.00  0.00    -0.374 OA
BRANCH  21  22
ATOM     22  C   UNL A   1      38.134  19.643  25.014  1.00  0.00     0.202 C 
BRANCH  22  23
ATOM     23  C   UNL A   1      39.498  20.024  25.716  1.00  0.00     0.261 C 
BRANCH  23  24
ATOM     24  O   UNL A   1      40.591  19.080  25.478  1.00  0.00    -0.460 OA
BRANCH  24  25
ATOM     25  C   UNL A   1      41.817  19.279  26.054  1.00  0.00     0.338 C 
ATOM     26  O   UNL A   1      42.722  18.460  26.070  1.00  0.00    -0.246 OA
BRANCH  25  27
ATOM     27  C   UNL A   1      42.008  20.716  26.519  1.00  0.00     0.060 A 
ATOM     28  C   UNL A   1      41.893  20.966  27.898  1.00  0.00     0.016 A 
ATOM     29  C   UNL A   1      42.433  21.778  25.709  1.00  0.00     0.016 A 
ATOM     30  C   UNL A   1      42.294  22.197  28.472  1.00  0.00     0.010 A 
ATOM     31  C   UNL A   1      42.852  23.012  26.287  1.00  0.00     0.010 A 
ATOM     32  C   UNL A   1      42.781  23.248  27.682  1.00  0.00    -0.014 A 
BRANCH  32  33
ATOM     33  C   UNL A   1      42.805  24.653  28.253  1.00  0.00     0.031 A 
ATOM     34  C   UNL A   1      44.180  25.181  28.612  1.00  0.00     0.074 A 
ATOM     35  C   UNL A   1      41.760  25.506  28.397  1.00  0.00     0.049 A 
ATOM     36  N   UNL A   1      44.546  26.339  29.106  1.00  0.00    -0.248 NA
ATOM     37  C   UNL A   1      45.296  24.246  28.398  1.00  0.00     0.031 C 
ATOM     38  C   UNL A   1      40.356  25.226  28.102  1.00  0.00     0.029 A 
ATOM     39  N   UNL A   1      41.733  26.824  28.836  1.00  0.00    -0.354 N 
ATOM     40  C   UNL A   1      45.924  26.251  29.271  1.00  0.00     0.074 A 
ATOM     41  C   UNL A   1      46.311  24.906  28.917  1.00  0.00     0.031 C 
ATOM     42  C   UNL A   1      39.617  26.330  28.347  1.00  0.00     0.029 A 
ATOM     43  C   UNL A   1      40.482  27.410  28.829  1.00  0.00     0.049 A 
ATOM     44  H   UNL A   1      42.542  27.302  29.127  1.00  0.00     0.167 HD
ATOM     45  C   UNL A   1      46.819  27.199  29.630  1.00  0.00     0.037 A 
ATOM     46  C   UNL A   1      40.080  28.663  29.163  1.00  0.00     0.037 A 
ATOM     47  C   UNL A   1      46.496  28.558  29.949  1.00  0.00     0.049 A 
ATOM     48  C   UNL A   1      41.091  29.701  29.622  1.00  0.00     0.074 A 
ATOM     49  C   UNL A   1      47.355  29.582  30.301  1.00  0.00     0.029 A 
ATOM     50  N   UNL A   1      45.217  29.083  29.949  1.00  0.00    -0.354 N 
ATOM     51  N   UNL A   1      42.394  29.607  29.729  1.00  0.00    -0.248 NA
ATOM     52  C   UNL A   1      40.568  31.031  29.996  1.00  0.00     0.031 C 
ATOM     53  C   UNL A   1      46.589  30.723  30.562  1.00  0.00     0.029 A 
ATOM     54  C   UNL A   1      45.260  30.418  30.314  1.00  0.00     0.049 A 
ATOM     55  H   UNL A   1      44.399  28.584  29.725  1.00  0.00     0.167 HD
ATOM     56  C   UNL A   1      42.841  30.863  30.140  1.00  0.00     0.074 A 
ATOM     57  C   UNL A   1      41.677  31.710  30.249  1.00  0.00     0.031 C 
ATOM     58  C   UNL A   1      44.107  31.273  30.403  1.00  0.00     0.037 A 
BRANCH  45  59
ATOM     59  C   UNL A   1      48.254  26.767  29.694  1.00  0.00     0.057 A 
ATOM     60  C   UNL A   1      49.135  26.968  28.622  1.00  0.00     0.134 A 
ATOM     61  C   UNL A   1      48.744  26.098  30.822  1.00  0.00     0.134 A 
ATOM     62  F   UNL A   1      48.715  27.573  27.500  1.00  0.00    -0.206 F 
ATOM     63  C   UNL A   1      50.439  26.474  28.650  1.00  0.00     0.040 A 
ATOM     64  C   UNL A   1      50.057  25.636  30.877  1.00  0.00     0.040 A 
ATOM     65  F   UNL A   1      47.949  25.874  31.879  1.00  0.00    -0.206 F 
ATOM     66  C   UNL A   1      50.904  25.811  29.783  1.00  0.00     0.006 A 
ENDBRANCH  45  59
BRANCH  46  67
ATOM     67  C   UNL A   1      38.639  29.068  29.091  1.00  0.00     0.057 A 
ATOM     68  C   UNL A   1      38.083  29.599  27.915  1.00  0.00     0.134 A 
ATOM     69  C   UNL A   1      37.818  29.057  30.226  1.00  0.00     0.134 A 
ATOM     70  F   UNL A   1      38.825  29.696  26.803  1.00  0.00    -0.206 F 
ATOM     71  C   UNL A   1      36.785  30.123  27.878  1.00  0.00     0.040 A 
ATOM     72  C   UNL A   1      36.509  29.552  30.196  1.00  0.00     0.040 A 
ATOM     73  F   UNL A   1      38.283  28.591  31.393  1.00  0.00    -0.206 F 
ATOM     74  C   UNL A   1      35.991  30.098  29.023  1.00  0.00     0.006 A 
ENDBRANCH  46  67
BRANCH  58  75
ATOM     75  C   UNL A   1      44.327  32.713  30.784  1.00  0.00     0.057 A 
ATOM     76  C   UNL A   1      44.547  33.713  29.829  1.00  0.00     0.134 A 
ATOM     77  C   UNL A   1      44.260  33.113  32.127  1.00  0.00     0.134 A 
ATOM     78  F   UNL A   1      44.625  33.405  28.526  1.00  0.00    -0.206 F 
ATOM     79  C   UNL A   1      44.718  35.051  30.195  1.00  0.00     0.040 A 
ATOM     80  C   UNL A   1      44.399  34.450  32.504  1.00  0.00     0.040 A 
ATOM     81  F   UNL A   1      44.034  32.213  33.096  1.00  0.00    -0.206 F 
ATOM     82  C   UNL A   1      44.638  35.424  31.536  1.00  0.00     0.006 A 
ENDBRANCH  58  75
ENDBRANCH  32  33
ENDBRANCH  25  27
ENDBRANCH  24  25
ENDBRANCH  23  24
ENDBRANCH  22  23
ENDBRANCH  21  22
ENDBRANCH   1  21
TORSDOF 18
ENDMDL
