MODEL 1
REMARK VINA RESULT:     -10.6      0.000      0.000
REMARK SMILES O=C(Cc1cccn1-c1ccccc1F)OCCOCCOC(=O)c1ccc(-c2c3nc(c(-c4c(F)cccc4F)c4ccc([nH]4)c(-c4c(F)cccc4F)c4nc(c(-c5c(F)cccc5F)c5ccc2[nH]5)C=C4)C=C3)cc1
REMARK SMILES IDX 19 1 18 2 17 3 16 4 2 5 1 6 3 7 4 8 5 9 8 10 6 11 7 12 9 13
REMARK SMILES IDX 10 14 14 15 11 16 13 17 15 18 12 19 20 20 21 21 22 22 23 23
REMARK SMILES IDX 24 24 25 25 26 26 78 27 27 28 77 29 28 30 29 31 30 32 71 33
REMARK SMILES IDX 31 34 76 35 70 36 72 37 32 38 75 39 69 40 68 41 33 43 59 44
REMARK SMILES IDX 42 45 58 46 43 47 46 48 57 49 73 50 44 51 45 52 56 54 74 55
REMARK SMILES IDX 47 56 34 57 35 58 40 59 36 60 37 61 39 62 41 63 38 64 60 65
REMARK SMILES IDX 61 66 66 67 62 68 63 69 65 70 67 71 64 72 48 73 49 74 54 75
REMARK SMILES IDX 50 76 51 77 53 78 55 79 52 80
REMARK H PARENT 72 42 46 53
REMARK Flexibility Score: inf
ROOT
ATOM      1  O   UNL A   1      32.481  30.082  25.724  1.00  0.00    -0.374 OA
ENDROOT
BRANCH   1   2
ATOM      2  C   UNL A   1      31.314  29.928  24.919  1.00  0.00     0.202 C 
BRANCH   2   3
ATOM      3  C   UNL A   1      31.219  28.720  23.989  1.00  0.00     0.261 C 
BRANCH   3   4
ATOM      4  O   UNL A   1      32.375  28.445  23.183  1.00  0.00    -0.463 OA
BRANCH   4   5
ATOM      5  C   UNL A   1      33.219  27.431  23.484  1.00  0.00     0.311 C 
ATOM      6  O   UNL A   1      34.028  27.561  24.399  1.00  0.00    -0.252 OA
BRANCH   5   7
ATOM      7  C   UNL A   1      33.275  26.290  22.492  1.00  0.00     0.177 C 
BRANCH   7   8
ATOM      8  C   UNL A   1      32.559  25.075  22.976  1.00  0.00     0.034 A 
ATOM      9  C   UNL A   1      31.205  24.818  22.862  1.00  0.00     0.024 A 
ATOM     10  N   UNL A   1      33.133  24.025  23.674  1.00  0.00    -0.318 N 
ATOM     11  C   UNL A   1      30.942  23.592  23.500  1.00  0.00     0.020 A 
ATOM     12  C   UNL A   1      32.141  23.119  23.979  1.00  0.00     0.091 A 
BRANCH  10  13
ATOM     13  C   UNL A   1      34.481  23.828  24.031  1.00  0.00     0.081 A 
ATOM     14  C   UNL A   1      35.322  23.108  23.177  1.00  0.00     0.030 A 
ATOM     15  C   UNL A   1      34.931  24.225  25.290  1.00  0.00     0.147 A 
ATOM     16  C   UNL A   1      36.634  22.833  23.579  1.00  0.00     0.002 A 
ATOM     17  C   UNL A   1      36.242  23.959  25.684  1.00  0.00     0.041 A 
ATOM     18  F   UNL A   1      34.129  24.895  26.128  1.00  0.00    -0.205 F 
ATOM     19  C   UNL A   1      37.096  23.264  24.827  1.00  0.00     0.003 A 
ENDBRANCH  10  13
ENDBRANCH   7   8
ENDBRANCH   5   7
ENDBRANCH   4   5
ENDBRANCH   3   4
ENDBRANCH   2   3
ENDBRANCH   1   2
BRANCH   1  20
ATOM     20  C   UNL A   1      32.379  30.535  27.069  1.00  0.00     0.202 C 
BRANCH  20  21
ATOM     21  C   UNL A   1      33.626  31.188  27.625  1.00  0.00     0.261 C 
BRANCH  21  22
ATOM     22  O   UNL A   1      33.780  32.480  27.059  1.00  0.00    -0.460 OA
BRANCH  22  23
ATOM     23  C   UNL A   1      33.249  33.462  27.796  1.00  0.00     0.338 C 
ATOM     24  O   UNL A   1      32.155  34.026  27.636  1.00  0.00    -0.246 OA
BRANCH  23  25
ATOM     25  C   UNL A   1      34.203  33.879  28.810  1.00  0.00     0.060 A 
ATOM     26  C   UNL A   1      35.492  34.174  28.354  1.00  0.00     0.016 A 
ATOM     27  C   UNL A   1      33.930  33.478  30.123  1.00  0.00     0.016 A 
ATOM     28  C   UNL A   1      36.549  33.773  29.129  1.00  0.00     0.010 A 
ATOM     29  C   UNL A   1      34.979  33.007  30.862  1.00  0.00     0.010 A 
ATOM     30  C   UNL A   1      36.267  33.096  30.320  1.00  0.00    -0.014 A 
BRANCH  30  31
ATOM     31  C   UNL A   1      37.368  32.477  31.047  1.00  0.00     0.031 A 
ATOM     32  C   UNL A   1      37.745  31.145  30.434  1.00  0.00     0.074 A 
ATOM     33  C   UNL A   1      37.839  33.200  32.102  1.00  0.00     0.049 A 
ATOM     34  N   UNL A   1      38.418  30.166  30.941  1.00  0.00    -0.248 NA
ATOM     35  C   UNL A   1      37.255  30.825  29.062  1.00  0.00     0.031 C 
ATOM     36  C   UNL A   1      37.300  34.514  32.517  1.00  0.00     0.029 A 
ATOM     37  N   UNL A   1      38.835  33.006  33.032  1.00  0.00    -0.354 N 
ATOM     38  C   UNL A   1      38.627  29.248  29.902  1.00  0.00     0.074 A 
ATOM     39  C   UNL A   1      37.785  29.633  28.815  1.00  0.00     0.031 C 
ATOM     40  C   UNL A   1      37.906  34.946  33.640  1.00  0.00     0.029 A 
ATOM     41  C   UNL A   1      38.911  33.986  34.052  1.00  0.00     0.049 A 
ATOM     42  H   UNL A   1      39.452  32.239  32.991  1.00  0.00     0.167 HD
ATOM     43  C   UNL A   1      39.602  28.304  29.934  1.00  0.00     0.037 A 
ATOM     44  C   UNL A   1      39.699  34.004  35.170  1.00  0.00     0.037 A 
ATOM     45  C   UNL A   1      40.255  28.282  31.200  1.00  0.00     0.049 A 
ATOM     46  C   UNL A   1      40.615  32.856  35.021  1.00  0.00     0.074 A 
ATOM     47  C   UNL A   1      39.849  27.863  32.441  1.00  0.00     0.029 A 
ATOM     48  N   UNL A   1      41.368  29.072  31.346  1.00  0.00    -0.354 N 
ATOM     49  N   UNL A   1      41.588  32.788  34.160  1.00  0.00    -0.248 NA
ATOM     50  C   UNL A   1      40.362  31.640  35.803  1.00  0.00     0.031 C 
ATOM     51  C   UNL A   1      40.517  28.720  33.345  1.00  0.00     0.029 A 
ATOM     52  C   UNL A   1      41.367  29.568  32.630  1.00  0.00     0.049 A 
ATOM     53  H   UNL A   1      42.046  29.251  30.656  1.00  0.00     0.167 HD
ATOM     54  C   UNL A   1      41.827  31.434  34.072  1.00  0.00     0.074 A 
ATOM     55  C   UNL A   1      41.280  30.841  35.270  1.00  0.00     0.031 C 
ATOM     56  C   UNL A   1      42.000  30.850  32.859  1.00  0.00     0.037 A 
BRANCH  43  57
ATOM     57  C   UNL A   1      40.162  27.515  28.798  1.00  0.00     0.057 A 
ATOM     58  C   UNL A   1      39.722  26.230  28.450  1.00  0.00     0.134 A 
ATOM     59  C   UNL A   1      40.965  28.176  27.850  1.00  0.00     0.134 A 
ATOM     60  F   UNL A   1      38.904  25.528  29.247  1.00  0.00    -0.206 F 
ATOM     61  C   UNL A   1      40.039  25.648  27.218  1.00  0.00     0.040 A 
ATOM     62  C   UNL A   1      41.249  27.624  26.601  1.00  0.00     0.040 A 
ATOM     63  F   UNL A   1      41.448  29.404  28.093  1.00  0.00    -0.206 F 
ATOM     64  C   UNL A   1      40.778  26.358  26.277  1.00  0.00     0.006 A 
ENDBRANCH  43  57
BRANCH  44  65
ATOM     65  C   UNL A   1      39.772  34.797  36.457  1.00  0.00     0.057 A 
ATOM     66  C   UNL A   1      40.746  35.822  36.607  1.00  0.00     0.134 A 
ATOM     67  C   UNL A   1      39.015  34.579  37.614  1.00  0.00     0.134 A 
ATOM     68  F   UNL A   1      41.474  36.262  35.572  1.00  0.00    -0.206 F 
ATOM     69  C   UNL A   1      41.042  36.452  37.823  1.00  0.00     0.040 A 
ATOM     70  C   UNL A   1      39.280  35.226  38.837  1.00  0.00     0.040 A 
ATOM     71  F   UNL A   1      37.971  33.747  37.632  1.00  0.00    -0.206 F 
ATOM     72  C   UNL A   1      40.320  36.138  38.956  1.00  0.00     0.006 A 
ENDBRANCH  44  65
BRANCH  56  73
ATOM     73  C   UNL A   1      42.464  31.806  31.781  1.00  0.00     0.057 A 
ATOM     74  C   UNL A   1      41.617  32.338  30.798  1.00  0.00     0.134 A 
ATOM     75  C   UNL A   1      43.771  32.305  31.795  1.00  0.00     0.134 A 
ATOM     76  F   UNL A   1      40.351  31.936  30.700  1.00  0.00    -0.206 F 
ATOM     77  C   UNL A   1      42.032  33.305  29.877  1.00  0.00     0.040 A 
ATOM     78  C   UNL A   1      44.203  33.282  30.887  1.00  0.00     0.040 A 
ATOM     79  F   UNL A   1      44.656  31.853  32.696  1.00  0.00    -0.206 F 
ATOM     80  C   UNL A   1      43.333  33.788  29.925  1.00  0.00     0.006 A 
ENDBRANCH  56  73
ENDBRANCH  30  31
ENDBRANCH  23  25
ENDBRANCH  22  23
ENDBRANCH  21  22
ENDBRANCH  20  21
ENDBRANCH   1  20
TORSDOF 16
ENDMDL
MODEL 2
REMARK VINA RESULT:     -10.4      1.922      3.575
REMARK SMILES O=C(Cc1cccn1-c1ccccc1F)OCCOCCOC(=O)c1ccc(-c2c3nc(c(-c4c(F)cccc4F)c4ccc([nH]4)c(-c4c(F)cccc4F)c4nc(c(-c5c(F)cccc5F)c5ccc2[nH]5)C=C4)C=C3)cc1
REMARK SMILES IDX 19 1 18 2 17 3 16 4 2 5 1 6 3 7 4 8 5 9 8 10 6 11 7 12 9 13
REMARK SMILES IDX 10 14 14 15 11 16 13 17 15 18 12 19 20 20 21 21 22 22 23 23
REMARK SMILES IDX 24 24 25 25 26 26 78 27 27 28 77 29 28 30 29 31 30 32 71 33
REMARK SMILES IDX 31 34 76 35 70 36 72 37 32 38 75 39 69 40 68 41 33 43 59 44
REMARK SMILES IDX 42 45 58 46 43 47 46 48 57 49 73 50 44 51 45 52 56 54 74 55
REMARK SMILES IDX 47 56 34 57 35 58 40 59 36 60 37 61 39 62 41 63 38 64 60 65
REMARK SMILES IDX 61 66 66 67 62 68 63 69 65 70 67 71 64 72 48 73 49 74 54 75
REMARK SMILES IDX 50 76 51 77 53 78 55 79 52 80
REMARK H PARENT 72 42 46 53
REMARK Flexibility Score: inf
ROOT
ATOM      1  O   UNL A   1      32.529  29.248  27.217  1.00  0.00    -0.374 OA
ENDROOT
BRANCH   1   2
ATOM      2  C   UNL A   1      32.446  28.030  26.481  1.00  0.00     0.202 C 
BRANCH   2   3
ATOM      3  C   UNL A   1      33.511  27.736  25.426  1.00  0.00     0.261 C 
BRANCH   3   4
ATOM      4  O   UNL A   1      33.411  28.474  24.198  1.00  0.00    -0.463 OA
BRANCH   4   5
ATOM      5  C   UNL A   1      32.607  28.063  23.191  1.00  0.00     0.311 C 
ATOM      6  O   UNL A   1      32.951  27.123  22.479  1.00  0.00    -0.252 OA
BRANCH   5   7
ATOM      7  C   UNL A   1      31.441  28.966  22.855  1.00  0.00     0.177 C 
BRANCH   7   8
ATOM      8  C   UNL A   1      30.124  28.347  23.180  1.00  0.00     0.034 A 
ATOM      9  C   UNL A   1      29.914  27.078  23.687  1.00  0.00     0.024 A 
ATOM     10  N   UNL A   1      28.884  28.931  22.969  1.00  0.00    -0.318 N 
ATOM     11  C   UNL A   1      28.525  26.877  23.791  1.00  0.00     0.020 A 
ATOM     12  C   UNL A   1      27.915  28.031  23.356  1.00  0.00     0.091 A 
BRANCH  10  13
ATOM     13  C   UNL A   1      28.580  30.213  22.475  1.00  0.00     0.081 A 
ATOM     14  C   UNL A   1      28.168  30.360  21.147  1.00  0.00     0.030 A 
ATOM     15  C   UNL A   1      28.826  31.338  23.262  1.00  0.00     0.147 A 
ATOM     16  C   UNL A   1      27.959  31.645  20.633  1.00  0.00     0.002 A 
ATOM     17  C   UNL A   1      28.607  32.616  22.751  1.00  0.00     0.041 A 
ATOM     18  F   UNL A   1      29.244  31.213  24.529  1.00  0.00    -0.205 F 
ATOM     19  C   UNL A   1      28.171  32.771  21.435  1.00  0.00     0.003 A 
ENDBRANCH  10  13
ENDBRANCH   7   8
ENDBRANCH   5   7
ENDBRANCH   4   5
ENDBRANCH   3   4
ENDBRANCH   2   3
ENDBRANCH   1   2
BRANCH   1  20
ATOM     20  C   UNL A   1      33.474  30.249  26.856  1.00  0.00     0.202 C 
BRANCH  20  21
ATOM     21  C   UNL A   1      33.719  31.312  27.906  1.00  0.00     0.261 C 
BRANCH  21  22
ATOM     22  O   UNL A   1      33.838  32.580  27.281  1.00  0.00    -0.460 OA
BRANCH  22  23
ATOM     23  C   UNL A   1      33.364  33.593  28.016  1.00  0.00     0.338 C 
ATOM     24  O   UNL A   1      32.287  34.194  27.878  1.00  0.00    -0.246 OA
BRANCH  23  25
ATOM     25  C   UNL A   1      34.362  33.990  28.995  1.00  0.00     0.060 A 
ATOM     26  C   UNL A   1      35.647  34.227  28.498  1.00  0.00     0.016 A 
ATOM     27  C   UNL A   1      34.112  33.623  30.323  1.00  0.00     0.016 A 
ATOM     28  C   UNL A   1      36.711  33.800  29.251  1.00  0.00     0.010 A 
ATOM     29  C   UNL A   1      35.163  33.124  31.040  1.00  0.00     0.010 A 
ATOM     30  C   UNL A   1      36.437  33.155  30.462  1.00  0.00    -0.014 A 
BRANCH  30  31
ATOM     31  C   UNL A   1      37.535  32.506  31.168  1.00  0.00     0.031 A 
ATOM     32  C   UNL A   1      37.903  31.192  30.514  1.00  0.00     0.074 A 
ATOM     33  C   UNL A   1      38.010  33.193  32.246  1.00  0.00     0.049 A 
ATOM     34  N   UNL A   1      38.571  30.193  30.990  1.00  0.00    -0.248 NA
ATOM     35  C   UNL A   1      37.411  30.919  29.132  1.00  0.00     0.031 C 
ATOM     36  C   UNL A   1      37.478  34.497  32.703  1.00  0.00     0.029 A 
ATOM     37  N   UNL A   1      39.004  32.964  33.169  1.00  0.00    -0.354 N 
ATOM     38  C   UNL A   1      38.774  29.307  29.923  1.00  0.00     0.074 A 
ATOM     39  C   UNL A   1      37.935  29.731  28.848  1.00  0.00     0.031 C 
ATOM     40  C   UNL A   1      38.087  34.889  33.838  1.00  0.00     0.029 A 
ATOM     41  C   UNL A   1      39.085  33.911  34.220  1.00  0.00     0.049 A 
ATOM     42  H   UNL A   1      39.616  32.195  33.104  1.00  0.00     0.167 HD
ATOM     43  C   UNL A   1      39.744  28.357  29.925  1.00  0.00     0.037 A 
ATOM     44  C   UNL A   1      39.874  33.889  35.338  1.00  0.00     0.037 A 
ATOM     45  C   UNL A   1      40.396  28.291  31.189  1.00  0.00     0.049 A 
ATOM     46  C   UNL A   1      40.783  32.741  35.153  1.00  0.00     0.074 A 
ATOM     47  C   UNL A   1      39.987  27.836  32.417  1.00  0.00     0.029 A 
ATOM     48  N   UNL A   1      41.514  29.069  31.360  1.00  0.00    -0.354 N 
ATOM     49  N   UNL A   1      41.755  32.693  34.290  1.00  0.00    -0.248 NA
ATOM     50  C   UNL A   1      40.522  31.502  35.896  1.00  0.00     0.031 C 
ATOM     51  C   UNL A   1      40.660  28.660  33.347  1.00  0.00     0.029 A 
ATOM     52  C   UNL A   1      41.515  29.525  32.660  1.00  0.00     0.049 A 
ATOM     53  H   UNL A   1      42.193  29.266  30.676  1.00  0.00     0.167 HD
ATOM     54  C   UNL A   1      41.986  31.342  34.160  1.00  0.00     0.074 A 
ATOM     55  C   UNL A   1      41.435  30.714  35.338  1.00  0.00     0.031 C 
ATOM     56  C   UNL A   1      42.156  30.796  32.929  1.00  0.00     0.037 A 
BRANCH  43  57
ATOM     57  C   UNL A   1      40.299  27.601  28.764  1.00  0.00     0.057 A 
ATOM     58  C   UNL A   1      39.871  26.319  28.393  1.00  0.00     0.134 A 
ATOM     59  C   UNL A   1      41.081  28.293  27.821  1.00  0.00     0.134 A 
ATOM     60  F   UNL A   1      39.072  25.588  29.184  1.00  0.00    -0.206 F 
ATOM     61  C   UNL A   1      40.180  25.769  27.145  1.00  0.00     0.040 A 
ATOM     62  C   UNL A   1      41.357  27.773  26.557  1.00  0.00     0.040 A 
ATOM     63  F   UNL A   1      41.552  29.522  28.086  1.00  0.00    -0.206 F 
ATOM     64  C   UNL A   1      40.897  26.509  26.211  1.00  0.00     0.006 A 
ENDBRANCH  43  57
BRANCH  44  65
ATOM     65  C   UNL A   1      39.951  34.640  36.650  1.00  0.00     0.057 A 
ATOM     66  C   UNL A   1      41.002  35.570  36.876  1.00  0.00     0.134 A 
ATOM     67  C   UNL A   1      39.121  34.462  37.762  1.00  0.00     0.134 A 
ATOM     68  F   UNL A   1      41.817  35.968  35.890  1.00  0.00    -0.206 F 
ATOM     69  C   UNL A   1      41.291  36.142  38.121  1.00  0.00     0.040 A 
ATOM     70  C   UNL A   1      39.379  35.053  39.015  1.00  0.00     0.040 A 
ATOM     71  F   UNL A   1      38.008  33.727  37.706  1.00  0.00    -0.206 F 
ATOM     72  C   UNL A   1      40.488  35.865  39.209  1.00  0.00     0.006 A 
ENDBRANCH  44  65
BRANCH  56  73
ATOM     73  C   UNL A   1      42.626  31.782  31.882  1.00  0.00     0.057 A 
ATOM     74  C   UNL A   1      41.784  32.345  30.911  1.00  0.00     0.134 A 
ATOM     75  C   UNL A   1      43.934  32.278  31.915  1.00  0.00     0.134 A 
ATOM     76  F   UNL A   1      40.518  31.948  30.796  1.00  0.00    -0.206 F 
ATOM     77  C   UNL A   1      42.205  33.338  30.021  1.00  0.00     0.040 A 
ATOM     78  C   UNL A   1      44.371  33.280  31.039  1.00  0.00     0.040 A 
ATOM     79  F   UNL A   1      44.814  31.798  32.806  1.00  0.00    -0.206 F 
ATOM     80  C   UNL A   1      43.506  33.817  30.088  1.00  0.00     0.006 A 
ENDBRANCH  56  73
ENDBRANCH  30  31
ENDBRANCH  23  25
ENDBRANCH  22  23
ENDBRANCH  21  22
ENDBRANCH  20  21
ENDBRANCH   1  20
TORSDOF 16
ENDMDL
MODEL 3
REMARK VINA RESULT:     -10.4      5.007      9.929
REMARK SMILES O=C(Cc1cccn1-c1ccccc1F)OCCOCCOC(=O)c1ccc(-c2c3nc(c(-c4c(F)cccc4F)c4ccc([nH]4)c(-c4c(F)cccc4F)c4nc(c(-c5c(F)cccc5F)c5ccc2[nH]5)C=C4)C=C3)cc1
REMARK SMILES IDX 19 1 18 2 17 3 16 4 2 5 1 6 3 7 4 8 5 9 8 10 6 11 7 12 9 13
REMARK SMILES IDX 10 14 14 15 11 16 13 17 15 18 12 19 20 20 21 21 22 22 23 23
REMARK SMILES IDX 24 24 25 25 26 26 78 27 27 28 77 29 28 30 29 31 30 32 71 33
REMARK SMILES IDX 31 34 76 35 70 36 72 37 32 38 75 39 69 40 68 41 33 43 59 44
REMARK SMILES IDX 42 45 58 46 43 47 46 48 57 49 73 50 44 51 45 52 56 54 74 55
REMARK SMILES IDX 47 56 34 57 35 58 40 59 36 60 37 61 39 62 41 63 38 64 60 65
REMARK SMILES IDX 61 66 66 67 62 68 63 69 65 70 67 71 64 72 48 73 49 74 54 75
REMARK SMILES IDX 50 76 51 77 53 78 55 79 52 80
REMARK H PARENT 72 42 46 53
REMARK Flexibility Score: inf
ROOT
ATOM      1  O   UNL A   1      36.214  22.123  24.495  1.00  0.00    -0.374 OA
ENDROOT
BRANCH   1   2
ATOM      2  C   UNL A   1      35.181  21.148  24.609  1.00  0.00     0.202 C 
BRANCH   2   3
ATOM      3  C   UNL A   1      34.561  20.894  25.982  1.00  0.00     0.261 C 
BRANCH   3   4
ATOM      4  O   UNL A   1      33.348  21.604  26.274  1.00  0.00    -0.463 OA
BRANCH   4   5
ATOM      5  C   UNL A   1      33.368  22.884  26.714  1.00  0.00     0.311 C 
ATOM      6  O   UNL A   1      34.413  23.364  27.147  1.00  0.00    -0.252 OA
BRANCH   5   7
ATOM      7  C   UNL A   1      32.023  23.557  26.876  1.00  0.00     0.177 C 
BRANCH   7   8
ATOM      8  C   UNL A   1      31.524  24.153  25.604  1.00  0.00     0.034 A 
ATOM      9  C   UNL A   1      30.939  23.474  24.550  1.00  0.00     0.024 A 
ATOM     10  N   UNL A   1      31.620  25.489  25.246  1.00  0.00    -0.318 N 
ATOM     11  C   UNL A   1      30.671  24.405  23.531  1.00  0.00     0.020 A 
ATOM     12  C   UNL A   1      31.086  25.636  23.985  1.00  0.00     0.091 A 
BRANCH  10  13
ATOM     13  C   UNL A   1      32.135  26.571  25.987  1.00  0.00     0.081 A 
ATOM     14  C   UNL A   1      31.258  27.415  26.674  1.00  0.00     0.030 A 
ATOM     15  C   UNL A   1      33.494  26.877  25.915  1.00  0.00     0.147 A 
ATOM     16  C   UNL A   1      31.765  28.543  27.329  1.00  0.00     0.002 A 
ATOM     17  C   UNL A   1      33.999  27.995  26.577  1.00  0.00     0.041 A 
ATOM     18  F   UNL A   1      34.342  26.090  25.240  1.00  0.00    -0.205 F 
ATOM     19  C   UNL A   1      33.134  28.829  27.288  1.00  0.00     0.003 A 
ENDBRANCH  10  13
ENDBRANCH   7   8
ENDBRANCH   5   7
ENDBRANCH   4   5
ENDBRANCH   3   4
ENDBRANCH   2   3
ENDBRANCH   1   2
BRANCH   1  20
ATOM     20  C   UNL A   1      37.291  22.150  25.425  1.00  0.00     0.202 C 
BRANCH  20  21
ATOM     21  C   UNL A   1      38.229  20.963  25.359  1.00  0.00     0.261 C 
BRANCH  21  22
ATOM     22  O   UNL A   1      39.313  21.162  26.253  1.00  0.00    -0.460 OA
BRANCH  22  23
ATOM     23  C   UNL A   1      40.298  20.266  26.119  1.00  0.00     0.338 C 
ATOM     24  O   UNL A   1      40.199  19.068  25.813  1.00  0.00    -0.246 OA
BRANCH  23  25
ATOM     25  C   UNL A   1      41.563  20.879  26.488  1.00  0.00     0.060 A 
ATOM     26  C   UNL A   1      41.697  21.247  27.830  1.00  0.00     0.016 A 
ATOM     27  C   UNL A   1      42.287  21.483  25.454  1.00  0.00     0.016 A 
ATOM     28  C   UNL A   1      42.331  22.432  28.106  1.00  0.00     0.010 A 
ATOM     29  C   UNL A   1      42.849  22.701  25.716  1.00  0.00     0.010 A 
ATOM     30  C   UNL A   1      42.798  23.189  27.027  1.00  0.00    -0.014 A 
BRANCH  30  31
ATOM     31  C   UNL A   1      43.278  24.541  27.282  1.00  0.00     0.031 A 
ATOM     32  C   UNL A   1      42.125  25.512  27.422  1.00  0.00     0.074 A 
ATOM     33  C   UNL A   1      44.634  24.665  27.353  1.00  0.00     0.049 A 
ATOM     34  N   UNL A   1      42.118  26.801  27.333  1.00  0.00    -0.248 NA
ATOM     35  C   UNL A   1      40.755  24.967  27.646  1.00  0.00     0.031 C 
ATOM     36  C   UNL A   1      45.583  23.542  27.183  1.00  0.00     0.029 A 
ATOM     37  N   UNL A   1      45.492  25.719  27.570  1.00  0.00    -0.354 N 
ATOM     38  C   UNL A   1      40.834  27.218  27.711  1.00  0.00     0.074 A 
ATOM     39  C   UNL A   1      40.005  26.057  27.763  1.00  0.00     0.031 C 
ATOM     40  C   UNL A   1      46.855  23.983  27.220  1.00  0.00     0.029 A 
ATOM     41  C   UNL A   1      46.870  25.414  27.443  1.00  0.00     0.049 A 
ATOM     42  H   UNL A   1      45.171  26.622  27.798  1.00  0.00     0.167 HD
ATOM     43  C   UNL A   1      40.557  28.483  28.118  1.00  0.00     0.037 A 
ATOM     44  C   UNL A   1      47.944  26.260  27.477  1.00  0.00     0.037 A 
ATOM     45  C   UNL A   1      41.688  29.334  27.954  1.00  0.00     0.049 A 
ATOM     46  C   UNL A   1      47.394  27.576  27.859  1.00  0.00     0.074 A 
ATOM     47  C   UNL A   1      42.300  29.855  26.843  1.00  0.00     0.029 A 
ATOM     48  N   UNL A   1      42.544  29.452  29.021  1.00  0.00    -0.354 N 
ATOM     49  N   UNL A   1      46.936  27.877  29.038  1.00  0.00    -0.248 NA
ATOM     50  C   UNL A   1      47.225  28.602  26.823  1.00  0.00     0.031 C 
ATOM     51  C   UNL A   1      43.666  29.941  27.192  1.00  0.00     0.029 A 
ATOM     52  C   UNL A   1      43.825  29.552  28.525  1.00  0.00     0.049 A 
ATOM     53  H   UNL A   1      42.287  29.464  29.971  1.00  0.00     0.167 HD
ATOM     54  C   UNL A   1      46.141  28.974  28.790  1.00  0.00     0.074 A 
ATOM     55  C   UNL A   1      46.581  29.525  27.530  1.00  0.00     0.031 C 
ATOM     56  C   UNL A   1      44.908  29.063  29.351  1.00  0.00     0.037 A 
BRANCH  43  57
ATOM     57  C   UNL A   1      39.363  28.973  28.865  1.00  0.00     0.057 A 
ATOM     58  C   UNL A   1      38.218  29.498  28.249  1.00  0.00     0.134 A 
ATOM     59  C   UNL A   1      39.240  28.645  30.228  1.00  0.00     0.134 A 
ATOM     60  F   UNL A   1      38.197  29.793  26.941  1.00  0.00    -0.206 F 
ATOM     61  C   UNL A   1      37.014  29.661  28.941  1.00  0.00     0.040 A 
ATOM     62  C   UNL A   1      38.032  28.760  30.916  1.00  0.00     0.040 A 
ATOM     63  F   UNL A   1      40.282  28.149  30.913  1.00  0.00    -0.206 F 
ATOM     64  C   UNL A   1      36.910  29.261  30.269  1.00  0.00     0.006 A 
ENDBRANCH  43  57
BRANCH  44  65
ATOM     65  C   UNL A   1      49.419  26.188  27.142  1.00  0.00     0.057 A 
ATOM     66  C   UNL A   1      50.390  26.406  28.157  1.00  0.00     0.134 A 
ATOM     67  C   UNL A   1      49.976  26.007  25.872  1.00  0.00     0.134 A 
ATOM     68  F   UNL A   1      50.057  26.469  29.453  1.00  0.00    -0.206 F 
ATOM     69  C   UNL A   1      51.758  26.583  27.910  1.00  0.00     0.040 A 
ATOM     70  C   UNL A   1      51.354  26.151  25.611  1.00  0.00     0.040 A 
ATOM     71  F   UNL A   1      49.236  25.665  24.815  1.00  0.00    -0.206 F 
ATOM     72  C   UNL A   1      52.245  26.478  26.623  1.00  0.00     0.006 A 
ENDBRANCH  44  65
BRANCH  56  73
ATOM     73  C   UNL A   1      44.750  28.242  30.613  1.00  0.00     0.057 A 
ATOM     74  C   UNL A   1      44.084  27.008  30.659  1.00  0.00     0.134 A 
ATOM     75  C   UNL A   1      45.384  28.636  31.796  1.00  0.00     0.134 A 
ATOM     76  F   UNL A   1      43.451  26.537  29.586  1.00  0.00    -0.206 F 
ATOM     77  C   UNL A   1      44.041  26.208  31.804  1.00  0.00     0.040 A 
ATOM     78  C   UNL A   1      45.362  27.843  32.951  1.00  0.00     0.040 A 
ATOM     79  F   UNL A   1      46.044  29.803  31.851  1.00  0.00    -0.206 F 
ATOM     80  C   UNL A   1      44.691  26.622  32.959  1.00  0.00     0.006 A 
ENDBRANCH  56  73
ENDBRANCH  30  31
ENDBRANCH  23  25
ENDBRANCH  22  23
ENDBRANCH  21  22
ENDBRANCH  20  21
ENDBRANCH   1  20
TORSDOF 16
ENDMDL
