MODEL 1
REMARK VINA RESULT:     -11.2      0.000      0.000
REMARK SMILES Cc1c(CC(=O)N[C@H](CO)C(=O)OCCOCCOC(=O)c2ccc(-c3c4nc(c(-c5c(F)cccc5F)c5ccc([nH]5)c(-c5c(F)cccc5F)c5nc(c(-c6c(F)cccc6F)c6ccc3[nH]6)C=C5)C=C4)cc2)cc(-c2ccc(S(C)(=O)=O)cc2)n1-c1ccc(F)cc1
REMARK SMILES IDX 14 1 13 2 11 3 12 4 8 5 7 6 5 7 6 8 4 10 3 11 1 12 2 13
REMARK SMILES IDX 88 14 76 15 77 16 89 17 90 18 95 19 91 20 94 21 92 22 93 23
REMARK SMILES IDX 78 24 79 25 87 26 80 27 86 28 81 29 82 30 83 31 84 32 85 33
REMARK SMILES IDX 9 34 10 35 15 37 16 38 17 39 18 40 19 41 20 42 21 43 22 44
REMARK SMILES IDX 23 45 75 46 24 47 74 48 25 49 26 50 27 51 68 52 28 53 73 54
REMARK SMILES IDX 67 55 69 56 29 57 72 58 66 59 65 60 30 62 56 63 39 64 55 65
REMARK SMILES IDX 40 66 43 67 54 68 70 69 41 70 42 71 53 73 71 74 44 75 31 76
REMARK SMILES IDX 32 77 37 78 33 79 34 80 36 81 38 82 35 83 57 84 58 85 63 86
REMARK SMILES IDX 59 87 60 88 62 89 64 90 61 91 45 92 46 93 51 94 47 95 48 96
REMARK SMILES IDX 50 97 52 98 49 99
REMARK H PARENT 7 9 10 36 69 61 43 72
REMARK Flexibility Score: inf
ROOT
ATOM      1  C   UNL A   1      31.432  29.485  25.172  1.00  0.00     0.261 C 
ENDROOT
BRANCH   1   2
ATOM      2  O   UNL A   1      31.054  30.069  23.912  1.00  0.00    -0.462 OA
BRANCH   2   3
ATOM      3  C   UNL A   1      29.725  30.043  23.625  1.00  0.00     0.331 C 
ATOM      4  O   UNL A   1      29.022  31.048  23.586  1.00  0.00    -0.250 OA
BRANCH   3   5
ATOM      5  C   UNL A   1      29.161  28.620  23.438  1.00  0.00     0.218 C 
BRANCH   5   6
ATOM      6  N   UNL A   1      29.966  27.952  22.413  1.00  0.00    -0.341 N 
ATOM      7  C   UNL A   1      30.548  26.721  22.442  1.00  0.00     0.225 C 
ATOM      8  O   UNL A   1      31.215  26.386  21.460  1.00  0.00    -0.275 OA
ATOM      9  H   UNL A   1      30.106  28.465  21.585  1.00  0.00     0.164 HD
BRANCH   7  10
ATOM     10  C   UNL A   1      30.299  25.764  23.598  1.00  0.00     0.137 C 
BRANCH  10  11
ATOM     11  C   UNL A   1      31.375  24.738  23.804  1.00  0.00    -0.017 A 
ATOM     12  C   UNL A   1      33.475  26.229  24.177  1.00  0.00     0.065 C 
ATOM     13  C   UNL A   1      32.717  24.941  24.097  1.00  0.00     0.024 A 
ATOM     14  N   UNL A   1      33.324  23.697  24.257  1.00  0.00    -0.314 N 
ATOM     15  C   UNL A   1      31.193  23.331  23.699  1.00  0.00     0.033 A 
ATOM     16  C   UNL A   1      32.383  22.699  24.005  1.00  0.00     0.053 A 
BRANCH  14  17
ATOM     17  C   UNL A   1      34.692  23.474  24.575  1.00  0.00     0.046 A 
ATOM     18  C   UNL A   1      35.135  23.664  25.891  1.00  0.00     0.029 A 
ATOM     19  C   UNL A   1      35.595  23.131  23.561  1.00  0.00     0.029 A 
ATOM     20  C   UNL A   1      36.486  23.494  26.194  1.00  0.00     0.041 A 
ATOM     21  C   UNL A   1      36.947  22.974  23.871  1.00  0.00     0.041 A 
ATOM     22  C   UNL A   1      37.378  23.153  25.182  1.00  0.00     0.123 A 
ATOM     23  F   UNL A   1      38.677  23.007  25.474  1.00  0.00    -0.207 F 
ENDBRANCH  14  17
BRANCH  16  24
ATOM     24  C   UNL A   1      32.624  21.255  24.139  1.00  0.00    -0.001 A 
ATOM     25  C   UNL A   1      33.108  20.709  25.338  1.00  0.00     0.011 A 
ATOM     26  C   UNL A   1      32.363  20.401  23.059  1.00  0.00     0.011 A 
ATOM     27  C   UNL A   1      33.372  19.340  25.444  1.00  0.00     0.021 A 
ATOM     28  C   UNL A   1      32.624  19.031  23.156  1.00  0.00     0.021 A 
ATOM     29  C   UNL A   1      33.144  18.511  24.342  1.00  0.00     0.067 A 
BRANCH  29  30
ATOM     30  S   UNL A   1      33.472  16.770  24.488  1.00  0.00     0.175 S 
ATOM     31  C   UNL A   1      32.280  16.195  25.669  1.00  0.00     0.163 C 
ATOM     32  O   UNL A   1      33.183  16.170  23.212  1.00  0.00    -0.224 OA
ATOM     33  O   UNL A   1      34.790  16.626  25.105  1.00  0.00    -0.224 OA
ENDBRANCH  29  30
ENDBRANCH  16  24
ENDBRANCH  10  11
ENDBRANCH   7  10
ENDBRANCH   5   6
BRANCH   5  34
ATOM     34  C   UNL A   1      27.667  28.472  23.112  1.00  0.00     0.193 C 
BRANCH  34  35
ATOM     35  O   UNL A   1      27.213  29.472  22.195  1.00  0.00    -0.394 OA
ATOM     36  H   UNL A   1      26.450  29.936  22.576  1.00  0.00     0.210 HD
ENDBRANCH  34  35
ENDBRANCH   5  34
ENDBRANCH   3   5
ENDBRANCH   2   3
ENDBRANCH   1   2
BRANCH   1  37
ATOM     37  C   UNL A   1      32.939  29.640  25.440  1.00  0.00     0.202 C 
BRANCH  37  38
ATOM     38  O   UNL A   1      33.469  28.775  26.444  1.00  0.00    -0.374 OA
BRANCH  38  39
ATOM     39  C   UNL A   1      34.044  29.430  27.590  1.00  0.00     0.202 C 
BRANCH  39  40
ATOM     40  C   UNL A   1      34.427  30.926  27.429  1.00  0.00     0.261 C 
BRANCH  40  41
ATOM     41  O   UNL A   1      34.043  31.857  28.524  1.00  0.00    -0.460 OA
BRANCH  41  42
ATOM     42  C   UNL A   1      35.059  32.572  29.119  1.00  0.00     0.338 C 
ATOM     43  O   UNL A   1      35.038  33.794  29.216  1.00  0.00    -0.246 OA
BRANCH  42  44
ATOM     44  C   UNL A   1      36.247  31.785  29.711  1.00  0.00     0.060 A 
ATOM     45  C   UNL A   1      37.492  31.876  29.092  1.00  0.00     0.016 A 
ATOM     46  C   UNL A   1      36.135  30.716  30.628  1.00  0.00     0.016 A 
ATOM     47  C   UNL A   1      38.575  30.974  29.412  1.00  0.00     0.010 A 
ATOM     48  C   UNL A   1      37.227  29.757  30.902  1.00  0.00     0.010 A 
ATOM     49  C   UNL A   1      38.499  29.842  30.300  1.00  0.00    -0.014 A 
BRANCH  49  50
ATOM     50  C   UNL A   1      39.584  28.641  30.060  1.00  0.00     0.031 A 
ATOM     51  C   UNL A   1      40.444  28.750  31.277  1.00  0.00     0.074 A 
ATOM     52  C   UNL A   1      40.035  27.676  29.146  1.00  0.00     0.049 A 
ATOM     53  N   UNL A   1      41.023  29.883  31.574  1.00  0.00    -0.248 NA
ATOM     54  C   UNL A   1      40.396  27.778  32.370  1.00  0.00     0.031 C 
ATOM     55  C   UNL A   1      39.560  27.432  27.773  1.00  0.00     0.029 A 
ATOM     56  N   UNL A   1      41.048  26.647  29.220  1.00  0.00    -0.354 N 
ATOM     57  C   UNL A   1      41.682  29.662  32.756  1.00  0.00     0.074 A 
ATOM     58  C   UNL A   1      41.065  28.462  33.303  1.00  0.00     0.031 C 
ATOM     59  C   UNL A   1      40.130  26.319  27.217  1.00  0.00     0.029 A 
ATOM     60  C   UNL A   1      41.105  25.705  28.118  1.00  0.00     0.049 A 
ATOM     61  H   UNL A   1      41.668  26.588  29.981  1.00  0.00     0.167 HD
ATOM     62  C   UNL A   1      43.002  30.005  32.773  1.00  0.00     0.037 A 
ATOM     63  C   UNL A   1      41.897  24.574  27.891  1.00  0.00     0.037 A 
ATOM     64  C   UNL A   1      43.858  28.857  32.674  1.00  0.00     0.049 A 
ATOM     65  C   UNL A   1      43.105  24.733  28.708  1.00  0.00     0.074 A 
ATOM     66  C   UNL A   1      43.878  27.639  33.321  1.00  0.00     0.029 A 
ATOM     67  N   UNL A   1      44.556  28.695  31.496  1.00  0.00    -0.354 N 
ATOM     68  N   UNL A   1      44.085  25.493  28.329  1.00  0.00    -0.248 NA
ATOM     69  C   UNL A   1      43.345  23.954  29.919  1.00  0.00     0.031 C 
ATOM     70  C   UNL A   1      44.144  26.693  32.306  1.00  0.00     0.029 A 
ATOM     71  C   UNL A   1      44.630  27.355  31.186  1.00  0.00     0.049 A 
ATOM     72  H   UNL A   1      44.942  29.425  30.959  1.00  0.00     0.167 HD
ATOM     73  C   UNL A   1      44.773  25.693  29.480  1.00  0.00     0.074 A 
ATOM     74  C   UNL A   1      44.475  24.543  30.311  1.00  0.00     0.031 C 
ATOM     75  C   UNL A   1      44.962  26.987  29.832  1.00  0.00     0.037 A 
BRANCH  62  76
ATOM     76  C   UNL A   1      43.290  31.341  32.157  1.00  0.00     0.057 A 
ATOM     77  C   UNL A   1      43.464  32.448  32.989  1.00  0.00     0.134 A 
ATOM     78  C   UNL A   1      43.230  31.583  30.772  1.00  0.00     0.134 A 
ATOM     79  F   UNL A   1      43.577  32.285  34.317  1.00  0.00    -0.206 F 
ATOM     80  C   UNL A   1      43.512  33.746  32.476  1.00  0.00     0.040 A 
ATOM     81  C   UNL A   1      43.223  32.876  30.251  1.00  0.00     0.040 A 
ATOM     82  F   UNL A   1      43.163  30.566  29.898  1.00  0.00    -0.206 F 
ATOM     83  C   UNL A   1      43.354  33.965  31.108  1.00  0.00     0.006 A 
ENDBRANCH  62  76
BRANCH  63  84
ATOM     84  C   UNL A   1      42.081  23.309  26.989  1.00  0.00     0.057 A 
ATOM     85  C   UNL A   1      42.990  23.303  25.869  1.00  0.00     0.134 A 
ATOM     86  C   UNL A   1      41.698  22.022  27.373  1.00  0.00     0.134 A 
ATOM     87  F   UNL A   1      43.437  24.437  25.311  1.00  0.00    -0.206 F 
ATOM     88  C   UNL A   1      43.551  22.148  25.288  1.00  0.00     0.040 A 
ATOM     89  C   UNL A   1      42.233  20.846  26.768  1.00  0.00     0.040 A 
ATOM     90  F   UNL A   1      40.850  21.847  28.394  1.00  0.00    -0.206 F 
ATOM     91  C   UNL A   1      43.189  20.904  25.754  1.00  0.00     0.006 A 
ENDBRANCH  63  84
BRANCH  75  92
ATOM     92  C   UNL A   1      45.339  27.954  28.722  1.00  0.00     0.057 A 
ATOM     93  C   UNL A   1      44.475  28.575  27.792  1.00  0.00     0.134 A 
ATOM     94  C   UNL A   1      46.704  28.217  28.544  1.00  0.00     0.134 A 
ATOM     95  F   UNL A   1      43.139  28.522  27.898  1.00  0.00    -0.206 F 
ATOM     96  C   UNL A   1      44.956  29.323  26.707  1.00  0.00     0.040 A 
ATOM     97  C   UNL A   1      47.189  29.010  27.500  1.00  0.00     0.040 A 
ATOM     98  F   UNL A   1      47.603  27.707  29.399  1.00  0.00    -0.206 F 
ATOM     99  C   UNL A   1      46.317  29.543  26.559  1.00  0.00     0.006 A 
ENDBRANCH  75  92
ENDBRANCH  49  50
ENDBRANCH  42  44
ENDBRANCH  41  42
ENDBRANCH  40  41
ENDBRANCH  39  40
ENDBRANCH  38  39
ENDBRANCH  37  38
ENDBRANCH   1  37
TORSDOF 22
ENDMDL
MODEL 2
REMARK VINA RESULT:     -11.1      3.199      8.811
REMARK SMILES Cc1c(CC(=O)N[C@H](CO)C(=O)OCCOCCOC(=O)c2ccc(-c3c4nc(c(-c5c(F)cccc5F)c5ccc([nH]5)c(-c5c(F)cccc5F)c5nc(c(-c6c(F)cccc6F)c6ccc3[nH]6)C=C5)C=C4)cc2)cc(-c2ccc(S(C)(=O)=O)cc2)n1-c1ccc(F)cc1
REMARK SMILES IDX 14 1 13 2 11 3 12 4 8 5 7 6 5 7 6 8 4 10 3 11 1 12 2 13
REMARK SMILES IDX 88 14 76 15 77 16 89 17 90 18 95 19 91 20 94 21 92 22 93 23
REMARK SMILES IDX 78 24 79 25 87 26 80 27 86 28 81 29 82 30 83 31 84 32 85 33
REMARK SMILES IDX 9 34 10 35 15 37 16 38 17 39 18 40 19 41 20 42 21 43 22 44
REMARK SMILES IDX 23 45 75 46 24 47 74 48 25 49 26 50 27 51 68 52 28 53 73 54
REMARK SMILES IDX 67 55 69 56 29 57 72 58 66 59 65 60 30 62 56 63 39 64 55 65
REMARK SMILES IDX 40 66 43 67 54 68 70 69 41 70 42 71 53 73 71 74 44 75 31 76
REMARK SMILES IDX 32 77 37 78 33 79 34 80 36 81 38 82 35 83 57 84 58 85 63 86
REMARK SMILES IDX 59 87 60 88 62 89 64 90 61 91 45 92 46 93 51 94 47 95 48 96
REMARK SMILES IDX 50 97 52 98 49 99
REMARK H PARENT 7 9 10 36 69 61 43 72
REMARK Flexibility Score: inf
ROOT
ATOM      1  C   UNL A   1      35.812  21.421  25.454  1.00  0.00     0.261 C 
ENDROOT
BRANCH   1   2
ATOM      2  O   UNL A   1      35.018  20.917  24.364  1.00  0.00    -0.462 OA
BRANCH   2   3
ATOM      3  C   UNL A   1      34.506  19.670  24.536  1.00  0.00     0.331 C 
ATOM      4  O   UNL A   1      35.139  18.741  25.026  1.00  0.00    -0.250 OA
BRANCH   3   5
ATOM      5  C   UNL A   1      33.078  19.506  23.976  1.00  0.00     0.218 C 
BRANCH   5   6
ATOM      6  N   UNL A   1      32.157  20.173  24.899  1.00  0.00    -0.341 N 
ATOM      7  C   UNL A   1      31.716  21.462  24.896  1.00  0.00     0.225 C 
ATOM      8  O   UNL A   1      30.961  21.806  25.808  1.00  0.00    -0.275 OA
ATOM      9  H   UNL A   1      31.805  19.609  25.626  1.00  0.00     0.164 HD
BRANCH   7  10
ATOM     10  C   UNL A   1      32.066  22.406  23.755  1.00  0.00     0.137 C 
BRANCH  10  11
ATOM     11  C   UNL A   1      31.876  23.861  24.066  1.00  0.00    -0.017 A 
ATOM     12  C   UNL A   1      33.534  24.208  26.042  1.00  0.00     0.065 C 
ATOM     13  C   UNL A   1      32.538  24.636  25.010  1.00  0.00     0.024 A 
ATOM     14  N   UNL A   1      32.075  25.946  24.905  1.00  0.00    -0.314 N 
ATOM     15  C   UNL A   1      30.927  24.714  23.438  1.00  0.00     0.033 A 
ATOM     16  C   UNL A   1      31.073  25.995  23.937  1.00  0.00     0.053 A 
BRANCH  14  17
ATOM     17  C   UNL A   1      32.512  27.047  25.692  1.00  0.00     0.046 A 
ATOM     18  C   UNL A   1      31.728  27.481  26.769  1.00  0.00     0.029 A 
ATOM     19  C   UNL A   1      33.687  27.727  25.346  1.00  0.00     0.029 A 
ATOM     20  C   UNL A   1      32.131  28.591  27.511  1.00  0.00     0.041 A 
ATOM     21  C   UNL A   1      34.077  28.844  26.087  1.00  0.00     0.041 A 
ATOM     22  C   UNL A   1      33.299  29.262  27.161  1.00  0.00     0.123 A 
ATOM     23  F   UNL A   1      33.673  30.338  27.866  1.00  0.00    -0.207 F 
ENDBRANCH  14  17
BRANCH  16  24
ATOM     24  C   UNL A   1      30.386  27.215  23.490  1.00  0.00    -0.001 A 
ATOM     25  C   UNL A   1      31.081  28.236  22.823  1.00  0.00     0.011 A 
ATOM     26  C   UNL A   1      29.013  27.369  23.726  1.00  0.00     0.011 A 
ATOM     27  C   UNL A   1      30.429  29.412  22.438  1.00  0.00     0.021 A 
ATOM     28  C   UNL A   1      28.353  28.540  23.344  1.00  0.00     0.021 A 
ATOM     29  C   UNL A   1      29.067  29.562  22.717  1.00  0.00     0.067 A 
BRANCH  29  30
ATOM     30  S   UNL A   1      28.242  31.054  22.215  1.00  0.00     0.175 S 
ATOM     31  C   UNL A   1      28.023  30.868  20.465  1.00  0.00     0.163 C 
ATOM     32  O   UNL A   1      26.948  31.062  22.844  1.00  0.00    -0.224 OA
ATOM     33  O   UNL A   1      29.181  32.158  22.413  1.00  0.00    -0.224 OA
ENDBRANCH  29  30
ENDBRANCH  16  24
ENDBRANCH  10  11
ENDBRANCH   7  10
ENDBRANCH   5   6
BRANCH   5  34
ATOM     34  C   UNL A   1      32.579  18.086  23.672  1.00  0.00     0.193 C 
BRANCH  34  35
ATOM     35  O   UNL A   1      31.800  17.545  24.744  1.00  0.00    -0.394 OA
ATOM     36  H   UNL A   1      32.368  17.007  25.317  1.00  0.00     0.210 HD
ENDBRANCH  34  35
ENDBRANCH   5  34
ENDBRANCH   3   5
ENDBRANCH   2   3
ENDBRANCH   1   2
BRANCH   1  37
ATOM     37  C   UNL A   1      37.287  21.591  25.051  1.00  0.00     0.202 C 
BRANCH  37  38
ATOM     38  O   UNL A   1      38.187  21.837  26.131  1.00  0.00    -0.374 OA
BRANCH  38  39
ATOM     39  C   UNL A   1      39.549  21.428  25.911  1.00  0.00     0.202 C 
BRANCH  39  40
ATOM     40  C   UNL A   1      40.526  21.553  27.111  1.00  0.00     0.261 C 
BRANCH  40  41
ATOM     41  O   UNL A   1      41.935  21.125  26.901  1.00  0.00    -0.460 OA
BRANCH  41  42
ATOM     42  C   UNL A   1      42.696  21.885  26.040  1.00  0.00     0.338 C 
ATOM     43  O   UNL A   1      43.258  21.408  25.059  1.00  0.00    -0.246 OA
BRANCH  42  44
ATOM     44  C   UNL A   1      42.809  23.398  26.317  1.00  0.00     0.060 A 
ATOM     45  C   UNL A   1      43.051  23.831  27.619  1.00  0.00     0.016 A 
ATOM     46  C   UNL A   1      42.367  24.417  25.443  1.00  0.00     0.016 A 
ATOM     47  C   UNL A   1      42.902  25.214  28.008  1.00  0.00     0.010 A 
ATOM     48  C   UNL A   1      42.154  25.819  25.864  1.00  0.00     0.010 A 
ATOM     49  C   UNL A   1      42.410  26.280  27.172  1.00  0.00    -0.014 A 
BRANCH  49  50
ATOM     50  C   UNL A   1      41.754  27.572  27.932  1.00  0.00     0.031 A 
ATOM     51  C   UNL A   1      42.922  28.499  28.034  1.00  0.00     0.074 A 
ATOM     52  C   UNL A   1      40.602  28.058  28.570  1.00  0.00     0.049 A 
ATOM     53  N   UNL A   1      44.028  28.103  28.604  1.00  0.00    -0.248 NA
ATOM     54  C   UNL A   1      43.049  29.705  27.215  1.00  0.00     0.031 C 
ATOM     55  C   UNL A   1      39.341  27.343  28.838  1.00  0.00     0.029 A 
ATOM     56  N   UNL A   1      40.261  29.339  29.145  1.00  0.00    -0.354 N 
ATOM     57  C   UNL A   1      44.901  29.154  28.487  1.00  0.00     0.074 A 
ATOM     58  C   UNL A   1      44.337  29.984  27.432  1.00  0.00     0.031 C 
ATOM     59  C   UNL A   1      38.379  28.166  29.356  1.00  0.00     0.029 A 
ATOM     60  C   UNL A   1      38.883  29.524  29.560  1.00  0.00     0.049 A 
ATOM     61  H   UNL A   1      40.931  30.052  29.249  1.00  0.00     0.167 HD
ATOM     62  C   UNL A   1      45.498  29.563  29.643  1.00  0.00     0.037 A 
ATOM     63  C   UNL A   1      38.202  30.628  30.087  1.00  0.00     0.037 A 
ATOM     64  C   UNL A   1      44.914  30.771  30.152  1.00  0.00     0.049 A 
ATOM     65  C   UNL A   1      39.214  31.498  30.695  1.00  0.00     0.074 A 
ATOM     66  C   UNL A   1      44.583  31.976  29.568  1.00  0.00     0.029 A 
ATOM     67  N   UNL A   1      44.166  30.668  31.306  1.00  0.00    -0.354 N 
ATOM     68  N   UNL A   1      39.710  31.247  31.867  1.00  0.00    -0.248 NA
ATOM     69  C   UNL A   1      39.629  32.763  30.094  1.00  0.00     0.031 C 
ATOM     70  C   UNL A   1      43.322  32.308  30.109  1.00  0.00     0.029 A 
ATOM     71  C   UNL A   1      43.094  31.530  31.237  1.00  0.00     0.049 A 
ATOM     72  H   UNL A   1      44.367  30.070  32.062  1.00  0.00     0.167 HD
ATOM     73  C   UNL A   1      40.843  31.991  31.880  1.00  0.00     0.074 A 
ATOM     74  C   UNL A   1      40.600  33.079  30.953  1.00  0.00     0.031 C 
ATOM     75  C   UNL A   1      41.987  31.312  32.135  1.00  0.00     0.037 A 
BRANCH  62  76
ATOM     76  C   UNL A   1      46.011  28.438  30.491  1.00  0.00     0.057 A 
ATOM     77  C   UNL A   1      47.350  28.062  30.379  1.00  0.00     0.134 A 
ATOM     78  C   UNL A   1      45.179  27.621  31.279  1.00  0.00     0.134 A 
ATOM     79  F   UNL A   1      48.211  28.821  29.682  1.00  0.00    -0.206 F 
ATOM     80  C   UNL A   1      47.830  26.891  30.970  1.00  0.00     0.040 A 
ATOM     81  C   UNL A   1      45.632  26.424  31.830  1.00  0.00     0.040 A 
ATOM     82  F   UNL A   1      43.904  27.967  31.518  1.00  0.00    -0.206 F 
ATOM     83  C   UNL A   1      46.963  26.049  31.666  1.00  0.00     0.006 A 
ENDBRANCH  62  76
BRANCH  63  84
ATOM     84  C   UNL A   1      36.791  31.205  30.432  1.00  0.00     0.057 A 
ATOM     85  C   UNL A   1      36.280  31.201  31.782  1.00  0.00     0.134 A 
ATOM     86  C   UNL A   1      36.082  32.072  29.596  1.00  0.00     0.134 A 
ATOM     87  F   UNL A   1      36.784  30.399  32.730  1.00  0.00    -0.206 F 
ATOM     88  C   UNL A   1      35.269  32.055  32.268  1.00  0.00     0.040 A 
ATOM     89  C   UNL A   1      35.034  32.915  30.071  1.00  0.00     0.040 A 
ATOM     90  F   UNL A   1      36.421  32.192  28.307  1.00  0.00    -0.206 F 
ATOM     91  C   UNL A   1      34.652  32.940  31.412  1.00  0.00     0.006 A 
ENDBRANCH  63  84
BRANCH  75  92
ATOM     92  C   UNL A   1      41.935  30.264  33.233  1.00  0.00     0.057 A 
ATOM     93  C   UNL A   1      41.441  28.942  33.139  1.00  0.00     0.134 A 
ATOM     94  C   UNL A   1      42.358  30.657  34.510  1.00  0.00     0.134 A 
ATOM     95  F   UNL A   1      41.111  28.376  31.970  1.00  0.00    -0.206 F 
ATOM     96  C   UNL A   1      41.293  28.117  34.262  1.00  0.00     0.040 A 
ATOM     97  C   UNL A   1      42.269  29.821  35.626  1.00  0.00     0.040 A 
ATOM     98  F   UNL A   1      42.881  31.879  34.696  1.00  0.00    -0.206 F 
ATOM     99  C   UNL A   1      41.709  28.555  35.511  1.00  0.00     0.006 A 
ENDBRANCH  75  92
ENDBRANCH  49  50
ENDBRANCH  42  44
ENDBRANCH  41  42
ENDBRANCH  40  41
ENDBRANCH  39  40
ENDBRANCH  38  39
ENDBRANCH  37  38
ENDBRANCH   1  37
TORSDOF 22
ENDMDL
MODEL 3
REMARK VINA RESULT:     -10.6      3.650      9.027
REMARK SMILES Cc1c(CC(=O)N[C@H](CO)C(=O)OCCOCCOC(=O)c2ccc(-c3c4nc(c(-c5c(F)cccc5F)c5ccc([nH]5)c(-c5c(F)cccc5F)c5nc(c(-c6c(F)cccc6F)c6ccc3[nH]6)C=C5)C=C4)cc2)cc(-c2ccc(S(C)(=O)=O)cc2)n1-c1ccc(F)cc1
REMARK SMILES IDX 14 1 13 2 11 3 12 4 8 5 7 6 5 7 6 8 4 10 3 11 1 12 2 13
REMARK SMILES IDX 88 14 76 15 77 16 89 17 90 18 95 19 91 20 94 21 92 22 93 23
REMARK SMILES IDX 78 24 79 25 87 26 80 27 86 28 81 29 82 30 83 31 84 32 85 33
REMARK SMILES IDX 9 34 10 35 15 37 16 38 17 39 18 40 19 41 20 42 21 43 22 44
REMARK SMILES IDX 23 45 75 46 24 47 74 48 25 49 26 50 27 51 68 52 28 53 73 54
REMARK SMILES IDX 67 55 69 56 29 57 72 58 66 59 65 60 30 62 56 63 39 64 55 65
REMARK SMILES IDX 40 66 43 67 54 68 70 69 41 70 42 71 53 73 71 74 44 75 31 76
REMARK SMILES IDX 32 77 37 78 33 79 34 80 36 81 38 82 35 83 57 84 58 85 63 86
REMARK SMILES IDX 59 87 60 88 62 89 64 90 61 91 45 92 46 93 51 94 47 95 48 96
REMARK SMILES IDX 50 97 52 98 49 99
REMARK H PARENT 7 9 10 36 69 61 43 72
REMARK Flexibility Score: inf
ROOT
ATOM      1  C   UNL A   1      37.213  23.260  25.952  1.00  0.00     0.261 C 
ENDROOT
BRANCH   1   2
ATOM      2  O   UNL A   1      35.940  22.589  25.961  1.00  0.00    -0.462 OA
BRANCH   2   3
ATOM      3  C   UNL A   1      35.377  22.376  24.741  1.00  0.00     0.331 C 
ATOM      4  O   UNL A   1      35.457  23.173  23.812  1.00  0.00    -0.250 OA
BRANCH   3   5
ATOM      5  C   UNL A   1      34.554  21.075  24.660  1.00  0.00     0.218 C 
BRANCH   5   6
ATOM      6  N   UNL A   1      33.640  21.195  23.522  1.00  0.00    -0.341 N 
ATOM      7  C   UNL A   1      32.326  21.551  23.505  1.00  0.00     0.225 C 
ATOM      8  O   UNL A   1      31.750  21.547  22.415  1.00  0.00    -0.275 OA
ATOM      9  H   UNL A   1      34.032  20.989  22.642  1.00  0.00     0.164 HD
BRANCH   7  10
ATOM     10  C   UNL A   1      31.629  22.031  24.770  1.00  0.00     0.137 C 
BRANCH  10  11
ATOM     11  C   UNL A   1      31.519  23.522  24.897  1.00  0.00    -0.017 A 
ATOM     12  C   UNL A   1      33.331  24.044  26.689  1.00  0.00     0.065 C 
ATOM     13  C   UNL A   1      32.278  24.381  25.680  1.00  0.00     0.024 A 
ATOM     14  N   UNL A   1      31.859  25.687  25.434  1.00  0.00    -0.314 N 
ATOM     15  C   UNL A   1      30.558  24.330  24.228  1.00  0.00     0.033 A 
ATOM     16  C   UNL A   1      30.790  25.657  24.540  1.00  0.00     0.053 A 
BRANCH  14  17
ATOM     17  C   UNL A   1      32.395  26.859  26.035  1.00  0.00     0.046 A 
ATOM     18  C   UNL A   1      33.641  27.343  25.612  1.00  0.00     0.029 A 
ATOM     19  C   UNL A   1      31.706  27.482  27.083  1.00  0.00     0.029 A 
ATOM     20  C   UNL A   1      34.190  28.464  26.233  1.00  0.00     0.041 A 
ATOM     21  C   UNL A   1      32.269  28.597  27.706  1.00  0.00     0.041 A 
ATOM     22  C   UNL A   1      33.501  29.078  27.275  1.00  0.00     0.123 A 
ATOM     23  F   UNL A   1      34.040  30.144  27.880  1.00  0.00    -0.207 F 
ENDBRANCH  14  17
BRANCH  16  24
ATOM     24  C   UNL A   1      30.118  26.839  23.983  1.00  0.00    -0.001 A 
ATOM     25  C   UNL A   1      28.729  26.860  23.787  1.00  0.00     0.011 A 
ATOM     26  C   UNL A   1      30.870  27.973  23.643  1.00  0.00     0.011 A 
ATOM     27  C   UNL A   1      28.103  27.973  23.218  1.00  0.00     0.021 A 
ATOM     28  C   UNL A   1      30.252  29.091  23.074  1.00  0.00     0.021 A 
ATOM     29  C   UNL A   1      28.875  29.078  22.849  1.00  0.00     0.067 A 
BRANCH  29  30
ATOM     30  S   UNL A   1      28.071  30.495  22.137  1.00  0.00     0.175 S 
ATOM     31  C   UNL A   1      29.294  31.778  22.212  1.00  0.00     0.163 C 
ATOM     32  O   UNL A   1      27.806  30.190  20.756  1.00  0.00    -0.224 OA
ATOM     33  O   UNL A   1      26.990  30.882  23.043  1.00  0.00    -0.224 OA
ENDBRANCH  29  30
ENDBRANCH  16  24
ENDBRANCH  10  11
ENDBRANCH   7  10
ENDBRANCH   5   6
BRANCH   5  34
ATOM     34  C   UNL A   1      33.780  20.629  25.910  1.00  0.00     0.193 C 
BRANCH  34  35
ATOM     35  O   UNL A   1      33.398  19.251  25.846  1.00  0.00    -0.394 OA
ATOM     36  H   UNL A   1      33.361  18.969  24.918  1.00  0.00     0.210 HD
ENDBRANCH  34  35
ENDBRANCH   5  34
ENDBRANCH   3   5
ENDBRANCH   2   3
ENDBRANCH   1   2
BRANCH   1  37
ATOM     37  C   UNL A   1      38.367  22.283  25.664  1.00  0.00     0.202 C 
BRANCH  37  38
ATOM     38  O   UNL A   1      39.370  22.213  26.676  1.00  0.00    -0.374 OA
BRANCH  38  39
ATOM     39  C   UNL A   1      40.242  21.069  26.610  1.00  0.00     0.202 C 
BRANCH  39  40
ATOM     40  C   UNL A   1      41.711  21.325  26.178  1.00  0.00     0.261 C 
BRANCH  40  41
ATOM     41  O   UNL A   1      42.526  22.244  27.017  1.00  0.00    -0.460 OA
BRANCH  41  42
ATOM     42  C   UNL A   1      42.504  23.580  26.680  1.00  0.00     0.338 C 
ATOM     43  O   UNL A   1      42.886  23.993  25.590  1.00  0.00    -0.246 OA
BRANCH  42  44
ATOM     44  C   UNL A   1      41.947  24.578  27.715  1.00  0.00     0.060 A 
ATOM     45  C   UNL A   1      40.624  24.998  27.605  1.00  0.00     0.016 A 
ATOM     46  C   UNL A   1      42.734  25.372  28.580  1.00  0.00     0.016 A 
ATOM     47  C   UNL A   1      40.109  26.121  28.356  1.00  0.00     0.010 A 
ATOM     48  C   UNL A   1      42.218  26.560  29.295  1.00  0.00     0.010 A 
ATOM     49  C   UNL A   1      40.878  26.990  29.210  1.00  0.00    -0.014 A 
BRANCH  49  50
ATOM     50  C   UNL A   1      40.284  28.494  29.460  1.00  0.00     0.031 A 
ATOM     51  C   UNL A   1      41.530  29.288  29.687  1.00  0.00     0.074 A 
ATOM     52  C   UNL A   1      39.110  29.245  29.628  1.00  0.00     0.049 A 
ATOM     53  N   UNL A   1      42.375  28.932  30.618  1.00  0.00    -0.248 NA
ATOM     54  C   UNL A   1      42.060  30.228  28.700  1.00  0.00     0.031 C 
ATOM     55  C   UNL A   1      37.719  28.758  29.676  1.00  0.00     0.029 A 
ATOM     56  N   UNL A   1      38.860  30.658  29.797  1.00  0.00    -0.354 N 
ATOM     57  C   UNL A   1      43.416  29.821  30.530  1.00  0.00     0.074 A 
ATOM     58  C   UNL A   1      43.282  30.414  29.207  1.00  0.00     0.031 C 
ATOM     59  C   UNL A   1      36.813  29.783  29.713  1.00  0.00     0.029 A 
ATOM     60  C   UNL A   1      37.474  31.087  29.757  1.00  0.00     0.049 A 
ATOM     61  H   UNL A   1      39.594  31.299  29.931  1.00  0.00     0.167 HD
ATOM     62  C   UNL A   1      43.767  30.441  31.692  1.00  0.00     0.037 A 
ATOM     63  C   UNL A   1      36.882  32.354  29.822  1.00  0.00     0.037 A 
ATOM     64  C   UNL A   1      43.290  31.794  31.747  1.00  0.00     0.049 A 
ATOM     65  C   UNL A   1      37.844  33.236  30.490  1.00  0.00     0.074 A 
ATOM     66  C   UNL A   1      43.325  32.841  30.849  1.00  0.00     0.029 A 
ATOM     67  N   UNL A   1      42.272  32.064  32.636  1.00  0.00    -0.354 N 
ATOM     68  N   UNL A   1      37.982  33.236  31.781  1.00  0.00    -0.248 NA
ATOM     69  C   UNL A   1      38.604  34.257  29.776  1.00  0.00     0.031 C 
ATOM     70  C   UNL A   1      42.044  33.431  30.929  1.00  0.00     0.029 A 
ATOM     71  C   UNL A   1      41.414  32.990  32.085  1.00  0.00     0.049 A 
ATOM     72  H   UNL A   1      42.174  31.658  33.528  1.00  0.00     0.167 HD
ATOM     73  C   UNL A   1      39.186  33.835  31.954  1.00  0.00     0.074 A 
ATOM     74  C   UNL A   1      39.370  34.674  30.786  1.00  0.00     0.031 C 
ATOM     75  C   UNL A   1      40.098  33.124  32.659  1.00  0.00     0.037 A 
BRANCH  62  76
ATOM     76  C   UNL A   1      43.854  29.518  32.870  1.00  0.00     0.057 A 
ATOM     77  C   UNL A   1      42.680  29.147  33.528  1.00  0.00     0.134 A 
ATOM     78  C   UNL A   1      45.070  29.130  33.461  1.00  0.00     0.134 A 
ATOM     79  F   UNL A   1      41.483  29.443  32.997  1.00  0.00    -0.206 F 
ATOM     80  C   UNL A   1      42.712  28.478  34.754  1.00  0.00     0.040 A 
ATOM     81  C   UNL A   1      45.117  28.508  34.708  1.00  0.00     0.040 A 
ATOM     82  F   UNL A   1      46.239  29.360  32.842  1.00  0.00    -0.206 F 
ATOM     83  C   UNL A   1      43.932  28.189  35.364  1.00  0.00     0.006 A 
ENDBRANCH  62  76
BRANCH  63  84
ATOM     84  C   UNL A   1      35.549  33.146  29.624  1.00  0.00     0.057 A 
ATOM     85  C   UNL A   1      34.740  33.561  30.745  1.00  0.00     0.134 A 
ATOM     86  C   UNL A   1      35.217  33.822  28.447  1.00  0.00     0.134 A 
ATOM     87  F   UNL A   1      34.861  32.997  31.955  1.00  0.00    -0.206 F 
ATOM     88  C   UNL A   1      33.803  34.614  30.721  1.00  0.00     0.040 A 
ATOM     89  C   UNL A   1      34.246  34.866  28.405  1.00  0.00     0.040 A 
ATOM     90  F   UNL A   1      35.867  33.552  27.309  1.00  0.00    -0.206 F 
ATOM     91  C   UNL A   1      33.567  35.293  29.547  1.00  0.00     0.006 A 
ENDBRANCH  63  84
BRANCH  75  92
ATOM     92  C   UNL A   1      39.596  32.398  33.896  1.00  0.00     0.057 A 
ATOM     93  C   UNL A   1      38.890  31.174  33.947  1.00  0.00     0.134 A 
ATOM     94  C   UNL A   1      39.787  33.034  35.129  1.00  0.00     0.134 A 
ATOM     95  F   UNL A   1      38.731  30.385  32.875  1.00  0.00    -0.206 F 
ATOM     96  C   UNL A   1      38.334  30.680  35.136  1.00  0.00     0.040 A 
ATOM     97  C   UNL A   1      39.288  32.519  36.329  1.00  0.00     0.040 A 
ATOM     98  F   UNL A   1      40.480  34.180  35.193  1.00  0.00    -0.206 F 
ATOM     99  C   UNL A   1      38.534  31.353  36.333  1.00  0.00     0.006 A 
ENDBRANCH  75  92
ENDBRANCH  49  50
ENDBRANCH  42  44
ENDBRANCH  41  42
ENDBRANCH  40  41
ENDBRANCH  39  40
ENDBRANCH  38  39
ENDBRANCH  37  38
ENDBRANCH   1  37
TORSDOF 22
ENDMDL
