MODEL 1
REMARK VINA RESULT:     -11.1      0.000      0.000
REMARK SMILES O=C(OCCOCCOC(=O)c1c(S(=O)(=O)N2CCO[C@@H](CCO)C2)sc2c1CC[NH2+]C2)c1ccc(-c2c3nc(c(-c4c(F)cccc4F)c4ccc([nH]4)c(-c4c(F)cccc4F)c4nc(c(-c5c(F)cccc5F)c5ccc2[nH]5)C=C4)C=C3)cc1
REMARK SMILES IDX 7 1 6 2 5 3 4 4 3 5 2 6 1 7 33 8 34 9 86 10 35 11 85 12
REMARK SMILES IDX 36 13 37 14 38 15 79 16 39 17 84 18 78 19 80 20 40 21 83 22
REMARK SMILES IDX 77 23 76 24 41 26 67 27 50 28 66 29 51 30 54 31 65 32 81 33
REMARK SMILES IDX 52 34 53 35 64 37 82 38 55 39 42 40 43 41 48 42 44 43 45 44
REMARK SMILES IDX 47 45 49 46 46 47 68 48 69 49 74 50 70 51 71 52 73 53 75 54
REMARK SMILES IDX 72 55 56 56 57 57 62 58 58 59 59 60 61 61 63 62 60 63 8 64
REMARK SMILES IDX 9 65 10 66 11 67 12 68 13 69 28 70 26 71 27 72 29 73 32 74
REMARK SMILES IDX 30 75 31 76 14 79 15 80 16 81 17 82 18 83 25 84 19 85 21 86
REMARK SMILES IDX 20 87 22 88 23 89 24 90
REMARK H PARENT 80 25 54 36 31 77 31 78 24 91
REMARK Flexibility Score: inf
ROOT
ATOM      1  C   UNL A   1      33.547  29.200  26.129  1.00  0.00     0.202 C 
ENDROOT
BRANCH   1   2
ATOM      2  O   UNL A   1      34.256  29.926  27.145  1.00  0.00    -0.374 OA
BRANCH   2   3
ATOM      3  C   UNL A   1      33.689  31.180  27.511  1.00  0.00     0.202 C 
BRANCH   3   4
ATOM      4  C   UNL A   1      34.652  32.248  28.031  1.00  0.00     0.261 C 
BRANCH   4   5
ATOM      5  O   UNL A   1      36.000  31.763  28.121  1.00  0.00    -0.460 OA
BRANCH   5   6
ATOM      6  C   UNL A   1      36.517  31.184  29.231  1.00  0.00     0.338 C 
ATOM      7  O   UNL A   1      36.015  31.383  30.333  1.00  0.00    -0.246 OA
BRANCH   6   8
ATOM      8  C   UNL A   1      37.493  30.080  29.060  1.00  0.00     0.060 A 
ATOM      9  C   UNL A   1      37.542  28.921  29.836  1.00  0.00     0.016 A 
ATOM     10  C   UNL A   1      38.458  30.270  28.064  1.00  0.00     0.016 A 
ATOM     11  C   UNL A   1      38.660  28.106  29.802  1.00  0.00     0.010 A 
ATOM     12  C   UNL A   1      39.534  29.400  27.962  1.00  0.00     0.010 A 
ATOM     13  C   UNL A   1      39.688  28.382  28.905  1.00  0.00    -0.014 A 
BRANCH  13  14
ATOM     14  C   UNL A   1      40.897  27.569  29.007  1.00  0.00     0.031 A 
ATOM     15  C   UNL A   1      41.741  27.734  30.226  1.00  0.00     0.074 A 
ATOM     16  C   UNL A   1      41.219  26.629  28.096  1.00  0.00     0.049 A 
ATOM     17  N   UNL A   1      43.022  27.923  30.301  1.00  0.00    -0.248 NA
ATOM     18  C   UNL A   1      41.059  27.705  31.530  1.00  0.00     0.031 C 
ATOM     19  C   UNL A   1      40.404  26.147  26.978  1.00  0.00     0.029 A 
ATOM     20  N   UNL A   1      42.311  25.810  28.067  1.00  0.00    -0.354 N 
ATOM     21  C   UNL A   1      43.337  27.859  31.656  1.00  0.00     0.074 A 
ATOM     22  C   UNL A   1      42.087  27.804  32.371  1.00  0.00     0.031 C 
ATOM     23  C   UNL A   1      40.903  24.969  26.551  1.00  0.00     0.029 A 
ATOM     24  C   UNL A   1      42.135  24.693  27.271  1.00  0.00     0.049 A 
ATOM     25  H   UNL A   1      43.140  25.996  28.562  1.00  0.00     0.167 HD
ATOM     26  C   UNL A   1      44.605  27.672  32.110  1.00  0.00     0.037 A 
ATOM     27  C   UNL A   1      42.891  23.575  27.254  1.00  0.00     0.037 A 
ATOM     28  C   UNL A   1      45.608  28.054  31.159  1.00  0.00     0.049 A 
ATOM     29  C   UNL A   1      44.209  23.882  27.851  1.00  0.00     0.074 A 
ATOM     30  C   UNL A   1      45.926  29.218  30.483  1.00  0.00     0.029 A 
ATOM     31  N   UNL A   1      46.381  27.080  30.581  1.00  0.00    -0.354 N 
ATOM     32  N   UNL A   1      45.136  24.600  27.283  1.00  0.00    -0.248 NA
ATOM     33  C   UNL A   1      44.398  23.631  29.272  1.00  0.00     0.031 C 
ATOM     34  C   UNL A   1      46.508  28.797  29.251  1.00  0.00     0.029 A 
ATOM     35  C   UNL A   1      46.485  27.403  29.252  1.00  0.00     0.049 A 
ATOM     36  H   UNL A   1      46.783  26.303  31.031  1.00  0.00     0.167 HD
ATOM     37  C   UNL A   1      45.797  25.216  28.332  1.00  0.00     0.074 A 
ATOM     38  C   UNL A   1      45.399  24.477  29.521  1.00  0.00     0.031 C 
ATOM     39  C   UNL A   1      46.378  26.442  28.181  1.00  0.00     0.037 A 
BRANCH  26  40
ATOM     40  C   UNL A   1      44.919  26.860  33.337  1.00  0.00     0.057 A 
ATOM     41  C   UNL A   1      44.552  25.507  33.408  1.00  0.00     0.134 A 
ATOM     42  C   UNL A   1      45.331  27.443  34.553  1.00  0.00     0.134 A 
ATOM     43  F   UNL A   1      44.094  24.861  32.326  1.00  0.00    -0.206 F 
ATOM     44  C   UNL A   1      44.569  24.791  34.612  1.00  0.00     0.040 A 
ATOM     45  C   UNL A   1      45.399  26.725  35.749  1.00  0.00     0.040 A 
ATOM     46  F   UNL A   1      45.595  28.753  34.656  1.00  0.00    -0.206 F 
ATOM     47  C   UNL A   1      44.997  25.398  35.787  1.00  0.00     0.006 A 
ENDBRANCH  26  40
BRANCH  27  48
ATOM     48  C   UNL A   1      42.459  22.201  26.928  1.00  0.00     0.057 A 
ATOM     49  C   UNL A   1      43.122  21.440  25.959  1.00  0.00     0.134 A 
ATOM     50  C   UNL A   1      41.508  21.519  27.710  1.00  0.00     0.134 A 
ATOM     51  F   UNL A   1      44.088  21.984  25.206  1.00  0.00    -0.206 F 
ATOM     52  C   UNL A   1      42.847  20.079  25.770  1.00  0.00     0.040 A 
ATOM     53  C   UNL A   1      41.210  20.168  27.519  1.00  0.00     0.040 A 
ATOM     54  F   UNL A   1      40.891  22.123  28.738  1.00  0.00    -0.206 F 
ATOM     55  C   UNL A   1      41.886  19.441  26.549  1.00  0.00     0.006 A 
ENDBRANCH  27  48
BRANCH  39  56
ATOM     56  C   UNL A   1      46.594  26.949  26.787  1.00  0.00     0.057 A 
ATOM     57  C   UNL A   1      47.775  26.733  26.063  1.00  0.00     0.134 A 
ATOM     58  C   UNL A   1      45.530  27.551  26.108  1.00  0.00     0.134 A 
ATOM     59  F   UNL A   1      48.804  26.066  26.601  1.00  0.00    -0.206 F 
ATOM     60  C   UNL A   1      47.909  27.152  24.736  1.00  0.00     0.040 A 
ATOM     61  C   UNL A   1      45.640  27.947  24.771  1.00  0.00     0.040 A 
ATOM     62  F   UNL A   1      44.348  27.728  26.719  1.00  0.00    -0.206 F 
ATOM     63  C   UNL A   1      46.838  27.759  24.086  1.00  0.00     0.006 A 
ENDBRANCH  39  56
ENDBRANCH  13  14
ENDBRANCH   6   8
ENDBRANCH   5   6
ENDBRANCH   4   5
ENDBRANCH   3   4
ENDBRANCH   2   3
ENDBRANCH   1   2
BRANCH   1  64
ATOM     64  C   UNL A   1      33.161  27.750  26.458  1.00  0.00     0.261 C 
BRANCH  64  65
ATOM     65  O   UNL A   1      34.229  26.825  26.163  1.00  0.00    -0.460 OA
BRANCH  65  66
ATOM     66  C   UNL A   1      34.077  26.083  25.036  1.00  0.00     0.340 C 
ATOM     67  O   UNL A   1      34.139  26.540  23.899  1.00  0.00    -0.246 OA
BRANCH  66  68
ATOM     68  C   UNL A   1      34.010  24.643  25.269  1.00  0.00     0.095 A 
ATOM     69  C   UNL A   1      32.845  23.895  25.435  1.00  0.00     0.150 A 
ATOM     70  C   UNL A   1      35.176  23.778  25.433  1.00  0.00    -0.007 A 
ATOM     71  S   UNL A   1      33.199  22.252  25.181  1.00  0.00    -0.120 S 
ATOM     72  C   UNL A   1      34.827  22.448  25.463  1.00  0.00     0.064 A 
ATOM     73  C   UNL A   1      36.617  24.141  25.638  1.00  0.00     0.099 C 
ATOM     74  C   UNL A   1      35.749  21.286  25.641  1.00  0.00     0.308 C 
ATOM     75  C   UNL A   1      37.539  22.904  25.525  1.00  0.00     0.265 C 
ATOM     76  N   UNL A   1      37.015  21.727  26.246  1.00  0.00    -0.342 N 
ATOM     77  H   UNL A   1      36.855  21.972  27.224  1.00  0.00     0.346 HD
ATOM     78  H   UNL A   1      37.695  20.968  26.188  1.00  0.00     0.346 HD
BRANCH  69  79
ATOM     79  S   UNL A   1      31.117  24.253  25.702  1.00  0.00     0.253 S 
ATOM     80  O   UNL A   1      30.490  22.950  25.705  1.00  0.00    -0.206 OA
ATOM     81  O   UNL A   1      31.110  25.101  26.875  1.00  0.00    -0.206 OA
BRANCH  79  82
ATOM     82  N   UNL A   1      30.447  25.109  24.405  1.00  0.00    -0.192 NA
ATOM     83  C   UNL A   1      30.634  24.680  22.998  1.00  0.00     0.131 C 
ATOM     84  C   UNL A   1      29.973  26.504  24.550  1.00  0.00     0.134 C 
ATOM     85  C   UNL A   1      31.328  25.761  22.146  1.00  0.00     0.177 C 
ATOM     86  C   UNL A   1      30.828  27.462  23.699  1.00  0.00     0.135 C 
ATOM     87  O   UNL A   1      30.748  27.072  22.314  1.00  0.00    -0.375 OA
BRANCH  86  88
ATOM     88  C   UNL A   1      30.512  28.945  23.893  1.00  0.00     0.061 C 
BRANCH  88  89
ATOM     89  C   UNL A   1      29.842  29.577  22.671  1.00  0.00     0.159 C 
BRANCH  89  90
ATOM     90  O   UNL A   1      30.817  29.939  21.700  1.00  0.00    -0.396 OA
ATOM     91  H   UNL A   1      31.580  30.342  22.143  1.00  0.00     0.210 HD
ENDBRANCH  89  90
ENDBRANCH  88  89
ENDBRANCH  86  88
ENDBRANCH  79  82
ENDBRANCH  69  79
ENDBRANCH  66  68
ENDBRANCH  65  66
ENDBRANCH  64  65
ENDBRANCH   1  64
TORSDOF 19
ENDMDL
MODEL 2
REMARK VINA RESULT:     -10.8      3.340      7.558
REMARK SMILES O=C(OCCOCCOC(=O)c1c(S(=O)(=O)N2CCO[C@@H](CCO)C2)sc2c1CC[NH2+]C2)c1ccc(-c2c3nc(c(-c4c(F)cccc4F)c4ccc([nH]4)c(-c4c(F)cccc4F)c4nc(c(-c5c(F)cccc5F)c5ccc2[nH]5)C=C4)C=C3)cc1
REMARK SMILES IDX 7 1 6 2 5 3 4 4 3 5 2 6 1 7 33 8 34 9 86 10 35 11 85 12
REMARK SMILES IDX 36 13 37 14 38 15 79 16 39 17 84 18 78 19 80 20 40 21 83 22
REMARK SMILES IDX 77 23 76 24 41 26 67 27 50 28 66 29 51 30 54 31 65 32 81 33
REMARK SMILES IDX 52 34 53 35 64 37 82 38 55 39 42 40 43 41 48 42 44 43 45 44
REMARK SMILES IDX 47 45 49 46 46 47 68 48 69 49 74 50 70 51 71 52 73 53 75 54
REMARK SMILES IDX 72 55 56 56 57 57 62 58 58 59 59 60 61 61 63 62 60 63 8 64
REMARK SMILES IDX 9 65 10 66 11 67 12 68 13 69 28 70 26 71 27 72 29 73 32 74
REMARK SMILES IDX 30 75 31 76 14 79 15 80 16 81 17 82 18 83 25 84 19 85 21 86
REMARK SMILES IDX 20 87 22 88 23 89 24 90
REMARK H PARENT 80 25 54 36 31 77 31 78 24 91
REMARK Flexibility Score: inf
ROOT
ATOM      1  C   UNL A   1      39.446  21.506  26.077  1.00  0.00     0.202 C 
ENDROOT
BRANCH   1   2
ATOM      2  O   UNL A   1      39.517  20.108  25.754  1.00  0.00    -0.374 OA
BRANCH   2   3
ATOM      3  C   UNL A   1      40.733  19.459  26.111  1.00  0.00     0.202 C 
BRANCH   3   4
ATOM      4  C   UNL A   1      41.944  20.356  26.373  1.00  0.00     0.261 C 
BRANCH   4   5
ATOM      5  O   UNL A   1      43.116  19.894  25.685  1.00  0.00    -0.460 OA
BRANCH   5   6
ATOM      6  C   UNL A   1      43.958  20.709  25.006  1.00  0.00     0.338 C 
ATOM      7  O   UNL A   1      44.387  20.386  23.902  1.00  0.00    -0.246 OA
BRANCH   6   8
ATOM      8  C   UNL A   1      44.106  22.112  25.467  1.00  0.00     0.060 A 
ATOM      9  C   UNL A   1      44.973  22.541  26.472  1.00  0.00     0.016 A 
ATOM     10  C   UNL A   1      43.258  23.044  24.859  1.00  0.00     0.016 A 
ATOM     11  C   UNL A   1      44.820  23.796  27.036  1.00  0.00     0.010 A 
ATOM     12  C   UNL A   1      43.170  24.335  25.359  1.00  0.00     0.010 A 
ATOM     13  C   UNL A   1      43.872  24.673  26.518  1.00  0.00    -0.014 A 
BRANCH  13  14
ATOM     14  C   UNL A   1      43.664  25.929  27.235  1.00  0.00     0.031 A 
ATOM     15  C   UNL A   1      44.670  27.013  27.038  1.00  0.00     0.074 A 
ATOM     16  C   UNL A   1      42.566  26.165  27.981  1.00  0.00     0.049 A 
ATOM     17  N   UNL A   1      45.283  27.717  27.939  1.00  0.00    -0.248 NA
ATOM     18  C   UNL A   1      45.057  27.335  25.656  1.00  0.00     0.031 C 
ATOM     19  C   UNL A   1      41.363  25.338  28.095  1.00  0.00     0.029 A 
ATOM     20  N   UNL A   1      42.251  27.281  28.701  1.00  0.00    -0.354 N 
ATOM     21  C   UNL A   1      45.995  28.689  27.241  1.00  0.00     0.074 A 
ATOM     22  C   UNL A   1      45.886  28.360  25.842  1.00  0.00     0.031 C 
ATOM     23  C   UNL A   1      40.368  26.085  28.614  1.00  0.00     0.029 A 
ATOM     24  C   UNL A   1      40.902  27.383  28.988  1.00  0.00     0.049 A 
ATOM     25  H   UNL A   1      42.917  27.947  28.988  1.00  0.00     0.167 HD
ATOM     26  C   UNL A   1      46.484  29.811  27.832  1.00  0.00     0.037 A 
ATOM     27  C   UNL A   1      40.239  28.476  29.423  1.00  0.00     0.037 A 
ATOM     28  C   UNL A   1      46.661  29.673  29.249  1.00  0.00     0.049 A 
ATOM     29  C   UNL A   1      41.214  29.422  30.008  1.00  0.00     0.074 A 
ATOM     30  C   UNL A   1      47.377  28.822  30.069  1.00  0.00     0.029 A 
ATOM     31  N   UNL A   1      45.847  30.385  30.093  1.00  0.00    -0.354 N 
ATOM     32  N   UNL A   1      41.824  29.254  31.148  1.00  0.00    -0.248 NA
ATOM     33  C   UNL A   1      41.766  30.462  29.153  1.00  0.00     0.031 C 
ATOM     34  C   UNL A   1      46.629  28.739  31.280  1.00  0.00     0.029 A 
ATOM     35  C   UNL A   1      45.495  29.531  31.106  1.00  0.00     0.049 A 
ATOM     36  H   UNL A   1      45.571  31.324  29.991  1.00  0.00     0.167 HD
ATOM     37  C   UNL A   1      43.052  29.874  30.985  1.00  0.00     0.074 A 
ATOM     38  C   UNL A   1      42.902  30.715  29.806  1.00  0.00     0.031 C 
ATOM     39  C   UNL A   1      44.161  29.434  31.647  1.00  0.00     0.037 A 
BRANCH  26  40
ATOM     40  C   UNL A   1      46.529  31.145  27.137  1.00  0.00     0.057 A 
ATOM     41  C   UNL A   1      47.722  31.883  27.089  1.00  0.00     0.134 A 
ATOM     42  C   UNL A   1      45.367  31.843  26.749  1.00  0.00     0.134 A 
ATOM     43  F   UNL A   1      48.883  31.340  27.484  1.00  0.00    -0.206 F 
ATOM     44  C   UNL A   1      47.753  33.230  26.706  1.00  0.00     0.040 A 
ATOM     45  C   UNL A   1      45.393  33.172  26.318  1.00  0.00     0.040 A 
ATOM     46  F   UNL A   1      44.146  31.301  26.859  1.00  0.00    -0.206 F 
ATOM     47  C   UNL A   1      46.586  33.878  26.316  1.00  0.00     0.006 A 
ENDBRANCH  26  40
BRANCH  27  48
ATOM     48  C   UNL A   1      38.828  28.830  29.176  1.00  0.00     0.057 A 
ATOM     49  C   UNL A   1      37.893  28.864  30.216  1.00  0.00     0.134 A 
ATOM     50  C   UNL A   1      38.400  29.349  27.940  1.00  0.00     0.134 A 
ATOM     51  F   UNL A   1      38.225  28.449  31.446  1.00  0.00    -0.206 F 
ATOM     52  C   UNL A   1      36.601  29.375  30.035  1.00  0.00     0.040 A 
ATOM     53  C   UNL A   1      37.109  29.844  27.740  1.00  0.00     0.040 A 
ATOM     54  F   UNL A   1      39.245  29.466  26.904  1.00  0.00    -0.206 F 
ATOM     55  C   UNL A   1      36.206  29.864  28.793  1.00  0.00     0.006 A 
ENDBRANCH  27  48
BRANCH  39  56
ATOM     56  C   UNL A   1      43.962  28.505  32.807  1.00  0.00     0.057 A 
ATOM     57  C   UNL A   1      43.808  27.118  32.667  1.00  0.00     0.134 A 
ATOM     58  C   UNL A   1      44.067  29.007  34.108  1.00  0.00     0.134 A 
ATOM     59  F   UNL A   1      43.809  26.541  31.458  1.00  0.00    -0.206 F 
ATOM     60  C   UNL A   1      43.704  26.276  33.777  1.00  0.00     0.040 A 
ATOM     61  C   UNL A   1      43.996  28.171  35.227  1.00  0.00     0.040 A 
ATOM     62  F   UNL A   1      44.282  30.316  34.315  1.00  0.00    -0.206 F 
ATOM     63  C   UNL A   1      43.801  26.802  35.062  1.00  0.00     0.006 A 
ENDBRANCH  39  56
ENDBRANCH  13  14
ENDBRANCH   6   8
ENDBRANCH   5   6
ENDBRANCH   4   5
ENDBRANCH   3   4
ENDBRANCH   2   3
ENDBRANCH   1   2
BRANCH   1  64
ATOM     64  C   UNL A   1      38.138  22.232  25.723  1.00  0.00     0.261 C 
BRANCH  64  65
ATOM     65  O   UNL A   1      37.021  21.322  25.638  1.00  0.00    -0.460 OA
BRANCH  65  66
ATOM     66  C   UNL A   1      36.075  21.630  24.714  1.00  0.00     0.340 C 
ATOM     67  O   UNL A   1      36.303  22.243  23.675  1.00  0.00    -0.246 OA
BRANCH  66  68
ATOM     68  C   UNL A   1      34.773  21.015  24.957  1.00  0.00     0.095 A 
ATOM     69  C   UNL A   1      33.640  21.664  25.444  1.00  0.00     0.150 A 
ATOM     70  C   UNL A   1      34.488  19.592  24.790  1.00  0.00    -0.007 A 
ATOM     71  S   UNL A   1      32.268  20.721  25.103  1.00  0.00    -0.120 S 
ATOM     72  C   UNL A   1      33.146  19.319  24.917  1.00  0.00     0.064 A 
ATOM     73  C   UNL A   1      35.431  18.443  24.582  1.00  0.00     0.099 C 
ATOM     74  C   UNL A   1      32.494  17.978  24.831  1.00  0.00     0.308 C 
ATOM     75  C   UNL A   1      34.676  17.144  24.217  1.00  0.00     0.265 C 
ATOM     76  N   UNL A   1      33.484  16.914  25.058  1.00  0.00    -0.342 N 
ATOM     77  H   UNL A   1      33.758  16.910  26.040  1.00  0.00     0.346 HD
ATOM     78  H   UNL A   1      33.069  16.014  24.812  1.00  0.00     0.346 HD
BRANCH  69  79
ATOM     79  S   UNL A   1      33.289  23.251  26.184  1.00  0.00     0.253 S 
ATOM     80  O   UNL A   1      32.254  22.959  27.152  1.00  0.00    -0.206 OA
ATOM     81  O   UNL A   1      34.587  23.746  26.588  1.00  0.00    -0.206 OA
BRANCH  79  82
ATOM     82  N   UNL A   1      32.617  24.328  25.066  1.00  0.00    -0.192 NA
ATOM     83  C   UNL A   1      33.162  24.484  23.696  1.00  0.00     0.131 C 
ATOM     84  C   UNL A   1      31.717  25.428  25.482  1.00  0.00     0.134 C 
ATOM     85  C   UNL A   1      33.622  25.927  23.412  1.00  0.00     0.177 C 
ATOM     86  C   UNL A   1      32.365  26.797  25.206  1.00  0.00     0.135 C 
ATOM     87  O   UNL A   1      32.644  26.918  23.797  1.00  0.00    -0.375 OA
BRANCH  86  88
ATOM     88  C   UNL A   1      31.577  27.997  25.734  1.00  0.00     0.061 C 
BRANCH  88  89
ATOM     89  C   UNL A   1      31.379  29.091  24.683  1.00  0.00     0.159 C 
BRANCH  89  90
ATOM     90  O   UNL A   1      32.611  29.748  24.411  1.00  0.00    -0.396 OA
ATOM     91  H   UNL A   1      32.598  30.095  23.505  1.00  0.00     0.210 HD
ENDBRANCH  89  90
ENDBRANCH  88  89
ENDBRANCH  86  88
ENDBRANCH  79  82
ENDBRANCH  69  79
ENDBRANCH  66  68
ENDBRANCH  65  66
ENDBRANCH  64  65
ENDBRANCH   1  64
TORSDOF 19
ENDMDL
MODEL 3
REMARK VINA RESULT:     -10.6      3.331      5.840
REMARK SMILES O=C(OCCOCCOC(=O)c1c(S(=O)(=O)N2CCO[C@@H](CCO)C2)sc2c1CC[NH2+]C2)c1ccc(-c2c3nc(c(-c4c(F)cccc4F)c4ccc([nH]4)c(-c4c(F)cccc4F)c4nc(c(-c5c(F)cccc5F)c5ccc2[nH]5)C=C4)C=C3)cc1
REMARK SMILES IDX 7 1 6 2 5 3 4 4 3 5 2 6 1 7 33 8 34 9 86 10 35 11 85 12
REMARK SMILES IDX 36 13 37 14 38 15 79 16 39 17 84 18 78 19 80 20 40 21 83 22
REMARK SMILES IDX 77 23 76 24 41 26 67 27 50 28 66 29 51 30 54 31 65 32 81 33
REMARK SMILES IDX 52 34 53 35 64 37 82 38 55 39 42 40 43 41 48 42 44 43 45 44
REMARK SMILES IDX 47 45 49 46 46 47 68 48 69 49 74 50 70 51 71 52 73 53 75 54
REMARK SMILES IDX 72 55 56 56 57 57 62 58 58 59 59 60 61 61 63 62 60 63 8 64
REMARK SMILES IDX 9 65 10 66 11 67 12 68 13 69 28 70 26 71 27 72 29 73 32 74
REMARK SMILES IDX 30 75 31 76 14 79 15 80 16 81 17 82 18 83 25 84 19 85 21 86
REMARK SMILES IDX 20 87 22 88 23 89 24 90
REMARK H PARENT 80 25 54 36 31 77 31 78 24 91
REMARK Flexibility Score: inf
ROOT
ATOM      1  C   UNL A   1      34.711  30.872  27.599  1.00  0.00     0.202 C 
ENDROOT
BRANCH   1   2
ATOM      2  O   UNL A   1      34.937  32.046  28.395  1.00  0.00    -0.374 OA
BRANCH   2   3
ATOM      3  C   UNL A   1      33.915  33.035  28.333  1.00  0.00     0.202 C 
BRANCH   3   4
ATOM      4  C   UNL A   1      34.174  34.344  29.082  1.00  0.00     0.261 C 
BRANCH   4   5
ATOM      5  O   UNL A   1      33.360  34.463  30.259  1.00  0.00    -0.460 OA
BRANCH   5   6
ATOM      6  C   UNL A   1      33.862  34.518  31.516  1.00  0.00     0.338 C 
ATOM      7  O   UNL A   1      33.178  34.936  32.445  1.00  0.00    -0.246 OA
BRANCH   6   8
ATOM      8  C   UNL A   1      35.122  33.789  31.803  1.00  0.00     0.060 A 
ATOM      9  C   UNL A   1      36.381  34.377  31.930  1.00  0.00     0.016 A 
ATOM     10  C   UNL A   1      35.010  32.397  31.902  1.00  0.00     0.016 A 
ATOM     11  C   UNL A   1      37.522  33.595  31.892  1.00  0.00     0.010 A 
ATOM     12  C   UNL A   1      36.151  31.610  31.962  1.00  0.00     0.010 A 
ATOM     13  C   UNL A   1      37.407  32.209  31.845  1.00  0.00    -0.014 A 
BRANCH  13  14
ATOM     14  C   UNL A   1      38.640  31.444  31.673  1.00  0.00     0.031 A 
ATOM     15  C   UNL A   1      39.458  31.168  32.890  1.00  0.00     0.074 A 
ATOM     16  C   UNL A   1      39.005  30.912  30.490  1.00  0.00     0.049 A 
ATOM     17  N   UNL A   1      40.731  31.346  33.062  1.00  0.00    -0.248 NA
ATOM     18  C   UNL A   1      38.757  30.646  34.073  1.00  0.00     0.031 C 
ATOM     19  C   UNL A   1      38.224  30.856  29.252  1.00  0.00     0.029 A 
ATOM     20  N   UNL A   1      40.122  30.186  30.190  1.00  0.00    -0.354 N 
ATOM     21  C   UNL A   1      41.027  30.795  34.307  1.00  0.00     0.074 A 
ATOM     22  C   UNL A   1      39.768  30.452  34.919  1.00  0.00     0.031 C 
ATOM     23  C   UNL A   1      38.766  29.930  28.435  1.00  0.00     0.029 A 
ATOM     24  C   UNL A   1      39.993  29.437  29.036  1.00  0.00     0.049 A 
ATOM     25  H   UNL A   1      40.938  30.196  30.742  1.00  0.00     0.167 HD
ATOM     26  C   UNL A   1      42.292  30.484  34.694  1.00  0.00     0.037 A 
ATOM     27  C   UNL A   1      40.784  28.420  28.629  1.00  0.00     0.037 A 
ATOM     28  C   UNL A   1      43.298  31.211  33.976  1.00  0.00     0.049 A 
ATOM     29  C   UNL A   1      42.082  28.517  29.332  1.00  0.00     0.074 A 
ATOM     30  C   UNL A   1      43.591  32.548  33.783  1.00  0.00     0.029 A 
ATOM     31  N   UNL A   1      44.111  30.536  33.101  1.00  0.00    -0.354 N 
ATOM     32  N   UNL A   1      42.995  29.414  29.091  1.00  0.00    -0.248 NA
ATOM     33  C   UNL A   1      42.256  27.765  30.566  1.00  0.00     0.031 C 
ATOM     34  C   UNL A   1      44.205  32.624  32.498  1.00  0.00     0.029 A 
ATOM     35  C   UNL A   1      44.225  31.327  31.987  1.00  0.00     0.049 A 
ATOM     36  H   UNL A   1      44.529  29.657  33.245  1.00  0.00     0.167 HD
ATOM     37  C   UNL A   1      43.621  29.617  30.310  1.00  0.00     0.074 A 
ATOM     38  C   UNL A   1      43.226  28.483  31.134  1.00  0.00     0.031 C 
ATOM     39  C   UNL A   1      44.166  30.825  30.636  1.00  0.00     0.037 A 
BRANCH  26  40
ATOM     40  C   UNL A   1      42.612  29.285  35.545  1.00  0.00     0.057 A 
ATOM     41  C   UNL A   1      43.495  29.397  36.630  1.00  0.00     0.134 A 
ATOM     42  C   UNL A   1      42.286  27.968  35.161  1.00  0.00     0.134 A 
ATOM     43  F   UNL A   1      43.918  30.598  37.051  1.00  0.00    -0.206 F 
ATOM     44  C   UNL A   1      44.036  28.276  37.273  1.00  0.00     0.040 A 
ATOM     45  C   UNL A   1      42.781  26.843  35.826  1.00  0.00     0.040 A 
ATOM     46  F   UNL A   1      41.551  27.710  34.070  1.00  0.00    -0.206 F 
ATOM     47  C   UNL A   1      43.676  26.994  36.873  1.00  0.00     0.006 A 
ENDBRANCH  26  40
BRANCH  27  48
ATOM     48  C   UNL A   1      40.400  27.254  27.811  1.00  0.00     0.057 A 
ATOM     49  C   UNL A   1      40.992  27.010  26.567  1.00  0.00     0.134 A 
ATOM     50  C   UNL A   1      39.586  26.226  28.323  1.00  0.00     0.134 A 
ATOM     51  F   UNL A   1      41.832  27.902  26.024  1.00  0.00    -0.206 F 
ATOM     52  C   UNL A   1      40.779  25.816  25.865  1.00  0.00     0.040 A 
ATOM     53  C   UNL A   1      39.349  25.039  27.625  1.00  0.00     0.040 A 
ATOM     54  F   UNL A   1      39.055  26.306  29.553  1.00  0.00    -0.206 F 
ATOM     55  C   UNL A   1      39.953  24.829  26.394  1.00  0.00     0.006 A 
ENDBRANCH  27  48
BRANCH  39  56
ATOM     56  C   UNL A   1      44.388  31.814  29.531  1.00  0.00     0.057 A 
ATOM     57  C   UNL A   1      45.553  31.850  28.752  1.00  0.00     0.134 A 
ATOM     58  C   UNL A   1      43.341  32.662  29.153  1.00  0.00     0.134 A 
ATOM     59  F   UNL A   1      46.561  30.996  28.976  1.00  0.00    -0.206 F 
ATOM     60  C   UNL A   1      45.691  32.735  27.679  1.00  0.00     0.040 A 
ATOM     61  C   UNL A   1      43.455  33.529  28.063  1.00  0.00     0.040 A 
ATOM     62  F   UNL A   1      42.173  32.633  29.813  1.00  0.00    -0.206 F 
ATOM     63  C   UNL A   1      44.638  33.576  27.330  1.00  0.00     0.006 A 
ENDBRANCH  39  56
ENDBRANCH  13  14
ENDBRANCH   6   8
ENDBRANCH   5   6
ENDBRANCH   4   5
ENDBRANCH   3   4
ENDBRANCH   2   3
ENDBRANCH   1   2
BRANCH   1  64
ATOM     64  C   UNL A   1      33.264  30.603  27.159  1.00  0.00     0.261 C 
BRANCH  64  65
ATOM     65  O   UNL A   1      33.194  29.629  26.096  1.00  0.00    -0.460 OA
BRANCH  65  66
ATOM     66  C   UNL A   1      32.061  28.882  26.050  1.00  0.00     0.340 C 
ATOM     67  O   UNL A   1      31.473  28.465  27.044  1.00  0.00    -0.246 OA
BRANCH  66  68
ATOM     68  C   UNL A   1      31.477  28.755  24.718  1.00  0.00     0.095 A 
ATOM     69  C   UNL A   1      31.754  27.747  23.796  1.00  0.00     0.150 A 
ATOM     70  C   UNL A   1      30.558  29.723  24.124  1.00  0.00    -0.007 A 
ATOM     71  S   UNL A   1      30.522  27.709  22.626  1.00  0.00    -0.120 S 
ATOM     72  C   UNL A   1      30.030  29.268  22.939  1.00  0.00     0.064 A 
ATOM     73  C   UNL A   1      30.194  31.106  24.581  1.00  0.00     0.099 C 
ATOM     74  C   UNL A   1      29.079  29.995  22.046  1.00  0.00     0.308 C 
ATOM     75  C   UNL A   1      29.001  31.676  23.779  1.00  0.00     0.265 C 
ATOM     76  N   UNL A   1      29.117  31.439  22.326  1.00  0.00    -0.342 N 
ATOM     77  H   UNL A   1      30.000  31.825  21.989  1.00  0.00     0.346 HD
ATOM     78  H   UNL A   1      28.338  31.893  21.849  1.00  0.00     0.346 HD
BRANCH  69  79
ATOM     79  S   UNL A   1      32.971  26.450  23.641  1.00  0.00     0.253 S 
ATOM     80  O   UNL A   1      33.014  26.185  22.219  1.00  0.00    -0.206 OA
ATOM     81  O   UNL A   1      34.123  26.960  24.352  1.00  0.00    -0.206 OA
BRANCH  79  82
ATOM     82  N   UNL A   1      32.460  25.019  24.384  1.00  0.00    -0.192 NA
ATOM     83  C   UNL A   1      31.150  24.912  25.070  1.00  0.00     0.131 C 
ATOM     84  C   UNL A   1      33.406  23.932  24.725  1.00  0.00     0.134 C 
ATOM     85  C   UNL A   1      31.299  24.539  26.558  1.00  0.00     0.177 C 
ATOM     86  C   UNL A   1      33.499  23.749  26.251  1.00  0.00     0.135 C 
ATOM     87  O   UNL A   1      32.195  23.427  26.774  1.00  0.00    -0.375 OA
BRANCH  86  88
ATOM     88  C   UNL A   1      34.560  22.750  26.712  1.00  0.00     0.061 C 
BRANCH  88  89
ATOM     89  C   UNL A   1      33.992  21.647  27.608  1.00  0.00     0.159 C 
BRANCH  89  90
ATOM     90  O   UNL A   1      33.444  20.598  26.819  1.00  0.00    -0.396 OA
ATOM     91  H   UNL A   1      32.511  20.787  26.633  1.00  0.00     0.210 HD
ENDBRANCH  89  90
ENDBRANCH  88  89
ENDBRANCH  86  88
ENDBRANCH  79  82
ENDBRANCH  69  79
ENDBRANCH  66  68
ENDBRANCH  65  66
ENDBRANCH  64  65
ENDBRANCH   1  64
TORSDOF 19
ENDMDL
