MODEL 1
REMARK VINA RESULT:     -10.8      0.000      0.000
REMARK SMILES Cc1ccc(Cl)c(NC(=O)C[N@@H+]2CCC[C@H]2C(=O)OCCOCCOC(=O)c2ccc(-c3c4nc(c(-c5c(F)cccc5F)c5ccc([nH]5)c(-c5c(F)cccc5F)c5nc(c(-c6c(F)cccc6F)c6ccc3[nH]6)C=C5)C=C4)cc2)c1Cl
REMARK SMILES IDX 21 1 20 2 19 3 17 4 18 5 16 6 12 7 13 8 14 10 15 11 11 12
REMARK SMILES IDX 9 13 8 14 10 16 7 17 1 18 2 19 3 20 82 21 4 22 83 23 5 24
REMARK SMILES IDX 6 25 22 26 23 27 24 28 25 29 26 30 27 31 28 32 29 33 81 34
REMARK SMILES IDX 30 35 80 36 31 37 32 38 33 39 74 40 34 41 79 42 73 43 75 44
REMARK SMILES IDX 35 45 78 46 72 47 71 48 36 50 62 51 45 52 61 53 46 54 49 55
REMARK SMILES IDX 60 56 76 57 47 58 48 59 59 61 77 62 50 63 37 64 38 65 43 66
REMARK SMILES IDX 39 67 40 68 42 69 44 70 41 71 63 72 64 73 69 74 65 75 66 76
REMARK SMILES IDX 68 77 70 78 67 79 51 80 52 81 57 82 53 83 54 84 56 85 58 86
REMARK SMILES IDX 55 87
REMARK H PARENT 12 9 8 15 75 49 49 60
REMARK Flexibility Score: inf
ROOT
ATOM      1  C   UNL A   1      33.592  29.424  26.869  1.00  0.00     0.202 C 
ENDROOT
BRANCH   1   2
ATOM      2  C   UNL A   1      32.361  28.681  26.338  1.00  0.00     0.261 C 
BRANCH   2   3
ATOM      3  O   UNL A   1      32.372  28.581  24.906  1.00  0.00    -0.459 OA
BRANCH   3   4
ATOM      4  C   UNL A   1      31.204  28.920  24.282  1.00  0.00     0.365 C 
ATOM      5  O   UNL A   1      30.600  29.972  24.449  1.00  0.00    -0.245 OA
BRANCH   4   6
ATOM      6  C   UNL A   1      30.810  27.836  23.256  1.00  0.00     0.295 C 
ATOM      7  N   UNL A   1      31.232  26.503  23.745  1.00  0.00    -0.315 N 
ATOM      8  C   UNL A   1      30.093  26.061  24.581  1.00  0.00     0.263 C 
ATOM      9  H   UNL A   1      32.125  26.567  24.233  1.00  0.00     0.349 HD
ATOM     10  C   UNL A   1      28.847  26.527  23.843  1.00  0.00     0.068 C 
ATOM     11  C   UNL A   1      29.281  27.798  23.128  1.00  0.00     0.083 C 
BRANCH   7  12
ATOM     12  C   UNL A   1      31.446  25.513  22.662  1.00  0.00     0.364 C 
BRANCH  12  13
ATOM     13  C   UNL A   1      32.906  25.266  22.311  1.00  0.00     0.279 C 
ATOM     14  N   UNL A   1      33.758  24.409  22.932  1.00  0.00    -0.319 N 
ATOM     15  H   UNL A   1      34.666  24.506  22.564  1.00  0.00     0.170 HD
ATOM     16  O   UNL A   1      33.399  25.867  21.342  1.00  0.00    -0.268 OA
BRANCH  14  17
ATOM     17  C   UNL A   1      33.744  23.418  23.947  1.00  0.00     0.079 A 
ATOM     18  C   UNL A   1      33.734  19.652  24.714  1.00  0.00     0.046 C 
ATOM     19  C   UNL A   1      33.773  21.149  24.887  1.00  0.00    -0.030 A 
ATOM     20  C   UNL A   1      34.255  21.651  26.102  1.00  0.00     0.006 A 
ATOM     21  C   UNL A   1      33.431  22.052  23.847  1.00  0.00     0.069 A 
ATOM     22  C   UNL A   1      34.381  23.019  26.291  1.00  0.00     0.023 A 
ATOM     23  Cl  UNL A   1      32.305  21.476  22.663  1.00  0.00    -0.082 Cl
ATOM     24  C   UNL A   1      34.136  23.885  25.226  1.00  0.00     0.066 A 
ATOM     25  Cl  UNL A   1      34.339  25.584  25.524  1.00  0.00    -0.082 Cl
ENDBRANCH  14  17
ENDBRANCH  12  13
ENDBRANCH   7  12
ENDBRANCH   4   6
ENDBRANCH   3   4
ENDBRANCH   2   3
ENDBRANCH   1   2
BRANCH   1  26
ATOM     26  O   UNL A   1      33.421  30.810  27.167  1.00  0.00    -0.374 OA
BRANCH  26  27
ATOM     27  C   UNL A   1      32.099  31.342  27.116  1.00  0.00     0.202 C 
BRANCH  27  28
ATOM     28  C   UNL A   1      31.982  32.860  26.950  1.00  0.00     0.261 C 
BRANCH  28  29
ATOM     29  O   UNL A   1      33.235  33.533  27.159  1.00  0.00    -0.460 OA
BRANCH  29  30
ATOM     30  C   UNL A   1      33.320  34.191  28.341  1.00  0.00     0.338 C 
ATOM     31  O   UNL A   1      32.555  35.031  28.778  1.00  0.00    -0.246 OA
BRANCH  30  32
ATOM     32  C   UNL A   1      34.490  33.720  29.098  1.00  0.00     0.060 A 
ATOM     33  C   UNL A   1      35.762  34.204  28.778  1.00  0.00     0.016 A 
ATOM     34  C   UNL A   1      34.338  32.684  30.018  1.00  0.00     0.016 A 
ATOM     35  C   UNL A   1      36.889  33.627  29.369  1.00  0.00     0.010 A 
ATOM     36  C   UNL A   1      35.464  32.130  30.633  1.00  0.00     0.010 A 
ATOM     37  C   UNL A   1      36.750  32.570  30.283  1.00  0.00    -0.014 A 
BRANCH  37  38
ATOM     38  C   UNL A   1      37.954  31.858  30.783  1.00  0.00     0.031 A 
ATOM     39  C   UNL A   1      38.504  32.179  32.147  1.00  0.00     0.074 A 
ATOM     40  C   UNL A   1      38.547  30.912  30.031  1.00  0.00     0.049 A 
ATOM     41  N   UNL A   1      39.512  31.638  32.786  1.00  0.00    -0.248 NA
ATOM     42  C   UNL A   1      37.836  33.261  32.888  1.00  0.00     0.031 C 
ATOM     43  C   UNL A   1      38.135  30.526  28.683  1.00  0.00     0.029 A 
ATOM     44  N   UNL A   1      39.626  30.107  30.298  1.00  0.00    -0.354 N 
ATOM     45  C   UNL A   1      39.598  32.310  33.998  1.00  0.00     0.074 A 
ATOM     46  C   UNL A   1      38.571  33.329  33.988  1.00  0.00     0.031 C 
ATOM     47  C   UNL A   1      38.946  29.549  28.242  1.00  0.00     0.029 A 
ATOM     48  C   UNL A   1      39.941  29.252  29.271  1.00  0.00     0.049 A 
ATOM     49  H   UNL A   1      40.125  30.139  31.146  1.00  0.00     0.167 HD
ATOM     50  C   UNL A   1      40.442  32.089  35.035  1.00  0.00     0.037 A 
ATOM     51  C   UNL A   1      40.920  28.333  29.171  1.00  0.00     0.037 A 
ATOM     52  C   UNL A   1      41.462  31.074  35.052  1.00  0.00     0.049 A 
ATOM     53  C   UNL A   1      41.844  28.101  30.334  1.00  0.00     0.074 A 
ATOM     54  C   UNL A   1      42.343  30.750  36.070  1.00  0.00     0.029 A 
ATOM     55  N   UNL A   1      41.744  30.222  33.995  1.00  0.00    -0.354 N 
ATOM     56  N   UNL A   1      41.874  28.701  31.499  1.00  0.00    -0.248 NA
ATOM     57  C   UNL A   1      42.863  27.054  30.173  1.00  0.00     0.031 C 
ATOM     58  C   UNL A   1      43.179  29.723  35.617  1.00  0.00     0.029 A 
ATOM     59  C   UNL A   1      42.794  29.382  34.330  1.00  0.00     0.049 A 
ATOM     60  H   UNL A   1      41.267  30.214  33.134  1.00  0.00     0.167 HD
ATOM     61  C   UNL A   1      42.898  28.095  32.215  1.00  0.00     0.074 A 
ATOM     62  C   UNL A   1      43.453  27.066  31.360  1.00  0.00     0.031 C 
ATOM     63  C   UNL A   1      43.340  28.367  33.467  1.00  0.00     0.037 A 
BRANCH  50  64
ATOM     64  C   UNL A   1      40.294  32.974  36.238  1.00  0.00     0.057 A 
ATOM     65  C   UNL A   1      41.078  34.123  36.408  1.00  0.00     0.134 A 
ATOM     66  C   UNL A   1      39.351  32.683  37.231  1.00  0.00     0.134 A 
ATOM     67  F   UNL A   1      42.008  34.451  35.499  1.00  0.00    -0.206 F 
ATOM     68  C   UNL A   1      40.951  34.933  37.538  1.00  0.00     0.040 A 
ATOM     69  C   UNL A   1      39.198  33.498  38.355  1.00  0.00     0.040 A 
ATOM     70  F   UNL A   1      38.564  31.601  37.128  1.00  0.00    -0.206 F 
ATOM     71  C   UNL A   1      40.005  34.623  38.514  1.00  0.00     0.006 A 
ENDBRANCH  50  64
BRANCH  51  72
ATOM     72  C   UNL A   1      41.061  27.544  27.923  1.00  0.00     0.057 A 
ATOM     73  C   UNL A   1      40.363  26.345  27.739  1.00  0.00     0.134 A 
ATOM     74  C   UNL A   1      41.893  27.975  26.883  1.00  0.00     0.134 A 
ATOM     75  F   UNL A   1      39.567  25.872  28.710  1.00  0.00    -0.206 F 
ATOM     76  C   UNL A   1      40.495  25.595  26.570  1.00  0.00     0.040 A 
ATOM     77  C   UNL A   1      42.018  27.246  25.699  1.00  0.00     0.040 A 
ATOM     78  F   UNL A   1      42.586  29.116  27.000  1.00  0.00    -0.206 F 
ATOM     79  C   UNL A   1      41.321  26.050  25.542  1.00  0.00     0.006 A 
ENDBRANCH  51  72
BRANCH  63  80
ATOM     80  C   UNL A   1      44.469  27.528  33.990  1.00  0.00     0.057 A 
ATOM     81  C   UNL A   1      45.806  27.926  33.859  1.00  0.00     0.134 A 
ATOM     82  C   UNL A   1      44.216  26.321  34.655  1.00  0.00     0.134 A 
ATOM     83  F   UNL A   1      46.115  29.065  33.222  1.00  0.00    -0.206 F 
ATOM     84  C   UNL A   1      46.851  27.141  34.346  1.00  0.00     0.040 A 
ATOM     85  C   UNL A   1      45.251  25.539  35.166  1.00  0.00     0.040 A 
ATOM     86  F   UNL A   1      42.957  25.886  34.822  1.00  0.00    -0.206 F 
ATOM     87  C   UNL A   1      46.575  25.945  35.007  1.00  0.00     0.006 A 
ENDBRANCH  63  80
ENDBRANCH  37  38
ENDBRANCH  30  32
ENDBRANCH  29  30
ENDBRANCH  28  29
ENDBRANCH  27  28
ENDBRANCH  26  27
ENDBRANCH   1  26
TORSDOF 17
ENDMDL
MODEL 2
REMARK VINA RESULT:     -10.6      1.581      2.769
REMARK SMILES Cc1ccc(Cl)c(NC(=O)C[N@@H+]2CCC[C@H]2C(=O)OCCOCCOC(=O)c2ccc(-c3c4nc(c(-c5c(F)cccc5F)c5ccc([nH]5)c(-c5c(F)cccc5F)c5nc(c(-c6c(F)cccc6F)c6ccc3[nH]6)C=C5)C=C4)cc2)c1Cl
REMARK SMILES IDX 21 1 20 2 19 3 17 4 18 5 16 6 12 7 13 8 14 10 15 11 11 12
REMARK SMILES IDX 9 13 8 14 10 16 7 17 1 18 2 19 3 20 82 21 4 22 83 23 5 24
REMARK SMILES IDX 6 25 22 26 23 27 24 28 25 29 26 30 27 31 28 32 29 33 81 34
REMARK SMILES IDX 30 35 80 36 31 37 32 38 33 39 74 40 34 41 79 42 73 43 75 44
REMARK SMILES IDX 35 45 78 46 72 47 71 48 36 50 62 51 45 52 61 53 46 54 49 55
REMARK SMILES IDX 60 56 76 57 47 58 48 59 59 61 77 62 50 63 37 64 38 65 43 66
REMARK SMILES IDX 39 67 40 68 42 69 44 70 41 71 63 72 64 73 69 74 65 75 66 76
REMARK SMILES IDX 68 77 70 78 67 79 51 80 52 81 57 82 53 83 54 84 56 85 58 86
REMARK SMILES IDX 55 87
REMARK H PARENT 12 9 8 15 75 49 49 60
REMARK Flexibility Score: inf
ROOT
ATOM      1  C   UNL A   1      29.709  29.864  23.526  1.00  0.00     0.202 C 
ENDROOT
BRANCH   1   2
ATOM      2  C   UNL A   1      29.160  28.662  22.749  1.00  0.00     0.261 C 
BRANCH   2   3
ATOM      3  O   UNL A   1      30.089  27.568  22.728  1.00  0.00    -0.459 OA
BRANCH   3   4
ATOM      4  C   UNL A   1      29.851  26.575  23.637  1.00  0.00     0.365 C 
ATOM      5  O   UNL A   1      28.754  26.308  24.113  1.00  0.00    -0.245 OA
BRANCH   4   6
ATOM      6  C   UNL A   1      31.139  25.766  23.896  1.00  0.00     0.295 C 
ATOM      7  N   UNL A   1      32.248  26.683  24.249  1.00  0.00    -0.315 N 
ATOM      8  C   UNL A   1      32.111  26.850  25.714  1.00  0.00     0.263 C 
ATOM      9  H   UNL A   1      32.183  27.546  23.710  1.00  0.00     0.349 HD
ATOM     10  C   UNL A   1      31.719  25.477  26.241  1.00  0.00     0.068 C 
ATOM     11  C   UNL A   1      30.920  24.849  25.108  1.00  0.00     0.083 C 
BRANCH   7  12
ATOM     12  C   UNL A   1      33.592  26.133  23.951  1.00  0.00     0.364 C 
BRANCH  12  13
ATOM     13  C   UNL A   1      33.626  25.138  22.800  1.00  0.00     0.279 C 
ATOM     14  N   UNL A   1      33.640  23.783  22.896  1.00  0.00    -0.319 N 
ATOM     15  H   UNL A   1      33.749  23.380  22.004  1.00  0.00     0.170 HD
ATOM     16  O   UNL A   1      33.604  25.570  21.635  1.00  0.00    -0.268 OA
BRANCH  14  17
ATOM     17  C   UNL A   1      33.547  22.769  23.883  1.00  0.00     0.079 A 
ATOM     18  C   UNL A   1      34.036  21.887  27.592  1.00  0.00     0.046 C 
ATOM     19  C   UNL A   1      33.671  21.790  26.132  1.00  0.00    -0.030 A 
ATOM     20  C   UNL A   1      32.778  20.782  25.750  1.00  0.00     0.006 A 
ATOM     21  C   UNL A   1      34.123  22.724  25.163  1.00  0.00     0.069 A 
ATOM     22  C   UNL A   1      32.352  20.688  24.434  1.00  0.00     0.023 A 
ATOM     23  Cl  UNL A   1      35.627  23.516  25.497  1.00  0.00    -0.082 Cl
ATOM     24  C   UNL A   1      32.726  21.673  23.520  1.00  0.00     0.066 A 
ATOM     25  Cl  UNL A   1      32.134  21.510  21.895  1.00  0.00    -0.082 Cl
ENDBRANCH  14  17
ENDBRANCH  12  13
ENDBRANCH   7  12
ENDBRANCH   4   6
ENDBRANCH   3   4
ENDBRANCH   2   3
ENDBRANCH   1   2
BRANCH   1  26
ATOM     26  O   UNL A   1      30.980  29.691  24.154  1.00  0.00    -0.374 OA
BRANCH  26  27
ATOM     27  C   UNL A   1      31.240  30.437  25.341  1.00  0.00     0.202 C 
BRANCH  27  28
ATOM     28  C   UNL A   1      32.684  30.421  25.851  1.00  0.00     0.261 C 
BRANCH  28  29
ATOM     29  O   UNL A   1      32.775  30.731  27.252  1.00  0.00    -0.460 OA
BRANCH  29  30
ATOM     30  C   UNL A   1      33.596  31.772  27.536  1.00  0.00     0.338 C 
ATOM     31  O   UNL A   1      33.336  32.960  27.471  1.00  0.00    -0.246 OA
BRANCH  30  32
ATOM     32  C   UNL A   1      34.901  31.275  27.997  1.00  0.00     0.060 A 
ATOM     33  C   UNL A   1      35.038  29.936  28.375  1.00  0.00     0.016 A 
ATOM     34  C   UNL A   1      35.945  32.177  28.199  1.00  0.00     0.016 A 
ATOM     35  C   UNL A   1      36.221  29.507  28.981  1.00  0.00     0.010 A 
ATOM     36  C   UNL A   1      37.141  31.739  28.775  1.00  0.00     0.010 A 
ATOM     37  C   UNL A   1      37.272  30.410  29.207  1.00  0.00    -0.014 A 
BRANCH  37  38
ATOM     38  C   UNL A   1      38.459  29.985  29.993  1.00  0.00     0.031 A 
ATOM     39  C   UNL A   1      38.635  30.467  31.408  1.00  0.00     0.074 A 
ATOM     40  C   UNL A   1      39.370  29.154  29.453  1.00  0.00     0.049 A 
ATOM     41  N   UNL A   1      39.572  30.174  32.276  1.00  0.00    -0.248 NA
ATOM     42  C   UNL A   1      37.628  31.415  31.911  1.00  0.00     0.031 C 
ATOM     43  C   UNL A   1      39.335  28.637  28.087  1.00  0.00     0.029 A 
ATOM     44  N   UNL A   1      40.505  28.602  29.994  1.00  0.00    -0.354 N 
ATOM     45  C   UNL A   1      39.268  30.897  33.422  1.00  0.00     0.074 A 
ATOM     46  C   UNL A   1      38.087  31.679  33.125  1.00  0.00     0.031 C 
ATOM     47  C   UNL A   1      40.396  27.834  27.897  1.00  0.00     0.029 A 
ATOM     48  C   UNL A   1      41.190  27.792  29.124  1.00  0.00     0.049 A 
ATOM     49  H   UNL A   1      40.798  28.771  30.919  1.00  0.00     0.167 HD
ATOM     50  C   UNL A   1      39.901  30.898  34.620  1.00  0.00     0.037 A 
ATOM     51  C   UNL A   1      42.328  27.093  29.295  1.00  0.00     0.037 A 
ATOM     52  C   UNL A   1      41.072  30.119  34.922  1.00  0.00     0.049 A 
ATOM     53  C   UNL A   1      43.014  27.105  30.634  1.00  0.00     0.074 A 
ATOM     54  C   UNL A   1      41.765  30.026  36.118  1.00  0.00     0.029 A 
ATOM     55  N   UNL A   1      41.732  29.303  34.016  1.00  0.00    -0.354 N 
ATOM     56  N   UNL A   1      42.679  27.744  31.728  1.00  0.00    -0.248 NA
ATOM     57  C   UNL A   1      44.228  26.287  30.764  1.00  0.00     0.031 C 
ATOM     58  C   UNL A   1      42.862  29.178  35.925  1.00  0.00     0.029 A 
ATOM     59  C   UNL A   1      42.831  28.714  34.620  1.00  0.00     0.049 A 
ATOM     60  H   UNL A   1      41.458  29.162  33.081  1.00  0.00     0.167 HD
ATOM     61  C   UNL A   1      43.628  27.393  32.680  1.00  0.00     0.074 A 
ATOM     62  C   UNL A   1      44.541  26.469  32.039  1.00  0.00     0.031 C 
ATOM     63  C   UNL A   1      43.734  27.801  33.969  1.00  0.00     0.037 A 
BRANCH  50  64
ATOM     64  C   UNL A   1      39.332  31.780  35.693  1.00  0.00     0.057 A 
ATOM     65  C   UNL A   1      38.328  31.330  36.561  1.00  0.00     0.134 A 
ATOM     66  C   UNL A   1      39.800  33.088  35.870  1.00  0.00     0.134 A 
ATOM     67  F   UNL A   1      37.827  30.092  36.435  1.00  0.00    -0.206 F 
ATOM     68  C   UNL A   1      37.787  32.159  37.544  1.00  0.00     0.040 A 
ATOM     69  C   UNL A   1      39.283  33.919  36.866  1.00  0.00     0.040 A 
ATOM     70  F   UNL A   1      40.764  33.580  35.078  1.00  0.00    -0.206 F 
ATOM     71  C   UNL A   1      38.269  33.458  37.702  1.00  0.00     0.006 A 
ENDBRANCH  50  64
BRANCH  51  72
ATOM     72  C   UNL A   1      42.880  26.301  28.169  1.00  0.00     0.057 A 
ATOM     73  C   UNL A   1      42.466  24.985  27.934  1.00  0.00     0.134 A 
ATOM     74  C   UNL A   1      43.831  26.846  27.298  1.00  0.00     0.134 A 
ATOM     75  F   UNL A   1      41.573  24.404  28.750  1.00  0.00    -0.206 F 
ATOM     76  C   UNL A   1      42.986  24.233  26.880  1.00  0.00     0.040 A 
ATOM     77  C   UNL A   1      44.343  26.113  26.226  1.00  0.00     0.040 A 
ATOM     78  F   UNL A   1      44.265  28.103  27.470  1.00  0.00    -0.206 F 
ATOM     79  C   UNL A   1      43.923  24.800  26.018  1.00  0.00     0.006 A 
ENDBRANCH  51  72
BRANCH  63  80
ATOM     80  C   UNL A   1      44.869  27.236  34.772  1.00  0.00     0.057 A 
ATOM     81  C   UNL A   1      44.744  26.034  35.481  1.00  0.00     0.134 A 
ATOM     82  C   UNL A   1      46.107  27.888  34.818  1.00  0.00     0.134 A 
ATOM     83  F   UNL A   1      43.580  25.367  35.487  1.00  0.00    -0.206 F 
ATOM     84  C   UNL A   1      45.802  25.514  36.226  1.00  0.00     0.040 A 
ATOM     85  C   UNL A   1      47.180  27.367  35.542  1.00  0.00     0.040 A 
ATOM     86  F   UNL A   1      46.297  29.040  34.155  1.00  0.00    -0.206 F 
ATOM     87  C   UNL A   1      47.028  26.180  36.254  1.00  0.00     0.006 A 
ENDBRANCH  63  80
ENDBRANCH  37  38
ENDBRANCH  30  32
ENDBRANCH  29  30
ENDBRANCH  28  29
ENDBRANCH  27  28
ENDBRANCH  26  27
ENDBRANCH   1  26
TORSDOF 17
ENDMDL
MODEL 3
REMARK VINA RESULT:     -10.6      1.210      2.075
REMARK SMILES Cc1ccc(Cl)c(NC(=O)C[N@@H+]2CCC[C@H]2C(=O)OCCOCCOC(=O)c2ccc(-c3c4nc(c(-c5c(F)cccc5F)c5ccc([nH]5)c(-c5c(F)cccc5F)c5nc(c(-c6c(F)cccc6F)c6ccc3[nH]6)C=C5)C=C4)cc2)c1Cl
REMARK SMILES IDX 21 1 20 2 19 3 17 4 18 5 16 6 12 7 13 8 14 10 15 11 11 12
REMARK SMILES IDX 9 13 8 14 10 16 7 17 1 18 2 19 3 20 82 21 4 22 83 23 5 24
REMARK SMILES IDX 6 25 22 26 23 27 24 28 25 29 26 30 27 31 28 32 29 33 81 34
REMARK SMILES IDX 30 35 80 36 31 37 32 38 33 39 74 40 34 41 79 42 73 43 75 44
REMARK SMILES IDX 35 45 78 46 72 47 71 48 36 50 62 51 45 52 61 53 46 54 49 55
REMARK SMILES IDX 60 56 76 57 47 58 48 59 59 61 77 62 50 63 37 64 38 65 43 66
REMARK SMILES IDX 39 67 40 68 42 69 44 70 41 71 63 72 64 73 69 74 65 75 66 76
REMARK SMILES IDX 68 77 70 78 67 79 51 80 52 81 57 82 53 83 54 84 56 85 58 86
REMARK SMILES IDX 55 87
REMARK H PARENT 12 9 8 15 75 49 49 60
REMARK Flexibility Score: inf
ROOT
ATOM      1  C   UNL A   1      32.402  29.675  25.369  1.00  0.00     0.202 C 
ENDROOT
BRANCH   1   2
ATOM      2  C   UNL A   1      33.211  29.080  26.526  1.00  0.00     0.261 C 
BRANCH   2   3
ATOM      3  O   UNL A   1      33.066  27.654  26.605  1.00  0.00    -0.459 OA
BRANCH   3   4
ATOM      4  C   UNL A   1      31.790  27.202  26.794  1.00  0.00     0.365 C 
ATOM      5  O   UNL A   1      31.019  27.615  27.652  1.00  0.00    -0.245 OA
BRANCH   4   6
ATOM      6  C   UNL A   1      31.418  26.176  25.703  1.00  0.00     0.295 C 
ATOM      7  N   UNL A   1      32.348  25.024  25.757  1.00  0.00    -0.315 N 
ATOM      8  C   UNL A   1      31.729  24.121  26.754  1.00  0.00     0.263 C 
ATOM      9  H   UNL A   1      33.291  25.337  25.986  1.00  0.00     0.349 HD
ATOM     10  C   UNL A   1      30.231  24.209  26.501  1.00  0.00     0.068 C 
ATOM     11  C   UNL A   1      30.014  25.626  25.989  1.00  0.00     0.083 C 
BRANCH   7  12
ATOM     12  C   UNL A   1      32.475  24.303  24.468  1.00  0.00     0.364 C 
BRANCH  12  13
ATOM     13  C   UNL A   1      33.838  23.669  24.231  1.00  0.00     0.279 C 
ATOM     14  N   UNL A   1      34.131  22.342  24.239  1.00  0.00    -0.319 N 
ATOM     15  H   UNL A   1      35.102  22.208  24.144  1.00  0.00     0.170 HD
ATOM     16  O   UNL A   1      34.803  24.405  23.964  1.00  0.00    -0.268 OA
BRANCH  14  17
ATOM     17  C   UNL A   1      33.471  21.091  24.343  1.00  0.00     0.079 A 
ATOM     18  C   UNL A   1      32.079  18.061  22.431  1.00  0.00     0.046 C 
ATOM     19  C   UNL A   1      32.498  18.980  23.552  1.00  0.00    -0.030 A 
ATOM     20  C   UNL A   1      32.651  18.422  24.827  1.00  0.00     0.006 A 
ATOM     21  C   UNL A   1      32.823  20.345  23.344  1.00  0.00     0.069 A 
ATOM     22  C   UNL A   1      33.102  19.204  25.880  1.00  0.00     0.023 A 
ATOM     23  Cl  UNL A   1      32.063  21.124  21.996  1.00  0.00    -0.082 Cl
ATOM     24  C   UNL A   1      33.512  20.514  25.636  1.00  0.00     0.066 A 
ATOM     25  Cl  UNL A   1      34.093  21.427  26.995  1.00  0.00    -0.082 Cl
ENDBRANCH  14  17
ENDBRANCH  12  13
ENDBRANCH   7  12
ENDBRANCH   4   6
ENDBRANCH   3   4
ENDBRANCH   2   3
ENDBRANCH   1   2
BRANCH   1  26
ATOM     26  O   UNL A   1      31.537  30.765  25.690  1.00  0.00    -0.374 OA
BRANCH  26  27
ATOM     27  C   UNL A   1      31.744  31.433  26.933  1.00  0.00     0.202 C 
BRANCH  27  28
ATOM     28  C   UNL A   1      31.803  32.962  26.882  1.00  0.00     0.261 C 
BRANCH  28  29
ATOM     29  O   UNL A   1      33.130  33.469  27.100  1.00  0.00    -0.460 OA
BRANCH  29  30
ATOM     30  C   UNL A   1      33.263  34.204  28.232  1.00  0.00     0.338 C 
ATOM     31  O   UNL A   1      32.553  35.118  28.609  1.00  0.00    -0.246 OA
BRANCH  30  32
ATOM     32  C   UNL A   1      34.408  33.719  29.017  1.00  0.00     0.060 A 
ATOM     33  C   UNL A   1      35.686  34.228  28.765  1.00  0.00     0.016 A 
ATOM     34  C   UNL A   1      34.233  32.649  29.893  1.00  0.00     0.016 A 
ATOM     35  C   UNL A   1      36.796  33.643  29.378  1.00  0.00     0.010 A 
ATOM     36  C   UNL A   1      35.342  32.086  30.532  1.00  0.00     0.010 A 
ATOM     37  C   UNL A   1      36.635  32.552  30.248  1.00  0.00    -0.014 A 
BRANCH  37  38
ATOM     38  C   UNL A   1      37.828  31.837  30.770  1.00  0.00     0.031 A 
ATOM     39  C   UNL A   1      38.314  32.108  32.168  1.00  0.00     0.074 A 
ATOM     40  C   UNL A   1      38.465  30.930  30.006  1.00  0.00     0.049 A 
ATOM     41  N   UNL A   1      39.303  31.555  32.827  1.00  0.00    -0.248 NA
ATOM     42  C   UNL A   1      37.600  33.150  32.924  1.00  0.00     0.031 C 
ATOM     43  C   UNL A   1      38.116  30.594  28.628  1.00  0.00     0.029 A 
ATOM     44  N   UNL A   1      39.544  30.128  30.286  1.00  0.00    -0.354 N 
ATOM     45  C   UNL A   1      39.328  32.177  34.068  1.00  0.00     0.074 A 
ATOM     46  C   UNL A   1      38.287  33.183  34.056  1.00  0.00     0.031 C 
ATOM     47  C   UNL A   1      38.959  29.647  28.182  1.00  0.00     0.029 A 
ATOM     48  C   UNL A   1      39.914  29.321  29.240  1.00  0.00     0.049 A 
ATOM     49  H   UNL A   1      40.006  30.132  31.155  1.00  0.00     0.167 HD
ATOM     50  C   UNL A   1      40.131  31.925  35.130  1.00  0.00     0.037 A 
ATOM     51  C   UNL A   1      40.910  28.419  29.144  1.00  0.00     0.037 A 
ATOM     52  C   UNL A   1      41.164  30.924  35.149  1.00  0.00     0.049 A 
ATOM     53  C   UNL A   1      41.788  28.153  30.336  1.00  0.00     0.074 A 
ATOM     54  C   UNL A   1      42.006  30.570  36.190  1.00  0.00     0.029 A 
ATOM     55  N   UNL A   1      41.503  30.120  34.072  1.00  0.00    -0.354 N 
ATOM     56  N   UNL A   1      41.760  28.705  31.524  1.00  0.00    -0.248 NA
ATOM     57  C   UNL A   1      42.828  27.126  30.175  1.00  0.00     0.031 C 
ATOM     58  C   UNL A   1      42.876  29.573  35.732  1.00  0.00     0.029 A 
ATOM     59  C   UNL A   1      42.550  29.281  34.417  1.00  0.00     0.049 A 
ATOM     60  H   UNL A   1      41.063  30.141  33.192  1.00  0.00     0.167 HD
ATOM     61  C   UNL A   1      42.762  28.082  32.258  1.00  0.00     0.074 A 
ATOM     62  C   UNL A   1      43.368  27.097  31.386  1.00  0.00     0.031 C 
ATOM     63  C   UNL A   1      43.147  28.309  33.538  1.00  0.00     0.037 A 
BRANCH  50  64
ATOM     64  C   UNL A   1      39.919  32.758  36.360  1.00  0.00     0.057 A 
ATOM     65  C   UNL A   1      38.912  32.459  37.288  1.00  0.00     0.134 A 
ATOM     66  C   UNL A   1      40.736  33.863  36.629  1.00  0.00     0.134 A 
ATOM     67  F   UNL A   1      38.087  31.421  37.083  1.00  0.00    -0.206 F 
ATOM     68  C   UNL A   1      38.705  33.247  38.421  1.00  0.00     0.040 A 
ATOM     69  C   UNL A   1      40.554  34.645  37.771  1.00  0.00     0.040 A 
ATOM     70  F   UNL A   1      41.723  34.202  35.785  1.00  0.00    -0.206 F 
ATOM     71  C   UNL A   1      39.531  34.343  38.667  1.00  0.00     0.006 A 
ENDBRANCH  50  64
BRANCH  51  72
ATOM     72  C   UNL A   1      41.115  27.684  27.873  1.00  0.00     0.057 A 
ATOM     73  C   UNL A   1      41.903  28.214  26.845  1.00  0.00     0.134 A 
ATOM     74  C   UNL A   1      40.530  26.430  27.659  1.00  0.00     0.134 A 
ATOM     75  F   UNL A   1      42.471  29.422  26.986  1.00  0.00    -0.206 F 
ATOM     76  C   UNL A   1      42.095  27.530  25.645  1.00  0.00     0.040 A 
ATOM     77  C   UNL A   1      40.731  25.724  26.471  1.00  0.00     0.040 A 
ATOM     78  F   UNL A   1      39.765  25.869  28.607  1.00  0.00    -0.206 F 
ATOM     79  C   UNL A   1      41.512  26.277  25.458  1.00  0.00     0.006 A 
ENDBRANCH  51  72
BRANCH  63  80
ATOM     80  C   UNL A   1      44.265  27.464  34.074  1.00  0.00     0.057 A 
ATOM     81  C   UNL A   1      45.601  27.881  34.008  1.00  0.00     0.134 A 
ATOM     82  C   UNL A   1      44.002  26.231  34.684  1.00  0.00     0.134 A 
ATOM     83  F   UNL A   1      45.921  29.047  33.426  1.00  0.00    -0.206 F 
ATOM     84  C   UNL A   1      46.637  27.091  34.508  1.00  0.00     0.040 A 
ATOM     85  C   UNL A   1      45.027  25.442  35.207  1.00  0.00     0.040 A 
ATOM     86  F   UNL A   1      42.744  25.776  34.785  1.00  0.00    -0.206 F 
ATOM     87  C   UNL A   1      46.350  25.868  35.114  1.00  0.00     0.006 A 
ENDBRANCH  63  80
ENDBRANCH  37  38
ENDBRANCH  30  32
ENDBRANCH  29  30
ENDBRANCH  28  29
ENDBRANCH  27  28
ENDBRANCH  26  27
ENDBRANCH   1  26
TORSDOF 17
ENDMDL
