MODEL 1
REMARK VINA RESULT:     -10.3      0.000      0.000
REMARK SMILES O=C(COc1ccccc1/C=C1/SC(=S)N(c2ccc(F)c(Cl)c2)C1=O)OCCOCCOC(=O)c1ccc(-c2c3nc(c(-c4c(F)cccc4F)c4ccc([nH]4)c(-c4c(F)cccc4F)c4nc(c(-c5c(F)cccc5F)c5ccc2[nH]5)C=C4)C=C3)cc1
REMARK SMILES IDX 29 1 28 2 27 3 2 4 1 5 3 6 4 7 5 8 6 9 10 10 7 11 9 12 8 13
REMARK SMILES IDX 11 14 12 15 13 16 25 17 14 18 16 19 26 20 15 21 17 22 18 23
REMARK SMILES IDX 24 24 19 25 22 26 20 27 23 28 21 29 30 30 31 31 32 32 33 33
REMARK SMILES IDX 34 34 35 35 36 36 37 37 89 38 38 39 88 40 39 41 40 42 41 43
REMARK SMILES IDX 82 44 42 45 87 46 81 47 83 48 43 49 86 50 80 51 79 52 44 54
REMARK SMILES IDX 70 55 53 56 69 57 54 58 57 59 68 60 84 61 55 62 56 63 67 65
REMARK SMILES IDX 85 66 58 67 45 68 46 69 51 70 47 71 48 72 50 73 52 74 49 75
REMARK SMILES IDX 71 76 72 77 77 78 73 79 74 80 76 81 78 82 75 83 59 84 60 85
REMARK SMILES IDX 65 86 61 87 62 88 64 89 66 90 63 91
REMARK H PARENT 83 53 57 64
REMARK Flexibility Score: inf
ROOT
ATOM      1  C   UNL A   1      37.486  23.239  25.841  1.00  0.00     0.202 C 
ENDROOT
BRANCH   1   2
ATOM      2  C   UNL A   1      36.302  23.923  25.150  1.00  0.00     0.261 C 
BRANCH   2   3
ATOM      3  O   UNL A   1      35.079  23.444  25.744  1.00  0.00    -0.461 OA
BRANCH   3   4
ATOM      4  C   UNL A   1      34.336  22.489  25.123  1.00  0.00     0.344 C 
ATOM      5  O   UNL A   1      34.567  22.175  23.958  1.00  0.00    -0.248 OA
BRANCH   4   6
ATOM      6  C   UNL A   1      33.292  21.776  25.957  1.00  0.00     0.351 C 
BRANCH   6   7
ATOM      7  O   UNL A   1      32.026  21.737  25.307  1.00  0.00    -0.481 OA
BRANCH   7   8
ATOM      8  C   UNL A   1      31.121  22.643  25.793  1.00  0.00     0.127 A 
ATOM      9  C   UNL A   1      30.351  22.194  26.868  1.00  0.00     0.047 A 
ATOM     10  C   UNL A   1      30.860  23.901  25.224  1.00  0.00     0.018 A 
ATOM     11  C   UNL A   1      29.351  23.003  27.405  1.00  0.00     0.004 A 
ATOM     12  C   UNL A   1      29.864  24.712  25.786  1.00  0.00     0.012 A 
ATOM     13  C   UNL A   1      29.113  24.265  26.871  1.00  0.00     0.001 A 
BRANCH  10  14
ATOM     14  C   UNL A   1      31.508  24.446  24.033  1.00  0.00     0.033 C 
ATOM     15  C   UNL A   1      32.315  25.514  24.007  1.00  0.00     0.081 C 
ATOM     16  S   UNL A   1      33.042  26.048  22.542  1.00  0.00    -0.054 SA
ATOM     17  C   UNL A   1      32.663  26.442  25.123  1.00  0.00     0.270 C 
ATOM     18  C   UNL A   1      33.653  27.518  23.277  1.00  0.00     0.152 C 
ATOM     19  N   UNL A   1      33.326  27.556  24.618  1.00  0.00    -0.261 N 
ATOM     20  O   UNL A   1      32.375  26.249  26.297  1.00  0.00    -0.268 OA
ATOM     21  S   UNL A   1      34.557  28.579  22.378  1.00  0.00    -0.051 S 
BRANCH  19  22
ATOM     22  C   UNL A   1      33.531  28.671  25.478  1.00  0.00     0.052 A 
ATOM     23  C   UNL A   1      34.530  28.651  26.457  1.00  0.00     0.030 A 
ATOM     24  C   UNL A   1      32.595  29.712  25.482  1.00  0.00     0.050 A 
ATOM     25  C   UNL A   1      34.609  29.679  27.405  1.00  0.00     0.043 A 
ATOM     26  C   UNL A   1      32.630  30.693  26.478  1.00  0.00     0.078 A 
ATOM     27  C   UNL A   1      33.652  30.687  27.418  1.00  0.00     0.141 A 
ATOM     28  Cl  UNL A   1      31.358  31.850  26.593  1.00  0.00    -0.081 Cl
ATOM     29  F   UNL A   1      33.712  31.630  28.369  1.00  0.00    -0.205 F 
ENDBRANCH  19  22
ENDBRANCH  10  14
ENDBRANCH   7   8
ENDBRANCH   6   7
ENDBRANCH   4   6
ENDBRANCH   3   4
ENDBRANCH   2   3
ENDBRANCH   1   2
BRANCH   1  30
ATOM     30  O   UNL A   1      38.044  22.176  25.069  1.00  0.00    -0.374 OA
BRANCH  30  31
ATOM     31  C   UNL A   1      37.731  20.853  25.511  1.00  0.00     0.202 C 
BRANCH  31  32
ATOM     32  C   UNL A   1      38.824  19.806  25.283  1.00  0.00     0.261 C 
BRANCH  32  33
ATOM     33  O   UNL A   1      39.653  19.568  26.442  1.00  0.00    -0.460 OA
BRANCH  33  34
ATOM     34  C   UNL A   1      40.982  19.532  26.194  1.00  0.00     0.338 C 
ATOM     35  O   UNL A   1      41.624  18.584  25.756  1.00  0.00    -0.246 OA
BRANCH  34  36
ATOM     36  C   UNL A   1      41.612  20.847  26.416  1.00  0.00     0.060 A 
ATOM     37  C   UNL A   1      41.738  21.274  27.739  1.00  0.00     0.016 A 
ATOM     38  C   UNL A   1      41.946  21.711  25.371  1.00  0.00     0.016 A 
ATOM     39  C   UNL A   1      42.222  22.546  28.036  1.00  0.00     0.010 A 
ATOM     40  C   UNL A   1      42.404  23.009  25.668  1.00  0.00     0.010 A 
ATOM     41  C   UNL A   1      42.540  23.437  27.004  1.00  0.00    -0.014 A 
BRANCH  41  42
ATOM     42  C   UNL A   1      42.818  24.857  27.354  1.00  0.00     0.031 A 
ATOM     43  C   UNL A   1      44.150  25.436  26.960  1.00  0.00     0.074 A 
ATOM     44  C   UNL A   1      41.878  25.660  27.890  1.00  0.00     0.049 A 
ATOM     45  N   UNL A   1      44.614  26.647  27.127  1.00  0.00    -0.248 NA
ATOM     46  C   UNL A   1      45.070  24.528  26.255  1.00  0.00     0.031 C 
ATOM     47  C   UNL A   1      40.511  25.262  28.208  1.00  0.00     0.029 A 
ATOM     48  N   UNL A   1      41.924  26.985  28.252  1.00  0.00    -0.354 N 
ATOM     49  C   UNL A   1      45.868  26.654  26.531  1.00  0.00     0.074 A 
ATOM     50  C   UNL A   1      46.111  25.317  26.035  1.00  0.00     0.031 C 
ATOM     51  C   UNL A   1      39.854  26.302  28.747  1.00  0.00     0.029 A 
ATOM     52  C   UNL A   1      40.755  27.447  28.816  1.00  0.00     0.049 A 
ATOM     53  H   UNL A   1      42.718  27.552  28.120  1.00  0.00     0.167 HD
ATOM     54  C   UNL A   1      46.734  27.683  26.391  1.00  0.00     0.037 A 
ATOM     55  C   UNL A   1      40.451  28.654  29.334  1.00  0.00     0.037 A 
ATOM     56  C   UNL A   1      46.504  29.009  26.900  1.00  0.00     0.049 A 
ATOM     57  C   UNL A   1      41.483  29.749  29.278  1.00  0.00     0.074 A 
ATOM     58  C   UNL A   1      47.350  30.103  26.876  1.00  0.00     0.029 A 
ATOM     59  N   UNL A   1      45.336  29.417  27.526  1.00  0.00    -0.354 N 
ATOM     60  N   UNL A   1      42.678  29.733  28.740  1.00  0.00    -0.248 NA
ATOM     61  C   UNL A   1      41.119  31.036  29.891  1.00  0.00     0.031 C 
ATOM     62  C   UNL A   1      46.708  31.165  27.523  1.00  0.00     0.029 A 
ATOM     63  C   UNL A   1      45.444  30.744  27.908  1.00  0.00     0.049 A 
ATOM     64  H   UNL A   1      44.548  28.848  27.678  1.00  0.00     0.167 HD
ATOM     65  C   UNL A   1      43.198  31.008  28.926  1.00  0.00     0.074 A 
ATOM     66  C   UNL A   1      42.178  31.780  29.604  1.00  0.00     0.031 C 
ATOM     67  C   UNL A   1      44.413  31.496  28.575  1.00  0.00     0.037 A 
BRANCH  54  68
ATOM     68  C   UNL A   1      48.026  27.389  25.689  1.00  0.00     0.057 A 
ATOM     69  C   UNL A   1      49.190  27.058  26.395  1.00  0.00     0.134 A 
ATOM     70  C   UNL A   1      48.113  27.459  24.294  1.00  0.00     0.134 A 
ATOM     71  F   UNL A   1      49.178  26.998  27.736  1.00  0.00    -0.206 F 
ATOM     72  C   UNL A   1      50.402  26.836  25.740  1.00  0.00     0.040 A 
ATOM     73  C   UNL A   1      49.313  27.216  23.626  1.00  0.00     0.040 A 
ATOM     74  F   UNL A   1      47.034  27.773  23.560  1.00  0.00    -0.206 F 
ATOM     75  C   UNL A   1      50.464  26.911  24.349  1.00  0.00     0.006 A 
ENDBRANCH  54  68
BRANCH  55  76
ATOM     76  C   UNL A   1      39.131  28.898  29.978  1.00  0.00     0.057 A 
ATOM     77  C   UNL A   1      38.059  29.456  29.271  1.00  0.00     0.134 A 
ATOM     78  C   UNL A   1      38.935  28.648  31.343  1.00  0.00     0.134 A 
ATOM     79  F   UNL A   1      38.186  29.743  27.967  1.00  0.00    -0.206 F 
ATOM     80  C   UNL A   1      36.858  29.790  29.902  1.00  0.00     0.040 A 
ATOM     81  C   UNL A   1      37.729  28.950  31.980  1.00  0.00     0.040 A 
ATOM     82  F   UNL A   1      39.918  28.115  32.083  1.00  0.00    -0.206 F 
ATOM     83  C   UNL A   1      36.690  29.537  31.261  1.00  0.00     0.006 A 
ENDBRANCH  55  76
BRANCH  67  84
ATOM     84  C   UNL A   1      44.687  32.936  28.894  1.00  0.00     0.057 A 
ATOM     85  C   UNL A   1      45.295  33.324  30.094  1.00  0.00     0.134 A 
ATOM     86  C   UNL A   1      44.360  33.944  27.978  1.00  0.00     0.134 A 
ATOM     87  F   UNL A   1      45.620  32.408  31.019  1.00  0.00    -0.206 F 
ATOM     88  C   UNL A   1      45.544  34.666  30.385  1.00  0.00     0.040 A 
ATOM     89  C   UNL A   1      44.629  35.287  28.245  1.00  0.00     0.040 A 
ATOM     90  F   UNL A   1      43.782  33.639  26.806  1.00  0.00    -0.206 F 
ATOM     91  C   UNL A   1      45.216  35.651  29.455  1.00  0.00     0.006 A 
ENDBRANCH  67  84
ENDBRANCH  41  42
ENDBRANCH  34  36
ENDBRANCH  33  34
ENDBRANCH  32  33
ENDBRANCH  31  32
ENDBRANCH  30  31
ENDBRANCH   1  30
TORSDOF 18
ENDMDL
MODEL 2
REMARK VINA RESULT:     -10.1      9.455     15.184
REMARK SMILES O=C(COc1ccccc1/C=C1/SC(=S)N(c2ccc(F)c(Cl)c2)C1=O)OCCOCCOC(=O)c1ccc(-c2c3nc(c(-c4c(F)cccc4F)c4ccc([nH]4)c(-c4c(F)cccc4F)c4nc(c(-c5c(F)cccc5F)c5ccc2[nH]5)C=C4)C=C3)cc1
REMARK SMILES IDX 29 1 28 2 27 3 2 4 1 5 3 6 4 7 5 8 6 9 10 10 7 11 9 12 8 13
REMARK SMILES IDX 11 14 12 15 13 16 25 17 14 18 16 19 26 20 15 21 17 22 18 23
REMARK SMILES IDX 24 24 19 25 22 26 20 27 23 28 21 29 30 30 31 31 32 32 33 33
REMARK SMILES IDX 34 34 35 35 36 36 37 37 89 38 38 39 88 40 39 41 40 42 41 43
REMARK SMILES IDX 82 44 42 45 87 46 81 47 83 48 43 49 86 50 80 51 79 52 44 54
REMARK SMILES IDX 70 55 53 56 69 57 54 58 57 59 68 60 84 61 55 62 56 63 67 65
REMARK SMILES IDX 85 66 58 67 45 68 46 69 51 70 47 71 48 72 50 73 52 74 49 75
REMARK SMILES IDX 71 76 72 77 77 78 73 79 74 80 76 81 78 82 75 83 59 84 60 85
REMARK SMILES IDX 65 86 61 87 62 88 64 89 66 90 63 91
REMARK H PARENT 83 53 57 64
REMARK Flexibility Score: inf
ROOT
ATOM      1  C   UNL A   1      42.536  39.939  26.524  1.00  0.00     0.202 C 
ENDROOT
BRANCH   1   2
ATOM      2  C   UNL A   1      43.301  41.266  26.537  1.00  0.00     0.261 C 
BRANCH   2   3
ATOM      3  O   UNL A   1      43.238  41.848  25.218  1.00  0.00    -0.461 OA
BRANCH   3   4
ATOM      4  C   UNL A   1      43.749  43.087  24.984  1.00  0.00     0.344 C 
ATOM      5  O   UNL A   1      44.455  43.642  25.823  1.00  0.00    -0.248 OA
BRANCH   4   6
ATOM      6  C   UNL A   1      43.490  43.693  23.621  1.00  0.00     0.351 C 
BRANCH   6   7
ATOM      7  O   UNL A   1      44.623  44.402  23.129  1.00  0.00    -0.481 OA
BRANCH   7   8
ATOM      8  C   UNL A   1      45.575  43.601  22.555  1.00  0.00     0.127 A 
ATOM      9  C   UNL A   1      46.851  43.705  23.113  1.00  0.00     0.047 A 
ATOM     10  C   UNL A   1      45.373  42.803  21.416  1.00  0.00     0.018 A 
ATOM     11  C   UNL A   1      47.918  42.989  22.570  1.00  0.00     0.004 A 
ATOM     12  C   UNL A   1      46.449  42.074  20.893  1.00  0.00     0.012 A 
ATOM     13  C   UNL A   1      47.715  42.166  21.466  1.00  0.00     0.001 A 
BRANCH  10  14
ATOM     14  C   UNL A   1      44.123  42.693  20.667  1.00  0.00     0.033 C 
ATOM     15  C   UNL A   1      43.755  43.480  19.648  1.00  0.00     0.081 C 
ATOM     16  S   UNL A   1      42.265  43.236  18.824  1.00  0.00    -0.054 SA
ATOM     17  C   UNL A   1      44.453  44.683  19.106  1.00  0.00     0.270 C 
ATOM     18  C   UNL A   1      42.425  44.722  17.909  1.00  0.00     0.152 C 
ATOM     19  N   UNL A   1      43.614  45.351  18.219  1.00  0.00    -0.261 N 
ATOM     20  O   UNL A   1      45.581  45.031  19.427  1.00  0.00    -0.268 OA
ATOM     21  S   UNL A   1      41.266  45.139  16.798  1.00  0.00    -0.051 S 
BRANCH  19  22
ATOM     22  C   UNL A   1      43.992  46.650  17.776  1.00  0.00     0.052 A 
ATOM     23  C   UNL A   1      44.988  46.819  16.809  1.00  0.00     0.030 A 
ATOM     24  C   UNL A   1      43.509  47.772  18.461  1.00  0.00     0.050 A 
ATOM     25  C   UNL A   1      45.469  48.100  16.509  1.00  0.00     0.043 A 
ATOM     26  C   UNL A   1      44.049  49.038  18.214  1.00  0.00     0.078 A 
ATOM     27  C   UNL A   1      45.006  49.201  17.221  1.00  0.00     0.141 A 
ATOM     28  Cl  UNL A   1      43.593  50.375  19.201  1.00  0.00    -0.081 Cl
ATOM     29  F   UNL A   1      45.520  50.410  16.958  1.00  0.00    -0.205 F 
ENDBRANCH  19  22
ENDBRANCH  10  14
ENDBRANCH   7   8
ENDBRANCH   6   7
ENDBRANCH   4   6
ENDBRANCH   3   4
ENDBRANCH   2   3
ENDBRANCH   1   2
BRANCH   1  30
ATOM     30  O   UNL A   1      42.177  39.490  27.831  1.00  0.00    -0.374 OA
BRANCH  30  31
ATOM     31  C   UNL A   1      42.842  38.311  28.290  1.00  0.00     0.202 C 
BRANCH  31  32
ATOM     32  C   UNL A   1      43.803  38.511  29.466  1.00  0.00     0.261 C 
BRANCH  32  33
ATOM     33  O   UNL A   1      44.479  37.302  29.876  1.00  0.00    -0.460 OA
BRANCH  33  34
ATOM     34  C   UNL A   1      45.398  36.838  28.999  1.00  0.00     0.338 C 
ATOM     35  O   UNL A   1      46.332  37.463  28.511  1.00  0.00    -0.246 OA
BRANCH  34  36
ATOM     36  C   UNL A   1      45.223  35.395  28.744  1.00  0.00     0.060 A 
ATOM     37  C   UNL A   1      44.447  35.037  27.640  1.00  0.00     0.016 A 
ATOM     38  C   UNL A   1      45.677  34.411  29.624  1.00  0.00     0.016 A 
ATOM     39  C   UNL A   1      44.141  33.701  27.385  1.00  0.00     0.010 A 
ATOM     40  C   UNL A   1      45.342  33.064  29.386  1.00  0.00     0.010 A 
ATOM     41  C   UNL A   1      44.566  32.702  28.267  1.00  0.00    -0.014 A 
BRANCH  41  42
ATOM     42  C   UNL A   1      44.019  31.327  28.098  1.00  0.00     0.031 A 
ATOM     43  C   UNL A   1      44.834  30.332  27.318  1.00  0.00     0.074 A 
ATOM     44  C   UNL A   1      42.895  30.923  28.720  1.00  0.00     0.049 A 
ATOM     45  N   UNL A   1      44.587  29.074  27.059  1.00  0.00    -0.248 NA
ATOM     46  C   UNL A   1      46.118  30.817  26.786  1.00  0.00     0.031 C 
ATOM     47  C   UNL A   1      42.075  31.747  29.602  1.00  0.00     0.029 A 
ATOM     48  N   UNL A   1      42.251  29.708  28.719  1.00  0.00    -0.354 N 
ATOM     49  C   UNL A   1      45.690  28.612  26.353  1.00  0.00     0.074 A 
ATOM     50  C   UNL A   1      46.589  29.734  26.188  1.00  0.00     0.031 C 
ATOM     51  C   UNL A   1      41.021  31.035  30.031  1.00  0.00     0.029 A 
ATOM     52  C   UNL A   1      41.087  29.697  29.454  1.00  0.00     0.049 A 
ATOM     53  H   UNL A   1      42.590  28.919  28.238  1.00  0.00     0.167 HD
ATOM     54  C   UNL A   1      45.944  27.364  25.898  1.00  0.00     0.037 A 
ATOM     55  C   UNL A   1      40.175  28.720  29.635  1.00  0.00     0.037 A 
ATOM     56  C   UNL A   1      45.043  26.252  26.043  1.00  0.00     0.049 A 
ATOM     57  C   UNL A   1      40.421  27.373  29.010  1.00  0.00     0.074 A 
ATOM     58  C   UNL A   1      45.173  24.965  25.553  1.00  0.00     0.029 A 
ATOM     59  N   UNL A   1      43.842  26.300  26.735  1.00  0.00    -0.354 N 
ATOM     60  N   UNL A   1      41.454  26.959  28.316  1.00  0.00    -0.248 NA
ATOM     61  C   UNL A   1      39.380  26.351  29.202  1.00  0.00     0.031 C 
ATOM     62  C   UNL A   1      44.029  24.244  25.916  1.00  0.00     0.029 A 
ATOM     63  C   UNL A   1      43.211  25.069  26.671  1.00  0.00     0.049 A 
ATOM     64  H   UNL A   1      43.490  27.092  27.201  1.00  0.00     0.167 HD
ATOM     65  C   UNL A   1      41.201  25.627  28.011  1.00  0.00     0.074 A 
ATOM     66  C   UNL A   1      39.928  25.295  28.618  1.00  0.00     0.031 C 
ATOM     67  C   UNL A   1      41.948  24.757  27.289  1.00  0.00     0.037 A 
BRANCH  54  68
ATOM     68  C   UNL A   1      47.236  27.161  25.165  1.00  0.00     0.057 A 
ATOM     69  C   UNL A   1      47.407  27.587  23.841  1.00  0.00     0.134 A 
ATOM     70  C   UNL A   1      48.312  26.514  25.782  1.00  0.00     0.134 A 
ATOM     71  F   UNL A   1      46.405  28.192  23.186  1.00  0.00    -0.206 F 
ATOM     72  C   UNL A   1      48.595  27.349  23.147  1.00  0.00     0.040 A 
ATOM     73  C   UNL A   1      49.512  26.291  25.107  1.00  0.00     0.040 A 
ATOM     74  F   UNL A   1      48.211  26.081  27.048  1.00  0.00    -0.206 F 
ATOM     75  C   UNL A   1      49.653  26.702  23.783  1.00  0.00     0.006 A 
ENDBRANCH  54  68
BRANCH  55  76
ATOM     76  C   UNL A   1      38.930  28.971  30.413  1.00  0.00     0.057 A 
ATOM     77  C   UNL A   1      37.797  29.545  29.825  1.00  0.00     0.134 A 
ATOM     78  C   UNL A   1      38.873  28.710  31.789  1.00  0.00     0.134 A 
ATOM     79  F   UNL A   1      37.793  29.843  28.517  1.00  0.00    -0.206 F 
ATOM     80  C   UNL A   1      36.671  29.885  30.579  1.00  0.00     0.040 A 
ATOM     81  C   UNL A   1      37.742  29.018  32.549  1.00  0.00     0.040 A 
ATOM     82  F   UNL A   1      39.922  28.161  32.419  1.00  0.00    -0.206 F 
ATOM     83  C   UNL A   1      36.641  29.621  31.946  1.00  0.00     0.006 A 
ENDBRANCH  55  76
BRANCH  67  84
ATOM     84  C   UNL A   1      41.419  23.361  27.144  1.00  0.00     0.057 A 
ATOM     85  C   UNL A   1      42.026  22.271  27.781  1.00  0.00     0.134 A 
ATOM     86  C   UNL A   1      40.275  23.107  26.377  1.00  0.00     0.134 A 
ATOM     87  F   UNL A   1      43.134  22.446  28.518  1.00  0.00    -0.206 F 
ATOM     88  C   UNL A   1      41.531  20.975  27.638  1.00  0.00     0.040 A 
ATOM     89  C   UNL A   1      39.753  21.820  26.250  1.00  0.00     0.040 A 
ATOM     90  F   UNL A   1      39.641  24.108  25.747  1.00  0.00    -0.206 F 
ATOM     91  C   UNL A   1      40.386  20.748  26.876  1.00  0.00     0.006 A 
ENDBRANCH  67  84
ENDBRANCH  41  42
ENDBRANCH  34  36
ENDBRANCH  33  34
ENDBRANCH  32  33
ENDBRANCH  31  32
ENDBRANCH  30  31
ENDBRANCH   1  30
TORSDOF 18
ENDMDL
MODEL 3
REMARK VINA RESULT:     -10.0      1.859      3.091
REMARK SMILES O=C(COc1ccccc1/C=C1/SC(=S)N(c2ccc(F)c(Cl)c2)C1=O)OCCOCCOC(=O)c1ccc(-c2c3nc(c(-c4c(F)cccc4F)c4ccc([nH]4)c(-c4c(F)cccc4F)c4nc(c(-c5c(F)cccc5F)c5ccc2[nH]5)C=C4)C=C3)cc1
REMARK SMILES IDX 29 1 28 2 27 3 2 4 1 5 3 6 4 7 5 8 6 9 10 10 7 11 9 12 8 13
REMARK SMILES IDX 11 14 12 15 13 16 25 17 14 18 16 19 26 20 15 21 17 22 18 23
REMARK SMILES IDX 24 24 19 25 22 26 20 27 23 28 21 29 30 30 31 31 32 32 33 33
REMARK SMILES IDX 34 34 35 35 36 36 37 37 89 38 38 39 88 40 39 41 40 42 41 43
REMARK SMILES IDX 82 44 42 45 87 46 81 47 83 48 43 49 86 50 80 51 79 52 44 54
REMARK SMILES IDX 70 55 53 56 69 57 54 58 57 59 68 60 84 61 55 62 56 63 67 65
REMARK SMILES IDX 85 66 58 67 45 68 46 69 51 70 47 71 48 72 50 73 52 74 49 75
REMARK SMILES IDX 71 76 72 77 77 78 73 79 74 80 76 81 78 82 75 83 59 84 60 85
REMARK SMILES IDX 65 86 61 87 62 88 64 89 66 90 63 91
REMARK H PARENT 83 53 57 64
REMARK Flexibility Score: inf
ROOT
ATOM      1  C   UNL A   1      40.562  21.104  26.885  1.00  0.00     0.202 C 
ENDROOT
BRANCH   1   2
ATOM      2  C   UNL A   1      39.620  20.653  25.764  1.00  0.00     0.261 C 
BRANCH   2   3
ATOM      3  O   UNL A   1      38.548  21.610  25.648  1.00  0.00    -0.461 OA
BRANCH   3   4
ATOM      4  C   UNL A   1      37.462  21.342  24.874  1.00  0.00     0.344 C 
ATOM      5  O   UNL A   1      37.104  20.183  24.678  1.00  0.00    -0.248 OA
BRANCH   4   6
ATOM      6  C   UNL A   1      36.674  22.528  24.357  1.00  0.00     0.351 C 
BRANCH   6   7
ATOM      7  O   UNL A   1      36.042  23.247  25.410  1.00  0.00    -0.481 OA
BRANCH   7   8
ATOM      8  C   UNL A   1      34.810  22.757  25.758  1.00  0.00     0.127 A 
ATOM      9  C   UNL A   1      34.813  21.842  26.812  1.00  0.00     0.047 A 
ATOM     10  C   UNL A   1      33.615  23.029  25.071  1.00  0.00     0.018 A 
ATOM     11  C   UNL A   1      33.628  21.225  27.213  1.00  0.00     0.004 A 
ATOM     12  C   UNL A   1      32.428  22.416  25.497  1.00  0.00     0.012 A 
ATOM     13  C   UNL A   1      32.434  21.518  26.561  1.00  0.00     0.001 A 
BRANCH  10  14
ATOM     14  C   UNL A   1      33.489  23.874  23.886  1.00  0.00     0.033 C 
ATOM     15  C   UNL A   1      33.553  25.211  23.874  1.00  0.00     0.081 C 
ATOM     16  S   UNL A   1      33.416  26.098  22.406  1.00  0.00    -0.054 SA
ATOM     17  C   UNL A   1      33.665  26.145  25.032  1.00  0.00     0.270 C 
ATOM     18  C   UNL A   1      33.335  27.638  23.240  1.00  0.00     0.152 C 
ATOM     19  N   UNL A   1      33.449  27.451  24.604  1.00  0.00    -0.261 N 
ATOM     20  O   UNL A   1      33.885  25.794  26.183  1.00  0.00    -0.268 OA
ATOM     21  S   UNL A   1      33.223  29.046  22.371  1.00  0.00    -0.051 S 
BRANCH  19  22
ATOM     22  C   UNL A   1      33.272  28.466  25.585  1.00  0.00     0.052 A 
ATOM     23  C   UNL A   1      32.058  29.153  25.699  1.00  0.00     0.030 A 
ATOM     24  C   UNL A   1      34.383  28.923  26.304  1.00  0.00     0.050 A 
ATOM     25  C   UNL A   1      31.953  30.262  26.549  1.00  0.00     0.043 A 
ATOM     26  C   UNL A   1      34.293  30.078  27.089  1.00  0.00     0.078 A 
ATOM     27  C   UNL A   1      33.073  30.725  27.230  1.00  0.00     0.141 A 
ATOM     28  Cl  UNL A   1      35.712  30.744  27.805  1.00  0.00    -0.081 Cl
ATOM     29  F   UNL A   1      32.964  31.822  27.993  1.00  0.00    -0.205 F 
ENDBRANCH  19  22
ENDBRANCH  10  14
ENDBRANCH   7   8
ENDBRANCH   6   7
ENDBRANCH   4   6
ENDBRANCH   3   4
ENDBRANCH   2   3
ENDBRANCH   1   2
BRANCH   1  30
ATOM     30  O   UNL A   1      41.753  20.321  26.962  1.00  0.00    -0.374 OA
BRANCH  30  31
ATOM     31  C   UNL A   1      42.153  19.674  25.751  1.00  0.00     0.202 C 
BRANCH  31  32
ATOM     32  C   UNL A   1      43.143  18.519  25.916  1.00  0.00     0.261 C 
BRANCH  32  33
ATOM     33  O   UNL A   1      44.507  18.872  25.596  1.00  0.00    -0.460 OA
BRANCH  33  34
ATOM     34  C   UNL A   1      44.658  19.592  24.462  1.00  0.00     0.338 C 
ATOM     35  O   UNL A   1      44.436  19.217  23.316  1.00  0.00    -0.246 OA
BRANCH  34  36
ATOM     36  C   UNL A   1      45.041  20.987  24.751  1.00  0.00     0.060 A 
ATOM     37  C   UNL A   1      45.495  21.264  26.042  1.00  0.00     0.016 A 
ATOM     38  C   UNL A   1      44.837  22.031  23.847  1.00  0.00     0.016 A 
ATOM     39  C   UNL A   1      45.777  22.571  26.436  1.00  0.00     0.010 A 
ATOM     40  C   UNL A   1      45.091  23.355  24.252  1.00  0.00     0.010 A 
ATOM     41  C   UNL A   1      45.557  23.634  25.552  1.00  0.00    -0.014 A 
BRANCH  41  42
ATOM     42  C   UNL A   1      45.635  25.023  26.082  1.00  0.00     0.031 A 
ATOM     43  C   UNL A   1      46.963  25.728  26.030  1.00  0.00     0.074 A 
ATOM     44  C   UNL A   1      44.541  25.699  26.482  1.00  0.00     0.049 A 
ATOM     45  N   UNL A   1      47.277  26.942  26.400  1.00  0.00    -0.248 NA
ATOM     46  C   UNL A   1      48.081  24.965  25.450  1.00  0.00     0.031 C 
ATOM     47  C   UNL A   1      43.177  25.180  26.470  1.00  0.00     0.029 A 
ATOM     48  N   UNL A   1      44.397  26.978  26.966  1.00  0.00    -0.354 N 
ATOM     49  C   UNL A   1      48.620  27.096  26.082  1.00  0.00     0.074 A 
ATOM     50  C   UNL A   1      49.073  25.839  25.526  1.00  0.00     0.031 C 
ATOM     51  C   UNL A   1      42.338  26.110  26.955  1.00  0.00     0.029 A 
ATOM     52  C   UNL A   1      43.104  27.298  27.315  1.00  0.00     0.049 A 
ATOM     53  H   UNL A   1      45.149  27.607  27.056  1.00  0.00     0.167 HD
ATOM     54  C   UNL A   1      49.404  28.190  26.221  1.00  0.00     0.037 A 
ATOM     55  C   UNL A   1      42.598  28.419  27.868  1.00  0.00     0.037 A 
ATOM     56  C   UNL A   1      48.962  29.434  26.791  1.00  0.00     0.049 A 
ATOM     57  C   UNL A   1      43.521  29.579  28.129  1.00  0.00     0.074 A 
ATOM     58  C   UNL A   1      49.698  30.578  27.045  1.00  0.00     0.029 A 
ATOM     59  N   UNL A   1      47.662  29.694  27.195  1.00  0.00    -0.354 N 
ATOM     60  N   UNL A   1      44.797  29.701  27.853  1.00  0.00    -0.248 NA
ATOM     61  C   UNL A   1      42.931  30.766  28.769  1.00  0.00     0.031 C 
ATOM     62  C   UNL A   1      48.849  31.518  27.640  1.00  0.00     0.029 A 
ATOM     63  C   UNL A   1      47.575  30.976  27.713  1.00  0.00     0.049 A 
ATOM     64  H   UNL A   1      46.911  29.061  27.126  1.00  0.00     0.167 HD
ATOM     65  C   UNL A   1      45.157  30.979  28.260  1.00  0.00     0.074 A 
ATOM     66  C   UNL A   1      43.958  31.605  28.779  1.00  0.00     0.031 C 
ATOM     67  C   UNL A   1      46.370  31.582  28.216  1.00  0.00     0.037 A 
BRANCH  54  68
ATOM     68  C   UNL A   1      50.831  28.059  25.779  1.00  0.00     0.057 A 
ATOM     69  C   UNL A   1      51.870  27.853  26.696  1.00  0.00     0.134 A 
ATOM     70  C   UNL A   1      51.172  28.163  24.426  1.00  0.00     0.134 A 
ATOM     71  F   UNL A   1      51.611  27.768  28.010  1.00  0.00    -0.206 F 
ATOM     72  C   UNL A   1      53.202  27.783  26.284  1.00  0.00     0.040 A 
ATOM     73  C   UNL A   1      52.497  28.072  24.000  1.00  0.00     0.040 A 
ATOM     74  F   UNL A   1      50.223  28.362  23.498  1.00  0.00    -0.206 F 
ATOM     75  C   UNL A   1      53.517  27.890  24.931  1.00  0.00     0.006 A 
ENDBRANCH  54  68
BRANCH  55  76
ATOM     76  C   UNL A   1      41.159  28.504  28.242  1.00  0.00     0.057 A 
ATOM     77  C   UNL A   1      40.702  28.097  29.502  1.00  0.00     0.134 A 
ATOM     78  C   UNL A   1      40.195  28.924  27.317  1.00  0.00     0.134 A 
ATOM     79  F   UNL A   1      41.568  27.661  30.427  1.00  0.00    -0.206 F 
ATOM     80  C   UNL A   1      39.340  28.070  29.814  1.00  0.00     0.040 A 
ATOM     81  C   UNL A   1      38.833  28.929  27.626  1.00  0.00     0.040 A 
ATOM     82  F   UNL A   1      40.561  29.326  26.091  1.00  0.00    -0.206 F 
ATOM     83  C   UNL A   1      38.400  28.488  28.874  1.00  0.00     0.006 A 
ENDBRANCH  55  76
BRANCH  67  84
ATOM     84  C   UNL A   1      46.448  32.994  28.717  1.00  0.00     0.057 A 
ATOM     85  C   UNL A   1      46.745  33.289  30.053  1.00  0.00     0.134 A 
ATOM     86  C   UNL A   1      46.248  34.072  27.845  1.00  0.00     0.134 A 
ATOM     87  F   UNL A   1      46.934  32.301  30.941  1.00  0.00    -0.206 F 
ATOM     88  C   UNL A   1      46.813  34.605  30.512  1.00  0.00     0.040 A 
ATOM     89  C   UNL A   1      46.341  35.393  28.285  1.00  0.00     0.040 A 
ATOM     90  F   UNL A   1      45.967  33.859  26.550  1.00  0.00    -0.206 F 
ATOM     91  C   UNL A   1      46.617  35.661  29.624  1.00  0.00     0.006 A 
ENDBRANCH  67  84
ENDBRANCH  41  42
ENDBRANCH  34  36
ENDBRANCH  33  34
ENDBRANCH  32  33
ENDBRANCH  31  32
ENDBRANCH  30  31
ENDBRANCH   1  30
TORSDOF 18
ENDMDL
