MODEL 1
REMARK VINA RESULT:      -9.9      0.000      0.000
REMARK SMILES Cc1cc(F)c(CCCCCC(=O)OCCOCCOC(=O)c2ccc(-c3c4nc(c(-c5c(F)cccc5F)c5ccc([nH]5)c(-c5c(F)cccc5F)c5nc(c(-c6c(F)cccc6F)c6ccc3[nH]6)C=C5)C=C4)cc2)cc1F
REMARK SMILES IDX 15 1 14 2 12 3 13 4 11 5 10 6 9 7 8 8 7 9 6 10 1 11 2 12
REMARK SMILES IDX 3 13 78 14 4 15 77 16 79 17 5 18 16 19 17 20 18 21 19 22
REMARK SMILES IDX 20 23 21 24 22 25 23 26 24 27 76 28 25 29 75 30 26 31 27 32
REMARK SMILES IDX 28 33 69 34 29 35 74 36 68 37 70 38 30 39 73 40 67 41 66 42
REMARK SMILES IDX 31 44 57 45 40 46 56 47 41 48 44 49 55 50 71 51 42 52 43 53
REMARK SMILES IDX 54 55 72 56 45 57 32 58 33 59 38 60 34 61 35 62 37 63 39 64
REMARK SMILES IDX 36 65 58 66 59 67 64 68 60 69 61 70 63 71 65 72 62 73 46 74
REMARK SMILES IDX 47 75 52 76 48 77 49 78 51 79 53 80 50 81
REMARK H PARENT 70 43 44 54
REMARK Flexibility Score: inf
ROOT
ATOM      1  C   UNL A   1      42.102  19.975  27.249  1.00  0.00     0.261 C 
ENDROOT
BRANCH   1   2
ATOM      2  O   UNL A   1      40.705  19.636  27.255  1.00  0.00    -0.463 OA
BRANCH   2   3
ATOM      3  C   UNL A   1      39.976  20.014  26.178  1.00  0.00     0.305 C 
ATOM      4  O   UNL A   1      39.506  19.249  25.347  1.00  0.00    -0.252 OA
BRANCH   3   5
ATOM      5  C   UNL A   1      39.825  21.519  26.081  1.00  0.00     0.123 C 
BRANCH   5   6
ATOM      6  C   UNL A   1      38.459  22.074  25.664  1.00  0.00     0.012 C 
BRANCH   6   7
ATOM      7  C   UNL A   1      38.086  23.453  26.222  1.00  0.00     0.001 C 
BRANCH   7   8
ATOM      8  C   UNL A   1      36.797  24.042  25.640  1.00  0.00     0.005 C 
BRANCH   8   9
ATOM      9  C   UNL A   1      35.728  23.012  25.246  1.00  0.00     0.039 C 
BRANCH   9  10
ATOM     10  C   UNL A   1      34.613  23.620  24.433  1.00  0.00    -0.009 A 
ATOM     11  C   UNL A   1      31.811  25.689  21.880  1.00  0.00     0.047 C 
ATOM     12  C   UNL A   1      32.741  24.934  22.778  1.00  0.00    -0.012 A 
ATOM     13  C   UNL A   1      32.943  25.361  24.094  1.00  0.00     0.046 A 
ATOM     14  C   UNL A   1      33.427  23.804  22.330  1.00  0.00     0.126 A 
ATOM     15  C   UNL A   1      33.854  24.694  24.909  1.00  0.00     0.126 A 
ATOM     16  C   UNL A   1      34.361  23.157  23.136  1.00  0.00     0.046 A 
ATOM     17  F   UNL A   1      33.216  23.336  21.093  1.00  0.00    -0.207 F 
ATOM     18  F   UNL A   1      34.011  25.130  26.166  1.00  0.00    -0.207 F 
ENDBRANCH   9  10
ENDBRANCH   8   9
ENDBRANCH   7   8
ENDBRANCH   6   7
ENDBRANCH   5   6
ENDBRANCH   3   5
ENDBRANCH   2   3
ENDBRANCH   1   2
BRANCH   1  19
ATOM     19  C   UNL A   1      42.809  19.321  26.057  1.00  0.00     0.202 C 
BRANCH  19  20
ATOM     20  O   UNL A   1      43.460  20.200  25.140  1.00  0.00    -0.374 OA
BRANCH  20  21
ATOM     21  C   UNL A   1      43.482  21.585  25.480  1.00  0.00     0.202 C 
BRANCH  21  22
ATOM     22  C   UNL A   1      44.068  22.545  24.435  1.00  0.00     0.261 C 
BRANCH  22  23
ATOM     23  O   UNL A   1      43.549  23.883  24.566  1.00  0.00    -0.460 OA
BRANCH  23  24
ATOM     24  C   UNL A   1      44.421  24.792  25.068  1.00  0.00     0.338 C 
ATOM     25  O   UNL A   1      45.518  25.092  24.626  1.00  0.00    -0.246 OA
BRANCH  24  26
ATOM     26  C   UNL A   1      43.755  25.552  26.144  1.00  0.00     0.060 A 
ATOM     27  C   UNL A   1      42.771  24.978  26.949  1.00  0.00     0.016 A 
ATOM     28  C   UNL A   1      44.152  26.881  26.348  1.00  0.00     0.016 A 
ATOM     29  C   UNL A   1      42.196  25.735  27.975  1.00  0.00     0.010 A 
ATOM     30  C   UNL A   1      43.573  27.637  27.366  1.00  0.00     0.010 A 
ATOM     31  C   UNL A   1      42.601  27.065  28.199  1.00  0.00    -0.014 A 
BRANCH  31  32
ATOM     32  C   UNL A   1      42.088  27.824  29.366  1.00  0.00     0.031 A 
ATOM     33  C   UNL A   1      42.735  27.719  30.715  1.00  0.00     0.074 A 
ATOM     34  C   UNL A   1      40.993  28.592  29.205  1.00  0.00     0.049 A 
ATOM     35  N   UNL A   1      42.421  28.328  31.832  1.00  0.00    -0.248 NA
ATOM     36  C   UNL A   1      43.880  26.804  30.830  1.00  0.00     0.031 C 
ATOM     37  C   UNL A   1      40.252  28.746  27.952  1.00  0.00     0.029 A 
ATOM     38  N   UNL A   1      40.310  29.379  30.097  1.00  0.00    -0.354 N 
ATOM     39  C   UNL A   1      43.336  27.888  32.778  1.00  0.00     0.074 A 
ATOM     40  C   UNL A   1      44.187  26.920  32.115  1.00  0.00     0.031 C 
ATOM     41  C   UNL A   1      39.228  29.593  28.151  1.00  0.00     0.029 A 
ATOM     42  C   UNL A   1      39.221  30.010  29.550  1.00  0.00     0.049 A 
ATOM     43  H   UNL A   1      40.577  29.482  31.039  1.00  0.00     0.167 HD
ATOM     44  C   UNL A   1      43.461  28.266  34.074  1.00  0.00     0.037 A 
ATOM     45  C   UNL A   1      38.311  30.827  30.113  1.00  0.00     0.037 A 
ATOM     46  C   UNL A   1      42.594  29.209  34.738  1.00  0.00     0.049 A 
ATOM     47  C   UNL A   1      38.436  31.174  31.571  1.00  0.00     0.074 A 
ATOM     48  C   UNL A   1      42.668  29.685  36.036  1.00  0.00     0.029 A 
ATOM     49  N   UNL A   1      41.479  29.801  34.163  1.00  0.00    -0.354 N 
ATOM     50  N   UNL A   1      39.357  30.818  32.432  1.00  0.00    -0.248 NA
ATOM     51  C   UNL A   1      37.391  32.041  32.133  1.00  0.00     0.031 C 
ATOM     52  C   UNL A   1      41.564  30.514  36.265  1.00  0.00     0.029 A 
ATOM     53  C   UNL A   1      40.835  30.606  35.092  1.00  0.00     0.049 A 
ATOM     54  H   UNL A   1      41.186  29.669  33.232  1.00  0.00     0.167 HD
ATOM     55  C   UNL A   1      39.016  31.435  33.630  1.00  0.00     0.074 A 
ATOM     56  C   UNL A   1      37.820  32.209  33.375  1.00  0.00     0.031 C 
ATOM     57  C   UNL A   1      39.636  31.364  34.834  1.00  0.00     0.037 A 
BRANCH  44  58
ATOM     58  C   UNL A   1      44.578  27.650  34.870  1.00  0.00     0.057 A 
ATOM     59  C   UNL A   1      44.386  26.447  35.563  1.00  0.00     0.134 A 
ATOM     60  C   UNL A   1      45.831  28.266  34.985  1.00  0.00     0.134 A 
ATOM     61  F   UNL A   1      43.208  25.808  35.507  1.00  0.00    -0.206 F 
ATOM     62  C   UNL A   1      45.400  25.882  36.340  1.00  0.00     0.040 A 
ATOM     63  C   UNL A   1      46.861  27.696  35.736  1.00  0.00     0.040 A 
ATOM     64  F   UNL A   1      46.084  29.417  34.342  1.00  0.00    -0.206 F 
ATOM     65  C   UNL A   1      46.644  26.502  36.422  1.00  0.00     0.006 A 
ENDBRANCH  44  58
BRANCH  45  66
ATOM     66  C   UNL A   1      37.192  31.374  29.304  1.00  0.00     0.057 A 
ATOM     67  C   UNL A   1      36.025  30.635  29.080  1.00  0.00     0.134 A 
ATOM     68  C   UNL A   1      37.249  32.668  28.773  1.00  0.00     0.134 A 
ATOM     69  F   UNL A   1      35.911  29.387  29.558  1.00  0.00    -0.206 F 
ATOM     70  C   UNL A   1      34.953  31.161  28.359  1.00  0.00     0.040 A 
ATOM     71  C   UNL A   1      36.172  33.219  28.077  1.00  0.00     0.040 A 
ATOM     72  F   UNL A   1      38.333  33.432  28.971  1.00  0.00    -0.206 F 
ATOM     73  C   UNL A   1      35.020  32.463  27.866  1.00  0.00     0.006 A 
ENDBRANCH  45  66
BRANCH  57  74
ATOM     74  C   UNL A   1      39.036  32.163  35.958  1.00  0.00     0.057 A 
ATOM     75  C   UNL A   1      38.158  31.566  36.871  1.00  0.00     0.134 A 
ATOM     76  C   UNL A   1      39.328  33.523  36.139  1.00  0.00     0.134 A 
ATOM     77  F   UNL A   1      37.828  30.272  36.755  1.00  0.00    -0.206 F 
ATOM     78  C   UNL A   1      37.594  32.290  37.923  1.00  0.00     0.040 A 
ATOM     79  C   UNL A   1      38.795  34.248  37.206  1.00  0.00     0.040 A 
ATOM     80  F   UNL A   1      40.175  34.152  35.310  1.00  0.00    -0.206 F 
ATOM     81  C   UNL A   1      37.921  33.634  38.099  1.00  0.00     0.006 A 
ENDBRANCH  57  74
ENDBRANCH  31  32
ENDBRANCH  24  26
ENDBRANCH  23  24
ENDBRANCH  22  23
ENDBRANCH  21  22
ENDBRANCH  20  21
ENDBRANCH  19  20
ENDBRANCH   1  19
TORSDOF 19
ENDMDL
MODEL 2
REMARK VINA RESULT:      -9.7      2.259      7.355
REMARK SMILES Cc1cc(F)c(CCCCCC(=O)OCCOCCOC(=O)c2ccc(-c3c4nc(c(-c5c(F)cccc5F)c5ccc([nH]5)c(-c5c(F)cccc5F)c5nc(c(-c6c(F)cccc6F)c6ccc3[nH]6)C=C5)C=C4)cc2)cc1F
REMARK SMILES IDX 15 1 14 2 12 3 13 4 11 5 10 6 9 7 8 8 7 9 6 10 1 11 2 12
REMARK SMILES IDX 3 13 78 14 4 15 77 16 79 17 5 18 16 19 17 20 18 21 19 22
REMARK SMILES IDX 20 23 21 24 22 25 23 26 24 27 76 28 25 29 75 30 26 31 27 32
REMARK SMILES IDX 28 33 69 34 29 35 74 36 68 37 70 38 30 39 73 40 67 41 66 42
REMARK SMILES IDX 31 44 57 45 40 46 56 47 41 48 44 49 55 50 71 51 42 52 43 53
REMARK SMILES IDX 54 55 72 56 45 57 32 58 33 59 38 60 34 61 35 62 37 63 39 64
REMARK SMILES IDX 36 65 58 66 59 67 64 68 60 69 61 70 63 71 65 72 62 73 46 74
REMARK SMILES IDX 47 75 52 76 48 77 49 78 51 79 53 80 50 81
REMARK H PARENT 70 43 44 54
REMARK Flexibility Score: inf
ROOT
ATOM      1  C   UNL A   1      36.204  22.393  24.422  1.00  0.00     0.261 C 
ENDROOT
BRANCH   1   2
ATOM      2  O   UNL A   1      34.990  21.623  24.402  1.00  0.00    -0.463 OA
BRANCH   2   3
ATOM      3  C   UNL A   1      34.220  21.662  25.516  1.00  0.00     0.305 C 
ATOM      4  O   UNL A   1      33.810  20.679  26.119  1.00  0.00    -0.252 OA
BRANCH   3   5
ATOM      5  C   UNL A   1      33.877  23.078  25.935  1.00  0.00     0.123 C 
BRANCH   5   6
ATOM      6  C   UNL A   1      32.892  23.861  25.062  1.00  0.00     0.012 C 
BRANCH   6   7
ATOM      7  C   UNL A   1      33.493  24.962  24.179  1.00  0.00     0.001 C 
BRANCH   7   8
ATOM      8  C   UNL A   1      34.032  26.170  24.953  1.00  0.00     0.005 C 
BRANCH   8   9
ATOM      9  C   UNL A   1      33.212  26.570  26.190  1.00  0.00     0.039 C 
BRANCH   9  10
ATOM     10  C   UNL A   1      32.857  28.035  26.196  1.00  0.00    -0.009 A 
ATOM     11  C   UNL A   1      31.499  32.111  26.639  1.00  0.00     0.047 C 
ATOM     12  C   UNL A   1      32.010  30.717  26.449  1.00  0.00    -0.012 A 
ATOM     13  C   UNL A   1      31.390  29.864  25.532  1.00  0.00     0.046 A 
ATOM     14  C   UNL A   1      33.098  30.235  27.178  1.00  0.00     0.126 A 
ATOM     15  C   UNL A   1      31.828  28.548  25.399  1.00  0.00     0.126 A 
ATOM     16  C   UNL A   1      33.515  28.911  27.068  1.00  0.00     0.046 A 
ATOM     17  F   UNL A   1      33.749  31.042  28.027  1.00  0.00    -0.207 F 
ATOM     18  F   UNL A   1      31.212  27.766  24.502  1.00  0.00    -0.207 F 
ENDBRANCH   9  10
ENDBRANCH   8   9
ENDBRANCH   7   8
ENDBRANCH   6   7
ENDBRANCH   5   6
ENDBRANCH   3   5
ENDBRANCH   2   3
ENDBRANCH   1   2
BRANCH   1  19
ATOM     19  C   UNL A   1      37.399  21.504  24.782  1.00  0.00     0.202 C 
BRANCH  19  20
ATOM     20  O   UNL A   1      38.202  21.930  25.882  1.00  0.00    -0.374 OA
BRANCH  20  21
ATOM     21  C   UNL A   1      39.489  21.329  26.010  1.00  0.00     0.202 C 
BRANCH  21  22
ATOM     22  C   UNL A   1      40.643  22.249  26.434  1.00  0.00     0.261 C 
BRANCH  22  23
ATOM     23  O   UNL A   1      40.201  23.591  26.715  1.00  0.00    -0.460 OA
BRANCH  23  24
ATOM     24  C   UNL A   1      41.160  24.545  26.627  1.00  0.00     0.338 C 
ATOM     25  O   UNL A   1      42.038  24.640  25.785  1.00  0.00    -0.246 OA
BRANCH  24  26
ATOM     26  C   UNL A   1      40.866  25.613  27.602  1.00  0.00     0.060 A 
ATOM     27  C   UNL A   1      39.728  25.579  28.409  1.00  0.00     0.016 A 
ATOM     28  C   UNL A   1      41.779  26.671  27.709  1.00  0.00     0.016 A 
ATOM     29  C   UNL A   1      39.515  26.603  29.338  1.00  0.00     0.010 A 
ATOM     30  C   UNL A   1      41.561  27.694  28.631  1.00  0.00     0.010 A 
ATOM     31  C   UNL A   1      40.435  27.661  29.464  1.00  0.00    -0.014 A 
BRANCH  31  32
ATOM     32  C   UNL A   1      40.278  28.673  30.537  1.00  0.00     0.031 A 
ATOM     33  C   UNL A   1      39.277  29.785  30.426  1.00  0.00     0.074 A 
ATOM     34  C   UNL A   1      41.085  28.603  31.614  1.00  0.00     0.049 A 
ATOM     35  N   UNL A   1      39.004  30.739  31.281  1.00  0.00    -0.248 NA
ATOM     36  C   UNL A   1      38.485  29.840  29.189  1.00  0.00     0.031 C 
ATOM     37  C   UNL A   1      42.123  27.592  31.820  1.00  0.00     0.029 A 
ATOM     38  N   UNL A   1      41.164  29.396  32.729  1.00  0.00    -0.354 N 
ATOM     39  C   UNL A   1      37.998  31.497  30.699  1.00  0.00     0.074 A 
ATOM     40  C   UNL A   1      37.744  30.921  29.393  1.00  0.00     0.031 C 
ATOM     41  C   UNL A   1      42.722  27.815  33.001  1.00  0.00     0.029 A 
ATOM     42  C   UNL A   1      42.136  29.002  33.615  1.00  0.00     0.049 A 
ATOM     43  H   UNL A   1      40.579  30.173  32.881  1.00  0.00     0.167 HD
ATOM     44  C   UNL A   1      37.338  32.565  31.212  1.00  0.00     0.037 A 
ATOM     45  C   UNL A   1      42.520  29.542  34.787  1.00  0.00     0.037 A 
ATOM     46  C   UNL A   1      37.613  33.154  32.501  1.00  0.00     0.049 A 
ATOM     47  C   UNL A   1      41.816  30.769  35.298  1.00  0.00     0.074 A 
ATOM     48  C   UNL A   1      36.971  34.211  33.122  1.00  0.00     0.029 A 
ATOM     49  N   UNL A   1      38.629  32.751  33.355  1.00  0.00    -0.354 N 
ATOM     50  N   UNL A   1      40.808  31.424  34.777  1.00  0.00    -0.248 NA
ATOM     51  C   UNL A   1      42.306  31.330  36.565  1.00  0.00     0.031 C 
ATOM     52  C   UNL A   1      37.636  34.488  34.321  1.00  0.00     0.029 A 
ATOM     53  C   UNL A   1      38.655  33.565  34.479  1.00  0.00     0.049 A 
ATOM     54  H   UNL A   1      39.242  31.999  33.189  1.00  0.00     0.167 HD
ATOM     55  C   UNL A   1      40.529  32.458  35.663  1.00  0.00     0.074 A 
ATOM     56  C   UNL A   1      41.456  32.325  36.766  1.00  0.00     0.031 C 
ATOM     57  C   UNL A   1      39.591  33.433  35.568  1.00  0.00     0.037 A 
BRANCH  44  58
ATOM     58  C   UNL A   1      36.254  33.179  30.370  1.00  0.00     0.057 A 
ATOM     59  C   UNL A   1      36.570  34.018  29.292  1.00  0.00     0.134 A 
ATOM     60  C   UNL A   1      34.896  32.974  30.650  1.00  0.00     0.134 A 
ATOM     61  F   UNL A   1      37.849  34.267  28.975  1.00  0.00    -0.206 F 
ATOM     62  C   UNL A   1      35.575  34.628  28.526  1.00  0.00     0.040 A 
ATOM     63  C   UNL A   1      33.893  33.557  29.873  1.00  0.00     0.040 A 
ATOM     64  F   UNL A   1      34.524  32.178  31.664  1.00  0.00    -0.206 F 
ATOM     65  C   UNL A   1      34.233  34.393  28.810  1.00  0.00     0.006 A 
ENDBRANCH  44  58
BRANCH  45  66
ATOM     66  C   UNL A   1      43.631  28.936  35.564  1.00  0.00     0.057 A 
ATOM     67  C   UNL A   1      44.956  29.350  35.386  1.00  0.00     0.134 A 
ATOM     68  C   UNL A   1      43.385  27.957  36.534  1.00  0.00     0.134 A 
ATOM     69  F   UNL A   1      45.258  30.280  34.468  1.00  0.00    -0.206 F 
ATOM     70  C   UNL A   1      45.998  28.815  36.145  1.00  0.00     0.040 A 
ATOM     71  C   UNL A   1      44.413  27.436  37.323  1.00  0.00     0.040 A 
ATOM     72  F   UNL A   1      42.134  27.534  36.764  1.00  0.00    -0.206 F 
ATOM     73  C   UNL A   1      45.725  27.865  37.126  1.00  0.00     0.006 A 
ENDBRANCH  45  66
BRANCH  57  74
ATOM     74  C   UNL A   1      39.514  34.417  36.702  1.00  0.00     0.057 A 
ATOM     75  C   UNL A   1      38.799  34.113  37.868  1.00  0.00     0.134 A 
ATOM     76  C   UNL A   1      40.148  35.667  36.644  1.00  0.00     0.134 A 
ATOM     77  F   UNL A   1      38.162  32.939  37.990  1.00  0.00    -0.206 F 
ATOM     78  C   UNL A   1      38.719  35.012  38.933  1.00  0.00     0.040 A 
ATOM     79  C   UNL A   1      40.102  36.561  37.715  1.00  0.00     0.040 A 
ATOM     80  F   UNL A   1      40.863  36.016  35.564  1.00  0.00    -0.206 F 
ATOM     81  C   UNL A   1      39.381  36.236  38.862  1.00  0.00     0.006 A 
ENDBRANCH  57  74
ENDBRANCH  31  32
ENDBRANCH  24  26
ENDBRANCH  23  24
ENDBRANCH  22  23
ENDBRANCH  21  22
ENDBRANCH  20  21
ENDBRANCH  19  20
ENDBRANCH   1  19
TORSDOF 19
ENDMDL
MODEL 3
REMARK VINA RESULT:      -9.7      5.497     10.473
REMARK SMILES Cc1cc(F)c(CCCCCC(=O)OCCOCCOC(=O)c2ccc(-c3c4nc(c(-c5c(F)cccc5F)c5ccc([nH]5)c(-c5c(F)cccc5F)c5nc(c(-c6c(F)cccc6F)c6ccc3[nH]6)C=C5)C=C4)cc2)cc1F
REMARK SMILES IDX 15 1 14 2 12 3 13 4 11 5 10 6 9 7 8 8 7 9 6 10 1 11 2 12
REMARK SMILES IDX 3 13 78 14 4 15 77 16 79 17 5 18 16 19 17 20 18 21 19 22
REMARK SMILES IDX 20 23 21 24 22 25 23 26 24 27 76 28 25 29 75 30 26 31 27 32
REMARK SMILES IDX 28 33 69 34 29 35 74 36 68 37 70 38 30 39 73 40 67 41 66 42
REMARK SMILES IDX 31 44 57 45 40 46 56 47 41 48 44 49 55 50 71 51 42 52 43 53
REMARK SMILES IDX 54 55 72 56 45 57 32 58 33 59 38 60 34 61 35 62 37 63 39 64
REMARK SMILES IDX 36 65 58 66 59 67 64 68 60 69 61 70 63 71 65 72 62 73 46 74
REMARK SMILES IDX 47 75 52 76 48 77 49 78 51 79 53 80 50 81
REMARK H PARENT 70 43 44 54
REMARK Flexibility Score: inf
ROOT
ATOM      1  C   UNL A   1      35.102  33.231  28.242  1.00  0.00     0.261 C 
ENDROOT
BRANCH   1   2
ATOM      2  O   UNL A   1      34.519  31.987  28.666  1.00  0.00    -0.463 OA
BRANCH   2   3
ATOM      3  C   UNL A   1      33.838  31.279  27.733  1.00  0.00     0.305 C 
ATOM      4  O   UNL A   1      32.774  31.620  27.234  1.00  0.00    -0.252 OA
BRANCH   3   5
ATOM      5  C   UNL A   1      34.521  29.972  27.385  1.00  0.00     0.123 C 
BRANCH   5   6
ATOM      6  C   UNL A   1      33.640  28.806  26.927  1.00  0.00     0.012 C 
BRANCH   6   7
ATOM      7  C   UNL A   1      33.916  28.256  25.522  1.00  0.00     0.001 C 
BRANCH   7   8
ATOM      8  C   UNL A   1      33.398  26.833  25.287  1.00  0.00     0.005 C 
BRANCH   8   9
ATOM      9  C   UNL A   1      33.010  26.512  23.835  1.00  0.00     0.039 C 
BRANCH   9  10
ATOM     10  C   UNL A   1      31.651  27.051  23.468  1.00  0.00    -0.009 A 
ATOM     11  C   UNL A   1      27.810  28.931  22.861  1.00  0.00     0.047 C 
ATOM     12  C   UNL A   1      29.136  28.254  23.020  1.00  0.00    -0.012 A 
ATOM     13  C   UNL A   1      29.230  27.056  23.734  1.00  0.00     0.046 A 
ATOM     14  C   UNL A   1      30.300  28.798  22.474  1.00  0.00     0.126 A 
ATOM     15  C   UNL A   1      30.472  26.459  23.933  1.00  0.00     0.126 A 
ATOM     16  C   UNL A   1      31.546  28.217  22.700  1.00  0.00     0.046 A 
ATOM     17  F   UNL A   1      30.239  29.916  21.739  1.00  0.00    -0.207 F 
ATOM     18  F   UNL A   1      30.516  25.307  24.615  1.00  0.00    -0.207 F 
ENDBRANCH   9  10
ENDBRANCH   8   9
ENDBRANCH   7   8
ENDBRANCH   6   7
ENDBRANCH   5   6
ENDBRANCH   3   5
ENDBRANCH   2   3
ENDBRANCH   1   2
BRANCH   1  19
ATOM     19  C   UNL A   1      34.257  34.414  28.725  1.00  0.00     0.202 C 
BRANCH  19  20
ATOM     20  O   UNL A   1      33.462  34.197  29.889  1.00  0.00    -0.374 OA
BRANCH  20  21
ATOM     21  C   UNL A   1      33.811  34.942  31.055  1.00  0.00     0.202 C 
BRANCH  21  22
ATOM     22  C   UNL A   1      34.478  34.163  32.199  1.00  0.00     0.261 C 
BRANCH  22  23
ATOM     23  O   UNL A   1      35.828  33.772  31.883  1.00  0.00    -0.460 OA
BRANCH  23  24
ATOM     24  C   UNL A   1      36.323  32.756  32.632  1.00  0.00     0.338 C 
ATOM     25  O   UNL A   1      35.860  32.299  33.664  1.00  0.00    -0.246 OA
BRANCH  24  26
ATOM     26  C   UNL A   1      37.428  32.111  31.895  1.00  0.00     0.060 A 
ATOM     27  C   UNL A   1      37.446  32.053  30.501  1.00  0.00     0.016 A 
ATOM     28  C   UNL A   1      38.480  31.563  32.642  1.00  0.00     0.016 A 
ATOM     29  C   UNL A   1      38.534  31.457  29.854  1.00  0.00     0.010 A 
ATOM     30  C   UNL A   1      39.560  30.963  31.995  1.00  0.00     0.010 A 
ATOM     31  C   UNL A   1      39.604  30.919  30.595  1.00  0.00    -0.014 A 
BRANCH  31  32
ATOM     32  C   UNL A   1      40.815  30.407  29.908  1.00  0.00     0.031 A 
ATOM     33  C   UNL A   1      41.993  31.294  29.631  1.00  0.00     0.074 A 
ATOM     34  C   UNL A   1      40.829  29.124  29.497  1.00  0.00     0.049 A 
ATOM     35  N   UNL A   1      43.133  30.998  29.057  1.00  0.00    -0.248 NA
ATOM     36  C   UNL A   1      41.873  32.700  30.043  1.00  0.00     0.031 C 
ATOM     37  C   UNL A   1      39.731  28.174  29.674  1.00  0.00     0.029 A 
ATOM     38  N   UNL A   1      41.795  28.403  28.842  1.00  0.00    -0.354 N 
ATOM     39  C   UNL A   1      43.875  32.170  29.054  1.00  0.00     0.074 A 
ATOM     40  C   UNL A   1      43.035  33.197  29.639  1.00  0.00     0.031 C 
ATOM     41  C   UNL A   1      40.092  26.987  29.157  1.00  0.00     0.029 A 
ATOM     42  C   UNL A   1      41.429  27.105  28.583  1.00  0.00     0.049 A 
ATOM     43  H   UNL A   1      42.667  28.780  28.583  1.00  0.00     0.167 HD
ATOM     44  C   UNL A   1      45.143  32.368  28.617  1.00  0.00     0.037 A 
ATOM     45  C   UNL A   1      42.091  26.122  27.945  1.00  0.00     0.037 A 
ATOM     46  C   UNL A   1      45.967  31.350  28.009  1.00  0.00     0.049 A 
ATOM     47  C   UNL A   1      43.470  26.392  27.409  1.00  0.00     0.074 A 
ATOM     48  C   UNL A   1      47.277  31.446  27.573  1.00  0.00     0.029 A 
ATOM     49  N   UNL A   1      45.550  30.057  27.730  1.00  0.00    -0.354 N 
ATOM     50  N   UNL A   1      44.194  27.481  27.491  1.00  0.00    -0.248 NA
ATOM     51  C   UNL A   1      44.125  25.288  26.693  1.00  0.00     0.031 C 
ATOM     52  C   UNL A   1      47.632  30.232  26.974  1.00  0.00     0.029 A 
ATOM     53  C   UNL A   1      46.565  29.358  27.091  1.00  0.00     0.049 A 
ATOM     54  H   UNL A   1      44.665  29.688  27.951  1.00  0.00     0.167 HD
ATOM     55  C   UNL A   1      45.395  27.187  26.858  1.00  0.00     0.074 A 
ATOM     56  C   UNL A   1      45.312  25.809  26.423  1.00  0.00     0.031 C 
ATOM     57  C   UNL A   1      46.470  27.989  26.650  1.00  0.00     0.037 A 
BRANCH  44  58
ATOM     58  C   UNL A   1      45.721  33.747  28.770  1.00  0.00     0.057 A 
ATOM     59  C   UNL A   1      45.587  34.700  27.750  1.00  0.00     0.134 A 
ATOM     60  C   UNL A   1      46.447  34.122  29.909  1.00  0.00     0.134 A 
ATOM     61  F   UNL A   1      44.915  34.405  26.627  1.00  0.00    -0.206 F 
ATOM     62  C   UNL A   1      46.152  35.972  27.860  1.00  0.00     0.040 A 
ATOM     63  C   UNL A   1      46.993  35.401  30.042  1.00  0.00     0.040 A 
ATOM     64  F   UNL A   1      46.608  33.261  30.926  1.00  0.00    -0.206 F 
ATOM     65  C   UNL A   1      46.851  36.328  29.011  1.00  0.00     0.006 A 
ENDBRANCH  44  58
BRANCH  45  66
ATOM     66  C   UNL A   1      41.464  24.788  27.769  1.00  0.00     0.057 A 
ATOM     67  C   UNL A   1      40.476  24.569  26.802  1.00  0.00     0.134 A 
ATOM     68  C   UNL A   1      41.872  23.690  28.536  1.00  0.00     0.134 A 
ATOM     69  F   UNL A   1      40.038  25.581  26.039  1.00  0.00    -0.206 F 
ATOM     70  C   UNL A   1      39.916  23.307  26.601  1.00  0.00     0.040 A 
ATOM     71  C   UNL A   1      41.343  22.415  28.324  1.00  0.00     0.040 A 
ATOM     72  F   UNL A   1      42.829  23.833  29.464  1.00  0.00    -0.206 F 
ATOM     73  C   UNL A   1      40.359  22.223  27.356  1.00  0.00     0.006 A 
ENDBRANCH  45  66
BRANCH  57  74
ATOM     74  C   UNL A   1      47.647  27.381  25.939  1.00  0.00     0.057 A 
ATOM     75  C   UNL A   1      47.720  27.388  24.540  1.00  0.00     0.134 A 
ATOM     76  C   UNL A   1      48.710  26.788  26.636  1.00  0.00     0.134 A 
ATOM     77  F   UNL A   1      46.736  27.931  23.808  1.00  0.00    -0.206 F 
ATOM     78  C   UNL A   1      48.806  26.832  23.862  1.00  0.00     0.040 A 
ATOM     79  C   UNL A   1      49.816  26.258  25.970  1.00  0.00     0.040 A 
ATOM     80  F   UNL A   1      48.711  26.762  27.978  1.00  0.00    -0.206 F 
ATOM     81  C   UNL A   1      49.863  26.274  24.578  1.00  0.00     0.006 A 
ENDBRANCH  57  74
ENDBRANCH  31  32
ENDBRANCH  24  26
ENDBRANCH  23  24
ENDBRANCH  22  23
ENDBRANCH  21  22
ENDBRANCH  20  21
ENDBRANCH  19  20
ENDBRANCH   1  19
TORSDOF 19
ENDMDL
