MODEL 1
REMARK VINA RESULT:     -11.4      0.000      0.000
REMARK SMILES Cc1cc(Br)cc2c1O[C@H](C(F)(F)F)C(C(=O)OCCOCCOC(=O)c1ccc(-c3c4nc(c(-c5c(F)cccc5F)c5ccc([nH]5)c(-c5c(F)cccc5F)c5nc(c(-c6c(F)cccc6F)c6ccc3[nH]6)C=C5)C=C4)cc1)=C2
REMARK SMILES IDX 22 1 21 2 20 3 19 4 18 5 16 6 17 7 15 8 1 9 2 10 3 11 8 12
REMARK SMILES IDX 4 13 7 14 9 15 5 16 6 17 81 18 10 19 11 20 12 21 13 22 14 23
REMARK SMILES IDX 23 24 24 25 25 26 26 27 27 28 28 29 80 30 29 31 79 32 30 33
REMARK SMILES IDX 31 34 32 35 73 36 33 37 78 38 72 39 74 40 34 41 77 42 71 43
REMARK SMILES IDX 70 44 35 46 61 47 44 48 60 49 45 50 48 51 59 52 75 53 46 54
REMARK SMILES IDX 47 55 58 57 76 58 49 59 36 60 37 61 42 62 38 63 39 64 41 65
REMARK SMILES IDX 43 66 40 67 62 68 63 69 68 70 64 71 65 72 67 73 69 74 66 75
REMARK SMILES IDX 50 76 51 77 56 78 52 79 53 80 55 81 57 82 54 83
REMARK H PARENT 74 45 48 56
REMARK Flexibility Score: inf
ROOT
ATOM      1  C   UNL A   1      31.414  31.353  26.608  1.00  0.00     0.202 C 
ENDROOT
BRANCH   1   2
ATOM      2  O   UNL A   1      32.323  30.288  26.885  1.00  0.00    -0.374 OA
BRANCH   2   3
ATOM      3  C   UNL A   1      33.331  30.004  25.918  1.00  0.00     0.202 C 
BRANCH   3   4
ATOM      4  C   UNL A   1      33.684  28.529  25.708  1.00  0.00     0.261 C 
BRANCH   4   5
ATOM      5  O   UNL A   1      33.737  28.189  24.313  1.00  0.00    -0.460 OA
BRANCH   5   6
ATOM      6  C   UNL A   1      33.087  27.047  23.988  1.00  0.00     0.338 C 
ATOM      7  O   UNL A   1      33.534  25.911  24.030  1.00  0.00    -0.246 OA
BRANCH   6   8
ATOM      8  C   UNL A   1      31.677  27.344  23.674  1.00  0.00     0.087 C 
ATOM      9  C   UNL A   1      26.565  27.875  23.750  1.00  0.00     0.048 C 
ATOM     10  C   UNL A   1      27.724  28.569  23.088  1.00  0.00    -0.007 A 
ATOM     11  C   UNL A   1      27.487  29.771  22.401  1.00  0.00     0.023 A 
ATOM     12  C   UNL A   1      29.043  28.106  23.221  1.00  0.00     0.130 A 
ATOM     13  C   UNL A   1      28.544  30.479  21.832  1.00  0.00     0.019 A 
ATOM     14  C   UNL A   1      30.102  28.842  22.678  1.00  0.00     0.019 A 
ATOM     15  O   UNL A   1      29.227  26.929  23.893  1.00  0.00    -0.475 OA
ATOM     16  Br  UNL A   1      28.209  32.094  20.910  1.00  0.00    -0.051 Br
ATOM     17  C   UNL A   1      29.851  30.019  21.966  1.00  0.00     0.027 A 
ATOM     18  C   UNL A   1      31.472  28.430  22.920  1.00  0.00     0.027 C 
ATOM     19  C   UNL A   1      30.573  26.476  24.208  1.00  0.00     0.316 C 
BRANCH  19  20
ATOM     20  C   UNL A   1      30.654  26.271  25.728  1.00  0.00     0.430 C 
ATOM     21  F   UNL A   1      29.488  25.783  26.218  1.00  0.00    -0.167 F 
ATOM     22  F   UNL A   1      31.616  25.381  26.069  1.00  0.00    -0.167 F 
ATOM     23  F   UNL A   1      30.918  27.425  26.382  1.00  0.00    -0.167 F 
ENDBRANCH  19  20
ENDBRANCH   6   8
ENDBRANCH   5   6
ENDBRANCH   4   5
ENDBRANCH   3   4
ENDBRANCH   2   3
ENDBRANCH   1   2
BRANCH   1  24
ATOM     24  C   UNL A   1      31.972  32.781  26.670  1.00  0.00     0.261 C 
BRANCH  24  25
ATOM     25  O   UNL A   1      32.319  33.167  28.014  1.00  0.00    -0.460 OA
BRANCH  25  26
ATOM     26  C   UNL A   1      33.369  34.015  28.110  1.00  0.00     0.338 C 
ATOM     27  O   UNL A   1      33.342  35.238  28.096  1.00  0.00    -0.246 OA
BRANCH  26  28
ATOM     28  C   UNL A   1      34.592  33.261  28.428  1.00  0.00     0.060 A 
ATOM     29  C   UNL A   1      34.446  31.959  28.922  1.00  0.00     0.016 A 
ATOM     30  C   UNL A   1      35.856  33.848  28.330  1.00  0.00     0.016 A 
ATOM     31  C   UNL A   1      35.562  31.248  29.355  1.00  0.00     0.010 A 
ATOM     32  C   UNL A   1      36.975  33.138  28.779  1.00  0.00     0.010 A 
ATOM     33  C   UNL A   1      36.827  31.848  29.321  1.00  0.00    -0.014 A 
BRANCH  33  34
ATOM     34  C   UNL A   1      37.966  31.174  29.989  1.00  0.00     0.031 A 
ATOM     35  C   UNL A   1      38.249  31.477  31.433  1.00  0.00     0.074 A 
ATOM     36  C   UNL A   1      38.702  30.260  29.332  1.00  0.00     0.049 A 
ATOM     37  N   UNL A   1      39.180  30.993  32.214  1.00  0.00    -0.248 NA
ATOM     38  C   UNL A   1      37.361  32.453  32.087  1.00  0.00     0.031 C 
ATOM     39  C   UNL A   1      38.491  29.846  27.947  1.00  0.00     0.029 A 
ATOM     40  N   UNL A   1      39.772  29.511  29.750  1.00  0.00    -0.354 N 
ATOM     41  C   UNL A   1      38.985  31.595  33.451  1.00  0.00     0.074 A 
ATOM     42  C   UNL A   1      37.873  32.508  33.309  1.00  0.00     0.031 C 
ATOM     43  C   UNL A   1      39.404  28.911  27.629  1.00  0.00     0.029 A 
ATOM     44  C   UNL A   1      40.277  28.683  28.779  1.00  0.00     0.049 A 
ATOM     45  H   UNL A   1      40.143  29.562  30.662  1.00  0.00     0.167 HD
ATOM     46  C   UNL A   1      39.663  31.392  34.605  1.00  0.00     0.037 A 
ATOM     47  C   UNL A   1      41.331  27.844  28.814  1.00  0.00     0.037 A 
ATOM     48  C   UNL A   1      40.772  30.487  34.745  1.00  0.00     0.049 A 
ATOM     49  C   UNL A   1      42.130  27.709  30.082  1.00  0.00     0.074 A 
ATOM     50  C   UNL A   1      41.519  30.210  35.876  1.00  0.00     0.029 A 
ATOM     51  N   UNL A   1      41.297  29.718  33.718  1.00  0.00    -0.354 N 
ATOM     52  N   UNL A   1      41.928  28.271  31.249  1.00  0.00    -0.248 NA
ATOM     53  C   UNL A   1      43.305  26.826  30.037  1.00  0.00     0.031 C 
ATOM     54  C   UNL A   1      42.526  29.307  35.522  1.00  0.00     0.029 A 
ATOM     55  C   UNL A   1      42.377  28.986  34.183  1.00  0.00     0.049 A 
ATOM     56  H   UNL A   1      40.954  29.694  32.796  1.00  0.00     0.167 HD
ATOM     57  C   UNL A   1      42.934  27.796  32.081  1.00  0.00     0.074 A 
ATOM     58  C   UNL A   1      43.739  26.889  31.289  1.00  0.00     0.031 C 
ATOM     59  C   UNL A   1      43.169  28.086  33.384  1.00  0.00     0.037 A 
BRANCH  46  60
ATOM     60  C   UNL A   1      39.228  32.168  35.811  1.00  0.00     0.057 A 
ATOM     61  C   UNL A   1      39.677  33.473  36.046  1.00  0.00     0.134 A 
ATOM     62  C   UNL A   1      38.308  31.627  36.717  1.00  0.00     0.134 A 
ATOM     63  F   UNL A   1      40.570  34.044  35.222  1.00  0.00    -0.206 F 
ATOM     64  C   UNL A   1      39.237  34.210  37.147  1.00  0.00     0.040 A 
ATOM     65  C   UNL A   1      37.843  32.361  37.809  1.00  0.00     0.040 A 
ATOM     66  F   UNL A   1      37.836  30.382  36.548  1.00  0.00    -0.206 F 
ATOM     67  C   UNL A   1      38.309  33.655  38.027  1.00  0.00     0.006 A 
ENDBRANCH  46  60
BRANCH  47  68
ATOM     68  C   UNL A   1      41.690  27.061  27.605  1.00  0.00     0.057 A 
ATOM     69  C   UNL A   1      42.539  27.589  26.627  1.00  0.00     0.134 A 
ATOM     70  C   UNL A   1      41.197  25.766  27.400  1.00  0.00     0.134 A 
ATOM     71  F   UNL A   1      43.025  28.832  26.757  1.00  0.00    -0.206 F 
ATOM     72  C   UNL A   1      42.881  26.863  25.485  1.00  0.00     0.040 A 
ATOM     73  C   UNL A   1      41.547  25.020  26.275  1.00  0.00     0.040 A 
ATOM     74  F   UNL A   1      40.376  25.203  28.300  1.00  0.00    -0.206 F 
ATOM     75  C   UNL A   1      42.390  25.570  25.311  1.00  0.00     0.006 A 
ENDBRANCH  47  68
BRANCH  59  76
ATOM     76  C   UNL A   1      44.333  27.414  34.050  1.00  0.00     0.057 A 
ATOM     77  C   UNL A   1      44.214  26.145  34.630  1.00  0.00     0.134 A 
ATOM     78  C   UNL A   1      45.604  28.003  34.035  1.00  0.00     0.134 A 
ATOM     79  F   UNL A   1      43.022  25.532  34.686  1.00  0.00    -0.206 F 
ATOM     80  C   UNL A   1      45.318  25.489  35.179  1.00  0.00     0.040 A 
ATOM     81  C   UNL A   1      46.719  27.347  34.557  1.00  0.00     0.040 A 
ATOM     82  F   UNL A   1      45.787  29.212  33.483  1.00  0.00    -0.206 F 
ATOM     83  C   UNL A   1      46.577  26.086  35.133  1.00  0.00     0.006 A 
ENDBRANCH  59  76
ENDBRANCH  33  34
ENDBRANCH  26  28
ENDBRANCH  25  26
ENDBRANCH  24  25
ENDBRANCH   1  24
TORSDOF 15
ENDMDL
MODEL 2
REMARK VINA RESULT:     -11.3      2.478      3.622
REMARK SMILES Cc1cc(Br)cc2c1O[C@H](C(F)(F)F)C(C(=O)OCCOCCOC(=O)c1ccc(-c3c4nc(c(-c5c(F)cccc5F)c5ccc([nH]5)c(-c5c(F)cccc5F)c5nc(c(-c6c(F)cccc6F)c6ccc3[nH]6)C=C5)C=C4)cc1)=C2
REMARK SMILES IDX 22 1 21 2 20 3 19 4 18 5 16 6 17 7 15 8 1 9 2 10 3 11 8 12
REMARK SMILES IDX 4 13 7 14 9 15 5 16 6 17 81 18 10 19 11 20 12 21 13 22 14 23
REMARK SMILES IDX 23 24 24 25 25 26 26 27 27 28 28 29 80 30 29 31 79 32 30 33
REMARK SMILES IDX 31 34 32 35 73 36 33 37 78 38 72 39 74 40 34 41 77 42 71 43
REMARK SMILES IDX 70 44 35 46 61 47 44 48 60 49 45 50 48 51 59 52 75 53 46 54
REMARK SMILES IDX 47 55 58 57 76 58 49 59 36 60 37 61 42 62 38 63 39 64 41 65
REMARK SMILES IDX 43 66 40 67 62 68 63 69 68 70 64 71 65 72 67 73 69 74 66 75
REMARK SMILES IDX 50 76 51 77 56 78 52 79 53 80 55 81 57 82 54 83
REMARK H PARENT 74 45 48 56
REMARK Flexibility Score: inf
ROOT
ATOM      1  C   UNL A   1      31.381  31.766  26.516  1.00  0.00     0.202 C 
ENDROOT
BRANCH   1   2
ATOM      2  O   UNL A   1      32.227  30.678  26.891  1.00  0.00    -0.374 OA
BRANCH   2   3
ATOM      3  C   UNL A   1      32.907  29.975  25.854  1.00  0.00     0.202 C 
BRANCH   3   4
ATOM      4  C   UNL A   1      33.502  28.614  26.223  1.00  0.00     0.261 C 
BRANCH   4   5
ATOM      5  O   UNL A   1      32.901  27.549  25.469  1.00  0.00    -0.460 OA
BRANCH   5   6
ATOM      6  C   UNL A   1      32.129  26.711  26.200  1.00  0.00     0.338 C 
ATOM      7  O   UNL A   1      31.220  27.021  26.954  1.00  0.00    -0.246 OA
BRANCH   6   8
ATOM      8  C   UNL A   1      32.458  25.310  25.874  1.00  0.00     0.087 C 
ATOM      9  C   UNL A   1      32.704  20.600  23.833  1.00  0.00     0.048 C 
ATOM     10  C   UNL A   1      33.641  21.521  24.564  1.00  0.00    -0.007 A 
ATOM     11  C   UNL A   1      34.999  21.174  24.649  1.00  0.00     0.023 A 
ATOM     12  C   UNL A   1      33.219  22.760  25.075  1.00  0.00     0.130 A 
ATOM     13  C   UNL A   1      35.910  22.033  25.259  1.00  0.00     0.019 A 
ATOM     14  C   UNL A   1      34.147  23.633  25.653  1.00  0.00     0.019 A 
ATOM     15  O   UNL A   1      31.887  23.055  24.976  1.00  0.00    -0.475 OA
ATOM     16  Br  UNL A   1      37.734  21.551  25.365  1.00  0.00    -0.051 Br
ATOM     17  C   UNL A   1      35.491  23.261  25.763  1.00  0.00     0.027 A 
ATOM     18  C   UNL A   1      33.735  24.960  26.069  1.00  0.00     0.027 C 
ATOM     19  C   UNL A   1      31.408  24.382  25.335  1.00  0.00     0.316 C 
BRANCH  19  20
ATOM     20  C   UNL A   1      30.667  24.957  24.119  1.00  0.00     0.430 C 
ATOM     21  F   UNL A   1      30.259  23.969  23.283  1.00  0.00    -0.167 F 
ATOM     22  F   UNL A   1      29.554  25.638  24.479  1.00  0.00    -0.167 F 
ATOM     23  F   UNL A   1      31.445  25.799  23.402  1.00  0.00    -0.167 F 
ENDBRANCH  19  20
ENDBRANCH   6   8
ENDBRANCH   5   6
ENDBRANCH   4   5
ENDBRANCH   3   4
ENDBRANCH   2   3
ENDBRANCH   1   2
BRANCH   1  24
ATOM     24  C   UNL A   1      31.923  33.182  26.745  1.00  0.00     0.261 C 
BRANCH  24  25
ATOM     25  O   UNL A   1      32.285  33.406  28.121  1.00  0.00    -0.460 OA
BRANCH  25  26
ATOM     26  C   UNL A   1      33.339  34.234  28.306  1.00  0.00     0.338 C 
ATOM     27  O   UNL A   1      33.323  35.456  28.375  1.00  0.00    -0.246 OA
BRANCH  26  28
ATOM     28  C   UNL A   1      34.546  33.447  28.609  1.00  0.00     0.060 A 
ATOM     29  C   UNL A   1      34.371  32.164  29.142  1.00  0.00     0.016 A 
ATOM     30  C   UNL A   1      35.825  33.988  28.457  1.00  0.00     0.016 A 
ATOM     31  C   UNL A   1      35.476  31.427  29.560  1.00  0.00     0.010 A 
ATOM     32  C   UNL A   1      36.933  33.252  28.892  1.00  0.00     0.010 A 
ATOM     33  C   UNL A   1      36.759  31.983  29.473  1.00  0.00    -0.014 A 
BRANCH  33  34
ATOM     34  C   UNL A   1      37.894  31.288  30.125  1.00  0.00     0.031 A 
ATOM     35  C   UNL A   1      38.197  31.580  31.568  1.00  0.00     0.074 A 
ATOM     36  C   UNL A   1      38.609  30.367  29.455  1.00  0.00     0.049 A 
ATOM     37  N   UNL A   1      39.130  31.077  32.336  1.00  0.00    -0.248 NA
ATOM     38  C   UNL A   1      37.331  32.565  32.236  1.00  0.00     0.031 C 
ATOM     39  C   UNL A   1      38.377  29.964  28.070  1.00  0.00     0.029 A 
ATOM     40  N   UNL A   1      39.672  29.599  29.858  1.00  0.00    -0.354 N 
ATOM     41  C   UNL A   1      38.957  31.675  33.578  1.00  0.00     0.074 A 
ATOM     42  C   UNL A   1      37.857  32.606  33.453  1.00  0.00     0.031 C 
ATOM     43  C   UNL A   1      39.272  29.017  27.738  1.00  0.00     0.029 A 
ATOM     44  C   UNL A   1      40.154  28.769  28.877  1.00  0.00     0.049 A 
ATOM     45  H   UNL A   1      40.054  29.640  30.766  1.00  0.00     0.167 HD
ATOM     46  C   UNL A   1      39.644  31.455  34.723  1.00  0.00     0.037 A 
ATOM     47  C   UNL A   1      41.195  27.913  28.896  1.00  0.00     0.037 A 
ATOM     48  C   UNL A   1      40.741  30.533  34.847  1.00  0.00     0.049 A 
ATOM     49  C   UNL A   1      42.006  27.760  30.155  1.00  0.00     0.074 A 
ATOM     50  C   UNL A   1      41.495  30.239  35.968  1.00  0.00     0.029 A 
ATOM     51  N   UNL A   1      41.243  29.761  33.810  1.00  0.00    -0.354 N 
ATOM     52  N   UNL A   1      41.825  28.319  31.327  1.00  0.00    -0.248 NA
ATOM     53  C   UNL A   1      43.167  26.859  30.093  1.00  0.00     0.031 C 
ATOM     54  C   UNL A   1      42.485  29.322  35.599  1.00  0.00     0.029 A 
ATOM     55  C   UNL A   1      42.316  29.011  34.260  1.00  0.00     0.049 A 
ATOM     56  H   UNL A   1      40.889  29.748  32.891  1.00  0.00     0.167 HD
ATOM     57  C   UNL A   1      42.833  27.824  32.146  1.00  0.00     0.074 A 
ATOM     58  C   UNL A   1      43.615  26.909  31.340  1.00  0.00     0.031 C 
ATOM     59  C   UNL A   1      43.086  28.103  33.447  1.00  0.00     0.037 A 
BRANCH  46  60
ATOM     60  C   UNL A   1      39.234  32.232  35.938  1.00  0.00     0.057 A 
ATOM     61  C   UNL A   1      39.729  33.517  36.190  1.00  0.00     0.134 A 
ATOM     62  C   UNL A   1      38.293  31.712  36.836  1.00  0.00     0.134 A 
ATOM     63  F   UNL A   1      40.643  34.066  35.375  1.00  0.00    -0.206 F 
ATOM     64  C   UNL A   1      39.312  34.255  37.300  1.00  0.00     0.040 A 
ATOM     65  C   UNL A   1      37.852  32.449  37.936  1.00  0.00     0.040 A 
ATOM     66  F   UNL A   1      37.778  30.487  36.650  1.00  0.00    -0.206 F 
ATOM     67  C   UNL A   1      38.363  33.723  38.171  1.00  0.00     0.006 A 
ENDBRANCH  46  60
BRANCH  47  68
ATOM     68  C   UNL A   1      41.529  27.132  27.679  1.00  0.00     0.057 A 
ATOM     69  C   UNL A   1      42.335  27.671  26.671  1.00  0.00     0.134 A 
ATOM     70  C   UNL A   1      41.055  25.827  27.496  1.00  0.00     0.134 A 
ATOM     71  F   UNL A   1      42.800  28.925  26.779  1.00  0.00    -0.206 F 
ATOM     72  C   UNL A   1      42.653  26.947  25.522  1.00  0.00     0.040 A 
ATOM     73  C   UNL A   1      41.383  25.082  26.363  1.00  0.00     0.040 A 
ATOM     74  F   UNL A   1      40.276  25.253  28.425  1.00  0.00    -0.206 F 
ATOM     75  C   UNL A   1      42.182  25.643  25.369  1.00  0.00     0.006 A 
ENDBRANCH  47  68
BRANCH  59  76
ATOM     76  C   UNL A   1      44.247  27.410  34.097  1.00  0.00     0.057 A 
ATOM     77  C   UNL A   1      45.509  28.010  34.176  1.00  0.00     0.134 A 
ATOM     78  C   UNL A   1      44.079  26.169  34.724  1.00  0.00     0.134 A 
ATOM     79  F   UNL A   1      45.737  29.194  33.587  1.00  0.00    -0.206 F 
ATOM     80  C   UNL A   1      46.566  27.396  34.850  1.00  0.00     0.040 A 
ATOM     81  C   UNL A   1      45.121  25.557  35.422  1.00  0.00     0.040 A 
ATOM     82  F   UNL A   1      42.890  25.546  34.695  1.00  0.00    -0.206 F 
ATOM     83  C   UNL A   1      46.370  26.171  35.486  1.00  0.00     0.006 A 
ENDBRANCH  59  76
ENDBRANCH  33  34
ENDBRANCH  26  28
ENDBRANCH  25  26
ENDBRANCH  24  25
ENDBRANCH   1  24
TORSDOF 15
ENDMDL
MODEL 3
REMARK VINA RESULT:     -11.1      5.467      9.673
REMARK SMILES Cc1cc(Br)cc2c1O[C@H](C(F)(F)F)C(C(=O)OCCOCCOC(=O)c1ccc(-c3c4nc(c(-c5c(F)cccc5F)c5ccc([nH]5)c(-c5c(F)cccc5F)c5nc(c(-c6c(F)cccc6F)c6ccc3[nH]6)C=C5)C=C4)cc1)=C2
REMARK SMILES IDX 22 1 21 2 20 3 19 4 18 5 16 6 17 7 15 8 1 9 2 10 3 11 8 12
REMARK SMILES IDX 4 13 7 14 9 15 5 16 6 17 81 18 10 19 11 20 12 21 13 22 14 23
REMARK SMILES IDX 23 24 24 25 25 26 26 27 27 28 28 29 80 30 29 31 79 32 30 33
REMARK SMILES IDX 31 34 32 35 73 36 33 37 78 38 72 39 74 40 34 41 77 42 71 43
REMARK SMILES IDX 70 44 35 46 61 47 44 48 60 49 45 50 48 51 59 52 75 53 46 54
REMARK SMILES IDX 47 55 58 57 76 58 49 59 36 60 37 61 42 62 38 63 39 64 41 65
REMARK SMILES IDX 43 66 40 67 62 68 63 69 68 70 64 71 65 72 67 73 69 74 66 75
REMARK SMILES IDX 50 76 51 77 56 78 52 79 53 80 55 81 57 82 54 83
REMARK H PARENT 74 45 48 56
REMARK Flexibility Score: inf
ROOT
ATOM      1  C   UNL A   1      37.800  21.162  24.939  1.00  0.00     0.202 C 
ENDROOT
BRANCH   1   2
ATOM      2  O   UNL A   1      37.809  22.021  26.080  1.00  0.00    -0.374 OA
BRANCH   2   3
ATOM      3  C   UNL A   1      37.655  23.421  25.861  1.00  0.00     0.202 C 
BRANCH   3   4
ATOM      4  C   UNL A   1      36.221  23.941  25.730  1.00  0.00     0.261 C 
BRANCH   4   5
ATOM      5  O   UNL A   1      35.272  23.039  26.322  1.00  0.00    -0.460 OA
BRANCH   5   6
ATOM      6  C   UNL A   1      33.981  23.298  26.008  1.00  0.00     0.338 C 
ATOM      7  O   UNL A   1      33.359  24.321  26.249  1.00  0.00    -0.246 OA
BRANCH   6   8
ATOM      8  C   UNL A   1      33.426  22.192  25.206  1.00  0.00     0.087 C 
ATOM      9  C   UNL A   1      32.041  18.981  21.440  1.00  0.00     0.048 C 
ATOM     10  C   UNL A   1      32.312  18.878  22.915  1.00  0.00    -0.007 A 
ATOM     11  C   UNL A   1      32.369  17.604  23.503  1.00  0.00     0.023 A 
ATOM     12  C   UNL A   1      32.606  20.006  23.699  1.00  0.00     0.130 A 
ATOM     13  C   UNL A   1      32.684  17.464  24.853  1.00  0.00     0.019 A 
ATOM     14  C   UNL A   1      32.957  19.853  25.044  1.00  0.00     0.019 A 
ATOM     15  O   UNL A   1      32.533  21.228  23.087  1.00  0.00    -0.475 OA
ATOM     16  Br  UNL A   1      32.757  15.742  25.630  1.00  0.00    -0.051 Br
ATOM     17  C   UNL A   1      32.977  18.582  25.627  1.00  0.00     0.027 A 
ATOM     18  C   UNL A   1      33.380  21.004  25.820  1.00  0.00     0.027 C 
ATOM     19  C   UNL A   1      32.981  22.420  23.790  1.00  0.00     0.316 C 
BRANCH  19  20
ATOM     20  C   UNL A   1      34.055  23.097  22.926  1.00  0.00     0.430 C 
ATOM     21  F   UNL A   1      33.759  22.992  21.607  1.00  0.00    -0.167 F 
ATOM     22  F   UNL A   1      34.158  24.421  23.191  1.00  0.00    -0.167 F 
ATOM     23  F   UNL A   1      35.276  22.549  23.113  1.00  0.00    -0.167 F 
ENDBRANCH  19  20
ENDBRANCH   6   8
ENDBRANCH   5   6
ENDBRANCH   4   5
ENDBRANCH   3   4
ENDBRANCH   2   3
ENDBRANCH   1   2
BRANCH   1  24
ATOM     24  C   UNL A   1      38.607  19.861  25.038  1.00  0.00     0.261 C 
BRANCH  24  25
ATOM     25  O   UNL A   1      39.320  19.762  26.286  1.00  0.00    -0.460 OA
BRANCH  25  26
ATOM     26  C   UNL A   1      40.663  19.651  26.167  1.00  0.00     0.338 C 
ATOM     27  O   UNL A   1      41.292  18.749  25.629  1.00  0.00    -0.246 OA
BRANCH  26  28
ATOM     28  C   UNL A   1      41.310  20.891  26.625  1.00  0.00     0.060 A 
ATOM     29  C   UNL A   1      41.296  21.165  27.999  1.00  0.00     0.016 A 
ATOM     30  C   UNL A   1      41.842  21.813  25.720  1.00  0.00     0.016 A 
ATOM     31  C   UNL A   1      41.783  22.381  28.471  1.00  0.00     0.010 A 
ATOM     32  C   UNL A   1      42.318  23.040  26.196  1.00  0.00     0.010 A 
ATOM     33  C   UNL A   1      42.261  23.340  27.569  1.00  0.00    -0.014 A 
BRANCH  33  34
ATOM     34  C   UNL A   1      42.563  24.706  28.057  1.00  0.00     0.031 A 
ATOM     35  C   UNL A   1      43.994  25.095  28.300  1.00  0.00     0.074 A 
ATOM     36  C   UNL A   1      41.578  25.607  28.225  1.00  0.00     0.049 A 
ATOM     37  N   UNL A   1      44.484  26.236  28.711  1.00  0.00    -0.248 NA
ATOM     38  C   UNL A   1      45.009  24.061  28.040  1.00  0.00     0.031 C 
ATOM     39  C   UNL A   1      40.160  25.362  27.974  1.00  0.00     0.029 A 
ATOM     40  N   UNL A   1      41.628  26.912  28.644  1.00  0.00    -0.354 N 
ATOM     41  C   UNL A   1      45.861  26.063  28.750  1.00  0.00     0.074 A 
ATOM     42  C   UNL A   1      46.129  24.697  28.358  1.00  0.00     0.031 C 
ATOM     43  C   UNL A   1      39.472  26.486  28.239  1.00  0.00     0.029 A 
ATOM     44  C   UNL A   1      40.397  27.517  28.704  1.00  0.00     0.049 A 
ATOM     45  H   UNL A   1      42.467  27.372  28.877  1.00  0.00     0.167 HD
ATOM     46  C   UNL A   1      46.817  26.967  29.068  1.00  0.00     0.037 A 
ATOM     47  C   UNL A   1      40.058  28.760  29.101  1.00  0.00     0.037 A 
ATOM     48  C   UNL A   1      46.551  28.324  29.461  1.00  0.00     0.049 A 
ATOM     49  C   UNL A   1      41.132  29.716  29.544  1.00  0.00     0.074 A 
ATOM     50  C   UNL A   1      47.455  29.316  29.798  1.00  0.00     0.029 A 
ATOM     51  N   UNL A   1      45.285  28.878  29.578  1.00  0.00    -0.354 N 
ATOM     52  N   UNL A   1      42.432  29.547  29.563  1.00  0.00    -0.248 NA
ATOM     53  C   UNL A   1      40.692  31.034  30.024  1.00  0.00     0.031 C 
ATOM     54  C   UNL A   1      46.734  30.457  30.163  1.00  0.00     0.029 A 
ATOM     55  C   UNL A   1      45.383  30.190  30.008  1.00  0.00     0.049 A 
ATOM     56  H   UNL A   1      44.442  28.408  29.383  1.00  0.00     0.167 HD
ATOM     57  C   UNL A   1      42.966  30.739  30.035  1.00  0.00     0.074 A 
ATOM     58  C   UNL A   1      41.850  31.630  30.279  1.00  0.00     0.031 C 
ATOM     59  C   UNL A   1      44.264  31.066  30.247  1.00  0.00     0.037 A 
BRANCH  46  60
ATOM     60  C   UNL A   1      48.246  26.516  29.010  1.00  0.00     0.057 A 
ATOM     61  C   UNL A   1      48.863  25.887  30.098  1.00  0.00     0.134 A 
ATOM     62  C   UNL A   1      48.995  26.661  27.836  1.00  0.00     0.134 A 
ATOM     63  F   UNL A   1      48.202  25.730  31.256  1.00  0.00    -0.206 F 
ATOM     64  C   UNL A   1      50.179  25.429  30.026  1.00  0.00     0.040 A 
ATOM     65  C   UNL A   1      50.305  26.188  27.744  1.00  0.00     0.040 A 
ATOM     66  F   UNL A   1      48.463  27.253  26.756  1.00  0.00    -0.206 F 
ATOM     67  C   UNL A   1      50.901  25.571  28.842  1.00  0.00     0.006 A 
ENDBRANCH  46  60
BRANCH  47  68
ATOM     68  C   UNL A   1      38.632  29.172  29.093  1.00  0.00     0.057 A 
ATOM     69  C   UNL A   1      38.031  29.679  27.936  1.00  0.00     0.134 A 
ATOM     70  C   UNL A   1      37.835  29.067  30.240  1.00  0.00     0.134 A 
ATOM     71  F   UNL A   1      38.750  29.825  26.813  1.00  0.00    -0.206 F 
ATOM     72  C   UNL A   1      36.693  30.073  27.919  1.00  0.00     0.040 A 
ATOM     73  C   UNL A   1      36.489  29.435  30.232  1.00  0.00     0.040 A 
ATOM     74  F   UNL A   1      38.352  28.590  31.383  1.00  0.00    -0.206 F 
ATOM     75  C   UNL A   1      35.915  29.943  29.069  1.00  0.00     0.006 A 
ENDBRANCH  47  68
BRANCH  59  76
ATOM     76  C   UNL A   1      44.563  32.445  30.757  1.00  0.00     0.057 A 
ATOM     77  C   UNL A   1      44.723  32.702  32.124  1.00  0.00     0.134 A 
ATOM     78  C   UNL A   1      44.776  33.506  29.868  1.00  0.00     0.134 A 
ATOM     79  F   UNL A   1      44.521  31.730  33.027  1.00  0.00    -0.206 F 
ATOM     80  C   UNL A   1      45.078  33.969  32.590  1.00  0.00     0.040 A 
ATOM     81  C   UNL A   1      45.156  34.771  30.320  1.00  0.00     0.040 A 
ATOM     82  F   UNL A   1      44.651  33.322  28.545  1.00  0.00    -0.206 F 
ATOM     83  C   UNL A   1      45.307  35.005  31.685  1.00  0.00     0.006 A 
ENDBRANCH  59  76
ENDBRANCH  33  34
ENDBRANCH  26  28
ENDBRANCH  25  26
ENDBRANCH  24  25
ENDBRANCH   1  24
TORSDOF 15
ENDMDL
