MODEL 1
REMARK VINA RESULT:     -12.1      0.000      0.000
REMARK SMILES CC1=NN(c2ccccc2)C(=O)/C1=C\c1ccc(-c2cc(C(=O)OCCOCCOC(=O)c3ccc(-c4c5nc(c(-c6c(F)cccc6F)c6ccc([nH]6)c(-c6c(F)cccc6F)c6nc(c(-c7c(F)cccc7F)c7ccc4[nH]7)C=C6)C=C5)cc3)ccc2Cl)o1
REMARK SMILES IDX 26 1 25 2 24 3 22 4 23 5 21 6 19 7 20 8 89 9 88 10 90 11
REMARK SMILES IDX 87 12 18 13 15 14 16 15 91 16 17 17 14 18 1 19 2 20 3 21
REMARK SMILES IDX 13 22 4 23 11 24 12 25 5 26 6 27 10 28 7 29 9 30 8 31 27 32
REMARK SMILES IDX 28 33 29 34 30 35 31 36 32 37 33 38 34 39 86 40 35 41 85 42
REMARK SMILES IDX 36 43 37 44 38 45 79 46 39 47 84 48 78 49 80 50 40 51 83 52
REMARK SMILES IDX 77 53 76 54 41 56 67 57 50 58 66 59 51 60 54 61 65 62 81 63
REMARK SMILES IDX 52 64 53 65 64 67 82 68 55 69 42 70 43 71 48 72 44 73 45 74
REMARK SMILES IDX 47 75 49 76 46 77 68 78 69 79 74 80 70 81 71 82 73 83 75 84
REMARK SMILES IDX 72 85 56 86 57 87 62 88 58 89 59 90 61 91 63 92 60 93
REMARK H PARENT 80 55 54 66
REMARK Flexibility Score: inf
ROOT
ATOM      1  C   UNL A   1      44.935  19.350  25.346  1.00  0.00     0.202 C 
ENDROOT
BRANCH   1   2
ATOM      2  C   UNL A   1      43.702  18.748  26.032  1.00  0.00     0.261 C 
BRANCH   2   3
ATOM      3  O   UNL A   1      42.754  19.765  26.393  1.00  0.00    -0.460 OA
BRANCH   3   4
ATOM      4  C   UNL A   1      41.472  19.533  26.011  1.00  0.00     0.338 C 
ATOM      5  O   UNL A   1      40.974  18.461  25.719  1.00  0.00    -0.246 OA
BRANCH   4   6
ATOM      6  C   UNL A   1      40.686  20.777  26.203  1.00  0.00     0.060 A 
ATOM      7  C   UNL A   1      38.552  21.931  25.956  1.00  0.00     0.037 A 
ATOM      8  C   UNL A   1      39.354  20.798  25.756  1.00  0.00     0.029 A 
ATOM      9  C   UNL A   1      39.114  23.047  26.605  1.00  0.00     0.052 A 
ATOM     10  C   UNL A   1      40.439  23.019  27.057  1.00  0.00     0.022 A 
ATOM     11  Cl  UNL A   1      38.218  24.501  26.889  1.00  0.00    -0.084 Cl
ATOM     12  C   UNL A   1      41.226  21.885  26.863  1.00  0.00     0.017 A 
BRANCH   7  13
ATOM     13  C   UNL A   1      37.202  21.960  25.417  1.00  0.00     0.136 A 
ATOM     14  C   UNL A   1      35.615  22.677  24.039  1.00  0.00     0.128 A 
ATOM     15  C   UNL A   1      35.076  21.674  24.841  1.00  0.00     0.051 A 
ATOM     16  O   UNL A   1      36.944  22.822  24.386  1.00  0.00    -0.457 OA
ATOM     17  C   UNL A   1      36.072  21.246  25.737  1.00  0.00     0.051 A 
BRANCH  14  18
ATOM     18  C   UNL A   1      34.938  23.416  23.025  1.00  0.00     0.063 C 
ATOM     19  C   UNL A   1      32.891  24.875  21.118  1.00  0.00     0.069 C 
ATOM     20  C   UNL A   1      33.199  25.196  22.542  1.00  0.00     0.071 C 
ATOM     21  N   UNL A   1      32.549  26.094  23.237  1.00  0.00    -0.169 NA
ATOM     22  C   UNL A   1      34.238  24.516  23.341  1.00  0.00     0.068 C 
ATOM     23  N   UNL A   1      33.186  26.147  24.472  1.00  0.00    -0.196 N 
ATOM     24  C   UNL A   1      34.249  25.255  24.624  1.00  0.00     0.280 C 
ATOM     25  O   UNL A   1      35.015  25.092  25.558  1.00  0.00    -0.267 OA
BRANCH  23  26
ATOM     26  C   UNL A   1      32.806  27.122  25.414  1.00  0.00     0.069 A 
ATOM     27  C   UNL A   1      33.316  28.422  25.346  1.00  0.00     0.028 A 
ATOM     28  C   UNL A   1      31.886  26.803  26.423  1.00  0.00     0.028 A 
ATOM     29  C   UNL A   1      32.873  29.398  26.246  1.00  0.00     0.002 A 
ATOM     30  C   UNL A   1      31.484  27.762  27.351  1.00  0.00     0.002 A 
ATOM     31  C   UNL A   1      31.965  29.064  27.252  1.00  0.00     0.000 A 
ENDBRANCH  23  26
ENDBRANCH  14  18
ENDBRANCH   7  13
ENDBRANCH   4   6
ENDBRANCH   3   4
ENDBRANCH   2   3
ENDBRANCH   1   2
BRANCH   1  32
ATOM     32  O   UNL A   1      45.107  20.766  25.417  1.00  0.00    -0.374 OA
BRANCH  32  33
ATOM     33  C   UNL A   1      44.935  21.524  24.222  1.00  0.00     0.202 C 
BRANCH  33  34
ATOM     34  C   UNL A   1      45.423  22.978  24.209  1.00  0.00     0.261 C 
BRANCH  34  35
ATOM     35  O   UNL A   1      44.472  23.901  24.762  1.00  0.00    -0.460 OA
BRANCH  35  36
ATOM     36  C   UNL A   1      45.009  25.093  25.119  1.00  0.00     0.338 C 
ATOM     37  O   UNL A   1      46.040  25.595  24.705  1.00  0.00    -0.246 OA
BRANCH  36  38
ATOM     38  C   UNL A   1      44.082  25.828  25.998  1.00  0.00     0.060 A 
ATOM     39  C   UNL A   1      44.306  27.201  26.157  1.00  0.00     0.016 A 
ATOM     40  C   UNL A   1      43.091  25.177  26.734  1.00  0.00     0.016 A 
ATOM     41  C   UNL A   1      43.587  27.916  27.107  1.00  0.00     0.010 A 
ATOM     42  C   UNL A   1      42.368  25.900  27.691  1.00  0.00     0.010 A 
ATOM     43  C   UNL A   1      42.647  27.261  27.914  1.00  0.00    -0.014 A 
BRANCH  43  44
ATOM     44  C   UNL A   1      42.083  27.973  29.087  1.00  0.00     0.031 A 
ATOM     45  C   UNL A   1      42.795  27.890  30.411  1.00  0.00     0.074 A 
ATOM     46  C   UNL A   1      40.983  28.738  28.960  1.00  0.00     0.049 A 
ATOM     47  N   UNL A   1      42.489  28.447  31.555  1.00  0.00    -0.248 NA
ATOM     48  C   UNL A   1      44.015  27.067  30.450  1.00  0.00     0.031 C 
ATOM     49  C   UNL A   1      40.224  28.927  27.725  1.00  0.00     0.029 A 
ATOM     50  N   UNL A   1      40.318  29.502  29.885  1.00  0.00    -0.354 N 
ATOM     51  C   UNL A   1      43.472  28.038  32.449  1.00  0.00     0.074 A 
ATOM     52  C   UNL A   1      44.359  27.153  31.726  1.00  0.00     0.031 C 
ATOM     53  C   UNL A   1      39.197  29.758  27.969  1.00  0.00     0.029 A 
ATOM     54  C   UNL A   1      39.208  30.132  29.381  1.00  0.00     0.049 A 
ATOM     55  H   UNL A   1      40.611  29.591  30.822  1.00  0.00     0.167 HD
ATOM     56  C   UNL A   1      43.629  28.379  33.751  1.00  0.00     0.037 A 
ATOM     57  C   UNL A   1      38.296  30.910  29.995  1.00  0.00     0.037 A 
ATOM     58  C   UNL A   1      42.747  29.264  34.469  1.00  0.00     0.049 A 
ATOM     59  C   UNL A   1      38.457  31.222  31.460  1.00  0.00     0.074 A 
ATOM     60  C   UNL A   1      42.835  29.691  35.783  1.00  0.00     0.029 A 
ATOM     61  N   UNL A   1      41.609  29.850  33.934  1.00  0.00    -0.354 N 
ATOM     62  N   UNL A   1      39.408  30.858  32.286  1.00  0.00    -0.248 NA
ATOM     63  C   UNL A   1      37.419  32.063  32.073  1.00  0.00     0.031 C 
ATOM     64  C   UNL A   1      41.718  30.484  36.061  1.00  0.00     0.029 A 
ATOM     65  C   UNL A   1      40.968  30.608  34.901  1.00  0.00     0.049 A 
ATOM     66  H   UNL A   1      41.301  29.742  33.005  1.00  0.00     0.167 HD
ATOM     67  C   UNL A   1      39.098  31.446  33.508  1.00  0.00     0.074 A 
ATOM     68  C   UNL A   1      37.884  32.208  33.305  1.00  0.00     0.031 C 
ATOM     69  C   UNL A   1      39.757  31.361  34.690  1.00  0.00     0.037 A 
BRANCH  56  70
ATOM     70  C   UNL A   1      44.788  27.772  34.492  1.00  0.00     0.057 A 
ATOM     71  C   UNL A   1      44.670  26.568  35.201  1.00  0.00     0.134 A 
ATOM     72  C   UNL A   1      46.047  28.386  34.469  1.00  0.00     0.134 A 
ATOM     73  F   UNL A   1      43.490  25.934  35.275  1.00  0.00    -0.206 F 
ATOM     74  C   UNL A   1      45.755  26.013  35.882  1.00  0.00     0.040 A 
ATOM     75  C   UNL A   1      47.146  27.824  35.122  1.00  0.00     0.040 A 
ATOM     76  F   UNL A   1      46.233  29.536  33.806  1.00  0.00    -0.206 F 
ATOM     77  C   UNL A   1      46.999  26.638  35.837  1.00  0.00     0.006 A 
ENDBRANCH  56  70
BRANCH  57  78
ATOM     78  C   UNL A   1      37.140  31.446  29.231  1.00  0.00     0.057 A 
ATOM     79  C   UNL A   1      37.135  32.757  28.740  1.00  0.00     0.134 A 
ATOM     80  C   UNL A   1      35.998  30.668  28.999  1.00  0.00     0.134 A 
ATOM     81  F   UNL A   1      38.188  33.560  28.950  1.00  0.00    -0.206 F 
ATOM     82  C   UNL A   1      36.030  33.283  28.069  1.00  0.00     0.040 A 
ATOM     83  C   UNL A   1      34.898  31.170  28.302  1.00  0.00     0.040 A 
ATOM     84  F   UNL A   1      35.940  29.402  29.441  1.00  0.00    -0.206 F 
ATOM     85  C   UNL A   1      34.909  32.486  27.844  1.00  0.00     0.006 A 
ENDBRANCH  57  78
BRANCH  69  86
ATOM     86  C   UNL A   1      39.195  32.141  35.846  1.00  0.00     0.057 A 
ATOM     87  C   UNL A   1      39.537  33.480  36.076  1.00  0.00     0.134 A 
ATOM     88  C   UNL A   1      38.286  31.547  36.733  1.00  0.00     0.134 A 
ATOM     89  F   UNL A   1      40.408  34.108  35.273  1.00  0.00    -0.206 F 
ATOM     90  C   UNL A   1      39.027  34.187  37.167  1.00  0.00     0.040 A 
ATOM     91  C   UNL A   1      37.744  32.254  37.807  1.00  0.00     0.040 A 
ATOM     92  F   UNL A   1      37.905  30.272  36.566  1.00  0.00    -0.206 F 
ATOM     93  C   UNL A   1      38.123  33.575  38.033  1.00  0.00     0.006 A 
ENDBRANCH  69  86
ENDBRANCH  43  44
ENDBRANCH  36  38
ENDBRANCH  35  36
ENDBRANCH  34  35
ENDBRANCH  33  34
ENDBRANCH  32  33
ENDBRANCH   1  32
TORSDOF 17
ENDMDL
MODEL 2
REMARK VINA RESULT:     -11.3      4.710     10.516
REMARK SMILES CC1=NN(c2ccccc2)C(=O)/C1=C\c1ccc(-c2cc(C(=O)OCCOCCOC(=O)c3ccc(-c4c5nc(c(-c6c(F)cccc6F)c6ccc([nH]6)c(-c6c(F)cccc6F)c6nc(c(-c7c(F)cccc7F)c7ccc4[nH]7)C=C6)C=C5)cc3)ccc2Cl)o1
REMARK SMILES IDX 26 1 25 2 24 3 22 4 23 5 21 6 19 7 20 8 89 9 88 10 90 11
REMARK SMILES IDX 87 12 18 13 15 14 16 15 91 16 17 17 14 18 1 19 2 20 3 21
REMARK SMILES IDX 13 22 4 23 11 24 12 25 5 26 6 27 10 28 7 29 9 30 8 31 27 32
REMARK SMILES IDX 28 33 29 34 30 35 31 36 32 37 33 38 34 39 86 40 35 41 85 42
REMARK SMILES IDX 36 43 37 44 38 45 79 46 39 47 84 48 78 49 80 50 40 51 83 52
REMARK SMILES IDX 77 53 76 54 41 56 67 57 50 58 66 59 51 60 54 61 65 62 81 63
REMARK SMILES IDX 52 64 53 65 64 67 82 68 55 69 42 70 43 71 48 72 44 73 45 74
REMARK SMILES IDX 47 75 49 76 46 77 68 78 69 79 74 80 70 81 71 82 73 83 75 84
REMARK SMILES IDX 72 85 56 86 57 87 62 88 58 89 59 90 61 91 63 92 60 93
REMARK H PARENT 80 55 54 66
REMARK Flexibility Score: inf
ROOT
ATOM      1  C   UNL A   1      34.222  32.801  29.031  1.00  0.00     0.202 C 
ENDROOT
BRANCH   1   2
ATOM      2  C   UNL A   1      34.447  31.980  27.756  1.00  0.00     0.261 C 
BRANCH   2   3
ATOM      3  O   UNL A   1      33.326  31.125  27.478  1.00  0.00    -0.460 OA
BRANCH   3   4
ATOM      4  C   UNL A   1      33.631  29.910  26.955  1.00  0.00     0.338 C 
ATOM      5  O   UNL A   1      34.459  29.118  27.368  1.00  0.00    -0.246 OA
BRANCH   4   6
ATOM      6  C   UNL A   1      32.642  29.584  25.900  1.00  0.00     0.060 A 
ATOM      7  C   UNL A   1      31.814  27.969  24.270  1.00  0.00     0.037 A 
ATOM      8  C   UNL A   1      32.753  28.348  25.242  1.00  0.00     0.029 A 
ATOM      9  C   UNL A   1      30.768  28.859  23.963  1.00  0.00     0.052 A 
ATOM     10  C   UNL A   1      30.655  30.087  24.627  1.00  0.00     0.022 A 
ATOM     11  Cl  UNL A   1      29.566  28.499  22.769  1.00  0.00    -0.084 Cl
ATOM     12  C   UNL A   1      31.586  30.450  25.599  1.00  0.00     0.017 A 
BRANCH   7  13
ATOM     13  C   UNL A   1      31.993  26.720  23.547  1.00  0.00     0.136 A 
ATOM     14  C   UNL A   1      32.112  24.510  23.376  1.00  0.00     0.128 A 
ATOM     15  C   UNL A   1      32.257  25.054  22.102  1.00  0.00     0.051 A 
ATOM     16  O   UNL A   1      31.917  25.554  24.258  1.00  0.00    -0.457 OA
ATOM     17  C   UNL A   1      32.217  26.455  22.217  1.00  0.00     0.051 A 
BRANCH  14  18
ATOM     18  C   UNL A   1      32.137  23.126  23.722  1.00  0.00     0.063 C 
ATOM     19  C   UNL A   1      32.657  20.027  24.007  1.00  0.00     0.069 C 
ATOM     20  C   UNL A   1      33.603  21.143  24.306  1.00  0.00     0.071 C 
ATOM     21  N   UNL A   1      34.856  20.959  24.633  1.00  0.00    -0.169 NA
ATOM     22  C   UNL A   1      33.250  22.574  24.227  1.00  0.00     0.068 C 
ATOM     23  N   UNL A   1      35.363  22.225  24.905  1.00  0.00    -0.196 N 
ATOM     24  C   UNL A   1      34.457  23.272  24.726  1.00  0.00     0.280 C 
ATOM     25  O   UNL A   1      34.587  24.469  24.916  1.00  0.00    -0.267 OA
BRANCH  23  26
ATOM     26  C   UNL A   1      36.666  22.361  25.421  1.00  0.00     0.069 A 
ATOM     27  C   UNL A   1      37.589  21.315  25.325  1.00  0.00     0.028 A 
ATOM     28  C   UNL A   1      37.063  23.565  26.020  1.00  0.00     0.028 A 
ATOM     29  C   UNL A   1      38.901  21.493  25.778  1.00  0.00     0.002 A 
ATOM     30  C   UNL A   1      38.355  23.724  26.517  1.00  0.00     0.002 A 
ATOM     31  C   UNL A   1      39.279  22.693  26.381  1.00  0.00     0.000 A 
ENDBRANCH  23  26
ENDBRANCH  14  18
ENDBRANCH   7  13
ENDBRANCH   4   6
ENDBRANCH   3   4
ENDBRANCH   2   3
ENDBRANCH   1   2
BRANCH   1  32
ATOM     32  O   UNL A   1      35.346  33.485  29.587  1.00  0.00    -0.374 OA
BRANCH  32  33
ATOM     33  C   UNL A   1      35.306  33.830  30.969  1.00  0.00     0.202 C 
BRANCH  33  34
ATOM     34  C   UNL A   1      36.222  33.067  31.934  1.00  0.00     0.261 C 
BRANCH  34  35
ATOM     35  O   UNL A   1      37.201  32.255  31.265  1.00  0.00    -0.460 OA
BRANCH  35  36
ATOM     36  C   UNL A   1      36.914  30.931  31.276  1.00  0.00     0.338 C 
ATOM     37  O   UNL A   1      35.883  30.398  31.653  1.00  0.00    -0.246 OA
BRANCH  36  38
ATOM     38  C   UNL A   1      37.982  30.171  30.603  1.00  0.00     0.060 A 
ATOM     39  C   UNL A   1      38.857  29.440  31.417  1.00  0.00     0.016 A 
ATOM     40  C   UNL A   1      38.193  30.256  29.227  1.00  0.00     0.016 A 
ATOM     41  C   UNL A   1      39.989  28.852  30.866  1.00  0.00     0.010 A 
ATOM     42  C   UNL A   1      39.334  29.663  28.674  1.00  0.00     0.010 A 
ATOM     43  C   UNL A   1      40.261  29.000  29.499  1.00  0.00    -0.014 A 
BRANCH  43  44
ATOM     44  C   UNL A   1      41.590  28.594  28.981  1.00  0.00     0.031 A 
ATOM     45  C   UNL A   1      42.710  29.601  28.958  1.00  0.00     0.074 A 
ATOM     46  C   UNL A   1      41.818  27.325  28.595  1.00  0.00     0.049 A 
ATOM     47  N   UNL A   1      43.950  29.456  28.566  1.00  0.00    -0.248 NA
ATOM     48  C   UNL A   1      42.386  30.954  29.439  1.00  0.00     0.031 C 
ATOM     49  C   UNL A   1      40.827  26.251  28.603  1.00  0.00     0.029 A 
ATOM     50  N   UNL A   1      42.960  26.728  28.125  1.00  0.00    -0.354 N 
ATOM     51  C   UNL A   1      44.552  30.696  28.747  1.00  0.00     0.074 A 
ATOM     52  C   UNL A   1      43.530  31.592  29.243  1.00  0.00     0.031 C 
ATOM     53  C   UNL A   1      41.406  25.122  28.161  1.00  0.00     0.029 A 
ATOM     54  C   UNL A   1      42.796  25.403  27.809  1.00  0.00     0.049 A 
ATOM     55  H   UNL A   1      43.816  27.206  28.024  1.00  0.00     0.167 HD
ATOM     56  C   UNL A   1      45.841  31.053  28.532  1.00  0.00     0.037 A 
ATOM     57  C   UNL A   1      43.666  24.521  27.280  1.00  0.00     0.037 A 
ATOM     58  C   UNL A   1      46.858  30.158  28.042  1.00  0.00     0.049 A 
ATOM     59  C   UNL A   1      45.078  24.960  26.990  1.00  0.00     0.074 A 
ATOM     60  C   UNL A   1      48.198  30.417  27.814  1.00  0.00     0.029 A 
ATOM     61  N   UNL A   1      46.643  28.832  27.693  1.00  0.00    -0.354 N 
ATOM     62  N   UNL A   1      45.644  26.125  27.196  1.00  0.00    -0.248 NA
ATOM     63  C   UNL A   1      45.972  23.955  26.398  1.00  0.00     0.031 C 
ATOM     64  C   UNL A   1      48.780  29.268  27.271  1.00  0.00     0.029 A 
ATOM     65  C   UNL A   1      47.819  28.270  27.222  1.00  0.00     0.049 A 
ATOM     66  H   UNL A   1      45.782  28.361  27.770  1.00  0.00     0.167 HD
ATOM     67  C   UNL A   1      46.965  25.985  26.787  1.00  0.00     0.074 A 
ATOM     68  C   UNL A   1      47.120  24.615  26.343  1.00  0.00     0.031 C 
ATOM     69  C   UNL A   1      47.960  26.906  26.779  1.00  0.00     0.037 A 
BRANCH  56  70
ATOM     70  C   UNL A   1      46.220  32.482  28.804  1.00  0.00     0.057 A 
ATOM     71  C   UNL A   1      46.711  32.898  30.049  1.00  0.00     0.134 A 
ATOM     72  C   UNL A   1      46.120  33.448  27.795  1.00  0.00     0.134 A 
ATOM     73  F   UNL A   1      46.820  32.027  31.064  1.00  0.00    -0.206 F 
ATOM     74  C   UNL A   1      47.062  34.229  30.288  1.00  0.00     0.040 A 
ATOM     75  C   UNL A   1      46.497  34.775  28.013  1.00  0.00     0.040 A 
ATOM     76  F   UNL A   1      45.664  33.119  26.578  1.00  0.00    -0.206 F 
ATOM     77  C   UNL A   1      46.963  35.169  29.265  1.00  0.00     0.006 A 
ENDBRANCH  56  70
BRANCH  57  78
ATOM     78  C   UNL A   1      43.230  23.132  26.982  1.00  0.00     0.057 A 
ATOM     79  C   UNL A   1      43.026  22.700  25.666  1.00  0.00     0.134 A 
ATOM     80  C   UNL A   1      42.980  22.213  28.008  1.00  0.00     0.134 A 
ATOM     81  F   UNL A   1      43.226  23.540  24.641  1.00  0.00    -0.206 F 
ATOM     82  C   UNL A   1      42.565  21.413  25.382  1.00  0.00     0.040 A 
ATOM     83  C   UNL A   1      42.548  20.913  27.737  1.00  0.00     0.040 A 
ATOM     84  F   UNL A   1      43.159  22.563  29.290  1.00  0.00    -0.206 F 
ATOM     85  C   UNL A   1      42.330  20.514  26.420  1.00  0.00     0.006 A 
ENDBRANCH  57  78
BRANCH  69  86
ATOM     86  C   UNL A   1      49.313  26.451  26.304  1.00  0.00     0.057 A 
ATOM     87  C   UNL A   1      50.177  25.708  27.120  1.00  0.00     0.134 A 
ATOM     88  C   UNL A   1      49.750  26.746  25.005  1.00  0.00     0.134 A 
ATOM     89  F   UNL A   1      49.826  25.398  28.377  1.00  0.00    -0.206 F 
ATOM     90  C   UNL A   1      51.440  25.311  26.676  1.00  0.00     0.040 A 
ATOM     91  C   UNL A   1      50.996  26.325  24.539  1.00  0.00     0.040 A 
ATOM     92  F   UNL A   1      48.969  27.443  24.165  1.00  0.00    -0.206 F 
ATOM     93  C   UNL A   1      51.850  25.616  25.379  1.00  0.00     0.006 A 
ENDBRANCH  69  86
ENDBRANCH  43  44
ENDBRANCH  36  38
ENDBRANCH  35  36
ENDBRANCH  34  35
ENDBRANCH  33  34
ENDBRANCH  32  33
ENDBRANCH   1  32
TORSDOF 17
ENDMDL
MODEL 3
REMARK VINA RESULT:     -11.2      4.064      9.538
REMARK SMILES CC1=NN(c2ccccc2)C(=O)/C1=C\c1ccc(-c2cc(C(=O)OCCOCCOC(=O)c3ccc(-c4c5nc(c(-c6c(F)cccc6F)c6ccc([nH]6)c(-c6c(F)cccc6F)c6nc(c(-c7c(F)cccc7F)c7ccc4[nH]7)C=C6)C=C5)cc3)ccc2Cl)o1
REMARK SMILES IDX 26 1 25 2 24 3 22 4 23 5 21 6 19 7 20 8 89 9 88 10 90 11
REMARK SMILES IDX 87 12 18 13 15 14 16 15 91 16 17 17 14 18 1 19 2 20 3 21
REMARK SMILES IDX 13 22 4 23 11 24 12 25 5 26 6 27 10 28 7 29 9 30 8 31 27 32
REMARK SMILES IDX 28 33 29 34 30 35 31 36 32 37 33 38 34 39 86 40 35 41 85 42
REMARK SMILES IDX 36 43 37 44 38 45 79 46 39 47 84 48 78 49 80 50 40 51 83 52
REMARK SMILES IDX 77 53 76 54 41 56 67 57 50 58 66 59 51 60 54 61 65 62 81 63
REMARK SMILES IDX 52 64 53 65 64 67 82 68 55 69 42 70 43 71 48 72 44 73 45 74
REMARK SMILES IDX 47 75 49 76 46 77 68 78 69 79 74 80 70 81 71 82 73 83 75 84
REMARK SMILES IDX 72 85 56 86 57 87 62 88 58 89 59 90 61 91 63 92 60 93
REMARK H PARENT 80 55 54 66
REMARK Flexibility Score: inf
ROOT
ATOM      1  C   UNL A   1      34.698  23.567  25.851  1.00  0.00     0.202 C 
ENDROOT
BRANCH   1   2
ATOM      2  C   UNL A   1      34.747  24.497  24.632  1.00  0.00     0.261 C 
BRANCH   2   3
ATOM      3  O   UNL A   1      34.345  25.834  24.976  1.00  0.00    -0.460 OA
BRANCH   3   4
ATOM      4  C   UNL A   1      33.360  26.365  24.210  1.00  0.00     0.338 C 
ATOM      5  O   UNL A   1      32.794  25.838  23.269  1.00  0.00    -0.246 OA
BRANCH   4   6
ATOM      6  C   UNL A   1      32.912  27.638  24.825  1.00  0.00     0.060 A 
ATOM      7  C   UNL A   1      33.414  29.500  26.319  1.00  0.00     0.037 A 
ATOM      8  C   UNL A   1      33.767  28.269  25.745  1.00  0.00     0.029 A 
ATOM      9  C   UNL A   1      32.183  30.081  25.960  1.00  0.00     0.052 A 
ATOM     10  C   UNL A   1      31.339  29.454  25.036  1.00  0.00     0.022 A 
ATOM     11  Cl  UNL A   1      31.644  31.589  26.620  1.00  0.00    -0.084 Cl
ATOM     12  C   UNL A   1      31.702  28.236  24.462  1.00  0.00     0.017 A 
BRANCH   7  13
ATOM     13  C   UNL A   1      34.277  30.096  27.326  1.00  0.00     0.136 A 
ATOM     14  C   UNL A   1      35.781  30.036  28.958  1.00  0.00     0.128 A 
ATOM     15  C   UNL A   1      35.478  31.370  28.693  1.00  0.00     0.051 A 
ATOM     16  O   UNL A   1      35.051  29.258  28.081  1.00  0.00    -0.457 OA
ATOM     17  C   UNL A   1      34.500  31.405  27.684  1.00  0.00     0.051 A 
BRANCH  14  18
ATOM     18  C   UNL A   1      36.691  29.546  29.941  1.00  0.00     0.063 C 
ATOM     19  C   UNL A   1      38.585  27.870  31.827  1.00  0.00     0.069 C 
ATOM     20  C   UNL A   1      38.743  28.120  30.364  1.00  0.00     0.071 C 
ATOM     21  N   UNL A   1      39.670  27.558  29.632  1.00  0.00    -0.169 NA
ATOM     22  C   UNL A   1      37.854  28.991  29.570  1.00  0.00     0.068 C 
ATOM     23  N   UNL A   1      39.530  28.107  28.362  1.00  0.00    -0.196 N 
ATOM     24  C   UNL A   1      38.480  29.017  28.228  1.00  0.00     0.280 C 
ATOM     25  O   UNL A   1      38.131  29.684  27.269  1.00  0.00    -0.267 OA
BRANCH  23  26
ATOM     26  C   UNL A   1      40.473  27.806  27.362  1.00  0.00     0.069 A 
ATOM     27  C   UNL A   1      40.565  26.518  26.825  1.00  0.00     0.028 A 
ATOM     28  C   UNL A   1      41.322  28.809  26.872  1.00  0.00     0.028 A 
ATOM     29  C   UNL A   1      41.459  26.254  25.781  1.00  0.00     0.002 A 
ATOM     30  C   UNL A   1      42.249  28.533  25.868  1.00  0.00     0.002 A 
ATOM     31  C   UNL A   1      42.305  27.259  25.311  1.00  0.00     0.000 A 
ENDBRANCH  23  26
ENDBRANCH  14  18
ENDBRANCH   7  13
ENDBRANCH   4   6
ENDBRANCH   3   4
ENDBRANCH   2   3
ENDBRANCH   1   2
BRANCH   1  32
ATOM     32  O   UNL A   1      35.830  22.729  26.090  1.00  0.00    -0.374 OA
BRANCH  32  33
ATOM     33  C   UNL A   1      36.499  22.167  24.964  1.00  0.00     0.202 C 
BRANCH  33  34
ATOM     34  C   UNL A   1      37.580  21.109  25.217  1.00  0.00     0.261 C 
BRANCH  34  35
ATOM     35  O   UNL A   1      38.844  21.671  25.606  1.00  0.00    -0.460 OA
BRANCH  35  36
ATOM     36  C   UNL A   1      39.772  20.746  25.949  1.00  0.00     0.338 C 
ATOM     37  O   UNL A   1      39.822  19.579  25.597  1.00  0.00    -0.246 OA
BRANCH  36  38
ATOM     38  C   UNL A   1      40.863  21.376  26.714  1.00  0.00     0.060 A 
ATOM     39  C   UNL A   1      40.553  22.540  27.429  1.00  0.00     0.016 A 
ATOM     40  C   UNL A   1      42.176  20.908  26.647  1.00  0.00     0.016 A 
ATOM     41  C   UNL A   1      41.569  23.282  28.020  1.00  0.00     0.010 A 
ATOM     42  C   UNL A   1      43.197  21.658  27.243  1.00  0.00     0.010 A 
ATOM     43  C   UNL A   1      42.903  22.873  27.890  1.00  0.00    -0.014 A 
BRANCH  43  44
ATOM     44  C   UNL A   1      43.985  23.802  28.297  1.00  0.00     0.031 A 
ATOM     45  C   UNL A   1      44.280  23.992  29.761  1.00  0.00     0.074 A 
ATOM     46  C   UNL A   1      44.740  24.423  27.372  1.00  0.00     0.049 A 
ATOM     47  N   UNL A   1      45.189  24.738  30.336  1.00  0.00    -0.248 NA
ATOM     48  C   UNL A   1      43.435  23.242  30.704  1.00  0.00     0.031 C 
ATOM     49  C   UNL A   1      44.576  24.294  25.925  1.00  0.00     0.029 A 
ATOM     50  N   UNL A   1      45.799  25.282  27.517  1.00  0.00    -0.354 N 
ATOM     51  C   UNL A   1      45.022  24.552  31.704  1.00  0.00     0.074 A 
ATOM     52  C   UNL A   1      43.898  23.657  31.873  1.00  0.00     0.031 C 
ATOM     53  C   UNL A   1      45.506  25.046  25.314  1.00  0.00     0.029 A 
ATOM     54  C   UNL A   1      46.307  25.733  26.325  1.00  0.00     0.049 A 
ATOM     55  H   UNL A   1      46.160  25.549  28.394  1.00  0.00     0.167 HD
ATOM     56  C   UNL A   1      45.747  25.069  32.725  1.00  0.00     0.037 A 
ATOM     57  C   UNL A   1      47.296  26.613  26.078  1.00  0.00     0.037 A 
ATOM     58  C   UNL A   1      46.869  25.957  32.553  1.00  0.00     0.049 A 
ATOM     59  C   UNL A   1      48.046  27.225  27.233  1.00  0.00     0.074 A 
ATOM     60  C   UNL A   1      47.683  26.515  33.523  1.00  0.00     0.029 A 
ATOM     61  N   UNL A   1      47.327  26.424  31.330  1.00  0.00    -0.354 N 
ATOM     62  N   UNL A   1      47.901  27.016  28.520  1.00  0.00    -0.248 NA
ATOM     63  C   UNL A   1      49.102  28.189  26.898  1.00  0.00     0.031 C 
ATOM     64  C   UNL A   1      48.594  27.367  32.892  1.00  0.00     0.029 A 
ATOM     65  C   UNL A   1      48.392  27.290  31.523  1.00  0.00     0.049 A 
ATOM     66  H   UNL A   1      46.951  26.178  30.454  1.00  0.00     0.167 HD
ATOM     67  C   UNL A   1      48.864  27.800  29.145  1.00  0.00     0.074 A 
ATOM     68  C   UNL A   1      49.600  28.470  28.093  1.00  0.00     0.031 C 
ATOM     69  C   UNL A   1      49.116  27.953  30.468  1.00  0.00     0.037 A 
BRANCH  56  70
ATOM     70  C   UNL A   1      45.333  24.706  34.123  1.00  0.00     0.057 A 
ATOM     71  C   UNL A   1      45.820  23.562  34.771  1.00  0.00     0.134 A 
ATOM     72  C   UNL A   1      44.458  25.529  34.843  1.00  0.00     0.134 A 
ATOM     73  F   UNL A   1      46.652  22.722  34.136  1.00  0.00    -0.206 F 
ATOM     74  C   UNL A   1      45.430  23.237  36.072  1.00  0.00     0.040 A 
ATOM     75  C   UNL A   1      44.085  25.231  36.154  1.00  0.00     0.040 A 
ATOM     76  F   UNL A   1      43.957  26.643  34.287  1.00  0.00    -0.206 F 
ATOM     77  C   UNL A   1      44.565  24.077  36.770  1.00  0.00     0.006 A 
ENDBRANCH  56  70
BRANCH  57  78
ATOM     78  C   UNL A   1      47.636  26.980  24.679  1.00  0.00     0.057 A 
ATOM     79  C   UNL A   1      48.768  26.457  24.043  1.00  0.00     0.134 A 
ATOM     80  C   UNL A   1      46.851  27.885  23.954  1.00  0.00     0.134 A 
ATOM     81  F   UNL A   1      49.573  25.603  24.692  1.00  0.00    -0.206 F 
ATOM     82  C   UNL A   1      49.121  26.838  22.748  1.00  0.00     0.040 A 
ATOM     83  C   UNL A   1      47.175  28.252  22.647  1.00  0.00     0.040 A 
ATOM     84  F   UNL A   1      45.751  28.421  24.504  1.00  0.00    -0.206 F 
ATOM     85  C   UNL A   1      48.320  27.736  22.044  1.00  0.00     0.006 A 
ENDBRANCH  57  78
BRANCH  69  86
ATOM     86  C   UNL A   1      50.257  28.856  30.850  1.00  0.00     0.057 A 
ATOM     87  C   UNL A   1      50.069  30.218  31.121  1.00  0.00     0.134 A 
ATOM     88  C   UNL A   1      51.560  28.351  30.963  1.00  0.00     0.134 A 
ATOM     89  F   UNL A   1      48.850  30.770  31.022  1.00  0.00    -0.206 F 
ATOM     90  C   UNL A   1      51.140  31.052  31.451  1.00  0.00     0.040 A 
ATOM     91  C   UNL A   1      52.632  29.168  31.325  1.00  0.00     0.040 A 
ATOM     92  F   UNL A   1      51.811  27.054  30.730  1.00  0.00    -0.206 F 
ATOM     93  C   UNL A   1      52.426  30.525  31.559  1.00  0.00     0.006 A 
ENDBRANCH  69  86
ENDBRANCH  43  44
ENDBRANCH  36  38
ENDBRANCH  35  36
ENDBRANCH  34  35
ENDBRANCH  33  34
ENDBRANCH  32  33
ENDBRANCH   1  32
TORSDOF 17
ENDMDL
