MODEL 1
REMARK VINA RESULT:     -10.5      0.000      0.000
REMARK SMILES C[C@@H]1C[N@@H+](CC(C)(C)C(=O)OCCOCCOC(=O)c2ccc(-c3c4nc(c(-c5c(F)cccc5F)c5ccc([nH]5)c(-c5c(F)cccc5F)c5nc(c(-c6c(F)cccc6F)c6ccc3[nH]6)C=C5)C=C4)cc2)CC[C@@H]1[NH3+]
REMARK SMILES IDX 13 1 12 2 11 3 9 4 10 5 6 6 7 7 8 8 5 9 4 10 1 11 2 12 3 13
REMARK SMILES IDX 76 14 75 15 74 16 77 18 14 22 15 23 16 24 17 25 18 26 19 27
REMARK SMILES IDX 20 28 21 29 73 30 22 31 72 32 23 33 24 34 25 35 66 36 26 37
REMARK SMILES IDX 71 38 65 39 67 40 27 41 70 42 64 43 63 44 28 46 54 47 37 48
REMARK SMILES IDX 53 49 38 50 41 51 52 52 68 53 39 54 40 55 51 57 69 58 42 59
REMARK SMILES IDX 29 60 30 61 35 62 31 63 32 64 34 65 36 66 33 67 55 68 56 69
REMARK SMILES IDX 61 70 57 71 58 72 60 73 62 74 59 75 43 76 44 77 49 78 45 79
REMARK SMILES IDX 46 80 48 81 50 82 47 83
REMARK H PARENT 4 17 77 19 77 20 77 21 67 45 41 56
REMARK Flexibility Score: inf
ROOT
ATOM      1  C   UNL A   1      40.697  20.823  26.597  1.00  0.00     0.202 C 
ENDROOT
BRANCH   1   2
ATOM      2  C   UNL A   1      39.690  21.989  26.413  1.00  0.00     0.261 C 
BRANCH   2   3
ATOM      3  O   UNL A   1      38.418  21.677  25.820  1.00  0.00    -0.463 OA
BRANCH   3   4
ATOM      4  C   UNL A   1      37.669  22.808  25.732  1.00  0.00     0.317 C 
ATOM      5  O   UNL A   1      38.155  23.865  26.098  1.00  0.00    -0.251 OA
BRANCH   4   6
ATOM      6  C   UNL A   1      36.259  22.642  25.156  1.00  0.00     0.111 C 
ATOM      7  C   UNL A   1      36.354  22.653  23.628  1.00  0.00     0.029 C 
ATOM      8  C   UNL A   1      35.395  23.865  25.569  1.00  0.00     0.029 C 
BRANCH   6   9
ATOM      9  C   UNL A   1      35.525  21.346  25.726  1.00  0.00     0.280 C 
BRANCH   9  10
ATOM     10  N   UNL A   1      34.833  20.274  24.950  1.00  0.00    -0.333 N 
ATOM     11  C   UNL A   1      32.285  19.484  23.109  1.00  0.00     0.020 C 
ATOM     12  C   UNL A   1      32.570  19.105  24.558  1.00  0.00     0.099 C 
ATOM     13  C   UNL A   1      33.409  20.155  25.283  1.00  0.00     0.271 C 
ATOM     14  C   UNL A   1      33.298  17.770  24.782  1.00  0.00     0.194 C 
ATOM     15  C   UNL A   1      34.727  17.861  24.240  1.00  0.00     0.126 C 
ATOM     16  C   UNL A   1      35.513  18.980  24.950  1.00  0.00     0.268 C 
ATOM     17  H   UNL A   1      34.886  20.597  23.984  1.00  0.00     0.348 HD
BRANCH  14  18
ATOM     18  N   UNL A   1      32.539  16.642  24.244  1.00  0.00    -0.355 N 
ATOM     19  H   UNL A   1      32.844  16.453  23.289  1.00  0.00     0.344 HD
ATOM     20  H   UNL A   1      31.545  16.869  24.246  1.00  0.00     0.344 HD
ATOM     21  H   UNL A   1      32.702  15.818  24.823  1.00  0.00     0.344 HD
ENDBRANCH  14  18
ENDBRANCH   9  10
ENDBRANCH   6   9
ENDBRANCH   4   6
ENDBRANCH   3   4
ENDBRANCH   2   3
ENDBRANCH   1   2
BRANCH   1  22
ATOM     22  O   UNL A   1      41.820  20.607  25.753  1.00  0.00    -0.374 OA
BRANCH  22  23
ATOM     23  C   UNL A   1      43.107  21.112  26.085  1.00  0.00     0.202 C 
BRANCH  23  24
ATOM     24  C   UNL A   1      43.793  22.136  25.179  1.00  0.00     0.261 C 
BRANCH  24  25
ATOM     25  O   UNL A   1      43.012  23.323  24.991  1.00  0.00    -0.460 OA
BRANCH  25  26
ATOM     26  C   UNL A   1      43.708  24.469  25.187  1.00  0.00     0.338 C 
ATOM     27  O   UNL A   1      44.719  24.834  24.615  1.00  0.00    -0.246 OA
BRANCH  26  28
ATOM     28  C   UNL A   1      42.935  25.371  26.057  1.00  0.00     0.060 A 
ATOM     29  C   UNL A   1      43.366  26.703  26.136  1.00  0.00     0.016 A 
ATOM     30  C   UNL A   1      41.876  24.909  26.836  1.00  0.00     0.016 A 
ATOM     31  C   UNL A   1      42.781  27.567  27.046  1.00  0.00     0.010 A 
ATOM     32  C   UNL A   1      41.307  25.771  27.776  1.00  0.00     0.010 A 
ATOM     33  C   UNL A   1      41.799  27.082  27.917  1.00  0.00    -0.014 A 
BRANCH  33  34
ATOM     34  C   UNL A   1      41.493  27.884  29.119  1.00  0.00     0.031 A 
ATOM     35  C   UNL A   1      40.290  28.785  29.083  1.00  0.00     0.074 A 
ATOM     36  C   UNL A   1      42.208  27.729  30.245  1.00  0.00     0.049 A 
ATOM     37  N   UNL A   1      39.798  29.550  30.021  1.00  0.00    -0.248 NA
ATOM     38  C   UNL A   1      39.537  28.823  27.817  1.00  0.00     0.031 C 
ATOM     39  C   UNL A   1      43.352  26.835  30.404  1.00  0.00     0.029 A 
ATOM     40  N   UNL A   1      42.061  28.318  31.473  1.00  0.00    -0.354 N 
ATOM     41  C   UNL A   1      38.685  30.163  29.459  1.00  0.00     0.074 A 
ATOM     42  C   UNL A   1      38.594  29.711  28.089  1.00  0.00     0.031 C 
ATOM     43  C   UNL A   1      43.809  26.936  31.665  1.00  0.00     0.029 A 
ATOM     44  C   UNL A   1      43.005  27.921  32.385  1.00  0.00     0.049 A 
ATOM     45  H   UNL A   1      41.348  28.964  31.680  1.00  0.00     0.167 HD
ATOM     46  C   UNL A   1      37.809  31.017  30.039  1.00  0.00     0.037 A 
ATOM     47  C   UNL A   1      43.199  28.322  33.656  1.00  0.00     0.037 A 
ATOM     48  C   UNL A   1      37.907  31.458  31.404  1.00  0.00     0.049 A 
ATOM     49  C   UNL A   1      42.252  29.328  34.255  1.00  0.00     0.074 A 
ATOM     50  C   UNL A   1      37.074  32.321  32.094  1.00  0.00     0.029 A 
ATOM     51  N   UNL A   1      38.906  31.072  32.286  1.00  0.00    -0.354 N 
ATOM     52  N   UNL A   1      41.197  29.896  33.721  1.00  0.00    -0.248 NA
ATOM     53  C   UNL A   1      42.520  29.739  35.640  1.00  0.00     0.031 C 
ATOM     54  C   UNL A   1      37.600  32.498  33.379  1.00  0.00     0.029 A 
ATOM     55  C   UNL A   1      38.724  31.697  33.509  1.00  0.00     0.049 A 
ATOM     56  H   UNL A   1      39.636  30.446  32.075  1.00  0.00     0.167 HD
ATOM     57  C   UNL A   1      40.657  30.706  34.713  1.00  0.00     0.074 A 
ATOM     58  C   UNL A   1      41.493  30.540  35.884  1.00  0.00     0.031 C 
ATOM     59  C   UNL A   1      39.567  31.514  34.663  1.00  0.00     0.037 A 
BRANCH  46  60
ATOM     60  C   UNL A   1      36.696  31.551  29.185  1.00  0.00     0.057 A 
ATOM     61  C   UNL A   1      35.599  30.762  28.812  1.00  0.00     0.134 A 
ATOM     62  C   UNL A   1      36.717  32.878  28.740  1.00  0.00     0.134 A 
ATOM     63  F   UNL A   1      35.527  29.477  29.186  1.00  0.00    -0.206 F 
ATOM     64  C   UNL A   1      34.575  31.270  28.009  1.00  0.00     0.040 A 
ATOM     65  C   UNL A   1      35.685  33.405  27.961  1.00  0.00     0.040 A 
ATOM     66  F   UNL A   1      37.738  33.688  29.059  1.00  0.00    -0.206 F 
ATOM     67  C   UNL A   1      34.614  32.598  27.588  1.00  0.00     0.006 A 
ENDBRANCH  46  60
BRANCH  47  68
ATOM     68  C   UNL A   1      44.335  27.780  34.442  1.00  0.00     0.057 A 
ATOM     69  C   UNL A   1      45.568  28.440  34.489  1.00  0.00     0.134 A 
ATOM     70  C   UNL A   1      44.222  26.576  35.146  1.00  0.00     0.134 A 
ATOM     71  F   UNL A   1      45.747  29.588  33.819  1.00  0.00    -0.206 F 
ATOM     72  C   UNL A   1      46.654  27.911  35.189  1.00  0.00     0.040 A 
ATOM     73  C   UNL A   1      45.289  26.049  35.873  1.00  0.00     0.040 A 
ATOM     74  F   UNL A   1      43.064  25.896  35.144  1.00  0.00    -0.206 F 
ATOM     75  C   UNL A   1      46.514  26.712  35.887  1.00  0.00     0.006 A 
ENDBRANCH  47  68
BRANCH  59  76
ATOM     76  C   UNL A   1      39.198  32.240  35.925  1.00  0.00     0.057 A 
ATOM     77  C   UNL A   1      39.697  33.514  36.224  1.00  0.00     0.134 A 
ATOM     78  C   UNL A   1      38.314  31.661  36.844  1.00  0.00     0.134 A 
ATOM     79  F   UNL A   1      40.556  34.121  35.392  1.00  0.00    -0.206 F 
ATOM     80  C   UNL A   1      39.361  34.169  37.411  1.00  0.00     0.040 A 
ATOM     81  C   UNL A   1      37.944  32.319  38.017  1.00  0.00     0.040 A 
ATOM     82  F   UNL A   1      37.787  30.448  36.613  1.00  0.00    -0.206 F 
ATOM     83  C   UNL A   1      38.476  33.573  38.308  1.00  0.00     0.006 A 
ENDBRANCH  59  76
ENDBRANCH  33  34
ENDBRANCH  26  28
ENDBRANCH  25  26
ENDBRANCH  24  25
ENDBRANCH  23  24
ENDBRANCH  22  23
ENDBRANCH   1  22
TORSDOF 17
ENDMDL
MODEL 2
REMARK VINA RESULT:     -10.3      1.482      6.731
REMARK SMILES C[C@@H]1C[N@@H+](CC(C)(C)C(=O)OCCOCCOC(=O)c2ccc(-c3c4nc(c(-c5c(F)cccc5F)c5ccc([nH]5)c(-c5c(F)cccc5F)c5nc(c(-c6c(F)cccc6F)c6ccc3[nH]6)C=C5)C=C4)cc2)CC[C@@H]1[NH3+]
REMARK SMILES IDX 13 1 12 2 11 3 9 4 10 5 6 6 7 7 8 8 5 9 4 10 1 11 2 12 3 13
REMARK SMILES IDX 76 14 75 15 74 16 77 18 14 22 15 23 16 24 17 25 18 26 19 27
REMARK SMILES IDX 20 28 21 29 73 30 22 31 72 32 23 33 24 34 25 35 66 36 26 37
REMARK SMILES IDX 71 38 65 39 67 40 27 41 70 42 64 43 63 44 28 46 54 47 37 48
REMARK SMILES IDX 53 49 38 50 41 51 52 52 68 53 39 54 40 55 51 57 69 58 42 59
REMARK SMILES IDX 29 60 30 61 35 62 31 63 32 64 34 65 36 66 33 67 55 68 56 69
REMARK SMILES IDX 61 70 57 71 58 72 60 73 62 74 59 75 43 76 44 77 49 78 45 79
REMARK SMILES IDX 46 80 48 81 50 82 47 83
REMARK H PARENT 4 17 77 19 77 20 77 21 67 45 41 56
REMARK Flexibility Score: inf
ROOT
ATOM      1  C   UNL A   1      40.558  21.159  26.620  1.00  0.00     0.202 C 
ENDROOT
BRANCH   1   2
ATOM      2  C   UNL A   1      39.348  22.121  26.479  1.00  0.00     0.261 C 
BRANCH   2   3
ATOM      3  O   UNL A   1      38.300  21.736  25.574  1.00  0.00    -0.463 OA
BRANCH   3   4
ATOM      4  C   UNL A   1      37.364  22.720  25.519  1.00  0.00     0.317 C 
ATOM      5  O   UNL A   1      37.701  23.867  25.762  1.00  0.00    -0.251 OA
BRANCH   4   6
ATOM      6  C   UNL A   1      35.945  22.284  25.139  1.00  0.00     0.111 C 
ATOM      7  C   UNL A   1      35.924  20.757  25.016  1.00  0.00     0.029 C 
ATOM      8  C   UNL A   1      35.596  22.859  23.739  1.00  0.00     0.029 C 
BRANCH   6   9
ATOM      9  C   UNL A   1      34.850  22.844  26.153  1.00  0.00     0.280 C 
BRANCH   9  10
ATOM     10  N   UNL A   1      33.431  23.203  25.857  1.00  0.00    -0.333 N 
ATOM     11  C   UNL A   1      31.411  25.011  24.080  1.00  0.00     0.020 C 
ATOM     12  C   UNL A   1      31.789  25.165  25.549  1.00  0.00     0.099 C 
ATOM     13  C   UNL A   1      33.195  24.651  25.848  1.00  0.00     0.271 C 
ATOM     14  C   UNL A   1      30.871  24.468  26.565  1.00  0.00     0.194 C 
ATOM     15  C   UNL A   1      30.989  22.948  26.414  1.00  0.00     0.126 C 
ATOM     16  C   UNL A   1      32.438  22.484  26.655  1.00  0.00     0.268 C 
ATOM     17  H   UNL A   1      33.288  22.872  24.903  1.00  0.00     0.348 HD
BRANCH  14  18
ATOM     18  N   UNL A   1      29.497  24.959  26.481  1.00  0.00    -0.355 N 
ATOM     19  H   UNL A   1      28.897  24.393  27.082  1.00  0.00     0.344 HD
ATOM     20  H   UNL A   1      29.171  24.894  25.517  1.00  0.00     0.344 HD
ATOM     21  H   UNL A   1      29.465  25.931  26.786  1.00  0.00     0.344 HD
ENDBRANCH  14  18
ENDBRANCH   9  10
ENDBRANCH   6   9
ENDBRANCH   4   6
ENDBRANCH   3   4
ENDBRANCH   2   3
ENDBRANCH   1   2
BRANCH   1  22
ATOM     22  O   UNL A   1      41.606  21.063  25.665  1.00  0.00    -0.374 OA
BRANCH  22  23
ATOM     23  C   UNL A   1      42.967  20.955  26.064  1.00  0.00     0.202 C 
BRANCH  23  24
ATOM     24  C   UNL A   1      44.002  21.963  25.561  1.00  0.00     0.261 C 
BRANCH  24  25
ATOM     25  O   UNL A   1      43.409  23.078  24.884  1.00  0.00    -0.460 OA
BRANCH  25  26
ATOM     26  C   UNL A   1      44.061  24.248  25.088  1.00  0.00     0.338 C 
ATOM     27  O   UNL A   1      45.101  24.620  24.575  1.00  0.00    -0.246 OA
BRANCH  26  28
ATOM     28  C   UNL A   1      43.208  25.158  25.868  1.00  0.00     0.060 A 
ATOM     29  C   UNL A   1      43.720  26.435  26.140  1.00  0.00     0.016 A 
ATOM     30  C   UNL A   1      41.984  24.746  26.392  1.00  0.00     0.016 A 
ATOM     31  C   UNL A   1      43.039  27.287  26.994  1.00  0.00     0.010 A 
ATOM     32  C   UNL A   1      41.313  25.593  27.278  1.00  0.00     0.010 A 
ATOM     33  C   UNL A   1      41.870  26.839  27.619  1.00  0.00    -0.014 A 
BRANCH  33  34
ATOM     34  C   UNL A   1      41.400  27.583  28.805  1.00  0.00     0.031 A 
ATOM     35  C   UNL A   1      42.169  27.429  30.088  1.00  0.00     0.074 A 
ATOM     36  C   UNL A   1      40.382  28.453  28.709  1.00  0.00     0.049 A 
ATOM     37  N   UNL A   1      41.977  28.007  31.245  1.00  0.00    -0.248 NA
ATOM     38  C   UNL A   1      43.314  26.501  30.060  1.00  0.00     0.031 C 
ATOM     39  C   UNL A   1      39.613  28.723  27.497  1.00  0.00     0.029 A 
ATOM     40  N   UNL A   1      39.832  29.277  29.654  1.00  0.00    -0.354 N 
ATOM     41  C   UNL A   1      42.970  27.509  32.080  1.00  0.00     0.074 A 
ATOM     42  C   UNL A   1      43.739  26.557  31.312  1.00  0.00     0.031 C 
ATOM     43  C   UNL A   1      38.682  29.654  27.774  1.00  0.00     0.029 A 
ATOM     44  C   UNL A   1      38.778  30.018  29.186  1.00  0.00     0.049 A 
ATOM     45  H   UNL A   1      40.161  29.332  30.581  1.00  0.00     0.167 HD
ATOM     46  C   UNL A   1      43.225  27.829  33.371  1.00  0.00     0.037 A 
ATOM     47  C   UNL A   1      37.975  30.884  29.834  1.00  0.00     0.037 A 
ATOM     48  C   UNL A   1      42.454  28.780  34.126  1.00  0.00     0.049 A 
ATOM     49  C   UNL A   1      38.236  31.168  31.290  1.00  0.00     0.074 A 
ATOM     50  C   UNL A   1      42.625  29.181  35.439  1.00  0.00     0.029 A 
ATOM     51  N   UNL A   1      41.362  29.478  33.632  1.00  0.00    -0.354 N 
ATOM     52  N   UNL A   1      39.181  30.701  32.071  1.00  0.00    -0.248 NA
ATOM     53  C   UNL A   1      37.322  32.109  31.950  1.00  0.00     0.031 C 
ATOM     54  C   UNL A   1      41.602  30.081  35.756  1.00  0.00     0.029 A 
ATOM     55  C   UNL A   1      40.832  30.289  34.622  1.00  0.00     0.049 A 
ATOM     56  H   UNL A   1      41.013  29.407  32.713  1.00  0.00     0.167 HD
ATOM     57  C   UNL A   1      38.995  31.316  33.304  1.00  0.00     0.074 A 
ATOM     58  C   UNL A   1      37.857  32.201  33.158  1.00  0.00     0.031 C 
ATOM     59  C   UNL A   1      39.701  31.166  34.453  1.00  0.00     0.037 A 
BRANCH  46  60
ATOM     60  C   UNL A   1      44.358  27.116  34.049  1.00  0.00     0.057 A 
ATOM     61  C   UNL A   1      45.658  27.642  34.079  1.00  0.00     0.134 A 
ATOM     62  C   UNL A   1      44.144  25.891  34.692  1.00  0.00     0.134 A 
ATOM     63  F   UNL A   1      45.937  28.801  33.465  1.00  0.00    -0.206 F 
ATOM     64  C   UNL A   1      46.706  26.963  34.705  1.00  0.00     0.040 A 
ATOM     65  C   UNL A   1      45.177  25.217  35.347  1.00  0.00     0.040 A 
ATOM     66  F   UNL A   1      42.925  25.330  34.700  1.00  0.00    -0.206 F 
ATOM     67  C   UNL A   1      46.464  25.750  35.348  1.00  0.00     0.006 A 
ENDBRANCH  46  60
BRANCH  47  68
ATOM     68  C   UNL A   1      36.851  31.536  29.118  1.00  0.00     0.057 A 
ATOM     69  C   UNL A   1      35.675  30.838  28.819  1.00  0.00     0.134 A 
ATOM     70  C   UNL A   1      36.936  32.867  28.694  1.00  0.00     0.134 A 
ATOM     71  F   UNL A   1      35.541  29.554  29.181  1.00  0.00    -0.206 F 
ATOM     72  C   UNL A   1      34.633  31.434  28.105  1.00  0.00     0.040 A 
ATOM     73  C   UNL A   1      35.892  33.484  28.004  1.00  0.00     0.040 A 
ATOM     74  F   UNL A   1      38.035  33.592  28.952  1.00  0.00    -0.206 F 
ATOM     75  C   UNL A   1      34.739  32.763  27.699  1.00  0.00     0.006 A 
ENDBRANCH  47  68
BRANCH  59  76
ATOM     76  C   UNL A   1      39.286  32.010  35.624  1.00  0.00     0.057 A 
ATOM     77  C   UNL A   1      39.812  33.289  35.843  1.00  0.00     0.134 A 
ATOM     78  C   UNL A   1      38.330  31.540  36.534  1.00  0.00     0.134 A 
ATOM     79  F   UNL A   1      40.738  33.795  35.015  1.00  0.00    -0.206 F 
ATOM     80  C   UNL A   1      39.432  34.055  36.947  1.00  0.00     0.040 A 
ATOM     81  C   UNL A   1      37.917  32.309  37.623  1.00  0.00     0.040 A 
ATOM     82  F   UNL A   1      37.775  30.329  36.376  1.00  0.00    -0.206 F 
ATOM     83  C   UNL A   1      38.477  33.566  37.837  1.00  0.00     0.006 A 
ENDBRANCH  59  76
ENDBRANCH  33  34
ENDBRANCH  26  28
ENDBRANCH  25  26
ENDBRANCH  24  25
ENDBRANCH  23  24
ENDBRANCH  22  23
ENDBRANCH   1  22
TORSDOF 17
ENDMDL
MODEL 3
REMARK VINA RESULT:     -10.0      3.459      5.777
REMARK SMILES C[C@@H]1C[N@@H+](CC(C)(C)C(=O)OCCOCCOC(=O)c2ccc(-c3c4nc(c(-c5c(F)cccc5F)c5ccc([nH]5)c(-c5c(F)cccc5F)c5nc(c(-c6c(F)cccc6F)c6ccc3[nH]6)C=C5)C=C4)cc2)CC[C@@H]1[NH3+]
REMARK SMILES IDX 13 1 12 2 11 3 9 4 10 5 6 6 7 7 8 8 5 9 4 10 1 11 2 12 3 13
REMARK SMILES IDX 76 14 75 15 74 16 77 18 14 22 15 23 16 24 17 25 18 26 19 27
REMARK SMILES IDX 20 28 21 29 73 30 22 31 72 32 23 33 24 34 25 35 66 36 26 37
REMARK SMILES IDX 71 38 65 39 67 40 27 41 70 42 64 43 63 44 28 46 54 47 37 48
REMARK SMILES IDX 53 49 38 50 41 51 52 52 68 53 39 54 40 55 51 57 69 58 42 59
REMARK SMILES IDX 29 60 30 61 35 62 31 63 32 64 34 65 36 66 33 67 55 68 56 69
REMARK SMILES IDX 61 70 57 71 58 72 60 73 62 74 59 75 43 76 44 77 49 78 45 79
REMARK SMILES IDX 46 80 48 81 50 82 47 83
REMARK H PARENT 4 17 77 19 77 20 77 21 67 45 41 56
REMARK Flexibility Score: inf
ROOT
ATOM      1  C   UNL A   1      41.924  19.833  27.385  1.00  0.00     0.202 C 
ENDROOT
BRANCH   1   2
ATOM      2  C   UNL A   1      42.047  18.836  26.203  1.00  0.00     0.261 C 
BRANCH   2   3
ATOM      3  O   UNL A   1      42.766  19.276  25.039  1.00  0.00    -0.463 OA
BRANCH   3   4
ATOM      4  C   UNL A   1      44.062  18.871  25.127  1.00  0.00     0.317 C 
ATOM      5  O   UNL A   1      44.330  17.906  25.822  1.00  0.00    -0.251 OA
BRANCH   4   6
ATOM      6  C   UNL A   1      45.079  19.681  24.316  1.00  0.00     0.111 C 
ATOM      7  C   UNL A   1      45.175  19.073  22.913  1.00  0.00     0.029 C 
ATOM      8  C   UNL A   1      46.480  19.537  24.972  1.00  0.00     0.029 C 
BRANCH   6   9
ATOM      9  C   UNL A   1      44.735  21.237  24.301  1.00  0.00     0.280 C 
BRANCH   9  10
ATOM     10  N   UNL A   1      45.385  22.323  25.093  1.00  0.00    -0.333 N 
ATOM     11  C   UNL A   1      45.750  23.700  28.005  1.00  0.00     0.020 C 
ATOM     12  C   UNL A   1      44.963  24.206  26.802  1.00  0.00     0.099 C 
ATOM     13  C   UNL A   1      44.437  23.070  25.927  1.00  0.00     0.271 C 
ATOM     14  C   UNL A   1      45.710  25.148  25.846  1.00  0.00     0.194 C 
ATOM     15  C   UNL A   1      46.830  24.385  25.134  1.00  0.00     0.126 C 
ATOM     16  C   UNL A   1      46.260  23.205  24.322  1.00  0.00     0.268 C 
ATOM     17  H   UNL A   1      46.010  21.824  25.727  1.00  0.00     0.348 HD
BRANCH  14  18
ATOM     18  N   UNL A   1      46.169  26.358  26.526  1.00  0.00    -0.355 N 
ATOM     19  H   UNL A   1      47.174  26.295  26.690  1.00  0.00     0.344 HD
ATOM     20  H   UNL A   1      45.684  26.452  27.418  1.00  0.00     0.344 HD
ATOM     21  H   UNL A   1      45.971  27.171  25.943  1.00  0.00     0.344 HD
ENDBRANCH  14  18
ENDBRANCH   9  10
ENDBRANCH   6   9
ENDBRANCH   4   6
ENDBRANCH   3   4
ENDBRANCH   2   3
ENDBRANCH   1   2
BRANCH   1  22
ATOM     22  O   UNL A   1      40.785  20.652  27.613  1.00  0.00    -0.374 OA
BRANCH  22  23
ATOM     23  C   UNL A   1      40.104  21.293  26.543  1.00  0.00     0.202 C 
BRANCH  23  24
ATOM     24  C   UNL A   1      39.797  22.791  26.607  1.00  0.00     0.261 C 
BRANCH  24  25
ATOM     25  O   UNL A   1      40.756  23.521  27.383  1.00  0.00    -0.460 OA
BRANCH  25  26
ATOM     26  C   UNL A   1      41.160  24.676  26.801  1.00  0.00     0.338 C 
ATOM     27  O   UNL A   1      41.667  24.820  25.704  1.00  0.00    -0.246 OA
BRANCH  26  28
ATOM     28  C   UNL A   1      40.685  25.820  27.596  1.00  0.00     0.060 A 
ATOM     29  C   UNL A   1      41.389  27.025  27.463  1.00  0.00     0.016 A 
ATOM     30  C   UNL A   1      39.639  25.694  28.509  1.00  0.00     0.016 A 
ATOM     31  C   UNL A   1      41.092  28.096  28.289  1.00  0.00     0.010 A 
ATOM     32  C   UNL A   1      39.361  26.763  29.364  1.00  0.00     0.010 A 
ATOM     33  C   UNL A   1      40.125  27.942  29.289  1.00  0.00    -0.014 A 
BRANCH  33  34
ATOM     34  C   UNL A   1      40.118  28.924  30.391  1.00  0.00     0.031 A 
ATOM     35  C   UNL A   1      39.099  30.029  30.350  1.00  0.00     0.074 A 
ATOM     36  C   UNL A   1      40.928  28.771  31.451  1.00  0.00     0.049 A 
ATOM     37  N   UNL A   1      38.870  30.980  31.216  1.00  0.00    -0.248 NA
ATOM     38  C   UNL A   1      38.213  30.060  29.172  1.00  0.00     0.031 C 
ATOM     39  C   UNL A   1      41.906  27.699  31.619  1.00  0.00     0.029 A 
ATOM     40  N   UNL A   1      41.041  29.519  32.593  1.00  0.00    -0.354 N 
ATOM     41  C   UNL A   1      37.821  31.723  30.686  1.00  0.00     0.074 A 
ATOM     42  C   UNL A   1      37.483  31.138  29.409  1.00  0.00     0.031 C 
ATOM     43  C   UNL A   1      42.526  27.860  32.802  1.00  0.00     0.029 A 
ATOM     44  C   UNL A   1      42.004  29.059  33.454  1.00  0.00     0.049 A 
ATOM     45  H   UNL A   1      40.484  30.310  32.778  1.00  0.00     0.167 HD
ATOM     46  C   UNL A   1      37.189  32.793  31.226  1.00  0.00     0.037 A 
ATOM     47  C   UNL A   1      42.423  29.564  34.629  1.00  0.00     0.037 A 
ATOM     48  C   UNL A   1      37.533  33.366  32.499  1.00  0.00     0.049 A 
ATOM     49  C   UNL A   1      41.751  30.797  35.173  1.00  0.00     0.074 A 
ATOM     50  C   UNL A   1      36.957  34.448  33.141  1.00  0.00     0.029 A 
ATOM     51  N   UNL A   1      38.548  32.904  33.323  1.00  0.00    -0.354 N 
ATOM     52  N   UNL A   1      40.755  31.489  34.673  1.00  0.00    -0.248 NA
ATOM     53  C   UNL A   1      42.256  31.312  36.453  1.00  0.00     0.031 C 
ATOM     54  C   UNL A   1      37.661  34.673  34.329  1.00  0.00     0.029 A 
ATOM     55  C   UNL A   1      38.633  33.693  34.458  1.00  0.00     0.049 A 
ATOM     56  H   UNL A   1      39.124  32.128  33.130  1.00  0.00     0.167 HD
ATOM     57  C   UNL A   1      40.494  32.500  35.590  1.00  0.00     0.074 A 
ATOM     58  C   UNL A   1      41.426  32.318  36.684  1.00  0.00     0.031 C 
ATOM     59  C   UNL A   1      39.567  33.490  35.536  1.00  0.00     0.037 A 
BRANCH  46  60
ATOM     60  C   UNL A   1      36.092  33.425  30.420  1.00  0.00     0.057 A 
ATOM     61  C   UNL A   1      36.356  34.237  29.308  1.00  0.00     0.134 A 
ATOM     62  C   UNL A   1      34.750  33.207  30.754  1.00  0.00     0.134 A 
ATOM     63  F   UNL A   1      37.620  34.504  28.946  1.00  0.00    -0.206 F 
ATOM     64  C   UNL A   1      35.326  34.827  28.573  1.00  0.00     0.040 A 
ATOM     65  C   UNL A   1      33.710  33.768  30.010  1.00  0.00     0.040 A 
ATOM     66  F   UNL A   1      34.426  32.442  31.807  1.00  0.00    -0.206 F 
ATOM     67  C   UNL A   1      33.998  34.586  28.920  1.00  0.00     0.006 A 
ENDBRANCH  46  60
BRANCH  47  68
ATOM     68  C   UNL A   1      43.534  28.912  35.366  1.00  0.00     0.057 A 
ATOM     69  C   UNL A   1      43.288  27.970  36.371  1.00  0.00     0.134 A 
ATOM     70  C   UNL A   1      44.870  29.235  35.099  1.00  0.00     0.134 A 
ATOM     71  F   UNL A   1      42.029  27.633  36.687  1.00  0.00    -0.206 F 
ATOM     72  C   UNL A   1      44.328  27.389  37.098  1.00  0.00     0.040 A 
ATOM     73  C   UNL A   1      45.920  28.642  35.798  1.00  0.00     0.040 A 
ATOM     74  F   UNL A   1      45.173  30.129  34.145  1.00  0.00    -0.206 F 
ATOM     75  C   UNL A   1      45.650  27.722  36.809  1.00  0.00     0.006 A 
ENDBRANCH  47  68
BRANCH  59  76
ATOM     76  C   UNL A   1      39.491  34.419  36.715  1.00  0.00     0.057 A 
ATOM     77  C   UNL A   1      38.797  34.082  37.884  1.00  0.00     0.134 A 
ATOM     78  C   UNL A   1      40.139  35.660  36.682  1.00  0.00     0.134 A 
ATOM     79  F   UNL A   1      38.146  32.913  37.977  1.00  0.00    -0.206 F 
ATOM     80  C   UNL A   1      38.718  34.964  38.964  1.00  0.00     0.040 A 
ATOM     81  C   UNL A   1      40.096  36.536  37.768  1.00  0.00     0.040 A 
ATOM     82  F   UNL A   1      40.833  36.039  35.599  1.00  0.00    -0.206 F 
ATOM     83  C   UNL A   1      39.374  36.193  38.909  1.00  0.00     0.006 A 
ENDBRANCH  59  76
ENDBRANCH  33  34
ENDBRANCH  26  28
ENDBRANCH  25  26
ENDBRANCH  24  25
ENDBRANCH  23  24
ENDBRANCH  22  23
ENDBRANCH   1  22
TORSDOF 17
ENDMDL
