MODEL 1
REMARK VINA RESULT:     -11.6      0.000      0.000
REMARK SMILES Cc1ccc(C(=O)Nc2ccc(C(=O)OCCOCCOC(=O)c3ccc(-c4c5nc(c(-c6c(F)cccc6F)c6ccc([nH]6)c(-c6c(F)cccc6F)c6nc(c(-c7c(F)cccc7F)c7ccc4[nH]7)C=C6)C=C5)cc3)c(Cl)c2)cc1C
REMARK SMILES IDX 18 1 17 2 16 3 15 4 13 5 14 6 12 7 9 8 10 9 80 10 11 11
REMARK SMILES IDX 78 12 79 13 8 14 6 15 7 16 5 18 1 19 2 20 3 21 82 22 4 23
REMARK SMILES IDX 81 24 83 25 19 26 20 27 21 28 22 29 23 30 24 31 25 32 77 33
REMARK SMILES IDX 26 34 76 35 27 36 28 37 29 38 70 39 30 40 75 41 69 42 71 43
REMARK SMILES IDX 31 44 74 45 68 46 67 47 32 49 58 50 41 51 57 52 42 53 45 54
REMARK SMILES IDX 56 55 72 56 43 57 44 58 55 60 73 61 46 62 33 63 34 64 39 65
REMARK SMILES IDX 35 66 36 67 38 68 40 69 37 70 59 71 60 72 65 73 61 74 62 75
REMARK SMILES IDX 64 76 66 77 63 78 47 79 48 80 53 81 49 82 50 83 52 84 54 85
REMARK SMILES IDX 51 86
REMARK H PARENT 8 17 71 48 45 59
REMARK Flexibility Score: inf
ROOT
ATOM      1  O   UNL A   1      32.642  30.718  26.716  1.00  0.00    -0.374 OA
ENDROOT
BRANCH   1   2
ATOM      2  C   UNL A   1      32.521  29.653  25.771  1.00  0.00     0.202 C 
BRANCH   2   3
ATOM      3  C   UNL A   1      31.221  29.654  24.966  1.00  0.00     0.261 C 
BRANCH   3   4
ATOM      4  O   UNL A   1      31.370  28.848  23.785  1.00  0.00    -0.460 OA
BRANCH   4   5
ATOM      5  C   UNL A   1      30.319  28.064  23.460  1.00  0.00     0.339 C 
ATOM      6  O   UNL A   1      29.345  28.380  22.792  1.00  0.00    -0.246 OA
BRANCH   5   7
ATOM      7  C   UNL A   1      30.597  26.665  23.844  1.00  0.00     0.078 A 
ATOM      8  C   UNL A   1      30.920  24.021  24.730  1.00  0.00     0.043 A 
ATOM      9  C   UNL A   1      30.439  24.994  25.606  1.00  0.00     0.027 A 
ATOM     10  C   UNL A   1      31.318  24.391  23.440  1.00  0.00     0.047 A 
ATOM     11  C   UNL A   1      30.278  26.310  25.166  1.00  0.00     0.019 A 
ATOM     12  C   UNL A   1      31.134  25.704  22.985  1.00  0.00     0.057 A 
ATOM     13  Cl  UNL A   1      31.609  26.047  21.360  1.00  0.00    -0.083 Cl
BRANCH   8  14
ATOM     14  N   UNL A   1      31.039  22.670  25.084  1.00  0.00    -0.322 N 
ATOM     15  C   UNL A   1      32.133  21.831  25.151  1.00  0.00     0.255 C 
ATOM     16  O   UNL A   1      31.931  20.616  25.156  1.00  0.00    -0.269 OA
ATOM     17  H   UNL A   1      30.187  22.242  25.330  1.00  0.00     0.170 HD
BRANCH  15  18
ATOM     18  C   UNL A   1      33.528  22.332  25.357  1.00  0.00     0.040 A 
ATOM     19  C   UNL A   1      37.593  23.762  25.807  1.00  0.00     0.044 C 
ATOM     20  C   UNL A   1      36.201  23.230  25.611  1.00  0.00    -0.048 A 
ATOM     21  C   UNL A   1      35.389  23.047  26.739  1.00  0.00     0.004 A 
ATOM     22  C   UNL A   1      35.703  22.865  24.349  1.00  0.00    -0.047 A 
ATOM     23  C   UNL A   1      34.086  22.561  26.615  1.00  0.00     0.014 A 
ATOM     24  C   UNL A   1      34.360  22.450  24.233  1.00  0.00     0.017 A 
ATOM     25  C   UNL A   1      36.558  22.819  23.111  1.00  0.00     0.044 C 
ENDBRANCH  15  18
ENDBRANCH   8  14
ENDBRANCH   5   7
ENDBRANCH   4   5
ENDBRANCH   3   4
ENDBRANCH   2   3
ENDBRANCH   1   2
BRANCH   1  26
ATOM     26  C   UNL A   1      31.590  31.686  26.724  1.00  0.00     0.202 C 
BRANCH  26  27
ATOM     27  C   UNL A   1      32.047  33.147  26.797  1.00  0.00     0.261 C 
BRANCH  27  28
ATOM     28  O   UNL A   1      32.179  33.597  28.159  1.00  0.00    -0.460 OA
BRANCH  28  29
ATOM     29  C   UNL A   1      33.232  34.414  28.392  1.00  0.00     0.338 C 
ATOM     30  O   UNL A   1      33.217  35.633  28.485  1.00  0.00    -0.246 OA
BRANCH  29  31
ATOM     31  C   UNL A   1      34.436  33.617  28.695  1.00  0.00     0.060 A 
ATOM     32  C   UNL A   1      34.246  32.367  29.297  1.00  0.00     0.016 A 
ATOM     33  C   UNL A   1      35.726  34.103  28.465  1.00  0.00     0.016 A 
ATOM     34  C   UNL A   1      35.343  31.619  29.715  1.00  0.00     0.010 A 
ATOM     35  C   UNL A   1      36.828  33.352  28.893  1.00  0.00     0.010 A 
ATOM     36  C   UNL A   1      36.640  32.122  29.549  1.00  0.00    -0.014 A 
BRANCH  36  37
ATOM     37  C   UNL A   1      37.782  31.415  30.181  1.00  0.00     0.031 A 
ATOM     38  C   UNL A   1      38.111  31.690  31.622  1.00  0.00     0.074 A 
ATOM     39  C   UNL A   1      38.491  30.505  29.491  1.00  0.00     0.049 A 
ATOM     40  N   UNL A   1      39.052  31.174  32.372  1.00  0.00    -0.248 NA
ATOM     41  C   UNL A   1      37.267  32.679  32.311  1.00  0.00     0.031 C 
ATOM     42  C   UNL A   1      38.256  30.130  28.097  1.00  0.00     0.029 A 
ATOM     43  N   UNL A   1      39.557  29.731  29.874  1.00  0.00    -0.354 N 
ATOM     44  C   UNL A   1      38.914  31.774  33.617  1.00  0.00     0.074 A 
ATOM     45  C   UNL A   1      37.821  32.717  33.513  1.00  0.00     0.031 C 
ATOM     46  C   UNL A   1      39.156  29.198  27.741  1.00  0.00     0.029 A 
ATOM     47  C   UNL A   1      40.043  28.928  28.871  1.00  0.00     0.049 A 
ATOM     48  H   UNL A   1      39.938  29.748  30.782  1.00  0.00     0.167 HD
ATOM     49  C   UNL A   1      39.626  31.552  34.749  1.00  0.00     0.037 A 
ATOM     50  C   UNL A   1      41.091  28.083  28.864  1.00  0.00     0.037 A 
ATOM     51  C   UNL A   1      40.713  30.614  34.854  1.00  0.00     0.049 A 
ATOM     52  C   UNL A   1      41.903  27.895  30.117  1.00  0.00     0.074 A 
ATOM     53  C   UNL A   1      41.478  30.301  35.966  1.00  0.00     0.029 A 
ATOM     54  N   UNL A   1      41.196  29.844  33.808  1.00  0.00    -0.354 N 
ATOM     55  N   UNL A   1      41.741  28.441  31.298  1.00  0.00    -0.248 NA
ATOM     56  C   UNL A   1      43.040  26.967  30.037  1.00  0.00     0.031 C 
ATOM     57  C   UNL A   1      42.453  29.375  35.578  1.00  0.00     0.029 A 
ATOM     58  C   UNL A   1      42.265  29.075  34.240  1.00  0.00     0.049 A 
ATOM     59  H   UNL A   1      40.833  29.843  32.893  1.00  0.00     0.167 HD
ATOM     60  C   UNL A   1      42.738  27.907  32.106  1.00  0.00     0.074 A 
ATOM     61  C   UNL A   1      43.489  26.981  31.284  1.00  0.00     0.031 C 
ATOM     62  C   UNL A   1      43.006  28.159  33.411  1.00  0.00     0.037 A 
BRANCH  49  63
ATOM     63  C   UNL A   1      39.259  32.355  35.962  1.00  0.00     0.057 A 
ATOM     64  C   UNL A   1      39.765  33.644  36.177  1.00  0.00     0.134 A 
ATOM     65  C   UNL A   1      38.369  31.843  36.914  1.00  0.00     0.134 A 
ATOM     66  F   UNL A   1      40.633  34.186  35.309  1.00  0.00    -0.206 F 
ATOM     67  C   UNL A   1      39.416  34.386  37.306  1.00  0.00     0.040 A 
ATOM     68  C   UNL A   1      37.994  32.585  38.035  1.00  0.00     0.040 A 
ATOM     69  F   UNL A   1      37.846  30.617  36.767  1.00  0.00    -0.206 F 
ATOM     70  C   UNL A   1      38.522  33.859  38.236  1.00  0.00     0.006 A 
ENDBRANCH  49  63
BRANCH  50  71
ATOM     71  C   UNL A   1      41.440  27.347  27.623  1.00  0.00     0.057 A 
ATOM     72  C   UNL A   1      42.273  27.914  26.652  1.00  0.00     0.134 A 
ATOM     73  C   UNL A   1      40.933  26.067  27.372  1.00  0.00     0.134 A 
ATOM     74  F   UNL A   1      42.770  29.148  26.825  1.00  0.00    -0.206 F 
ATOM     75  C   UNL A   1      42.577  27.241  25.468  1.00  0.00     0.040 A 
ATOM     76  C   UNL A   1      41.248  25.372  26.203  1.00  0.00     0.040 A 
ATOM     77  F   UNL A   1      40.128  25.470  28.263  1.00  0.00    -0.206 F 
ATOM     78  C   UNL A   1      42.067  25.963  25.243  1.00  0.00     0.006 A 
ENDBRANCH  50  71
BRANCH  62  79
ATOM     79  C   UNL A   1      44.142  27.403  34.036  1.00  0.00     0.057 A 
ATOM     80  C   UNL A   1      45.443  27.920  34.074  1.00  0.00     0.134 A 
ATOM     81  C   UNL A   1      43.926  26.151  34.629  1.00  0.00     0.134 A 
ATOM     82  F   UNL A   1      45.719  29.107  33.512  1.00  0.00    -0.206 F 
ATOM     83  C   UNL A   1      46.494  27.210  34.659  1.00  0.00     0.040 A 
ATOM     84  C   UNL A   1      44.963  25.445  35.239  1.00  0.00     0.040 A 
ATOM     85  F   UNL A   1      42.702  25.602  34.636  1.00  0.00    -0.206 F 
ATOM     86  C   UNL A   1      46.253  25.970  35.248  1.00  0.00     0.006 A 
ENDBRANCH  62  79
ENDBRANCH  36  37
ENDBRANCH  29  31
ENDBRANCH  28  29
ENDBRANCH  27  28
ENDBRANCH  26  27
ENDBRANCH   1  26
TORSDOF 16
ENDMDL
MODEL 2
REMARK VINA RESULT:     -11.5      3.185      8.180
REMARK SMILES Cc1ccc(C(=O)Nc2ccc(C(=O)OCCOCCOC(=O)c3ccc(-c4c5nc(c(-c6c(F)cccc6F)c6ccc([nH]6)c(-c6c(F)cccc6F)c6nc(c(-c7c(F)cccc7F)c7ccc4[nH]7)C=C6)C=C5)cc3)c(Cl)c2)cc1C
REMARK SMILES IDX 18 1 17 2 16 3 15 4 13 5 14 6 12 7 9 8 10 9 80 10 11 11
REMARK SMILES IDX 78 12 79 13 8 14 6 15 7 16 5 18 1 19 2 20 3 21 82 22 4 23
REMARK SMILES IDX 81 24 83 25 19 26 20 27 21 28 22 29 23 30 24 31 25 32 77 33
REMARK SMILES IDX 26 34 76 35 27 36 28 37 29 38 70 39 30 40 75 41 69 42 71 43
REMARK SMILES IDX 31 44 74 45 68 46 67 47 32 49 58 50 41 51 57 52 42 53 45 54
REMARK SMILES IDX 56 55 72 56 43 57 44 58 55 60 73 61 46 62 33 63 34 64 39 65
REMARK SMILES IDX 35 66 36 67 38 68 40 69 37 70 59 71 60 72 65 73 61 74 62 75
REMARK SMILES IDX 64 76 66 77 63 78 47 79 48 80 53 81 49 82 50 83 52 84 54 85
REMARK SMILES IDX 51 86
REMARK H PARENT 8 17 71 48 45 59
REMARK Flexibility Score: inf
ROOT
ATOM      1  O   UNL A   1      41.864  21.236  27.204  1.00  0.00    -0.374 OA
ENDROOT
BRANCH   1   2
ATOM      2  C   UNL A   1      40.437  21.303  27.236  1.00  0.00     0.202 C 
BRANCH   2   3
ATOM      3  C   UNL A   1      39.783  21.684  25.906  1.00  0.00     0.261 C 
BRANCH   3   4
ATOM      4  O   UNL A   1      38.397  22.004  26.112  1.00  0.00    -0.460 OA
BRANCH   4   5
ATOM      5  C   UNL A   1      37.508  21.314  25.364  1.00  0.00     0.339 C 
ATOM      6  O   UNL A   1      37.740  20.345  24.656  1.00  0.00    -0.246 OA
BRANCH   5   7
ATOM      7  C   UNL A   1      36.135  21.755  25.680  1.00  0.00     0.078 A 
ATOM      8  C   UNL A   1      33.602  22.834  26.231  1.00  0.00     0.043 A 
ATOM      9  C   UNL A   1      34.751  23.562  26.542  1.00  0.00     0.027 A 
ATOM     10  C   UNL A   1      33.725  21.535  25.725  1.00  0.00     0.047 A 
ATOM     11  C   UNL A   1      36.011  23.026  26.267  1.00  0.00     0.019 A 
ATOM     12  C   UNL A   1      34.986  21.002  25.425  1.00  0.00     0.057 A 
ATOM     13  Cl  UNL A   1      35.029  19.410  24.755  1.00  0.00    -0.083 Cl
BRANCH   8  14
ATOM     14  N   UNL A   1      32.308  23.340  26.413  1.00  0.00    -0.322 N 
ATOM     15  C   UNL A   1      31.795  24.616  26.289  1.00  0.00     0.255 C 
ATOM     16  O   UNL A   1      30.716  24.862  26.830  1.00  0.00    -0.269 OA
ATOM     17  H   UNL A   1      31.644  22.663  26.677  1.00  0.00     0.170 HD
BRANCH  15  18
ATOM     18  C   UNL A   1      32.421  25.660  25.418  1.00  0.00     0.040 A 
ATOM     19  C   UNL A   1      34.199  28.601  22.779  1.00  0.00     0.044 C 
ATOM     20  C   UNL A   1      33.600  27.540  23.659  1.00  0.00    -0.048 A 
ATOM     21  C   UNL A   1      33.705  27.686  25.049  1.00  0.00     0.004 A 
ATOM     22  C   UNL A   1      32.984  26.387  23.141  1.00  0.00    -0.047 A 
ATOM     23  C   UNL A   1      33.162  26.733  25.914  1.00  0.00     0.014 A 
ATOM     24  C   UNL A   1      32.373  25.477  24.028  1.00  0.00     0.017 A 
ATOM     25  C   UNL A   1      33.008  26.031  21.679  1.00  0.00     0.044 C 
ENDBRANCH  15  18
ENDBRANCH   8  14
ENDBRANCH   5   7
ENDBRANCH   4   5
ENDBRANCH   3   4
ENDBRANCH   2   3
ENDBRANCH   1   2
BRANCH   1  26
ATOM     26  C   UNL A   1      42.458  20.850  25.961  1.00  0.00     0.202 C 
BRANCH  26  27
ATOM     27  C   UNL A   1      43.599  21.752  25.475  1.00  0.00     0.261 C 
BRANCH  27  28
ATOM     28  O   UNL A   1      43.100  22.919  24.793  1.00  0.00    -0.460 OA
BRANCH  28  29
ATOM     29  C   UNL A   1      43.836  24.042  24.970  1.00  0.00     0.338 C 
ATOM     30  O   UNL A   1      44.856  24.360  24.377  1.00  0.00    -0.246 OA
BRANCH  29  31
ATOM     31  C   UNL A   1      43.144  24.961  25.894  1.00  0.00     0.060 A 
ATOM     32  C   UNL A   1      43.772  26.181  26.179  1.00  0.00     0.016 A 
ATOM     33  C   UNL A   1      41.947  24.617  26.527  1.00  0.00     0.016 A 
ATOM     34  C   UNL A   1      43.230  27.039  27.132  1.00  0.00     0.010 A 
ATOM     35  C   UNL A   1      41.408  25.478  27.490  1.00  0.00     0.010 A 
ATOM     36  C   UNL A   1      42.065  26.677  27.820  1.00  0.00    -0.014 A 
BRANCH  36  37
ATOM     37  C   UNL A   1      41.615  27.498  28.972  1.00  0.00     0.031 A 
ATOM     38  C   UNL A   1      42.360  27.409  30.275  1.00  0.00     0.074 A 
ATOM     39  C   UNL A   1      40.581  28.348  28.845  1.00  0.00     0.049 A 
ATOM     40  N   UNL A   1      42.148  28.046  31.399  1.00  0.00    -0.248 NA
ATOM     41  C   UNL A   1      43.496  26.475  30.318  1.00  0.00     0.031 C 
ATOM     42  C   UNL A   1      39.794  28.548  27.629  1.00  0.00     0.029 A 
ATOM     43  N   UNL A   1      40.016  29.204  29.757  1.00  0.00    -0.354 N 
ATOM     44  C   UNL A   1      43.119  27.592  32.280  1.00  0.00     0.074 A 
ATOM     45  C   UNL A   1      43.902  26.600  31.573  1.00  0.00     0.031 C 
ATOM     46  C   UNL A   1      38.844  29.466  27.873  1.00  0.00     0.029 A 
ATOM     47  C   UNL A   1      38.941  29.902  29.264  1.00  0.00     0.049 A 
ATOM     48  H   UNL A   1      40.349  29.309  30.678  1.00  0.00     0.167 HD
ATOM     49  C   UNL A   1      43.349  27.974  33.560  1.00  0.00     0.037 A 
ATOM     50  C   UNL A   1      38.122  30.781  29.872  1.00  0.00     0.037 A 
ATOM     51  C   UNL A   1      42.572  28.960  34.266  1.00  0.00     0.049 A 
ATOM     52  C   UNL A   1      38.361  31.147  31.312  1.00  0.00     0.074 A 
ATOM     53  C   UNL A   1      42.744  29.431  35.557  1.00  0.00     0.029 A 
ATOM     54  N   UNL A   1      41.471  29.620  33.743  1.00  0.00    -0.354 N 
ATOM     55  N   UNL A   1      39.305  30.738  32.125  1.00  0.00    -0.248 NA
ATOM     56  C   UNL A   1      37.423  32.104  31.917  1.00  0.00     0.031 C 
ATOM     57  C   UNL A   1      41.717  30.343  35.829  1.00  0.00     0.029 A 
ATOM     58  C   UNL A   1      40.938  30.475  34.693  1.00  0.00     0.049 A 
ATOM     59  H   UNL A   1      41.120  29.498  32.831  1.00  0.00     0.167 HD
ATOM     60  C   UNL A   1      39.089  31.403  33.326  1.00  0.00     0.074 A 
ATOM     61  C   UNL A   1      37.935  32.254  33.130  1.00  0.00     0.031 C 
ATOM     62  C   UNL A   1      39.786  31.317  34.486  1.00  0.00     0.037 A 
BRANCH  49  63
ATOM     63  C   UNL A   1      44.478  27.305  34.287  1.00  0.00     0.057 A 
ATOM     64  C   UNL A   1      45.768  27.851  34.314  1.00  0.00     0.134 A 
ATOM     65  C   UNL A   1      44.267  26.112  34.990  1.00  0.00     0.134 A 
ATOM     66  F   UNL A   1      46.040  28.984  33.648  1.00  0.00    -0.206 F 
ATOM     67  C   UNL A   1      46.812  27.224  34.996  1.00  0.00     0.040 A 
ATOM     68  C   UNL A   1      45.297  25.488  35.696  1.00  0.00     0.040 A 
ATOM     69  F   UNL A   1      43.054  25.538  35.008  1.00  0.00    -0.206 F 
ATOM     70  C   UNL A   1      46.575  26.042  35.695  1.00  0.00     0.006 A 
ENDBRANCH  49  63
BRANCH  50  71
ATOM     71  C   UNL A   1      36.990  31.379  29.121  1.00  0.00     0.057 A 
ATOM     72  C   UNL A   1      37.038  32.702  28.666  1.00  0.00     0.134 A 
ATOM     73  C   UNL A   1      35.826  30.648  28.857  1.00  0.00     0.134 A 
ATOM     74  F   UNL A   1      38.117  33.461  28.910  1.00  0.00    -0.206 F 
ATOM     75  C   UNL A   1      35.964  33.281  27.989  1.00  0.00     0.040 A 
ATOM     76  C   UNL A   1      34.753  31.206  28.160  1.00  0.00     0.040 A 
ATOM     77  F   UNL A   1      35.718  29.375  29.268  1.00  0.00    -0.206 F 
ATOM     78  C   UNL A   1      34.818  32.530  27.731  1.00  0.00     0.006 A 
ENDBRANCH  50  71
BRANCH  62  79
ATOM     79  C   UNL A   1      39.334  32.185  35.623  1.00  0.00     0.057 A 
ATOM     80  C   UNL A   1      39.784  33.503  35.772  1.00  0.00     0.134 A 
ATOM     81  C   UNL A   1      38.416  31.705  36.567  1.00  0.00     0.134 A 
ATOM     82  F   UNL A   1      40.674  34.019  34.910  1.00  0.00    -0.206 F 
ATOM     83  C   UNL A   1      39.358  34.305  36.834  1.00  0.00     0.040 A 
ATOM     84  C   UNL A   1      37.963  32.505  37.616  1.00  0.00     0.040 A 
ATOM     85  F   UNL A   1      37.938  30.455  36.478  1.00  0.00    -0.206 F 
ATOM     86  C   UNL A   1      38.440  33.807  37.756  1.00  0.00     0.006 A 
ENDBRANCH  62  79
ENDBRANCH  36  37
ENDBRANCH  29  31
ENDBRANCH  28  29
ENDBRANCH  27  28
ENDBRANCH  26  27
ENDBRANCH   1  26
TORSDOF 16
ENDMDL
MODEL 3
REMARK VINA RESULT:     -11.5      4.275      9.826
REMARK SMILES Cc1ccc(C(=O)Nc2ccc(C(=O)OCCOCCOC(=O)c3ccc(-c4c5nc(c(-c6c(F)cccc6F)c6ccc([nH]6)c(-c6c(F)cccc6F)c6nc(c(-c7c(F)cccc7F)c7ccc4[nH]7)C=C6)C=C5)cc3)c(Cl)c2)cc1C
REMARK SMILES IDX 18 1 17 2 16 3 15 4 13 5 14 6 12 7 9 8 10 9 80 10 11 11
REMARK SMILES IDX 78 12 79 13 8 14 6 15 7 16 5 18 1 19 2 20 3 21 82 22 4 23
REMARK SMILES IDX 81 24 83 25 19 26 20 27 21 28 22 29 23 30 24 31 25 32 77 33
REMARK SMILES IDX 26 34 76 35 27 36 28 37 29 38 70 39 30 40 75 41 69 42 71 43
REMARK SMILES IDX 31 44 74 45 68 46 67 47 32 49 58 50 41 51 57 52 42 53 45 54
REMARK SMILES IDX 56 55 72 56 43 57 44 58 55 60 73 61 46 62 33 63 34 64 39 65
REMARK SMILES IDX 35 66 36 67 38 68 40 69 37 70 59 71 60 72 65 73 61 74 62 75
REMARK SMILES IDX 64 76 66 77 63 78 47 79 48 80 53 81 49 82 50 83 52 84 54 85
REMARK SMILES IDX 51 86
REMARK H PARENT 8 17 71 48 45 59
REMARK Flexibility Score: inf
ROOT
ATOM      1  O   UNL A   1      37.895  21.225  25.047  1.00  0.00    -0.374 OA
ENDROOT
BRANCH   1   2
ATOM      2  C   UNL A   1      36.547  21.581  25.358  1.00  0.00     0.202 C 
BRANCH   2   3
ATOM      3  C   UNL A   1      35.508  20.506  25.032  1.00  0.00     0.261 C 
BRANCH   3   4
ATOM      4  O   UNL A   1      34.186  20.996  25.313  1.00  0.00    -0.460 OA
BRANCH   4   5
ATOM      5  C   UNL A   1      33.268  20.833  24.334  1.00  0.00     0.339 C 
ATOM      6  O   UNL A   1      32.760  19.782  23.973  1.00  0.00    -0.246 OA
BRANCH   5   7
ATOM      7  C   UNL A   1      32.779  22.149  23.879  1.00  0.00     0.078 A 
ATOM      8  C   UNL A   1      31.921  24.584  22.776  1.00  0.00     0.043 A 
ATOM      9  C   UNL A   1      33.048  23.945  22.259  1.00  0.00     0.027 A 
ATOM     10  C   UNL A   1      31.277  24.047  23.897  1.00  0.00     0.047 A 
ATOM     11  C   UNL A   1      33.475  22.734  22.808  1.00  0.00     0.019 A 
ATOM     12  C   UNL A   1      31.686  22.819  24.435  1.00  0.00     0.057 A 
ATOM     13  Cl  UNL A   1      30.793  22.215  25.785  1.00  0.00    -0.083 Cl
BRANCH   8  14
ATOM     14  N   UNL A   1      31.397  25.763  22.229  1.00  0.00    -0.322 N 
ATOM     15  C   UNL A   1      31.237  27.029  22.756  1.00  0.00     0.255 C 
ATOM     16  O   UNL A   1      30.447  27.793  22.200  1.00  0.00    -0.269 OA
ATOM     17  H   UNL A   1      31.086  25.672  21.299  1.00  0.00     0.170 HD
BRANCH  15  18
ATOM     18  C   UNL A   1      32.078  27.551  23.879  1.00  0.00     0.040 A 
ATOM     19  C   UNL A   1      34.396  29.046  27.220  1.00  0.00     0.044 C 
ATOM     20  C   UNL A   1      33.546  28.551  26.084  1.00  0.00    -0.048 A 
ATOM     21  C   UNL A   1      34.076  28.585  24.787  1.00  0.00     0.004 A 
ATOM     22  C   UNL A   1      32.226  28.104  26.267  1.00  0.00    -0.047 A 
ATOM     23  C   UNL A   1      33.333  28.133  23.695  1.00  0.00     0.014 A 
ATOM     24  C   UNL A   1      31.519  27.579  25.165  1.00  0.00     0.017 A 
ATOM     25  C   UNL A   1      31.492  28.228  27.575  1.00  0.00     0.044 C 
ENDBRANCH  15  18
ENDBRANCH   8  14
ENDBRANCH   5   7
ENDBRANCH   4   5
ENDBRANCH   3   4
ENDBRANCH   2   3
ENDBRANCH   1   2
BRANCH   1  26
ATOM     26  C   UNL A   1      38.154  19.836  24.825  1.00  0.00     0.202 C 
BRANCH  26  27
ATOM     27  C   UNL A   1      39.193  19.208  25.761  1.00  0.00     0.261 C 
BRANCH  27  28
ATOM     28  O   UNL A   1      40.538  19.462  25.309  1.00  0.00    -0.460 OA
BRANCH  28  29
ATOM     29  C   UNL A   1      41.457  19.589  26.294  1.00  0.00     0.338 C 
ATOM     30  O   UNL A   1      42.232  18.735  26.699  1.00  0.00    -0.246 OA
BRANCH  29  31
ATOM     31  C   UNL A   1      41.534  20.995  26.738  1.00  0.00     0.060 A 
ATOM     32  C   UNL A   1      41.245  21.985  25.791  1.00  0.00     0.016 A 
ATOM     33  C   UNL A   1      41.946  21.345  28.027  1.00  0.00     0.016 A 
ATOM     34  C   UNL A   1      41.415  23.330  26.113  1.00  0.00     0.010 A 
ATOM     35  C   UNL A   1      42.121  22.697  28.346  1.00  0.00     0.010 A 
ATOM     36  C   UNL A   1      41.888  23.693  27.381  1.00  0.00    -0.014 A 
BRANCH  36  37
ATOM     37  C   UNL A   1      42.259  25.106  27.641  1.00  0.00     0.031 A 
ATOM     38  C   UNL A   1      43.597  25.614  27.179  1.00  0.00     0.074 A 
ATOM     39  C   UNL A   1      41.395  25.941  28.245  1.00  0.00     0.049 A 
ATOM     40  N   UNL A   1      44.114  26.811  27.289  1.00  0.00    -0.248 NA
ATOM     41  C   UNL A   1      44.469  24.641  26.503  1.00  0.00     0.031 C 
ATOM     42  C   UNL A   1      40.059  25.580  28.716  1.00  0.00     0.029 A 
ATOM     43  N   UNL A   1      41.517  27.271  28.564  1.00  0.00    -0.354 N 
ATOM     44  C   UNL A   1      45.369  26.737  26.699  1.00  0.00     0.074 A 
ATOM     45  C   UNL A   1      45.550  25.368  26.262  1.00  0.00     0.031 C 
ATOM     46  C   UNL A   1      39.486  26.662  29.269  1.00  0.00     0.029 A 
ATOM     47  C   UNL A   1      40.421  27.784  29.211  1.00  0.00     0.049 A 
ATOM     48  H   UNL A   1      42.316  27.805  28.350  1.00  0.00     0.167 HD
ATOM     49  C   UNL A   1      46.284  27.720  26.524  1.00  0.00     0.037 A 
ATOM     50  C   UNL A   1      40.203  29.015  29.710  1.00  0.00     0.037 A 
ATOM     51  C   UNL A   1      46.107  29.082  26.958  1.00  0.00     0.049 A 
ATOM     52  C   UNL A   1      41.258  30.077  29.556  1.00  0.00     0.074 A 
ATOM     53  C   UNL A   1      46.968  30.156  26.804  1.00  0.00     0.029 A 
ATOM     54  N   UNL A   1      44.996  29.555  27.639  1.00  0.00    -0.354 N 
ATOM     55  N   UNL A   1      42.426  30.004  28.964  1.00  0.00    -0.248 NA
ATOM     56  C   UNL A   1      40.961  31.396  30.134  1.00  0.00     0.031 C 
ATOM     57  C   UNL A   1      46.396  31.267  27.433  1.00  0.00     0.029 A 
ATOM     58  C   UNL A   1      45.159  30.899  27.935  1.00  0.00     0.049 A 
ATOM     59  H   UNL A   1      44.207  29.016  27.877  1.00  0.00     0.167 HD
ATOM     60  C   UNL A   1      42.991  31.269  29.078  1.00  0.00     0.074 A 
ATOM     61  C   UNL A   1      42.031  32.094  29.780  1.00  0.00     0.031 C 
ATOM     62  C   UNL A   1      44.196  31.708  28.637  1.00  0.00     0.037 A 
BRANCH  49  63
ATOM     63  C   UNL A   1      47.573  27.351  25.850  1.00  0.00     0.057 A 
ATOM     64  C   UNL A   1      48.677  26.878  26.571  1.00  0.00     0.134 A 
ATOM     65  C   UNL A   1      47.702  27.446  24.459  1.00  0.00     0.134 A 
ATOM     66  F   UNL A   1      48.622  26.778  27.909  1.00  0.00    -0.206 F 
ATOM     67  C   UNL A   1      49.870  26.533  25.935  1.00  0.00     0.040 A 
ATOM     68  C   UNL A   1      48.882  27.081  23.809  1.00  0.00     0.040 A 
ATOM     69  F   UNL A   1      46.682  27.888  23.709  1.00  0.00    -0.206 F 
ATOM     70  C   UNL A   1      49.973  26.628  24.549  1.00  0.00     0.006 A 
ENDBRANCH  49  63
BRANCH  50  71
ATOM     71  C   UNL A   1      38.929  29.316  30.411  1.00  0.00     0.057 A 
ATOM     72  C   UNL A   1      37.830  29.844  29.724  1.00  0.00     0.134 A 
ATOM     73  C   UNL A   1      38.789  29.099  31.786  1.00  0.00     0.134 A 
ATOM     74  F   UNL A   1      37.912  30.097  28.410  1.00  0.00    -0.206 F 
ATOM     75  C   UNL A   1      36.641  30.161  30.383  1.00  0.00     0.040 A 
ATOM     76  C   UNL A   1      37.598  29.389  32.454  1.00  0.00     0.040 A 
ATOM     77  F   UNL A   1      39.806  28.596  32.501  1.00  0.00    -0.206 F 
ATOM     78  C   UNL A   1      36.522  29.929  31.753  1.00  0.00     0.006 A 
ENDBRANCH  50  71
BRANCH  62  79
ATOM     79  C   UNL A   1      44.531  33.151  28.880  1.00  0.00     0.057 A 
ATOM     80  C   UNL A   1      44.285  34.140  27.920  1.00  0.00     0.134 A 
ATOM     81  C   UNL A   1      45.083  33.560  30.102  1.00  0.00     0.134 A 
ATOM     82  F   UNL A   1      43.770  33.813  26.724  1.00  0.00    -0.206 F 
ATOM     83  C   UNL A   1      44.599  35.480  28.154  1.00  0.00     0.040 A 
ATOM     84  C   UNL A   1      45.377  34.900  30.358  1.00  0.00     0.040 A 
ATOM     85  F   UNL A   1      45.336  32.666  31.069  1.00  0.00    -0.206 F 
ATOM     86  C   UNL A   1      45.142  35.863  29.379  1.00  0.00     0.006 A 
ENDBRANCH  62  79
ENDBRANCH  36  37
ENDBRANCH  29  31
ENDBRANCH  28  29
ENDBRANCH  27  28
ENDBRANCH  26  27
ENDBRANCH   1  26
TORSDOF 16
ENDMDL
