MODEL 1
REMARK VINA RESULT:     -10.9      0.000      0.000
REMARK SMILES CC(C)(C)OC(=O)N[C@@H](C(=O)OCCOCCOC(=O)c1ccc(-c2c3nc(c(-c4c(F)cccc4F)c4ccc([nH]4)c(-c4c(F)cccc4F)c4nc(c(-c5c(F)cccc5F)c5ccc2[nH]5)C=C4)C=C3)cc1)[C@H](O)c1ccccc1F
REMARK SMILES IDX 14 1 13 2 12 3 10 4 11 5 9 6 8 7 6 8 7 9 5 11 2 12 1 13 3 14
REMARK SMILES IDX 4 15 75 16 77 17 78 18 82 19 79 20 81 21 83 22 80 23 76 24
REMARK SMILES IDX 15 26 16 27 17 28 18 29 19 30 20 31 21 32 22 33 74 34 23 35
REMARK SMILES IDX 73 36 24 37 25 38 26 39 67 40 27 41 72 42 66 43 68 44 28 45
REMARK SMILES IDX 71 46 65 47 64 48 29 50 55 51 38 52 54 53 39 54 42 55 53 56
REMARK SMILES IDX 69 57 40 58 41 59 52 61 70 62 43 63 30 64 31 65 36 66 32 67
REMARK SMILES IDX 33 68 35 69 37 70 34 71 56 72 57 73 62 74 58 75 59 76 61 77
REMARK SMILES IDX 63 78 60 79 44 80 45 81 50 82 46 83 47 84 49 85 51 86 48 87
REMARK H PARENT 8 10 76 25 68 49 42 60
REMARK Flexibility Score: inf
ROOT
ATOM      1  C   UNL A   1      33.202  21.162  25.628  1.00  0.00     0.202 C 
ENDROOT
BRANCH   1   2
ATOM      2  C   UNL A   1      32.050  22.039  25.131  1.00  0.00     0.261 C 
BRANCH   2   3
ATOM      3  O   UNL A   1      32.290  23.418  25.456  1.00  0.00    -0.462 OA
BRANCH   3   4
ATOM      4  C   UNL A   1      31.340  24.042  26.211  1.00  0.00     0.331 C 
ATOM      5  O   UNL A   1      30.765  23.530  27.164  1.00  0.00    -0.250 OA
BRANCH   4   6
ATOM      6  C   UNL A   1      31.055  25.465  25.710  1.00  0.00     0.228 C 
BRANCH   6   7
ATOM      7  N   UNL A   1      30.856  26.442  26.782  1.00  0.00    -0.305 N 
ATOM      8  C   UNL A   1      31.640  27.489  27.141  1.00  0.00     0.408 C 
ATOM      9  O   UNL A   1      31.252  28.289  27.979  1.00  0.00    -0.225 OA
ATOM     10  H   UNL A   1      30.039  26.321  27.319  1.00  0.00     0.168 HD
BRANCH   8  11
ATOM     11  O   UNL A   1      32.815  27.528  26.480  1.00  0.00    -0.444 OA
BRANCH  11  12
ATOM     12  C   UNL A   1      33.253  28.758  25.845  1.00  0.00     0.106 C 
ATOM     13  C   UNL A   1      34.357  29.300  26.765  1.00  0.00     0.056 C 
ATOM     14  C   UNL A   1      32.144  29.814  25.753  1.00  0.00     0.056 C 
ATOM     15  C   UNL A   1      33.853  28.443  24.471  1.00  0.00     0.056 C 
ENDBRANCH  11  12
ENDBRANCH   8  11
ENDBRANCH   6   7
BRANCH   6  16
ATOM     16  C   UNL A   1      29.906  25.456  24.648  1.00  0.00     0.181 C 
BRANCH  16  17
ATOM     17  C   UNL A   1      29.517  26.706  23.870  1.00  0.00     0.019 A 
ATOM     18  C   UNL A   1      30.527  27.543  23.357  1.00  0.00     0.009 A 
ATOM     19  C   UNL A   1      28.200  27.166  23.742  1.00  0.00     0.129 A 
ATOM     20  C   UNL A   1      30.219  28.759  22.726  1.00  0.00     0.001 A 
ATOM     21  C   UNL A   1      27.882  28.359  23.091  1.00  0.00     0.039 A 
ATOM     22  F   UNL A   1      27.182  26.482  24.275  1.00  0.00    -0.207 F 
ATOM     23  C   UNL A   1      28.895  29.162  22.583  1.00  0.00     0.003 A 
ENDBRANCH  16  17
BRANCH  16  24
ATOM     24  O   UNL A   1      30.174  24.434  23.672  1.00  0.00    -0.386 OA
ATOM     25  H   UNL A   1      30.791  24.777  23.007  1.00  0.00     0.211 HD
ENDBRANCH  16  24
ENDBRANCH   6  16
ENDBRANCH   4   6
ENDBRANCH   3   4
ENDBRANCH   2   3
ENDBRANCH   1   2
BRANCH   1  26
ATOM     26  O   UNL A   1      34.177  20.800  24.648  1.00  0.00    -0.374 OA
BRANCH  26  27
ATOM     27  C   UNL A   1      35.398  21.537  24.628  1.00  0.00     0.202 C 
BRANCH  27  28
ATOM     28  C   UNL A   1      36.586  20.926  25.376  1.00  0.00     0.261 C 
BRANCH  28  29
ATOM     29  O   UNL A   1      37.837  21.500  24.959  1.00  0.00    -0.460 OA
BRANCH  29  30
ATOM     30  C   UNL A   1      38.890  21.152  25.736  1.00  0.00     0.338 C 
ATOM     31  O   UNL A   1      39.484  20.086  25.742  1.00  0.00    -0.246 OA
BRANCH  30  32
ATOM     32  C   UNL A   1      39.378  22.316  26.497  1.00  0.00     0.060 A 
ATOM     33  C   UNL A   1      38.808  23.556  26.184  1.00  0.00     0.016 A 
ATOM     34  C   UNL A   1      40.427  22.225  27.414  1.00  0.00     0.016 A 
ATOM     35  C   UNL A   1      39.335  24.720  26.730  1.00  0.00     0.010 A 
ATOM     36  C   UNL A   1      40.958  23.400  27.962  1.00  0.00     0.010 A 
ATOM     37  C   UNL A   1      40.444  24.654  27.586  1.00  0.00    -0.014 A 
BRANCH  37  38
ATOM     38  C   UNL A   1      41.128  25.917  27.951  1.00  0.00     0.031 A 
ATOM     39  C   UNL A   1      42.528  26.162  27.460  1.00  0.00     0.074 A 
ATOM     40  C   UNL A   1      40.473  26.870  28.637  1.00  0.00     0.049 A 
ATOM     41  N   UNL A   1      43.277  27.230  27.586  1.00  0.00    -0.248 NA
ATOM     42  C   UNL A   1      43.172  25.061  26.727  1.00  0.00     0.031 C 
ATOM     43  C   UNL A   1      39.106  26.756  29.143  1.00  0.00     0.029 A 
ATOM     44  N   UNL A   1      40.869  28.128  29.013  1.00  0.00    -0.354 N 
ATOM     45  C   UNL A   1      44.475  26.928  26.950  1.00  0.00     0.074 A 
ATOM     46  C   UNL A   1      44.368  25.568  26.469  1.00  0.00     0.031 C 
ATOM     47  C   UNL A   1      38.774  27.901  29.762  1.00  0.00     0.029 A 
ATOM     48  C   UNL A   1      39.909  28.820  29.711  1.00  0.00     0.049 A 
ATOM     49  H   UNL A   1      41.756  28.499  28.804  1.00  0.00     0.167 HD
ATOM     50  C   UNL A   1      45.560  27.719  26.771  1.00  0.00     0.037 A 
ATOM     51  C   UNL A   1      39.948  30.053  30.251  1.00  0.00     0.037 A 
ATOM     52  C   UNL A   1      45.661  29.074  27.247  1.00  0.00     0.049 A 
ATOM     53  C   UNL A   1      41.180  30.897  30.073  1.00  0.00     0.074 A 
ATOM     54  C   UNL A   1      46.706  29.968  27.090  1.00  0.00     0.029 A 
ATOM     55  N   UNL A   1      44.682  29.727  27.980  1.00  0.00    -0.354 N 
ATOM     56  N   UNL A   1      42.289  30.618  29.429  1.00  0.00    -0.248 NA
ATOM     57  C   UNL A   1      41.164  32.231  30.687  1.00  0.00     0.031 C 
ATOM     58  C   UNL A   1      46.378  31.146  27.772  1.00  0.00     0.029 A 
ATOM     59  C   UNL A   1      45.109  31.004  28.308  1.00  0.00     0.049 A 
ATOM     60  H   UNL A   1      43.811  29.341  28.230  1.00  0.00     0.167 HD
ATOM     61  C   UNL A   1      43.089  31.747  29.542  1.00  0.00     0.074 A 
ATOM     62  C   UNL A   1      42.331  32.723  30.297  1.00  0.00     0.031 C 
ATOM     63  C   UNL A   1      44.341  31.960  29.064  1.00  0.00     0.037 A 
BRANCH  50  64
ATOM     64  C   UNL A   1      46.737  27.128  26.051  1.00  0.00     0.057 A 
ATOM     65  C   UNL A   1      46.928  27.303  24.674  1.00  0.00     0.134 A 
ATOM     66  C   UNL A   1      47.711  26.405  26.750  1.00  0.00     0.134 A 
ATOM     67  F   UNL A   1      46.024  27.974  23.941  1.00  0.00    -0.206 F 
ATOM     68  C   UNL A   1      48.034  26.761  24.015  1.00  0.00     0.040 A 
ATOM     69  C   UNL A   1      48.834  25.880  26.108  1.00  0.00     0.040 A 
ATOM     70  F   UNL A   1      47.592  26.205  28.071  1.00  0.00    -0.206 F 
ATOM     71  C   UNL A   1      48.995  26.054  24.734  1.00  0.00     0.006 A 
ENDBRANCH  50  64
BRANCH  51  72
ATOM     72  C   UNL A   1      38.781  30.566  31.013  1.00  0.00     0.057 A 
ATOM     73  C   UNL A   1      38.634  30.313  32.381  1.00  0.00     0.134 A 
ATOM     74  C   UNL A   1      37.774  31.308  30.383  1.00  0.00     0.134 A 
ATOM     75  F   UNL A   1      39.554  29.589  33.037  1.00  0.00    -0.206 F 
ATOM     76  C   UNL A   1      37.520  30.761  33.092  1.00  0.00     0.040 A 
ATOM     77  C   UNL A   1      36.668  31.784  31.086  1.00  0.00     0.040 A 
ATOM     78  F   UNL A   1      37.857  31.586  29.073  1.00  0.00    -0.206 F 
ATOM     79  C   UNL A   1      36.534  31.504  32.444  1.00  0.00     0.006 A 
ENDBRANCH  51  72
BRANCH  63  80
ATOM     80  C   UNL A   1      44.953  33.306  29.327  1.00  0.00     0.057 A 
ATOM     81  C   UNL A   1      45.758  33.545  30.448  1.00  0.00     0.134 A 
ATOM     82  C   UNL A   1      44.750  34.368  28.438  1.00  0.00     0.134 A 
ATOM     83  F   UNL A   1      45.981  32.573  31.346  1.00  0.00    -0.206 F 
ATOM     84  C   UNL A   1      46.313  34.803  30.693  1.00  0.00     0.040 A 
ATOM     85  C   UNL A   1      45.323  35.622  28.657  1.00  0.00     0.040 A 
ATOM     86  F   UNL A   1      44.000  34.204  27.338  1.00  0.00    -0.206 F 
ATOM     87  C   UNL A   1      46.100  35.844  29.792  1.00  0.00     0.006 A 
ENDBRANCH  63  80
ENDBRANCH  37  38
ENDBRANCH  30  32
ENDBRANCH  29  30
ENDBRANCH  28  29
ENDBRANCH  27  28
ENDBRANCH  26  27
ENDBRANCH   1  26
TORSDOF 20
ENDMDL
MODEL 2
REMARK VINA RESULT:     -10.8      2.547      4.428
REMARK SMILES CC(C)(C)OC(=O)N[C@@H](C(=O)OCCOCCOC(=O)c1ccc(-c2c3nc(c(-c4c(F)cccc4F)c4ccc([nH]4)c(-c4c(F)cccc4F)c4nc(c(-c5c(F)cccc5F)c5ccc2[nH]5)C=C4)C=C3)cc1)[C@H](O)c1ccccc1F
REMARK SMILES IDX 14 1 13 2 12 3 10 4 11 5 9 6 8 7 6 8 7 9 5 11 2 12 1 13 3 14
REMARK SMILES IDX 4 15 75 16 77 17 78 18 82 19 79 20 81 21 83 22 80 23 76 24
REMARK SMILES IDX 15 26 16 27 17 28 18 29 19 30 20 31 21 32 22 33 74 34 23 35
REMARK SMILES IDX 73 36 24 37 25 38 26 39 67 40 27 41 72 42 66 43 68 44 28 45
REMARK SMILES IDX 71 46 65 47 64 48 29 50 55 51 38 52 54 53 39 54 42 55 53 56
REMARK SMILES IDX 69 57 40 58 41 59 52 61 70 62 43 63 30 64 31 65 36 66 32 67
REMARK SMILES IDX 33 68 35 69 37 70 34 71 56 72 57 73 62 74 58 75 59 76 61 77
REMARK SMILES IDX 63 78 60 79 44 80 45 81 50 82 46 83 47 84 49 85 51 86 48 87
REMARK H PARENT 8 10 76 25 68 49 42 60
REMARK Flexibility Score: inf
ROOT
ATOM      1  C   UNL A   1      36.824  22.220  23.955  1.00  0.00     0.202 C 
ENDROOT
BRANCH   1   2
ATOM      2  C   UNL A   1      35.924  23.417  24.270  1.00  0.00     0.261 C 
BRANCH   2   3
ATOM      3  O   UNL A   1      34.550  23.002  24.365  1.00  0.00    -0.462 OA
BRANCH   3   4
ATOM      4  C   UNL A   1      34.019  22.933  25.620  1.00  0.00     0.331 C 
ATOM      5  O   UNL A   1      34.466  23.524  26.595  1.00  0.00    -0.250 OA
BRANCH   4   6
ATOM      6  C   UNL A   1      32.800  22.002  25.674  1.00  0.00     0.228 C 
BRANCH   6   7
ATOM      7  N   UNL A   1      31.799  22.394  26.667  1.00  0.00    -0.305 N 
ATOM      8  C   UNL A   1      30.710  23.188  26.517  1.00  0.00     0.408 C 
ATOM      9  O   UNL A   1      29.900  23.302  27.425  1.00  0.00    -0.225 OA
ATOM     10  H   UNL A   1      31.935  22.029  27.572  1.00  0.00     0.168 HD
BRANCH   8  11
ATOM     11  O   UNL A   1      30.645  23.782  25.307  1.00  0.00    -0.444 OA
BRANCH  11  12
ATOM     12  C   UNL A   1      30.948  25.196  25.174  1.00  0.00     0.106 C 
ATOM     13  C   UNL A   1      31.829  25.289  23.920  1.00  0.00     0.056 C 
ATOM     14  C   UNL A   1      31.743  25.755  26.362  1.00  0.00     0.056 C 
ATOM     15  C   UNL A   1      29.653  25.980  24.938  1.00  0.00     0.056 C 
ENDBRANCH  11  12
ENDBRANCH   8  11
ENDBRANCH   6   7
BRANCH   6  16
ATOM     16  C   UNL A   1      33.251  20.508  25.792  1.00  0.00     0.181 C 
BRANCH  16  17
ATOM     17  C   UNL A   1      33.019  19.504  24.670  1.00  0.00     0.019 A 
ATOM     18  C   UNL A   1      33.557  18.207  24.782  1.00  0.00     0.009 A 
ATOM     19  C   UNL A   1      32.414  19.826  23.448  1.00  0.00     0.129 A 
ATOM     20  C   UNL A   1      33.460  17.283  23.730  1.00  0.00     0.001 A 
ATOM     21  C   UNL A   1      32.287  18.904  22.408  1.00  0.00     0.039 A 
ATOM     22  F   UNL A   1      31.952  21.060  23.219  1.00  0.00    -0.207 F 
ATOM     23  C   UNL A   1      32.815  17.627  22.547  1.00  0.00     0.003 A 
ENDBRANCH  16  17
BRANCH  16  24
ATOM     24  O   UNL A   1      34.655  20.463  26.098  1.00  0.00    -0.386 OA
ATOM     25  H   UNL A   1      34.972  21.358  26.296  1.00  0.00     0.211 HD
ENDBRANCH  16  24
ENDBRANCH   6  16
ENDBRANCH   4   6
ENDBRANCH   3   4
ENDBRANCH   2   3
ENDBRANCH   1   2
BRANCH   1  26
ATOM     26  O   UNL A   1      37.141  21.371  25.059  1.00  0.00    -0.374 OA
BRANCH  26  27
ATOM     27  C   UNL A   1      38.496  21.345  25.504  1.00  0.00     0.202 C 
BRANCH  27  28
ATOM     28  C   UNL A   1      39.238  20.011  25.383  1.00  0.00     0.261 C 
BRANCH  28  29
ATOM     29  O   UNL A   1      40.195  19.829  26.441  1.00  0.00    -0.460 OA
BRANCH  29  30
ATOM     30  C   UNL A   1      41.485  19.913  26.039  1.00  0.00     0.338 C 
ATOM     31  O   UNL A   1      42.065  19.176  25.257  1.00  0.00    -0.246 OA
BRANCH  30  32
ATOM     32  C   UNL A   1      42.103  21.154  26.539  1.00  0.00     0.060 A 
ATOM     33  C   UNL A   1      42.139  21.322  27.929  1.00  0.00     0.016 A 
ATOM     34  C   UNL A   1      42.543  22.169  25.687  1.00  0.00     0.016 A 
ATOM     35  C   UNL A   1      42.546  22.534  28.472  1.00  0.00     0.010 A 
ATOM     36  C   UNL A   1      42.950  23.392  26.237  1.00  0.00     0.010 A 
ATOM     37  C   UNL A   1      42.908  23.594  27.628  1.00  0.00    -0.014 A 
BRANCH  37  38
ATOM     38  C   UNL A   1      43.097  24.937  28.225  1.00  0.00     0.031 A 
ATOM     39  C   UNL A   1      44.484  25.391  28.589  1.00  0.00     0.074 A 
ATOM     40  C   UNL A   1      42.054  25.775  28.356  1.00  0.00     0.049 A 
ATOM     41  N   UNL A   1      44.886  26.553  29.038  1.00  0.00    -0.248 NA
ATOM     42  C   UNL A   1      45.564  24.405  28.423  1.00  0.00     0.031 C 
ATOM     43  C   UNL A   1      40.668  25.456  28.014  1.00  0.00     0.029 A 
ATOM     44  N   UNL A   1      42.002  27.071  28.800  1.00  0.00    -0.354 N 
ATOM     45  C   UNL A   1      46.261  26.439  29.207  1.00  0.00     0.074 A 
ATOM     46  C   UNL A   1      46.621  25.084  28.845  1.00  0.00     0.031 C 
ATOM     47  C   UNL A   1      39.901  26.531  28.258  1.00  0.00     0.029 A 
ATOM     48  C   UNL A   1      40.738  27.606  28.789  1.00  0.00     0.049 A 
ATOM     49  H   UNL A   1      42.796  27.571  29.100  1.00  0.00     0.167 HD
ATOM     50  C   UNL A   1      47.145  27.381  29.613  1.00  0.00     0.037 A 
ATOM     51  C   UNL A   1      40.306  28.824  29.169  1.00  0.00     0.037 A 
ATOM     52  C   UNL A   1      46.785  28.730  29.966  1.00  0.00     0.049 A 
ATOM     53  C   UNL A   1      41.303  29.840  29.655  1.00  0.00     0.074 A 
ATOM     54  C   UNL A   1      47.610  29.768  30.361  1.00  0.00     0.029 A 
ATOM     55  N   UNL A   1      45.489  29.222  29.976  1.00  0.00    -0.354 N 
ATOM     56  N   UNL A   1      42.606  29.735  29.766  1.00  0.00    -0.248 NA
ATOM     57  C   UNL A   1      40.771  31.149  30.059  1.00  0.00     0.031 C 
ATOM     58  C   UNL A   1      46.807  30.875  30.657  1.00  0.00     0.029 A 
ATOM     59  C   UNL A   1      45.488  30.543  30.396  1.00  0.00     0.049 A 
ATOM     60  H   UNL A   1      44.688  28.711  29.721  1.00  0.00     0.167 HD
ATOM     61  C   UNL A   1      43.050  30.967  30.228  1.00  0.00     0.074 A 
ATOM     62  C   UNL A   1      41.880  31.811  30.358  1.00  0.00     0.031 C 
ATOM     63  C   UNL A   1      44.312  31.366  30.522  1.00  0.00     0.037 A 
BRANCH  50  64
ATOM     64  C   UNL A   1      48.587  26.978  29.720  1.00  0.00     0.057 A 
ATOM     65  C   UNL A   1      49.111  26.397  30.882  1.00  0.00     0.134 A 
ATOM     66  C   UNL A   1      49.455  27.142  28.633  1.00  0.00     0.134 A 
ATOM     67  F   UNL A   1      48.337  26.225  31.965  1.00  0.00    -0.206 F 
ATOM     68  C   UNL A   1      50.451  26.013  30.967  1.00  0.00     0.040 A 
ATOM     69  C   UNL A   1      50.790  26.739  28.696  1.00  0.00     0.040 A 
ATOM     70  F   UNL A   1      49.017  27.688  27.489  1.00  0.00    -0.206 F 
ATOM     71  C   UNL A   1      51.293  26.176  29.868  1.00  0.00     0.006 A 
ENDBRANCH  50  64
BRANCH  51  72
ATOM     72  C   UNL A   1      38.859  29.150  29.107  1.00  0.00     0.057 A 
ATOM     73  C   UNL A   1      38.040  29.057  30.238  1.00  0.00     0.134 A 
ATOM     74  C   UNL A   1      38.257  29.547  27.906  1.00  0.00     0.134 A 
ATOM     75  F   UNL A   1      38.552  28.660  31.412  1.00  0.00    -0.206 F 
ATOM     76  C   UNL A   1      36.671  29.326  30.174  1.00  0.00     0.040 A 
ATOM     77  C   UNL A   1      36.896  29.845  27.834  1.00  0.00     0.040 A 
ATOM     78  F   UNL A   1      38.988  29.659  26.787  1.00  0.00    -0.206 F 
ATOM     79  C   UNL A   1      36.097  29.727  28.968  1.00  0.00     0.006 A 
ENDBRANCH  51  72
BRANCH  63  80
ATOM     80  C   UNL A   1      44.490  32.782  30.988  1.00  0.00     0.057 A 
ATOM     81  C   UNL A   1      44.445  33.125  32.346  1.00  0.00     0.134 A 
ATOM     82  C   UNL A   1      44.728  33.811  30.069  1.00  0.00     0.134 A 
ATOM     83  F   UNL A   1      44.208  32.188  33.276  1.00  0.00    -0.206 F 
ATOM     84  C   UNL A   1      44.598  34.446  32.770  1.00  0.00     0.040 A 
ATOM     85  C   UNL A   1      44.911  35.132  30.483  1.00  0.00     0.040 A 
ATOM     86  F   UNL A   1      44.794  33.551  28.755  1.00  0.00    -0.206 F 
ATOM     87  C   UNL A   1      44.837  35.453  31.837  1.00  0.00     0.006 A 
ENDBRANCH  63  80
ENDBRANCH  37  38
ENDBRANCH  30  32
ENDBRANCH  29  30
ENDBRANCH  28  29
ENDBRANCH  27  28
ENDBRANCH  26  27
ENDBRANCH   1  26
TORSDOF 20
ENDMDL
MODEL 3
REMARK VINA RESULT:     -10.6      3.802      9.008
REMARK SMILES CC(C)(C)OC(=O)N[C@@H](C(=O)OCCOCCOC(=O)c1ccc(-c2c3nc(c(-c4c(F)cccc4F)c4ccc([nH]4)c(-c4c(F)cccc4F)c4nc(c(-c5c(F)cccc5F)c5ccc2[nH]5)C=C4)C=C3)cc1)[C@H](O)c1ccccc1F
REMARK SMILES IDX 14 1 13 2 12 3 10 4 11 5 9 6 8 7 6 8 7 9 5 11 2 12 1 13 3 14
REMARK SMILES IDX 4 15 75 16 77 17 78 18 82 19 79 20 81 21 83 22 80 23 76 24
REMARK SMILES IDX 15 26 16 27 17 28 18 29 19 30 20 31 21 32 22 33 74 34 23 35
REMARK SMILES IDX 73 36 24 37 25 38 26 39 67 40 27 41 72 42 66 43 68 44 28 45
REMARK SMILES IDX 71 46 65 47 64 48 29 50 55 51 38 52 54 53 39 54 42 55 53 56
REMARK SMILES IDX 69 57 40 58 41 59 52 61 70 62 43 63 30 64 31 65 36 66 32 67
REMARK SMILES IDX 33 68 35 69 37 70 34 71 56 72 57 73 62 74 58 75 59 76 61 77
REMARK SMILES IDX 63 78 60 79 44 80 45 81 50 82 46 83 47 84 49 85 51 86 48 87
REMARK H PARENT 8 10 76 25 68 49 42 60
REMARK Flexibility Score: inf
ROOT
ATOM      1  C   UNL A   1      33.149  27.022  25.636  1.00  0.00     0.202 C 
ENDROOT
BRANCH   1   2
ATOM      2  C   UNL A   1      32.135  26.173  24.865  1.00  0.00     0.261 C 
BRANCH   2   3
ATOM      3  O   UNL A   1      32.762  24.988  24.345  1.00  0.00    -0.462 OA
BRANCH   3   4
ATOM      4  C   UNL A   1      32.041  23.832  24.423  1.00  0.00     0.331 C 
ATOM      5  O   UNL A   1      30.822  23.782  24.539  1.00  0.00    -0.250 OA
BRANCH   4   6
ATOM      6  C   UNL A   1      32.943  22.591  24.370  1.00  0.00     0.228 C 
BRANCH   6   7
ATOM      7  N   UNL A   1      34.001  22.670  23.363  1.00  0.00    -0.305 N 
ATOM      8  C   UNL A   1      35.285  23.086  23.501  1.00  0.00     0.408 C 
ATOM      9  O   UNL A   1      36.076  22.959  22.580  1.00  0.00    -0.225 OA
ATOM     10  H   UNL A   1      33.746  22.382  22.456  1.00  0.00     0.168 HD
BRANCH   8  11
ATOM     11  O   UNL A   1      35.548  23.610  24.717  1.00  0.00    -0.444 OA
BRANCH  11  12
ATOM     12  C   UNL A   1      36.261  22.825  25.708  1.00  0.00     0.106 C 
ATOM     13  C   UNL A   1      37.446  23.707  26.125  1.00  0.00     0.056 C 
ATOM     14  C   UNL A   1      36.817  21.509  25.146  1.00  0.00     0.056 C 
ATOM     15  C   UNL A   1      35.359  22.587  26.924  1.00  0.00     0.056 C 
ENDBRANCH  11  12
ENDBRANCH   8  11
ENDBRANCH   6   7
BRANCH   6  16
ATOM     16  C   UNL A   1      32.082  21.288  24.275  1.00  0.00     0.181 C 
BRANCH  16  17
ATOM     17  C   UNL A   1      32.688  19.948  23.877  1.00  0.00     0.019 A 
ATOM     18  C   UNL A   1      32.154  19.248  22.777  1.00  0.00     0.009 A 
ATOM     19  C   UNL A   1      33.669  19.283  24.622  1.00  0.00     0.129 A 
ATOM     20  C   UNL A   1      32.608  17.965  22.437  1.00  0.00     0.001 A 
ATOM     21  C   UNL A   1      34.148  18.019  24.274  1.00  0.00     0.039 A 
ATOM     22  F   UNL A   1      34.172  19.832  25.733  1.00  0.00    -0.207 F 
ATOM     23  C   UNL A   1      33.613  17.354  23.179  1.00  0.00     0.003 A 
ENDBRANCH  16  17
BRANCH  16  24
ATOM     24  O   UNL A   1      31.408  21.075  25.527  1.00  0.00    -0.386 OA
ATOM     25  H   UNL A   1      30.752  20.368  25.426  1.00  0.00     0.211 HD
ENDBRANCH  16  24
ENDBRANCH   6  16
ENDBRANCH   4   6
ENDBRANCH   3   4
ENDBRANCH   2   3
ENDBRANCH   1   2
BRANCH   1  26
ATOM     26  O   UNL A   1      33.114  28.426  25.372  1.00  0.00    -0.374 OA
BRANCH  26  27
ATOM     27  C   UNL A   1      31.849  29.081  25.450  1.00  0.00     0.202 C 
BRANCH  27  28
ATOM     28  C   UNL A   1      31.851  30.532  25.940  1.00  0.00     0.261 C 
BRANCH  28  29
ATOM     29  O   UNL A   1      32.427  30.655  27.252  1.00  0.00    -0.460 OA
BRANCH  29  30
ATOM     30  C   UNL A   1      33.176  31.770  27.423  1.00  0.00     0.338 C 
ATOM     31  O   UNL A   1      32.786  32.927  27.444  1.00  0.00    -0.246 OA
BRANCH  30  32
ATOM     32  C   UNL A   1      34.564  31.414  27.768  1.00  0.00     0.060 A 
ATOM     33  C   UNL A   1      34.834  30.053  27.962  1.00  0.00     0.016 A 
ATOM     34  C   UNL A   1      35.550  32.376  27.996  1.00  0.00     0.016 A 
ATOM     35  C   UNL A   1      36.070  29.654  28.457  1.00  0.00     0.010 A 
ATOM     36  C   UNL A   1      36.794  31.971  28.498  1.00  0.00     0.010 A 
ATOM     37  C   UNL A   1      37.041  30.614  28.773  1.00  0.00    -0.014 A 
BRANCH  37  38
ATOM     38  C   UNL A   1      38.243  30.179  29.523  1.00  0.00     0.031 A 
ATOM     39  C   UNL A   1      38.432  30.642  30.941  1.00  0.00     0.074 A 
ATOM     40  C   UNL A   1      39.109  29.309  28.973  1.00  0.00     0.049 A 
ATOM     41  N   UNL A   1      39.359  30.313  31.806  1.00  0.00    -0.248 NA
ATOM     42  C   UNL A   1      37.443  31.602  31.458  1.00  0.00     0.031 C 
ATOM     43  C   UNL A   1      39.016  28.771  27.617  1.00  0.00     0.029 A 
ATOM     44  N   UNL A   1      40.229  28.715  29.496  1.00  0.00    -0.354 N 
ATOM     45  C   UNL A   1      39.066  31.023  32.964  1.00  0.00     0.074 A 
ATOM     46  C   UNL A   1      37.895  31.826  32.683  1.00  0.00     0.031 C 
ATOM     47  C   UNL A   1      40.037  27.921  27.414  1.00  0.00     0.029 A 
ATOM     48  C   UNL A   1      40.863  27.870  28.619  1.00  0.00     0.049 A 
ATOM     49  H   UNL A   1      40.548  28.879  30.413  1.00  0.00     0.167 HD
ATOM     50  C   UNL A   1      39.706  30.997  34.157  1.00  0.00     0.037 A 
ATOM     51  C   UNL A   1      41.985  27.141  28.773  1.00  0.00     0.037 A 
ATOM     52  C   UNL A   1      40.867  30.192  34.435  1.00  0.00     0.049 A 
ATOM     53  C   UNL A   1      42.700  27.161  30.096  1.00  0.00     0.074 A 
ATOM     54  C   UNL A   1      41.570  30.072  35.621  1.00  0.00     0.029 A 
ATOM     55  N   UNL A   1      41.500  29.376  33.510  1.00  0.00    -0.354 N 
ATOM     56  N   UNL A   1      42.386  27.800  31.198  1.00  0.00    -0.248 NA
ATOM     57  C   UNL A   1      43.921  26.349  30.201  1.00  0.00     0.031 C 
ATOM     58  C   UNL A   1      42.658  29.221  35.399  1.00  0.00     0.029 A 
ATOM     59  C   UNL A   1      42.603  28.770  34.091  1.00  0.00     0.049 A 
ATOM     60  H   UNL A   1      41.209  29.245  32.579  1.00  0.00     0.167 HD
ATOM     61  C   UNL A   1      43.354  27.449  32.130  1.00  0.00     0.074 A 
ATOM     62  C   UNL A   1      44.255  26.526  31.471  1.00  0.00     0.031 C 
ATOM     63  C   UNL A   1      43.489  27.856  33.417  1.00  0.00     0.037 A 
BRANCH  50  64
ATOM     64  C   UNL A   1      39.177  31.884  35.247  1.00  0.00     0.057 A 
ATOM     65  C   UNL A   1      39.497  33.246  35.315  1.00  0.00     0.134 A 
ATOM     66  C   UNL A   1      38.308  31.376  36.220  1.00  0.00     0.134 A 
ATOM     67  F   UNL A   1      40.336  33.794  34.422  1.00  0.00    -0.206 F 
ATOM     68  C   UNL A   1      38.989  34.066  36.325  1.00  0.00     0.040 A 
ATOM     69  C   UNL A   1      37.773  32.190  37.219  1.00  0.00     0.040 A 
ATOM     70  F   UNL A   1      37.957  30.081  36.209  1.00  0.00    -0.206 F 
ATOM     71  C   UNL A   1      38.117  33.539  37.277  1.00  0.00     0.006 A 
ENDBRANCH  50  64
BRANCH  51  72
ATOM     72  C   UNL A   1      42.504  26.332  27.641  1.00  0.00     0.057 A 
ATOM     73  C   UNL A   1      42.129  24.996  27.466  1.00  0.00     0.134 A 
ATOM     74  C   UNL A   1      43.406  26.876  26.717  1.00  0.00     0.134 A 
ATOM     75  F   UNL A   1      41.287  24.412  28.331  1.00  0.00    -0.206 F 
ATOM     76  C   UNL A   1      42.647  24.222  26.426  1.00  0.00     0.040 A 
ATOM     77  C   UNL A   1      43.910  26.121  25.657  1.00  0.00     0.040 A 
ATOM     78  F   UNL A   1      43.803  28.152  26.828  1.00  0.00    -0.206 F 
ATOM     79  C   UNL A   1      43.537  24.787  25.514  1.00  0.00     0.006 A 
ENDBRANCH  51  72
BRANCH  63  80
ATOM     80  C   UNL A   1      44.637  27.284  34.197  1.00  0.00     0.057 A 
ATOM     81  C   UNL A   1      45.878  27.931  34.269  1.00  0.00     0.134 A 
ATOM     82  C   UNL A   1      44.494  26.081  34.901  1.00  0.00     0.134 A 
ATOM     83  F   UNL A   1      46.085  29.081  33.609  1.00  0.00    -0.206 F 
ATOM     84  C   UNL A   1      46.945  27.387  34.986  1.00  0.00     0.040 A 
ATOM     85  C   UNL A   1      45.545  25.541  35.644  1.00  0.00     0.040 A 
ATOM     86  F   UNL A   1      43.330  25.416  34.883  1.00  0.00    -0.206 F 
ATOM     87  C   UNL A   1      46.777  26.190  35.681  1.00  0.00     0.006 A 
ENDBRANCH  63  80
ENDBRANCH  37  38
ENDBRANCH  30  32
ENDBRANCH  29  30
ENDBRANCH  28  29
ENDBRANCH  27  28
ENDBRANCH  26  27
ENDBRANCH   1  26
TORSDOF 20
ENDMDL
