MODEL 1
REMARK VINA RESULT:     -11.7      0.000      0.000
REMARK SMILES COc1cc2c(cc1OC)[C@H](C(=O)OCCOCCOC(=O)c1ccc(-c3c4nc(c(-c5c(F)cccc5F)c5ccc([nH]5)c(-c5c(F)cccc5F)c5nc(c(-c6c(F)cccc6F)c6ccc3[nH]6)C=C5)C=C4)cc1)[C@@H](c1ccc(SC)cc1)N(C)C2=O
REMARK SMILES IDX 17 1 16 2 15 3 14 4 12 5 13 6 11 7 3 8 4 9 8 10 5 11 7 12
REMARK SMILES IDX 6 13 88 14 86 15 89 16 77 17 87 18 2 19 1 20 9 21 10 22
REMARK SMILES IDX 78 23 79 24 85 25 80 26 84 27 81 28 82 29 83 30 18 31 19 32
REMARK SMILES IDX 20 33 21 34 22 35 23 36 24 37 76 38 25 39 75 40 26 41 27 42
REMARK SMILES IDX 28 43 69 44 29 45 74 46 68 47 70 48 30 49 73 50 67 51 66 52
REMARK SMILES IDX 31 54 57 55 40 56 56 57 41 58 44 59 55 60 71 61 42 62 43 63
REMARK SMILES IDX 54 65 72 66 45 67 32 68 33 69 38 70 34 71 35 72 37 73 39 74
REMARK SMILES IDX 36 75 58 76 59 77 64 78 60 79 61 80 63 81 65 82 62 83 46 84
REMARK SMILES IDX 47 85 52 86 48 87 49 88 51 89 53 90 50 91
REMARK H PARENT 70 53 44 64
REMARK Flexibility Score: inf
ROOT
ATOM      1  O   UNL A   1      37.706  21.721  25.599  1.00  0.00    -0.374 OA
ENDROOT
BRANCH   1   2
ATOM      2  C   UNL A   1      37.241  22.071  24.292  1.00  0.00     0.202 C 
BRANCH   2   3
ATOM      3  C   UNL A   1      36.100  23.102  24.219  1.00  0.00     0.261 C 
BRANCH   3   4
ATOM      4  O   UNL A   1      35.555  23.171  22.898  1.00  0.00    -0.463 OA
BRANCH   4   5
ATOM      5  C   UNL A   1      34.224  23.416  22.766  1.00  0.00     0.316 C 
ATOM      6  O   UNL A   1      33.628  23.413  21.699  1.00  0.00    -0.251 OA
BRANCH   5   7
ATOM      7  C   UNL A   1      33.611  23.625  24.154  1.00  0.00     0.157 C 
ATOM      8  C   UNL A   1      32.644  27.704  25.368  1.00  0.00     0.161 A 
ATOM      9  C   UNL A   1      31.986  26.606  25.921  1.00  0.00     0.064 A 
ATOM     10  C   UNL A   1      33.593  27.490  24.371  1.00  0.00     0.161 A 
ATOM     11  C   UNL A   1      32.292  25.295  25.510  1.00  0.00     0.048 A 
ATOM     12  C   UNL A   1      33.845  26.183  23.919  1.00  0.00     0.056 A 
ATOM     13  C   UNL A   1      33.225  25.062  24.491  1.00  0.00    -0.015 A 
ATOM     14  C   UNL A   1      31.603  24.177  26.201  1.00  0.00     0.254 C 
ATOM     15  N   UNL A   1      31.740  22.898  25.670  1.00  0.00    -0.333 N 
ATOM     16  O   UNL A   1      30.942  24.426  27.205  1.00  0.00    -0.269 OA
ATOM     17  C   UNL A   1      32.402  22.672  24.359  1.00  0.00     0.134 C 
ATOM     18  C   UNL A   1      30.902  21.850  26.246  1.00  0.00     0.147 C 
BRANCH   8  19
ATOM     19  O   UNL A   1      32.298  28.983  25.709  1.00  0.00    -0.493 OA
ATOM     20  C   UNL A   1      31.846  29.111  27.055  1.00  0.00     0.278 C 
ENDBRANCH   8  19
BRANCH  10  21
ATOM     21  O   UNL A   1      34.336  28.447  23.738  1.00  0.00    -0.493 OA
ATOM     22  C   UNL A   1      34.196  28.560  22.326  1.00  0.00     0.278 C 
ENDBRANCH  10  21
BRANCH  17  23
ATOM     23  C   UNL A   1      32.749  21.194  24.145  1.00  0.00    -0.024 A 
ATOM     24  C   UNL A   1      32.112  20.397  23.184  1.00  0.00     0.007 A 
ATOM     25  C   UNL A   1      33.757  20.610  24.927  1.00  0.00     0.007 A 
ATOM     26  C   UNL A   1      32.448  19.044  23.048  1.00  0.00     0.015 A 
ATOM     27  C   UNL A   1      34.096  19.260  24.782  1.00  0.00     0.015 A 
ATOM     28  C   UNL A   1      33.441  18.460  23.844  1.00  0.00     0.007 A 
BRANCH  28  29
ATOM     29  S   UNL A   1      33.748  16.711  23.641  1.00  0.00    -0.130 SA
ATOM     30  C   UNL A   1      33.765  16.112  25.353  1.00  0.00     0.091 C 
ENDBRANCH  28  29
ENDBRANCH  17  23
ENDBRANCH   5   7
ENDBRANCH   4   5
ENDBRANCH   3   4
ENDBRANCH   2   3
ENDBRANCH   1   2
BRANCH   1  31
ATOM     31  C   UNL A   1      39.111  21.484  25.773  1.00  0.00     0.202 C 
BRANCH  31  32
ATOM     32  C   UNL A   1      39.537  20.048  26.106  1.00  0.00     0.261 C 
BRANCH  32  33
ATOM     33  O   UNL A   1      40.640  19.632  25.284  1.00  0.00    -0.460 OA
BRANCH  33  34
ATOM     34  C   UNL A   1      41.752  19.281  25.968  1.00  0.00     0.338 C 
ATOM     35  O   UNL A   1      42.211  18.163  26.110  1.00  0.00    -0.246 OA
BRANCH  34  36
ATOM     36  C   UNL A   1      42.432  20.512  26.411  1.00  0.00     0.060 A 
ATOM     37  C   UNL A   1      42.314  20.893  27.750  1.00  0.00     0.016 A 
ATOM     38  C   UNL A   1      43.083  21.340  25.496  1.00  0.00     0.016 A 
ATOM     39  C   UNL A   1      42.792  22.141  28.158  1.00  0.00     0.010 A 
ATOM     40  C   UNL A   1      43.585  22.576  25.910  1.00  0.00     0.010 A 
ATOM     41  C   UNL A   1      43.391  23.006  27.229  1.00  0.00    -0.014 A 
BRANCH  41  42
ATOM     42  C   UNL A   1      43.674  24.413  27.598  1.00  0.00     0.031 A 
ATOM     43  C   UNL A   1      45.096  24.906  27.584  1.00  0.00     0.074 A 
ATOM     44  C   UNL A   1      42.678  25.248  27.940  1.00  0.00     0.049 A 
ATOM     45  N   UNL A   1      45.558  26.109  27.812  1.00  0.00    -0.248 NA
ATOM     46  C   UNL A   1      46.137  23.909  27.283  1.00  0.00     0.031 C 
ATOM     47  C   UNL A   1      41.265  24.889  28.028  1.00  0.00     0.029 A 
ATOM     48  N   UNL A   1      42.712  26.576  28.282  1.00  0.00    -0.354 N 
ATOM     49  C   UNL A   1      46.938  26.014  27.681  1.00  0.00     0.074 A 
ATOM     50  C   UNL A   1      47.243  24.629  27.398  1.00  0.00     0.031 C 
ATOM     51  C   UNL A   1      40.564  25.973  28.403  1.00  0.00     0.029 A 
ATOM     52  C   UNL A   1      41.480  27.097  28.586  1.00  0.00     0.049 A 
ATOM     53  H   UNL A   1      43.542  27.105  28.309  1.00  0.00     0.167 HD
ATOM     54  C   UNL A   1      47.867  26.995  27.767  1.00  0.00     0.037 A 
ATOM     55  C   UNL A   1      41.131  28.341  28.966  1.00  0.00     0.037 A 
ATOM     56  C   UNL A   1      47.570  28.376  28.036  1.00  0.00     0.049 A 
ATOM     57  C   UNL A   1      42.181  29.414  29.066  1.00  0.00     0.074 A 
ATOM     58  C   UNL A   1      48.434  29.456  28.063  1.00  0.00     0.029 A 
ATOM     59  N   UNL A   1      46.308  28.864  28.340  1.00  0.00    -0.354 N 
ATOM     60  N   UNL A   1      43.469  29.333  28.840  1.00  0.00    -0.248 NA
ATOM     61  C   UNL A   1      41.723  30.755  29.461  1.00  0.00     0.031 C 
ATOM     62  C   UNL A   1      47.703  30.593  28.426  1.00  0.00     0.029 A 
ATOM     63  C   UNL A   1      46.376  30.225  28.587  1.00  0.00     0.049 A 
ATOM     64  H   UNL A   1      45.486  28.323  28.376  1.00  0.00     0.167 HD
ATOM     65  C   UNL A   1      43.973  30.612  29.046  1.00  0.00     0.074 A 
ATOM     66  C   UNL A   1      42.849  31.452  29.403  1.00  0.00     0.031 C 
ATOM     67  C   UNL A   1      45.252  31.050  28.946  1.00  0.00     0.037 A 
BRANCH  54  68
ATOM     68  C   UNL A   1      49.300  26.605  27.565  1.00  0.00     0.057 A 
ATOM     69  C   UNL A   1      49.867  26.523  26.287  1.00  0.00     0.134 A 
ATOM     70  C   UNL A   1      50.129  26.338  28.661  1.00  0.00     0.134 A 
ATOM     71  F   UNL A   1      49.122  26.754  25.196  1.00  0.00    -0.206 F 
ATOM     72  C   UNL A   1      51.205  26.167  26.105  1.00  0.00     0.040 A 
ATOM     73  C   UNL A   1      51.474  26.002  28.493  1.00  0.00     0.040 A 
ATOM     74  F   UNL A   1      49.648  26.404  29.912  1.00  0.00    -0.206 F 
ATOM     75  C   UNL A   1      52.013  25.912  27.211  1.00  0.00     0.006 A 
ENDBRANCH  54  68
BRANCH  55  76
ATOM     76  C   UNL A   1      39.711  28.644  29.263  1.00  0.00     0.057 A 
ATOM     77  C   UNL A   1      38.857  29.147  28.277  1.00  0.00     0.134 A 
ATOM     78  C   UNL A   1      39.176  28.433  30.539  1.00  0.00     0.134 A 
ATOM     79  F   UNL A   1      39.319  29.389  27.042  1.00  0.00    -0.206 F 
ATOM     80  C   UNL A   1      37.521  29.442  28.551  1.00  0.00     0.040 A 
ATOM     81  C   UNL A   1      37.839  28.705  30.823  1.00  0.00     0.040 A 
ATOM     82  F   UNL A   1      39.948  27.951  31.524  1.00  0.00    -0.206 F 
ATOM     83  C   UNL A   1      37.006  29.214  29.827  1.00  0.00     0.006 A 
ENDBRANCH  55  76
BRANCH  67  84
ATOM     84  C   UNL A   1      45.505  32.503  29.214  1.00  0.00     0.057 A 
ATOM     85  C   UNL A   1      45.854  32.966  30.488  1.00  0.00     0.134 A 
ATOM     86  C   UNL A   1      45.442  33.443  28.178  1.00  0.00     0.134 A 
ATOM     87  F   UNL A   1      45.921  32.117  31.525  1.00  0.00    -0.206 F 
ATOM     88  C   UNL A   1      46.115  34.316  30.727  1.00  0.00     0.040 A 
ATOM     89  C   UNL A   1      45.721  34.793  28.399  1.00  0.00     0.040 A 
ATOM     90  F   UNL A   1      45.121  33.063  26.932  1.00  0.00    -0.206 F 
ATOM     91  C   UNL A   1      46.055  35.232  29.678  1.00  0.00     0.006 A 
ENDBRANCH  67  84
ENDBRANCH  41  42
ENDBRANCH  34  36
ENDBRANCH  33  34
ENDBRANCH  32  33
ENDBRANCH  31  32
ENDBRANCH   1  31
TORSDOF 18
ENDMDL
MODEL 2
REMARK VINA RESULT:     -11.7      4.794      8.349
REMARK SMILES COc1cc2c(cc1OC)[C@H](C(=O)OCCOCCOC(=O)c1ccc(-c3c4nc(c(-c5c(F)cccc5F)c5ccc([nH]5)c(-c5c(F)cccc5F)c5nc(c(-c6c(F)cccc6F)c6ccc3[nH]6)C=C5)C=C4)cc1)[C@@H](c1ccc(SC)cc1)N(C)C2=O
REMARK SMILES IDX 17 1 16 2 15 3 14 4 12 5 13 6 11 7 3 8 4 9 8 10 5 11 7 12
REMARK SMILES IDX 6 13 88 14 86 15 89 16 77 17 87 18 2 19 1 20 9 21 10 22
REMARK SMILES IDX 78 23 79 24 85 25 80 26 84 27 81 28 82 29 83 30 18 31 19 32
REMARK SMILES IDX 20 33 21 34 22 35 23 36 24 37 76 38 25 39 75 40 26 41 27 42
REMARK SMILES IDX 28 43 69 44 29 45 74 46 68 47 70 48 30 49 73 50 67 51 66 52
REMARK SMILES IDX 31 54 57 55 40 56 56 57 41 58 44 59 55 60 71 61 42 62 43 63
REMARK SMILES IDX 54 65 72 66 45 67 32 68 33 69 38 70 34 71 35 72 37 73 39 74
REMARK SMILES IDX 36 75 58 76 59 77 64 78 60 79 61 80 63 81 65 82 62 83 46 84
REMARK SMILES IDX 47 85 52 86 48 87 49 88 51 89 53 90 50 91
REMARK H PARENT 70 53 44 64
REMARK Flexibility Score: inf
ROOT
ATOM      1  O   UNL A   1      37.720  22.306  25.926  1.00  0.00    -0.374 OA
ENDROOT
BRANCH   1   2
ATOM      2  C   UNL A   1      37.157  22.220  24.614  1.00  0.00     0.202 C 
BRANCH   2   3
ATOM      3  C   UNL A   1      36.185  23.341  24.204  1.00  0.00     0.261 C 
BRANCH   3   4
ATOM      4  O   UNL A   1      35.536  23.031  22.967  1.00  0.00    -0.463 OA
BRANCH   4   5
ATOM      5  C   UNL A   1      34.253  23.448  22.795  1.00  0.00     0.316 C 
ATOM      6  O   UNL A   1      33.714  23.576  21.705  1.00  0.00    -0.251 OA
BRANCH   5   7
ATOM      7  C   UNL A   1      33.603  23.657  24.166  1.00  0.00     0.157 C 
ATOM      8  C   UNL A   1      32.627  27.740  25.361  1.00  0.00     0.161 A 
ATOM      9  C   UNL A   1      31.947  26.645  25.894  1.00  0.00     0.064 A 
ATOM     10  C   UNL A   1      33.602  27.523  24.391  1.00  0.00     0.161 A 
ATOM     11  C   UNL A   1      32.257  25.333  25.488  1.00  0.00     0.048 A 
ATOM     12  C   UNL A   1      33.859  26.214  23.943  1.00  0.00     0.056 A 
ATOM     13  C   UNL A   1      33.216  25.096  24.495  1.00  0.00    -0.015 A 
ATOM     14  C   UNL A   1      31.543  24.217  26.157  1.00  0.00     0.254 C 
ATOM     15  N   UNL A   1      31.686  22.939  25.627  1.00  0.00    -0.333 N 
ATOM     16  O   UNL A   1      30.855  24.468  27.143  1.00  0.00    -0.269 OA
ATOM     17  C   UNL A   1      32.383  22.711  24.335  1.00  0.00     0.134 C 
ATOM     18  C   UNL A   1      30.827  21.895  26.178  1.00  0.00     0.147 C 
BRANCH   8  19
ATOM     19  O   UNL A   1      32.279  29.020  25.696  1.00  0.00    -0.493 OA
ATOM     20  C   UNL A   1      31.211  29.545  24.910  1.00  0.00     0.278 C 
ENDBRANCH   8  19
BRANCH  10  21
ATOM     21  O   UNL A   1      34.368  28.476  23.780  1.00  0.00    -0.493 OA
ATOM     22  C   UNL A   1      34.055  28.807  22.432  1.00  0.00     0.278 C 
ENDBRANCH  10  21
BRANCH  17  23
ATOM     23  C   UNL A   1      32.728  21.232  24.127  1.00  0.00    -0.024 A 
ATOM     24  C   UNL A   1      32.146  20.453  23.118  1.00  0.00     0.007 A 
ATOM     25  C   UNL A   1      33.676  20.628  24.967  1.00  0.00     0.007 A 
ATOM     26  C   UNL A   1      32.475  19.097  22.989  1.00  0.00     0.015 A 
ATOM     27  C   UNL A   1      34.009  19.276  24.829  1.00  0.00     0.015 A 
ATOM     28  C   UNL A   1      33.408  18.493  23.841  1.00  0.00     0.007 A 
BRANCH  28  29
ATOM     29  S   UNL A   1      33.708  16.743  23.639  1.00  0.00    -0.130 SA
ATOM     30  C   UNL A   1      33.856  16.167  25.352  1.00  0.00     0.091 C 
ENDBRANCH  28  29
ENDBRANCH  17  23
ENDBRANCH   5   7
ENDBRANCH   4   5
ENDBRANCH   3   4
ENDBRANCH   2   3
ENDBRANCH   1   2
BRANCH   1  31
ATOM     31  C   UNL A   1      39.092  21.921  26.097  1.00  0.00     0.202 C 
BRANCH  31  32
ATOM     32  C   UNL A   1      40.058  22.999  26.606  1.00  0.00     0.261 C 
BRANCH  32  33
ATOM     33  O   UNL A   1      39.486  24.311  26.471  1.00  0.00    -0.460 OA
BRANCH  33  34
ATOM     34  C   UNL A   1      40.386  25.300  26.273  1.00  0.00     0.338 C 
ATOM     35  O   UNL A   1      40.894  25.639  25.219  1.00  0.00    -0.246 OA
BRANCH  34  36
ATOM     36  C   UNL A   1      40.559  26.031  27.540  1.00  0.00     0.060 A 
ATOM     37  C   UNL A   1      39.565  25.919  28.516  1.00  0.00     0.016 A 
ATOM     38  C   UNL A   1      41.630  26.907  27.724  1.00  0.00     0.016 A 
ATOM     39  C   UNL A   1      39.610  26.737  29.647  1.00  0.00     0.010 A 
ATOM     40  C   UNL A   1      41.689  27.706  28.867  1.00  0.00     0.010 A 
ATOM     41  C   UNL A   1      40.650  27.665  29.807  1.00  0.00    -0.014 A 
BRANCH  41  42
ATOM     42  C   UNL A   1      40.572  28.695  30.869  1.00  0.00     0.031 A 
ATOM     43  C   UNL A   1      39.546  29.790  30.757  1.00  0.00     0.074 A 
ATOM     44  C   UNL A   1      41.403  28.659  31.925  1.00  0.00     0.049 A 
ATOM     45  N   UNL A   1      39.266  30.753  31.600  1.00  0.00    -0.248 NA
ATOM     46  C   UNL A   1      38.732  29.811  29.531  1.00  0.00     0.031 C 
ATOM     47  C   UNL A   1      42.463  27.676  32.135  1.00  0.00     0.029 A 
ATOM     48  N   UNL A   1      41.482  29.482  33.019  1.00  0.00    -0.354 N 
ATOM     49  C   UNL A   1      38.247  31.488  31.007  1.00  0.00     0.074 A 
ATOM     50  C   UNL A   1      37.988  30.890  29.717  1.00  0.00     0.031 C 
ATOM     51  C   UNL A   1      43.090  27.954  33.290  1.00  0.00     0.029 A 
ATOM     52  C   UNL A   1      42.479  29.137  33.896  1.00  0.00     0.049 A 
ATOM     53  H   UNL A   1      40.881  30.249  33.162  1.00  0.00     0.167 HD
ATOM     54  C   UNL A   1      37.573  32.554  31.502  1.00  0.00     0.037 A 
ATOM     55  C   UNL A   1      42.855  29.708  35.056  1.00  0.00     0.037 A 
ATOM     56  C   UNL A   1      37.818  33.145  32.789  1.00  0.00     0.049 A 
ATOM     57  C   UNL A   1      42.099  30.898  35.582  1.00  0.00     0.074 A 
ATOM     58  C   UNL A   1      37.133  34.175  33.410  1.00  0.00     0.029 A 
ATOM     59  N   UNL A   1      38.839  32.767  33.647  1.00  0.00    -0.354 N 
ATOM     60  N   UNL A   1      41.072  31.521  35.059  1.00  0.00    -0.248 NA
ATOM     61  C   UNL A   1      42.548  31.453  36.867  1.00  0.00     0.031 C 
ATOM     62  C   UNL A   1      37.767  34.449  34.628  1.00  0.00     0.029 A 
ATOM     63  C   UNL A   1      38.823  33.564  34.780  1.00  0.00     0.049 A 
ATOM     64  H   UNL A   1      39.481  32.040  33.477  1.00  0.00     0.167 HD
ATOM     65  C   UNL A   1      40.740  32.529  35.957  1.00  0.00     0.074 A 
ATOM     66  C   UNL A   1      41.668  32.424  37.064  1.00  0.00     0.031 C 
ATOM     67  C   UNL A   1      39.754  33.454  35.872  1.00  0.00     0.037 A 
BRANCH  54  68
ATOM     68  C   UNL A   1      36.500  33.147  30.641  1.00  0.00     0.057 A 
ATOM     69  C   UNL A   1      35.144  32.873  30.860  1.00  0.00     0.134 A 
ATOM     70  C   UNL A   1      36.823  34.027  29.601  1.00  0.00     0.134 A 
ATOM     71  F   UNL A   1      34.770  32.028  31.833  1.00  0.00    -0.206 F 
ATOM     72  C   UNL A   1      34.147  33.436  30.061  1.00  0.00     0.040 A 
ATOM     73  C   UNL A   1      35.835  34.613  28.808  1.00  0.00     0.040 A 
ATOM     74  F   UNL A   1      38.103  34.335  29.341  1.00  0.00    -0.206 F 
ATOM     75  C   UNL A   1      34.493  34.314  29.035  1.00  0.00     0.006 A 
ENDBRANCH  54  68
BRANCH  55  76
ATOM     76  C   UNL A   1      43.998  29.145  35.812  1.00  0.00     0.057 A 
ATOM     77  C   UNL A   1      45.295  29.637  35.635  1.00  0.00     0.134 A 
ATOM     78  C   UNL A   1      43.818  28.104  36.730  1.00  0.00     0.134 A 
ATOM     79  F   UNL A   1      45.530  30.619  34.753  1.00  0.00    -0.206 F 
ATOM     80  C   UNL A   1      46.378  29.107  36.337  1.00  0.00     0.040 A 
ATOM     81  C   UNL A   1      44.888  27.577  37.453  1.00  0.00     0.040 A 
ATOM     82  F   UNL A   1      42.597  27.592  36.942  1.00  0.00    -0.206 F 
ATOM     83  C   UNL A   1      46.174  28.077  37.255  1.00  0.00     0.006 A 
ENDBRANCH  55  76
BRANCH  67  84
ATOM     84  C   UNL A   1      39.617  34.420  37.010  1.00  0.00     0.057 A 
ATOM     85  C   UNL A   1      40.144  35.716  36.942  1.00  0.00     0.134 A 
ATOM     86  C   UNL A   1      38.913  34.068  38.169  1.00  0.00     0.134 A 
ATOM     87  F   UNL A   1      40.838  36.111  35.864  1.00  0.00    -0.206 F 
ATOM     88  C   UNL A   1      39.991  36.621  37.993  1.00  0.00     0.040 A 
ATOM     89  C   UNL A   1      38.735  34.971  39.218  1.00  0.00     0.040 A 
ATOM     90  F   UNL A   1      38.376  32.844  38.293  1.00  0.00    -0.206 F 
ATOM     91  C   UNL A   1      39.279  36.250  39.133  1.00  0.00     0.006 A 
ENDBRANCH  67  84
ENDBRANCH  41  42
ENDBRANCH  34  36
ENDBRANCH  33  34
ENDBRANCH  32  33
ENDBRANCH  31  32
ENDBRANCH   1  31
TORSDOF 18
ENDMDL
MODEL 3
REMARK VINA RESULT:     -11.5      1.285      5.951
REMARK SMILES COc1cc2c(cc1OC)[C@H](C(=O)OCCOCCOC(=O)c1ccc(-c3c4nc(c(-c5c(F)cccc5F)c5ccc([nH]5)c(-c5c(F)cccc5F)c5nc(c(-c6c(F)cccc6F)c6ccc3[nH]6)C=C5)C=C4)cc1)[C@@H](c1ccc(SC)cc1)N(C)C2=O
REMARK SMILES IDX 17 1 16 2 15 3 14 4 12 5 13 6 11 7 3 8 4 9 8 10 5 11 7 12
REMARK SMILES IDX 6 13 88 14 86 15 89 16 77 17 87 18 2 19 1 20 9 21 10 22
REMARK SMILES IDX 78 23 79 24 85 25 80 26 84 27 81 28 82 29 83 30 18 31 19 32
REMARK SMILES IDX 20 33 21 34 22 35 23 36 24 37 76 38 25 39 75 40 26 41 27 42
REMARK SMILES IDX 28 43 69 44 29 45 74 46 68 47 70 48 30 49 73 50 67 51 66 52
REMARK SMILES IDX 31 54 57 55 40 56 56 57 41 58 44 59 55 60 71 61 42 62 43 63
REMARK SMILES IDX 54 65 72 66 45 67 32 68 33 69 38 70 34 71 35 72 37 73 39 74
REMARK SMILES IDX 36 75 58 76 59 77 64 78 60 79 61 80 63 81 65 82 62 83 46 84
REMARK SMILES IDX 47 85 52 86 48 87 49 88 51 89 53 90 50 91
REMARK H PARENT 70 53 44 64
REMARK Flexibility Score: inf
ROOT
ATOM      1  O   UNL A   1      38.049  21.181  25.002  1.00  0.00    -0.374 OA
ENDROOT
BRANCH   1   2
ATOM      2  C   UNL A   1      36.710  21.661  24.853  1.00  0.00     0.202 C 
BRANCH   2   3
ATOM      3  C   UNL A   1      36.435  22.580  23.650  1.00  0.00     0.261 C 
BRANCH   3   4
ATOM      4  O   UNL A   1      35.589  23.673  24.021  1.00  0.00    -0.463 OA
BRANCH   4   5
ATOM      5  C   UNL A   1      34.318  23.693  23.537  1.00  0.00     0.316 C 
ATOM      6  O   UNL A   1      34.025  23.469  22.371  1.00  0.00    -0.251 OA
BRANCH   5   7
ATOM      7  C   UNL A   1      33.345  23.969  24.687  1.00  0.00     0.157 C 
ATOM      8  C   UNL A   1      31.941  28.065  25.233  1.00  0.00     0.161 A 
ATOM      9  C   UNL A   1      31.197  26.975  25.686  1.00  0.00     0.064 A 
ATOM     10  C   UNL A   1      33.132  27.832  24.549  1.00  0.00     0.161 A 
ATOM     11  C   UNL A   1      31.650  25.658  25.488  1.00  0.00     0.048 A 
ATOM     12  C   UNL A   1      33.543  26.511  24.298  1.00  0.00     0.056 A 
ATOM     13  C   UNL A   1      32.832  25.402  24.780  1.00  0.00    -0.015 A 
ATOM     14  C   UNL A   1      30.840  24.556  26.066  1.00  0.00     0.254 C 
ATOM     15  N   UNL A   1      31.161  23.251  25.706  1.00  0.00    -0.333 N 
ATOM     16  O   UNL A   1      29.923  24.842  26.832  1.00  0.00    -0.269 OA
ATOM     17  C   UNL A   1      32.161  22.966  24.645  1.00  0.00     0.134 C 
ATOM     18  C   UNL A   1      30.236  22.203  26.128  1.00  0.00     0.147 C 
BRANCH   8  19
ATOM     19  O   UNL A   1      31.470  29.344  25.356  1.00  0.00    -0.493 OA
ATOM     20  C   UNL A   1      30.653  29.757  24.263  1.00  0.00     0.278 C 
ENDBRANCH   8  19
BRANCH  10  21
ATOM     21  O   UNL A   1      33.984  28.780  24.055  1.00  0.00    -0.493 OA
ATOM     22  C   UNL A   1      34.029  28.952  22.643  1.00  0.00     0.278 C 
ENDBRANCH  10  21
BRANCH  17  23
ATOM     23  C   UNL A   1      32.606  21.499  24.662  1.00  0.00    -0.024 A 
ATOM     24  C   UNL A   1      33.325  20.937  25.726  1.00  0.00     0.007 A 
ATOM     25  C   UNL A   1      32.270  20.672  23.578  1.00  0.00     0.007 A 
ATOM     26  C   UNL A   1      33.733  19.597  25.678  1.00  0.00     0.015 A 
ATOM     27  C   UNL A   1      32.671  19.332  23.539  1.00  0.00     0.015 A 
ATOM     28  C   UNL A   1      33.412  18.781  24.586  1.00  0.00     0.007 A 
BRANCH  28  29
ATOM     29  S   UNL A   1      34.036  17.106  24.589  1.00  0.00    -0.130 SA
ATOM     30  C   UNL A   1      32.911  16.267  25.738  1.00  0.00     0.091 C 
ENDBRANCH  28  29
ENDBRANCH  17  23
ENDBRANCH   5   7
ENDBRANCH   4   5
ENDBRANCH   3   4
ENDBRANCH   2   3
ENDBRANCH   1   2
BRANCH   1  31
ATOM     31  C   UNL A   1      38.260  19.761  24.997  1.00  0.00     0.202 C 
BRANCH  31  32
ATOM     32  C   UNL A   1      39.284  19.209  25.998  1.00  0.00     0.261 C 
BRANCH  32  33
ATOM     33  O   UNL A   1      40.607  19.209  25.437  1.00  0.00    -0.460 OA
BRANCH  33  34
ATOM     34  C   UNL A   1      41.601  19.368  26.339  1.00  0.00     0.338 C 
ATOM     35  O   UNL A   1      42.391  18.527  26.727  1.00  0.00    -0.246 OA
BRANCH  34  36
ATOM     36  C   UNL A   1      41.686  20.798  26.689  1.00  0.00     0.060 A 
ATOM     37  C   UNL A   1      41.255  21.740  25.752  1.00  0.00     0.016 A 
ATOM     38  C   UNL A   1      42.286  21.211  27.880  1.00  0.00     0.016 A 
ATOM     39  C   UNL A   1      41.490  23.098  25.979  1.00  0.00     0.010 A 
ATOM     40  C   UNL A   1      42.496  22.570  28.119  1.00  0.00     0.010 A 
ATOM     41  C   UNL A   1      42.150  23.516  27.144  1.00  0.00    -0.014 A 
BRANCH  41  42
ATOM     42  C   UNL A   1      42.616  24.917  27.274  1.00  0.00     0.031 A 
ATOM     43  C   UNL A   1      41.720  25.932  27.932  1.00  0.00     0.074 A 
ATOM     44  C   UNL A   1      43.824  25.285  26.816  1.00  0.00     0.049 A 
ATOM     45  N   UNL A   1      41.953  27.191  28.202  1.00  0.00    -0.248 NA
ATOM     46  C   UNL A   1      40.380  25.471  28.330  1.00  0.00     0.031 C 
ATOM     47  C   UNL A   1      44.771  24.411  26.129  1.00  0.00     0.029 A 
ATOM     48  N   UNL A   1      44.455  26.502  26.859  1.00  0.00    -0.354 N 
ATOM     49  C   UNL A   1      40.794  27.670  28.800  1.00  0.00     0.074 A 
ATOM     50  C   UNL A   1      39.843  26.581  28.814  1.00  0.00     0.031 C 
ATOM     51  C   UNL A   1      45.867  25.122  25.812  1.00  0.00     0.029 A 
ATOM     52  C   UNL A   1      45.694  26.500  26.268  1.00  0.00     0.049 A 
ATOM     53  H   UNL A   1      44.058  27.302  27.273  1.00  0.00     0.167 HD
ATOM     54  C   UNL A   1      40.550  28.900  29.312  1.00  0.00     0.037 A 
ATOM     55  C   UNL A   1      46.587  27.496  26.116  1.00  0.00     0.037 A 
ATOM     56  C   UNL A   1      41.496  29.983  29.312  1.00  0.00     0.049 A 
ATOM     57  C   UNL A   1      46.291  28.858  26.682  1.00  0.00     0.074 A 
ATOM     58  C   UNL A   1      41.369  31.239  29.878  1.00  0.00     0.029 A 
ATOM     59  N   UNL A   1      42.740  29.941  28.702  1.00  0.00    -0.354 N 
ATOM     60  N   UNL A   1      45.232  29.269  27.335  1.00  0.00    -0.248 NA
ATOM     61  C   UNL A   1      47.323  29.890  26.501  1.00  0.00     0.031 C 
ATOM     62  C   UNL A   1      42.521  31.974  29.574  1.00  0.00     0.029 A 
ATOM     63  C   UNL A   1      43.379  31.161  28.851  1.00  0.00     0.049 A 
ATOM     64  H   UNL A   1      43.114  29.161  28.232  1.00  0.00     0.167 HD
ATOM     65  C   UNL A   1      45.476  30.599  27.659  1.00  0.00     0.074 A 
ATOM     66  C   UNL A   1      46.790  30.920  27.141  1.00  0.00     0.031 C 
ATOM     67  C   UNL A   1      44.684  31.471  28.327  1.00  0.00     0.037 A 
BRANCH  54  68
ATOM     68  C   UNL A   1      39.200  29.137  29.918  1.00  0.00     0.057 A 
ATOM     69  C   UNL A   1      38.115  29.575  29.148  1.00  0.00     0.134 A 
ATOM     70  C   UNL A   1      38.974  28.894  31.278  1.00  0.00     0.134 A 
ATOM     71  F   UNL A   1      38.270  29.837  27.841  1.00  0.00    -0.206 F 
ATOM     72  C   UNL A   1      36.857  29.785  29.715  1.00  0.00     0.040 A 
ATOM     73  C   UNL A   1      37.716  29.080  31.852  1.00  0.00     0.040 A 
ATOM     74  F   UNL A   1      39.971  28.468  32.069  1.00  0.00    -0.206 F 
ATOM     75  C   UNL A   1      36.654  29.531  31.070  1.00  0.00     0.006 A 
ENDBRANCH  54  68
BRANCH  55  76
ATOM     76  C   UNL A   1      47.862  27.233  25.407  1.00  0.00     0.057 A 
ATOM     77  C   UNL A   1      48.988  26.767  26.093  1.00  0.00     0.134 A 
ATOM     78  C   UNL A   1      47.980  27.440  24.028  1.00  0.00     0.134 A 
ATOM     79  F   UNL A   1      48.939  26.572  27.418  1.00  0.00    -0.206 F 
ATOM     80  C   UNL A   1      50.194  26.526  25.434  1.00  0.00     0.040 A 
ATOM     81  C   UNL A   1      49.173  27.184  23.353  1.00  0.00     0.040 A 
ATOM     82  F   UNL A   1      46.933  27.885  23.318  1.00  0.00    -0.206 F 
ATOM     83  C   UNL A   1      50.287  26.728  24.057  1.00  0.00     0.006 A 
ENDBRANCH  55  76
BRANCH  67  84
ATOM     84  C   UNL A   1      45.217  32.855  28.549  1.00  0.00     0.057 A 
ATOM     85  C   UNL A   1      46.022  33.165  29.652  1.00  0.00     0.134 A 
ATOM     86  C   UNL A   1      44.960  33.878  27.627  1.00  0.00     0.134 A 
ATOM     87  F   UNL A   1      46.297  32.232  30.576  1.00  0.00    -0.206 F 
ATOM     88  C   UNL A   1      46.538  34.448  29.840  1.00  0.00     0.040 A 
ATOM     89  C   UNL A   1      45.488  35.159  27.792  1.00  0.00     0.040 A 
ATOM     90  F   UNL A   1      44.203  33.644  26.544  1.00  0.00    -0.206 F 
ATOM     91  C   UNL A   1      46.276  35.447  28.904  1.00  0.00     0.006 A 
ENDBRANCH  67  84
ENDBRANCH  41  42
ENDBRANCH  34  36
ENDBRANCH  33  34
ENDBRANCH  32  33
ENDBRANCH  31  32
ENDBRANCH   1  31
TORSDOF 18
ENDMDL
