MODEL 1
REMARK VINA RESULT:     -11.5      0.000      0.000
REMARK SMILES COc1ccc2[nH]c(C(=O)c3cc(C)ccn3)c(CC(=O)OCCOCCOC(=O)c3ccc(-c4c5nc(c(-c6c(F)cccc6F)c6ccc([nH]6)c(-c6c(F)cccc6F)c6nc(c(-c7c(F)cccc7F)c7ccc4[nH]7)C=C6)C=C5)cc3)c2c1
REMARK SMILES IDX 24 1 23 2 22 3 20 4 21 5 19 6 18 7 3 8 4 9 86 10 5 11 85 12
REMARK SMILES IDX 6 13 7 14 8 15 2 17 1 18 9 19 10 20 11 21 12 22 17 23 13 24
REMARK SMILES IDX 16 25 14 26 15 27 25 28 26 29 27 30 28 31 29 32 30 33 31 34
REMARK SMILES IDX 32 35 84 36 33 37 83 38 34 39 35 40 36 41 77 42 37 43 82 44
REMARK SMILES IDX 76 45 78 46 38 47 81 48 75 49 74 50 39 52 65 53 48 54 64 55
REMARK SMILES IDX 49 56 52 57 63 58 79 59 50 60 51 61 62 63 80 64 53 65 40 66
REMARK SMILES IDX 41 67 46 68 42 69 43 70 45 71 47 72 44 73 66 74 67 75 72 76
REMARK SMILES IDX 68 77 69 78 71 79 73 80 70 81 54 82 55 83 60 84 56 85 57 86
REMARK SMILES IDX 59 87 61 88 58 89
REMARK H PARENT 7 16 78 51 52 62
REMARK Flexibility Score: inf
ROOT
ATOM      1  C   UNL A   1      33.100  30.460  26.980  1.00  0.00     0.202 C 
ENDROOT
BRANCH   1   2
ATOM      2  C   UNL A   1      33.643  29.756  25.726  1.00  0.00     0.261 C 
BRANCH   2   3
ATOM      3  O   UNL A   1      34.337  28.518  25.994  1.00  0.00    -0.463 OA
BRANCH   3   4
ATOM      4  C   UNL A   1      33.726  27.401  25.507  1.00  0.00     0.310 C 
ATOM      5  O   UNL A   1      34.028  26.868  24.440  1.00  0.00    -0.252 OA
BRANCH   4   6
ATOM      6  C   UNL A   1      32.710  26.760  26.434  1.00  0.00     0.161 C 
BRANCH   6   7
ATOM      7  C   UNL A   1      31.406  26.291  25.845  1.00  0.00     0.000 A 
ATOM      8  C   UNL A   1      29.780  28.817  23.454  1.00  0.00     0.119 A 
ATOM      9  C   UNL A   1      28.710  28.001  23.092  1.00  0.00     0.048 A 
ATOM     10  C   UNL A   1      30.715  28.364  24.396  1.00  0.00     0.057 A 
ATOM     11  C   UNL A   1      28.550  26.727  23.655  1.00  0.00     0.030 A 
ATOM     12  C   UNL A   1      30.594  27.074  24.956  1.00  0.00     0.008 A 
ATOM     13  C   UNL A   1      29.514  26.290  24.571  1.00  0.00     0.046 A 
ATOM     14  N   UNL A   1      29.635  25.091  25.231  1.00  0.00    -0.352 N 
ATOM     15  C   UNL A   1      30.851  25.004  25.880  1.00  0.00     0.093 A 
ATOM     16  H   UNL A   1      28.946  24.388  25.240  1.00  0.00     0.167 HD
BRANCH   8  17
ATOM     17  O   UNL A   1      30.054  30.056  22.939  1.00  0.00    -0.497 OA
ATOM     18  C   UNL A   1      29.138  30.579  21.986  1.00  0.00     0.278 C 
ENDBRANCH   8  17
BRANCH  15  19
ATOM     19  C   UNL A   1      31.400  23.773  26.458  1.00  0.00     0.227 C 
ATOM     20  O   UNL A   1      31.145  23.392  27.598  1.00  0.00    -0.285 OA
BRANCH  19  21
ATOM     21  C   UNL A   1      32.281  22.897  25.626  1.00  0.00     0.113 A 
ATOM     22  C   UNL A   1      33.391  23.397  24.959  1.00  0.00     0.036 A 
ATOM     23  N   UNL A   1      31.904  21.595  25.570  1.00  0.00    -0.253 NA
ATOM     24  C   UNL A   1      34.138  22.508  24.175  1.00  0.00    -0.047 A 
ATOM     25  C   UNL A   1      32.628  20.762  24.804  1.00  0.00     0.112 A 
ATOM     26  C   UNL A   1      35.364  22.949  23.435  1.00  0.00     0.044 C 
ATOM     27  C   UNL A   1      33.738  21.169  24.092  1.00  0.00     0.023 A 
ENDBRANCH  19  21
ENDBRANCH  15  19
ENDBRANCH   6   7
ENDBRANCH   4   6
ENDBRANCH   3   4
ENDBRANCH   2   3
ENDBRANCH   1   2
BRANCH   1  28
ATOM     28  O   UNL A   1      31.726  30.846  26.982  1.00  0.00    -0.374 OA
BRANCH  28  29
ATOM     29  C   UNL A   1      31.436  32.213  26.712  1.00  0.00     0.202 C 
BRANCH  29  30
ATOM     30  C   UNL A   1      32.542  33.230  26.999  1.00  0.00     0.261 C 
BRANCH  30  31
ATOM     31  O   UNL A   1      32.366  34.006  28.184  1.00  0.00    -0.460 OA
BRANCH  31  32
ATOM     32  C   UNL A   1      33.453  34.706  28.562  1.00  0.00     0.338 C 
ATOM     33  O   UNL A   1      33.578  35.913  28.706  1.00  0.00    -0.246 OA
BRANCH  32  34
ATOM     34  C   UNL A   1      34.528  33.756  28.847  1.00  0.00     0.060 A 
ATOM     35  C   UNL A   1      34.256  32.672  29.686  1.00  0.00     0.016 A 
ATOM     36  C   UNL A   1      35.814  34.007  28.369  1.00  0.00     0.016 A 
ATOM     37  C   UNL A   1      35.303  31.855  30.100  1.00  0.00     0.010 A 
ATOM     38  C   UNL A   1      36.859  33.185  28.781  1.00  0.00     0.010 A 
ATOM     39  C   UNL A   1      36.612  32.133  29.681  1.00  0.00    -0.014 A 
BRANCH  39  40
ATOM     40  C   UNL A   1      37.744  31.419  30.305  1.00  0.00     0.031 A 
ATOM     41  C   UNL A   1      38.073  31.701  31.744  1.00  0.00     0.074 A 
ATOM     42  C   UNL A   1      38.449  30.521  29.597  1.00  0.00     0.049 A 
ATOM     43  N   UNL A   1      39.034  31.217  32.484  1.00  0.00    -0.248 NA
ATOM     44  C   UNL A   1      37.201  32.663  32.439  1.00  0.00     0.031 C 
ATOM     45  C   UNL A   1      38.194  30.158  28.203  1.00  0.00     0.029 A 
ATOM     46  N   UNL A   1      39.527  29.756  29.955  1.00  0.00    -0.354 N 
ATOM     47  C   UNL A   1      38.886  31.816  33.729  1.00  0.00     0.074 A 
ATOM     48  C   UNL A   1      37.764  32.722  33.637  1.00  0.00     0.031 C 
ATOM     49  C   UNL A   1      39.097  29.240  27.822  1.00  0.00     0.029 A 
ATOM     50  C   UNL A   1      40.007  28.975  28.933  1.00  0.00     0.049 A 
ATOM     51  H   UNL A   1      39.920  29.765  30.857  1.00  0.00     0.167 HD
ATOM     52  C   UNL A   1      39.616  31.614  34.852  1.00  0.00     0.037 A 
ATOM     53  C   UNL A   1      41.071  28.152  28.902  1.00  0.00     0.037 A 
ATOM     54  C   UNL A   1      40.730  30.708  34.930  1.00  0.00     0.049 A 
ATOM     55  C   UNL A   1      41.898  27.983  30.149  1.00  0.00     0.074 A 
ATOM     56  C   UNL A   1      41.537  30.422  36.017  1.00  0.00     0.029 A 
ATOM     57  N   UNL A   1      41.195  29.941  33.871  1.00  0.00    -0.354 N 
ATOM     58  N   UNL A   1      41.738  28.537  31.327  1.00  0.00    -0.248 NA
ATOM     59  C   UNL A   1      43.047  27.072  30.064  1.00  0.00     0.031 C 
ATOM     60  C   UNL A   1      42.514  29.509  35.604  1.00  0.00     0.029 A 
ATOM     61  C   UNL A   1      42.288  29.194  34.273  1.00  0.00     0.049 A 
ATOM     62  H   UNL A   1      40.805  29.931  32.967  1.00  0.00     0.167 HD
ATOM     63  C   UNL A   1      42.746  28.020  32.131  1.00  0.00     0.074 A 
ATOM     64  C   UNL A   1      43.507  27.103  31.307  1.00  0.00     0.031 C 
ATOM     65  C   UNL A   1      43.018  28.278  33.434  1.00  0.00     0.037 A 
BRANCH  52  66
ATOM     66  C   UNL A   1      39.242  32.404  36.072  1.00  0.00     0.057 A 
ATOM     67  C   UNL A   1      38.347  31.906  37.028  1.00  0.00     0.134 A 
ATOM     68  C   UNL A   1      39.801  33.666  36.305  1.00  0.00     0.134 A 
ATOM     69  F   UNL A   1      37.763  30.710  36.855  1.00  0.00    -0.206 F 
ATOM     70  C   UNL A   1      38.006  32.646  38.162  1.00  0.00     0.040 A 
ATOM     71  C   UNL A   1      39.486  34.404  37.447  1.00  0.00     0.040 A 
ATOM     72  F   UNL A   1      40.666  34.200  35.430  1.00  0.00    -0.206 F 
ATOM     73  C   UNL A   1      38.581  33.896  38.377  1.00  0.00     0.006 A 
ENDBRANCH  52  66
BRANCH  53  74
ATOM     74  C   UNL A   1      41.413  27.428  27.653  1.00  0.00     0.057 A 
ATOM     75  C   UNL A   1      40.941  26.134  27.409  1.00  0.00     0.134 A 
ATOM     76  C   UNL A   1      42.224  28.014  26.672  1.00  0.00     0.134 A 
ATOM     77  F   UNL A   1      40.177  25.513  28.319  1.00  0.00    -0.206 F 
ATOM     78  C   UNL A   1      41.272  25.442  26.244  1.00  0.00     0.040 A 
ATOM     79  C   UNL A   1      42.543  27.343  25.490  1.00  0.00     0.040 A 
ATOM     80  F   UNL A   1      42.706  29.254  26.844  1.00  0.00    -0.206 F 
ATOM     81  C   UNL A   1      42.071  26.050  25.277  1.00  0.00     0.006 A 
ENDBRANCH  53  74
BRANCH  65  82
ATOM     82  C   UNL A   1      44.157  27.528  34.055  1.00  0.00     0.057 A 
ATOM     83  C   UNL A   1      43.985  26.262  34.624  1.00  0.00     0.134 A 
ATOM     84  C   UNL A   1      45.451  28.063  34.037  1.00  0.00     0.134 A 
ATOM     85  F   UNL A   1      42.767  25.701  34.681  1.00  0.00    -0.206 F 
ATOM     86  C   UNL A   1      45.059  25.559  35.171  1.00  0.00     0.040 A 
ATOM     87  C   UNL A   1      46.536  27.361  34.560  1.00  0.00     0.040 A 
ATOM     88  F   UNL A   1      45.683  29.270  33.497  1.00  0.00    -0.206 F 
ATOM     89  C   UNL A   1      46.341  26.106  35.134  1.00  0.00     0.006 A 
ENDBRANCH  65  82
ENDBRANCH  39  40
ENDBRANCH  32  34
ENDBRANCH  31  32
ENDBRANCH  30  31
ENDBRANCH  29  30
ENDBRANCH  28  29
ENDBRANCH   1  28
TORSDOF 18
ENDMDL
MODEL 2
REMARK VINA RESULT:     -11.5      3.668      5.944
REMARK SMILES COc1ccc2[nH]c(C(=O)c3cc(C)ccn3)c(CC(=O)OCCOCCOC(=O)c3ccc(-c4c5nc(c(-c6c(F)cccc6F)c6ccc([nH]6)c(-c6c(F)cccc6F)c6nc(c(-c7c(F)cccc7F)c7ccc4[nH]7)C=C6)C=C5)cc3)c2c1
REMARK SMILES IDX 24 1 23 2 22 3 20 4 21 5 19 6 18 7 3 8 4 9 86 10 5 11 85 12
REMARK SMILES IDX 6 13 7 14 8 15 2 17 1 18 9 19 10 20 11 21 12 22 17 23 13 24
REMARK SMILES IDX 16 25 14 26 15 27 25 28 26 29 27 30 28 31 29 32 30 33 31 34
REMARK SMILES IDX 32 35 84 36 33 37 83 38 34 39 35 40 36 41 77 42 37 43 82 44
REMARK SMILES IDX 76 45 78 46 38 47 81 48 75 49 74 50 39 52 65 53 48 54 64 55
REMARK SMILES IDX 49 56 52 57 63 58 79 59 50 60 51 61 62 63 80 64 53 65 40 66
REMARK SMILES IDX 41 67 46 68 42 69 43 70 45 71 47 72 44 73 66 74 67 75 72 76
REMARK SMILES IDX 68 77 69 78 71 79 73 80 70 81 54 82 55 83 60 84 56 85 57 86
REMARK SMILES IDX 59 87 61 88 58 89
REMARK H PARENT 7 16 78 51 52 62
REMARK Flexibility Score: inf
ROOT
ATOM      1  C   UNL A   1      35.312  32.630  28.105  1.00  0.00     0.202 C 
ENDROOT
BRANCH   1   2
ATOM      2  C   UNL A   1      33.953  31.960  27.845  1.00  0.00     0.261 C 
BRANCH   2   3
ATOM      3  O   UNL A   1      34.036  30.712  27.122  1.00  0.00    -0.463 OA
BRANCH   3   4
ATOM      4  C   UNL A   1      32.860  30.283  26.582  1.00  0.00     0.310 C 
ATOM      5  O   UNL A   1      31.755  30.552  27.051  1.00  0.00    -0.252 OA
BRANCH   4   6
ATOM      6  C   UNL A   1      32.983  29.539  25.265  1.00  0.00     0.161 C 
BRANCH   6   7
ATOM      7  C   UNL A   1      31.914  28.541  24.909  1.00  0.00     0.000 A 
ATOM      8  C   UNL A   1      28.976  30.042  22.944  1.00  0.00     0.119 A 
ATOM      9  C   UNL A   1      28.302  28.837  22.755  1.00  0.00     0.048 A 
ATOM     10  C   UNL A   1      30.168  30.066  23.683  1.00  0.00     0.057 A 
ATOM     11  C   UNL A   1      28.795  27.640  23.294  1.00  0.00     0.030 A 
ATOM     12  C   UNL A   1      30.703  28.871  24.211  1.00  0.00     0.008 A 
ATOM     13  C   UNL A   1      30.002  27.689  24.002  1.00  0.00     0.046 A 
ATOM     14  N   UNL A   1      30.731  26.683  24.587  1.00  0.00    -0.352 N 
ATOM     15  C   UNL A   1      31.966  27.142  25.000  1.00  0.00     0.093 A 
ATOM     16  H   UNL A   1      30.415  25.758  24.699  1.00  0.00     0.167 HD
BRANCH   8  17
ATOM     17  O   UNL A   1      28.607  31.256  22.430  1.00  0.00    -0.497 OA
ATOM     18  C   UNL A   1      28.083  31.269  21.109  1.00  0.00     0.278 C 
ENDBRANCH   8  17
BRANCH  15  19
ATOM     19  C   UNL A   1      33.075  26.283  25.425  1.00  0.00     0.227 C 
ATOM     20  O   UNL A   1      33.707  26.462  26.463  1.00  0.00    -0.285 OA
BRANCH  19  21
ATOM     21  C   UNL A   1      33.450  25.096  24.594  1.00  0.00     0.113 A 
ATOM     22  C   UNL A   1      34.772  24.710  24.426  1.00  0.00     0.036 A 
ATOM     23  N   UNL A   1      32.406  24.448  24.019  1.00  0.00    -0.253 NA
ATOM     24  C   UNL A   1      35.031  23.607  23.602  1.00  0.00    -0.047 A 
ATOM     25  C   UNL A   1      32.677  23.400  23.224  1.00  0.00     0.112 A 
ATOM     26  C   UNL A   1      36.423  23.101  23.375  1.00  0.00     0.044 C 
ATOM     27  C   UNL A   1      33.959  22.951  22.984  1.00  0.00     0.023 A 
ENDBRANCH  19  21
ENDBRANCH  15  19
ENDBRANCH   6   7
ENDBRANCH   4   6
ENDBRANCH   3   4
ENDBRANCH   2   3
ENDBRANCH   1   2
BRANCH   1  28
ATOM     28  O   UNL A   1      35.329  33.802  28.919  1.00  0.00    -0.374 OA
BRANCH  28  29
ATOM     29  C   UNL A   1      34.267  33.956  29.856  1.00  0.00     0.202 C 
BRANCH  29  30
ATOM     30  C   UNL A   1      34.581  33.652  31.321  1.00  0.00     0.261 C 
BRANCH  30  31
ATOM     31  O   UNL A   1      34.801  32.276  31.626  1.00  0.00    -0.460 OA
BRANCH  31  32
ATOM     32  C   UNL A   1      35.759  32.051  32.547  1.00  0.00     0.338 C 
ATOM     33  O   UNL A   1      35.793  32.395  33.719  1.00  0.00    -0.246 OA
BRANCH  32  34
ATOM     34  C   UNL A   1      36.804  31.240  31.926  1.00  0.00     0.060 A 
ATOM     35  C   UNL A   1      37.962  30.967  32.659  1.00  0.00     0.016 A 
ATOM     36  C   UNL A   1      36.673  30.849  30.593  1.00  0.00     0.016 A 
ATOM     37  C   UNL A   1      39.032  30.341  32.029  1.00  0.00     0.010 A 
ATOM     38  C   UNL A   1      37.744  30.218  29.966  1.00  0.00     0.010 A 
ATOM     39  C   UNL A   1      38.941  30.001  30.672  1.00  0.00    -0.014 A 
BRANCH  39  40
ATOM     40  C   UNL A   1      40.151  29.559  29.947  1.00  0.00     0.031 A 
ATOM     41  C   UNL A   1      41.267  30.542  29.737  1.00  0.00     0.074 A 
ATOM     42  C   UNL A   1      40.249  28.294  29.505  1.00  0.00     0.049 A 
ATOM     43  N   UNL A   1      42.402  30.384  29.109  1.00  0.00    -0.248 NA
ATOM     44  C   UNL A   1      41.076  31.885  30.310  1.00  0.00     0.031 C 
ATOM     45  C   UNL A   1      39.231  27.259  29.681  1.00  0.00     0.029 A 
ATOM     46  N   UNL A   1      41.253  27.670  28.814  1.00  0.00    -0.354 N 
ATOM     47  C   UNL A   1      43.058  31.605  29.208  1.00  0.00     0.074 A 
ATOM     48  C   UNL A   1      42.184  32.504  29.927  1.00  0.00     0.031 C 
ATOM     49  C   UNL A   1      39.663  26.124  29.106  1.00  0.00     0.029 A 
ATOM     50  C   UNL A   1      40.970  26.364  28.500  1.00  0.00     0.049 A 
ATOM     51  H   UNL A   1      42.095  28.114  28.566  1.00  0.00     0.167 HD
ATOM     52  C   UNL A   1      44.287  31.939  28.748  1.00  0.00     0.037 A 
ATOM     53  C   UNL A   1      41.686  25.473  27.788  1.00  0.00     0.037 A 
ATOM     54  C   UNL A   1      45.148  31.035  28.034  1.00  0.00     0.049 A 
ATOM     55  C   UNL A   1      43.027  25.884  27.245  1.00  0.00     0.074 A 
ATOM     56  C   UNL A   1      46.414  31.266  27.527  1.00  0.00     0.029 A 
ATOM     57  N   UNL A   1      44.823  29.722  27.723  1.00  0.00    -0.354 N 
ATOM     58  N   UNL A   1      43.648  27.034  27.361  1.00  0.00    -0.248 NA
ATOM     59  C   UNL A   1      43.770  24.875  26.479  1.00  0.00     0.031 C 
ATOM     60  C   UNL A   1      46.841  30.103  26.877  1.00  0.00     0.029 A 
ATOM     61  C   UNL A   1      45.858  29.135  27.018  1.00  0.00     0.049 A 
ATOM     62  H   UNL A   1      43.981  29.276  27.969  1.00  0.00     0.167 HD
ATOM     63  C   UNL A   1      44.865  26.878  26.709  1.00  0.00     0.074 A 
ATOM     64  C   UNL A   1      44.896  25.519  26.206  1.00  0.00     0.031 C 
ATOM     65  C   UNL A   1      45.867  27.775  26.542  1.00  0.00     0.037 A 
BRANCH  52  66
ATOM     66  C   UNL A   1      44.757  33.344  28.988  1.00  0.00     0.057 A 
ATOM     67  C   UNL A   1      45.522  33.685  30.112  1.00  0.00     0.134 A 
ATOM     68  C   UNL A   1      44.461  34.362  28.073  1.00  0.00     0.134 A 
ATOM     69  F   UNL A   1      45.825  32.760  31.035  1.00  0.00    -0.206 F 
ATOM     70  C   UNL A   1      45.958  34.995  30.326  1.00  0.00     0.040 A 
ATOM     71  C   UNL A   1      44.913  35.669  28.266  1.00  0.00     0.040 A 
ATOM     72  F   UNL A   1      43.735  34.103  26.976  1.00  0.00    -0.206 F 
ATOM     73  C   UNL A   1      45.659  35.989  29.398  1.00  0.00     0.006 A 
ENDBRANCH  52  66
BRANCH  53  74
ATOM     74  C   UNL A   1      41.148  24.110  27.552  1.00  0.00     0.057 A 
ATOM     75  C   UNL A   1      41.668  22.998  28.222  1.00  0.00     0.134 A 
ATOM     76  C   UNL A   1      40.103  23.888  26.647  1.00  0.00     0.134 A 
ATOM     77  F   UNL A   1      42.682  23.144  29.086  1.00  0.00    -0.206 F 
ATOM     78  C   UNL A   1      41.178  21.711  27.992  1.00  0.00     0.040 A 
ATOM     79  C   UNL A   1      39.586  22.610  26.425  1.00  0.00     0.040 A 
ATOM     80  F   UNL A   1      39.559  24.914  25.974  1.00  0.00    -0.206 F 
ATOM     81  C   UNL A   1      40.129  21.516  27.095  1.00  0.00     0.006 A 
ENDBRANCH  53  74
BRANCH  65  82
ATOM     82  C   UNL A   1      47.095  27.302  25.823  1.00  0.00     0.057 A 
ATOM     83  C   UNL A   1      47.258  27.479  24.445  1.00  0.00     0.134 A 
ATOM     84  C   UNL A   1      48.146  26.707  26.532  1.00  0.00     0.134 A 
ATOM     85  F   UNL A   1      46.282  28.032  23.709  1.00  0.00    -0.206 F 
ATOM     86  C   UNL A   1      48.419  27.062  23.792  1.00  0.00     0.040 A 
ATOM     87  C   UNL A   1      49.320  26.309  25.895  1.00  0.00     0.040 A 
ATOM     88  F   UNL A   1      48.054  26.519  27.858  1.00  0.00    -0.206 F 
ATOM     89  C   UNL A   1      49.457  26.482  24.519  1.00  0.00     0.006 A 
ENDBRANCH  65  82
ENDBRANCH  39  40
ENDBRANCH  32  34
ENDBRANCH  31  32
ENDBRANCH  30  31
ENDBRANCH  29  30
ENDBRANCH  28  29
ENDBRANCH   1  28
TORSDOF 18
ENDMDL
MODEL 3
REMARK VINA RESULT:     -11.3      4.494      8.641
REMARK SMILES COc1ccc2[nH]c(C(=O)c3cc(C)ccn3)c(CC(=O)OCCOCCOC(=O)c3ccc(-c4c5nc(c(-c6c(F)cccc6F)c6ccc([nH]6)c(-c6c(F)cccc6F)c6nc(c(-c7c(F)cccc7F)c7ccc4[nH]7)C=C6)C=C5)cc3)c2c1
REMARK SMILES IDX 24 1 23 2 22 3 20 4 21 5 19 6 18 7 3 8 4 9 86 10 5 11 85 12
REMARK SMILES IDX 6 13 7 14 8 15 2 17 1 18 9 19 10 20 11 21 12 22 17 23 13 24
REMARK SMILES IDX 16 25 14 26 15 27 25 28 26 29 27 30 28 31 29 32 30 33 31 34
REMARK SMILES IDX 32 35 84 36 33 37 83 38 34 39 35 40 36 41 77 42 37 43 82 44
REMARK SMILES IDX 76 45 78 46 38 47 81 48 75 49 74 50 39 52 65 53 48 54 64 55
REMARK SMILES IDX 49 56 52 57 63 58 79 59 50 60 51 61 62 63 80 64 53 65 40 66
REMARK SMILES IDX 41 67 46 68 42 69 43 70 45 71 47 72 44 73 66 74 67 75 72 76
REMARK SMILES IDX 68 77 69 78 71 79 73 80 70 81 54 82 55 83 60 84 56 85 57 86
REMARK SMILES IDX 59 87 61 88 58 89
REMARK H PARENT 7 16 78 51 52 62
REMARK Flexibility Score: inf
ROOT
ATOM      1  C   UNL A   1      33.325  28.892  25.173  1.00  0.00     0.202 C 
ENDROOT
BRANCH   1   2
ATOM      2  C   UNL A   1      32.885  27.571  25.824  1.00  0.00     0.261 C 
BRANCH   2   3
ATOM      3  O   UNL A   1      33.941  26.594  25.956  1.00  0.00    -0.463 OA
BRANCH   3   4
ATOM      4  C   UNL A   1      33.538  25.296  25.852  1.00  0.00     0.310 C 
ATOM      5  O   UNL A   1      32.517  24.854  26.377  1.00  0.00    -0.252 OA
BRANCH   4   6
ATOM      6  C   UNL A   1      34.371  24.430  24.926  1.00  0.00     0.161 C 
BRANCH   6   7
ATOM      7  C   UNL A   1      33.667  23.683  23.824  1.00  0.00     0.000 A 
ATOM      8  C   UNL A   1      33.053  19.974  24.604  1.00  0.00     0.119 A 
ATOM      9  C   UNL A   1      32.347  19.698  23.435  1.00  0.00     0.048 A 
ATOM     10  C   UNL A   1      33.576  21.258  24.818  1.00  0.00     0.057 A 
ATOM     11  C   UNL A   1      32.147  20.687  22.461  1.00  0.00     0.030 A 
ATOM     12  C   UNL A   1      33.362  22.280  23.868  1.00  0.00     0.008 A 
ATOM     13  C   UNL A   1      32.653  21.967  22.714  1.00  0.00     0.046 A 
ATOM     14  N   UNL A   1      32.565  23.121  21.973  1.00  0.00    -0.352 N 
ATOM     15  C   UNL A   1      33.026  24.207  22.692  1.00  0.00     0.093 A 
ATOM     16  H   UNL A   1      32.221  23.167  21.053  1.00  0.00     0.167 HD
BRANCH   8  17
ATOM     17  O   UNL A   1      33.272  19.099  25.634  1.00  0.00    -0.497 OA
ATOM     18  C   UNL A   1      32.532  17.885  25.622  1.00  0.00     0.278 C 
ENDBRANCH   8  17
BRANCH  15  19
ATOM     19  C   UNL A   1      32.837  25.606  22.299  1.00  0.00     0.227 C 
ATOM     20  O   UNL A   1      33.652  26.232  21.625  1.00  0.00    -0.285 OA
BRANCH  19  21
ATOM     21  C   UNL A   1      31.581  26.319  22.686  1.00  0.00     0.113 A 
ATOM     22  C   UNL A   1      31.333  27.628  22.297  1.00  0.00     0.036 A 
ATOM     23  N   UNL A   1      30.723  25.594  23.447  1.00  0.00    -0.253 NA
ATOM     24  C   UNL A   1      30.145  28.227  22.736  1.00  0.00    -0.047 A 
ATOM     25  C   UNL A   1      29.595  26.191  23.866  1.00  0.00     0.112 A 
ATOM     26  C   UNL A   1      29.779  29.628  22.352  1.00  0.00     0.044 C 
ATOM     27  C   UNL A   1      29.269  27.492  23.544  1.00  0.00     0.023 A 
ENDBRANCH  19  21
ENDBRANCH  15  19
ENDBRANCH   6   7
ENDBRANCH   4   6
ENDBRANCH   3   4
ENDBRANCH   2   3
ENDBRANCH   1   2
BRANCH   1  28
ATOM     28  O   UNL A   1      33.165  30.091  25.930  1.00  0.00    -0.374 OA
BRANCH  28  29
ATOM     29  C   UNL A   1      33.353  29.999  27.338  1.00  0.00     0.202 C 
BRANCH  29  30
ATOM     30  C   UNL A   1      34.698  30.469  27.893  1.00  0.00     0.261 C 
BRANCH  30  31
ATOM     31  O   UNL A   1      35.617  29.430  28.230  1.00  0.00    -0.460 OA
BRANCH  31  32
ATOM     32  C   UNL A   1      36.236  29.592  29.416  1.00  0.00     0.338 C 
ATOM     33  O   UNL A   1      35.746  29.699  30.530  1.00  0.00    -0.246 OA
BRANCH  32  34
ATOM     34  C   UNL A   1      37.679  29.569  29.181  1.00  0.00     0.060 A 
ATOM     35  C   UNL A   1      38.146  29.756  27.877  1.00  0.00     0.016 A 
ATOM     36  C   UNL A   1      38.544  29.258  30.231  1.00  0.00     0.016 A 
ATOM     37  C   UNL A   1      39.499  29.573  27.608  1.00  0.00     0.010 A 
ATOM     38  C   UNL A   1      39.898  29.080  29.959  1.00  0.00     0.010 A 
ATOM     39  C   UNL A   1      40.370  29.196  28.640  1.00  0.00    -0.014 A 
BRANCH  39  40
ATOM     40  C   UNL A   1      41.747  28.772  28.313  1.00  0.00     0.031 A 
ATOM     41  C   UNL A   1      42.003  27.325  27.999  1.00  0.00     0.074 A 
ATOM     42  C   UNL A   1      42.742  29.674  28.281  1.00  0.00     0.049 A 
ATOM     43  N   UNL A   1      43.128  26.725  27.715  1.00  0.00    -0.248 NA
ATOM     44  C   UNL A   1      40.830  26.434  28.011  1.00  0.00     0.031 C 
ATOM     45  C   UNL A   1      42.592  31.104  28.546  1.00  0.00     0.029 A 
ATOM     46  N   UNL A   1      44.077  29.515  28.016  1.00  0.00    -0.354 N 
ATOM     47  C   UNL A   1      42.802  25.389  27.517  1.00  0.00     0.074 A 
ATOM     48  C   UNL A   1      41.381  25.258  27.745  1.00  0.00     0.031 C 
ATOM     49  C   UNL A   1      43.794  31.695  28.434  1.00  0.00     0.029 A 
ATOM     50  C   UNL A   1      44.796  30.680  28.119  1.00  0.00     0.049 A 
ATOM     51  H   UNL A   1      44.481  28.651  27.775  1.00  0.00     0.167 HD
ATOM     52  C   UNL A   1      43.617  24.368  27.165  1.00  0.00     0.037 A 
ATOM     53  C   UNL A   1      46.118  30.892  27.987  1.00  0.00     0.037 A 
ATOM     54  C   UNL A   1      45.031  24.512  26.941  1.00  0.00     0.049 A 
ATOM     55  C   UNL A   1      47.012  29.730  27.644  1.00  0.00     0.074 A 
ATOM     56  C   UNL A   1      45.951  23.546  26.575  1.00  0.00     0.029 A 
ATOM     57  N   UNL A   1      45.728  25.705  27.066  1.00  0.00    -0.354 N 
ATOM     58  N   UNL A   1      46.692  28.475  27.439  1.00  0.00    -0.248 NA
ATOM     59  C   UNL A   1      48.446  30.015  27.508  1.00  0.00     0.031 C 
ATOM     60  C   UNL A   1      47.212  24.148  26.515  1.00  0.00     0.029 A 
ATOM     61  C   UNL A   1      47.070  25.497  26.800  1.00  0.00     0.049 A 
ATOM     62  H   UNL A   1      45.326  26.571  27.307  1.00  0.00     0.167 HD
ATOM     63  C   UNL A   1      47.878  27.826  27.121  1.00  0.00     0.074 A 
ATOM     64  C   UNL A   1      48.923  28.829  27.154  1.00  0.00     0.031 C 
ATOM     65  C   UNL A   1      48.086  26.519  26.827  1.00  0.00     0.037 A 
BRANCH  52  66
ATOM     66  C   UNL A   1      43.000  23.007  27.023  1.00  0.00     0.057 A 
ATOM     67  C   UNL A   1      42.679  22.222  28.138  1.00  0.00     0.134 A 
ATOM     68  C   UNL A   1      42.704  22.485  25.757  1.00  0.00     0.134 A 
ATOM     69  F   UNL A   1      42.953  22.657  29.377  1.00  0.00    -0.206 F 
ATOM     70  C   UNL A   1      42.102  20.958  27.998  1.00  0.00     0.040 A 
ATOM     71  C   UNL A   1      42.105  21.233  25.607  1.00  0.00     0.040 A 
ATOM     72  F   UNL A   1      42.985  23.186  24.649  1.00  0.00    -0.206 F 
ATOM     73  C   UNL A   1      41.808  20.463  26.729  1.00  0.00     0.006 A 
ENDBRANCH  52  66
BRANCH  53  74
ATOM     74  C   UNL A   1      46.674  32.255  28.179  1.00  0.00     0.057 A 
ATOM     75  C   UNL A   1      46.662  33.196  27.144  1.00  0.00     0.134 A 
ATOM     76  C   UNL A   1      47.232  32.647  29.402  1.00  0.00     0.134 A 
ATOM     77  F   UNL A   1      46.158  32.874  25.944  1.00  0.00    -0.206 F 
ATOM     78  C   UNL A   1      47.198  34.474  27.313  1.00  0.00     0.040 A 
ATOM     79  C   UNL A   1      47.750  33.929  29.592  1.00  0.00     0.040 A 
ATOM     80  F   UNL A   1      47.271  31.791  30.434  1.00  0.00    -0.206 F 
ATOM     81  C   UNL A   1      47.738  34.845  28.543  1.00  0.00     0.006 A 
ENDBRANCH  53  74
BRANCH  65  82
ATOM     82  C   UNL A   1      49.485  26.112  26.477  1.00  0.00     0.057 A 
ATOM     83  C   UNL A   1      50.014  26.310  25.197  1.00  0.00     0.134 A 
ATOM     84  C   UNL A   1      50.327  25.561  27.452  1.00  0.00     0.134 A 
ATOM     85  F   UNL A   1      49.253  26.823  24.218  1.00  0.00    -0.206 F 
ATOM     86  C   UNL A   1      51.329  25.955  24.892  1.00  0.00     0.040 A 
ATOM     87  C   UNL A   1      51.650  25.226  27.165  1.00  0.00     0.040 A 
ATOM     88  F   UNL A   1      49.882  25.356  28.701  1.00  0.00    -0.206 F 
ATOM     89  C   UNL A   1      52.153  25.418  25.880  1.00  0.00     0.006 A 
ENDBRANCH  65  82
ENDBRANCH  39  40
ENDBRANCH  32  34
ENDBRANCH  31  32
ENDBRANCH  30  31
ENDBRANCH  29  30
ENDBRANCH  28  29
ENDBRANCH   1  28
TORSDOF 18
ENDMDL
