MODEL 1
REMARK VINA RESULT:     -11.3      0.000      0.000
REMARK SMILES CCC1(C)CC[NH+]([C@@H]2CC[C@]([NH2+]C3CC3)(C(=O)OCCOCCOC(=O)c3ccc(-c4c5nc(c(-c6c(F)cccc6F)c6ccc([nH]6)c(-c6c(F)cccc6F)c6nc(c(-c7c(F)cccc7F)c7ccc4[nH]7)C=C6)C=C5)cc3)C2)CC1
REMARK SMILES IDX 21 1 20 2 19 3 18 4 16 5 17 6 11 7 8 8 9 9 81 10 10 11 7 12
REMARK SMILES IDX 3 13 4 14 5 15 83 16 6 17 82 18 2 20 1 21 12 22 13 25 14 26
REMARK SMILES IDX 15 27 22 28 23 29 24 30 25 31 26 32 27 33 28 34 80 35 29 36
REMARK SMILES IDX 79 37 30 38 31 39 32 40 73 41 33 42 78 43 72 44 74 45 34 46
REMARK SMILES IDX 77 47 71 48 70 49 35 51 61 52 44 53 60 54 45 55 48 56 59 57
REMARK SMILES IDX 75 58 46 59 47 60 58 62 76 63 49 64 36 65 37 66 42 67 38 68
REMARK SMILES IDX 39 69 41 70 43 71 40 72 62 73 63 74 68 75 64 76 65 77 67 78
REMARK SMILES IDX 69 79 66 80 50 81 51 82 56 83 52 84 53 85 55 86 57 87 54 88
REMARK H PARENT 7 19 12 23 12 24 74 50 48 61
REMARK Flexibility Score: inf
ROOT
ATOM      1  O   UNL A   1      40.645  21.757  26.549  1.00  0.00    -0.374 OA
ENDROOT
BRANCH   1   2
ATOM      2  C   UNL A   1      39.401  21.194  26.144  1.00  0.00     0.202 C 
BRANCH   2   3
ATOM      3  C   UNL A   1      38.376  22.114  25.472  1.00  0.00     0.261 C 
BRANCH   3   4
ATOM      4  O   UNL A   1      37.095  22.109  26.111  1.00  0.00    -0.459 OA
BRANCH   4   5
ATOM      5  C   UNL A   1      36.238  21.206  25.570  1.00  0.00     0.368 C 
ATOM      6  O   UNL A   1      36.587  20.170  25.003  1.00  0.00    -0.245 OA
BRANCH   5   7
ATOM      7  C   UNL A   1      34.747  21.607  25.653  1.00  0.00     0.200 C 
ATOM      8  C   UNL A   1      33.021  23.230  25.065  1.00  0.00     0.191 C 
ATOM      9  C   UNL A   1      33.565  23.632  26.440  1.00  0.00     0.072 C 
ATOM     10  C   UNL A   1      34.167  22.398  24.452  1.00  0.00     0.146 C 
ATOM     11  C   UNL A   1      34.660  22.634  26.801  1.00  0.00     0.087 C 
BRANCH   8  12
ATOM     12  N   UNL A   1      32.335  24.244  24.253  1.00  0.00    -0.332 N 
ATOM     13  C   UNL A   1      32.276  27.038  25.367  1.00  0.00    -0.022 C 
ATOM     14  C   UNL A   1      31.431  27.996  24.502  1.00  0.00     0.012 C 
ATOM     15  C   UNL A   1      31.349  25.903  25.877  1.00  0.00     0.068 C 
ATOM     16  C   UNL A   1      33.461  26.472  24.538  1.00  0.00     0.068 C 
ATOM     17  C   UNL A   1      31.113  24.779  24.864  1.00  0.00     0.263 C 
ATOM     18  C   UNL A   1      33.100  25.307  23.618  1.00  0.00     0.263 C 
ATOM     19  H   UNL A   1      32.100  23.645  23.462  1.00  0.00     0.348 HD
BRANCH  13  20
ATOM     20  C   UNL A   1      32.823  27.799  26.612  1.00  0.00     0.004 C 
ATOM     21  C   UNL A   1      31.777  28.254  27.624  1.00  0.00     0.004 C 
ENDBRANCH  13  20
ENDBRANCH   8  12
BRANCH   7  22
ATOM     22  N   UNL A   1      34.064  20.324  25.964  1.00  0.00    -0.329 N 
ATOM     23  H   UNL A   1      33.526  20.473  26.817  1.00  0.00     0.347 HD
ATOM     24  H   UNL A   1      34.829  19.650  26.013  1.00  0.00     0.347 HD
BRANCH  22  25
ATOM     25  C   UNL A   1      33.155  19.743  24.986  1.00  0.00     0.183 C 
ATOM     26  C   UNL A   1      33.583  18.502  24.254  1.00  0.00     0.071 C 
ATOM     27  C   UNL A   1      32.529  18.418  25.316  1.00  0.00     0.071 C 
ENDBRANCH  22  25
ENDBRANCH   7  22
ENDBRANCH   5   7
ENDBRANCH   4   5
ENDBRANCH   3   4
ENDBRANCH   2   3
ENDBRANCH   1   2
BRANCH   1  28
ATOM     28  C   UNL A   1      41.819  20.971  26.331  1.00  0.00     0.202 C 
BRANCH  28  29
ATOM     29  C   UNL A   1      43.037  21.689  25.742  1.00  0.00     0.261 C 
BRANCH  29  30
ATOM     30  O   UNL A   1      42.653  22.851  24.987  1.00  0.00    -0.460 OA
BRANCH  30  31
ATOM     31  C   UNL A   1      43.475  23.918  25.126  1.00  0.00     0.338 C 
ATOM     32  O   UNL A   1      44.521  24.133  24.529  1.00  0.00    -0.246 OA
BRANCH  31  33
ATOM     33  C   UNL A   1      42.827  24.930  25.979  1.00  0.00     0.060 A 
ATOM     34  C   UNL A   1      43.562  26.084  26.285  1.00  0.00     0.016 A 
ATOM     35  C   UNL A   1      41.548  24.739  26.506  1.00  0.00     0.016 A 
ATOM     36  C   UNL A   1      43.043  27.026  27.168  1.00  0.00     0.010 A 
ATOM     37  C   UNL A   1      41.034  25.680  27.401  1.00  0.00     0.010 A 
ATOM     38  C   UNL A   1      41.796  26.804  27.765  1.00  0.00    -0.014 A 
BRANCH  38  39
ATOM     39  C   UNL A   1      41.371  27.659  28.898  1.00  0.00     0.031 A 
ATOM     40  C   UNL A   1      42.128  27.564  30.193  1.00  0.00     0.074 A 
ATOM     41  C   UNL A   1      40.349  28.520  28.766  1.00  0.00     0.049 A 
ATOM     42  N   UNL A   1      41.916  28.180  31.327  1.00  0.00    -0.248 NA
ATOM     43  C   UNL A   1      43.281  26.648  30.212  1.00  0.00     0.031 C 
ATOM     44  C   UNL A   1      39.570  28.728  27.548  1.00  0.00     0.029 A 
ATOM     45  N   UNL A   1      39.789  29.379  29.677  1.00  0.00    -0.354 N 
ATOM     46  C   UNL A   1      42.900  27.721  32.194  1.00  0.00     0.074 A 
ATOM     47  C   UNL A   1      43.692  26.755  31.466  1.00  0.00     0.031 C 
ATOM     48  C   UNL A   1      38.621  29.649  27.791  1.00  0.00     0.029 A 
ATOM     49  C   UNL A   1      38.710  30.070  29.188  1.00  0.00     0.049 A 
ATOM     50  H   UNL A   1      40.129  29.489  30.595  1.00  0.00     0.167 HD
ATOM     51  C   UNL A   1      43.127  28.082  33.479  1.00  0.00     0.037 A 
ATOM     52  C   UNL A   1      37.876  30.928  29.807  1.00  0.00     0.037 A 
ATOM     53  C   UNL A   1      42.337  29.047  34.197  1.00  0.00     0.049 A 
ATOM     54  C   UNL A   1      38.106  31.260  31.258  1.00  0.00     0.074 A 
ATOM     55  C   UNL A   1      42.495  29.496  35.496  1.00  0.00     0.029 A 
ATOM     56  N   UNL A   1      41.232  29.703  33.676  1.00  0.00    -0.354 N 
ATOM     57  N   UNL A   1      39.054  30.841  32.063  1.00  0.00    -0.248 NA
ATOM     58  C   UNL A   1      37.154  32.187  31.884  1.00  0.00     0.031 C 
ATOM     59  C   UNL A   1      41.456  30.389  35.777  1.00  0.00     0.029 A 
ATOM     60  C   UNL A   1      40.682  30.537  34.636  1.00  0.00     0.049 A 
ATOM     61  H   UNL A   1      40.889  29.594  32.759  1.00  0.00     0.167 HD
ATOM     62  C   UNL A   1      38.828  31.474  33.279  1.00  0.00     0.074 A 
ATOM     63  C   UNL A   1      37.662  32.314  33.102  1.00  0.00     0.031 C 
ATOM     64  C   UNL A   1      39.525  31.371  34.439  1.00  0.00     0.037 A 
BRANCH  51  65
ATOM     65  C   UNL A   1      44.259  27.408  34.196  1.00  0.00     0.057 A 
ATOM     66  C   UNL A   1      44.093  26.185  34.862  1.00  0.00     0.134 A 
ATOM     67  C   UNL A   1      45.539  27.977  34.201  1.00  0.00     0.134 A 
ATOM     68  F   UNL A   1      42.890  25.595  34.910  1.00  0.00    -0.206 F 
ATOM     69  C   UNL A   1      45.155  25.565  35.523  1.00  0.00     0.040 A 
ATOM     70  C   UNL A   1      46.614  27.353  34.836  1.00  0.00     0.040 A 
ATOM     71  F   UNL A   1      45.767  29.145  33.582  1.00  0.00    -0.206 F 
ATOM     72  C   UNL A   1      46.422  26.146  35.506  1.00  0.00     0.006 A 
ENDBRANCH  51  65
BRANCH  52  73
ATOM     73  C   UNL A   1      36.737  31.525  29.065  1.00  0.00     0.057 A 
ATOM     74  C   UNL A   1      36.756  32.865  28.663  1.00  0.00     0.134 A 
ATOM     75  C   UNL A   1      35.595  30.775  28.757  1.00  0.00     0.134 A 
ATOM     76  F   UNL A   1      37.812  33.641  28.949  1.00  0.00    -0.206 F 
ATOM     77  C   UNL A   1      35.674  33.444  27.996  1.00  0.00     0.040 A 
ATOM     78  C   UNL A   1      34.517  31.333  28.070  1.00  0.00     0.040 A 
ATOM     79  F   UNL A   1      35.515  29.486  29.115  1.00  0.00    -0.206 F 
ATOM     80  C   UNL A   1      34.552  32.675  27.693  1.00  0.00     0.006 A 
ENDBRANCH  52  73
BRANCH  64  81
ATOM     81  C   UNL A   1      39.069  32.216  35.592  1.00  0.00     0.057 A 
ATOM     82  C   UNL A   1      38.239  31.710  36.599  1.00  0.00     0.134 A 
ATOM     83  C   UNL A   1      39.503  33.542  35.717  1.00  0.00     0.134 A 
ATOM     84  F   UNL A   1      37.778  30.451  36.532  1.00  0.00    -0.206 F 
ATOM     85  C   UNL A   1      37.838  32.499  37.679  1.00  0.00     0.040 A 
ATOM     86  C   UNL A   1      39.133  34.333  36.806  1.00  0.00     0.040 A 
ATOM     87  F   UNL A   1      40.309  34.086  34.792  1.00  0.00    -0.206 F 
ATOM     88  C   UNL A   1      38.292  33.813  37.787  1.00  0.00     0.006 A 
ENDBRANCH  64  81
ENDBRANCH  38  39
ENDBRANCH  31  33
ENDBRANCH  30  31
ENDBRANCH  29  30
ENDBRANCH  28  29
ENDBRANCH   1  28
TORSDOF 18
ENDMDL
MODEL 2
REMARK VINA RESULT:     -10.9      4.887      9.935
REMARK SMILES CCC1(C)CC[NH+]([C@@H]2CC[C@]([NH2+]C3CC3)(C(=O)OCCOCCOC(=O)c3ccc(-c4c5nc(c(-c6c(F)cccc6F)c6ccc([nH]6)c(-c6c(F)cccc6F)c6nc(c(-c7c(F)cccc7F)c7ccc4[nH]7)C=C6)C=C5)cc3)C2)CC1
REMARK SMILES IDX 21 1 20 2 19 3 18 4 16 5 17 6 11 7 8 8 9 9 81 10 10 11 7 12
REMARK SMILES IDX 3 13 4 14 5 15 83 16 6 17 82 18 2 20 1 21 12 22 13 25 14 26
REMARK SMILES IDX 15 27 22 28 23 29 24 30 25 31 26 32 27 33 28 34 80 35 29 36
REMARK SMILES IDX 79 37 30 38 31 39 32 40 73 41 33 42 78 43 72 44 74 45 34 46
REMARK SMILES IDX 77 47 71 48 70 49 35 51 61 52 44 53 60 54 45 55 48 56 59 57
REMARK SMILES IDX 75 58 46 59 47 60 58 62 76 63 49 64 36 65 37 66 42 67 38 68
REMARK SMILES IDX 39 69 41 70 43 71 40 72 62 73 63 74 68 75 64 76 65 77 67 78
REMARK SMILES IDX 69 79 66 80 50 81 51 82 56 83 52 84 53 85 55 86 57 87 54 88
REMARK H PARENT 7 19 12 23 12 24 74 50 48 61
REMARK Flexibility Score: inf
ROOT
ATOM      1  O   UNL A   1      34.349  32.571  27.945  1.00  0.00    -0.374 OA
ENDROOT
BRANCH   1   2
ATOM      2  C   UNL A   1      33.440  31.546  27.559  1.00  0.00     0.202 C 
BRANCH   2   3
ATOM      3  C   UNL A   1      34.012  30.169  27.204  1.00  0.00     0.261 C 
BRANCH   3   4
ATOM      4  O   UNL A   1      33.312  29.514  26.141  1.00  0.00    -0.459 OA
BRANCH   4   5
ATOM      5  C   UNL A   1      32.639  28.409  26.552  1.00  0.00     0.368 C 
ATOM      6  O   UNL A   1      32.303  28.195  27.717  1.00  0.00    -0.245 OA
BRANCH   5   7
ATOM      7  C   UNL A   1      32.370  27.371  25.438  1.00  0.00     0.200 C 
ATOM      8  C   UNL A   1      32.847  25.150  24.543  1.00  0.00     0.191 C 
ATOM      9  C   UNL A   1      33.829  26.122  23.879  1.00  0.00     0.072 C 
ATOM     10  C   UNL A   1      32.443  25.875  25.844  1.00  0.00     0.146 C 
ATOM     11  C   UNL A   1      33.550  27.507  24.454  1.00  0.00     0.087 C 
BRANCH   8  12
ATOM     12  N   UNL A   1      33.180  23.720  24.574  1.00  0.00    -0.332 N 
ATOM     13  C   UNL A   1      35.981  23.014  25.416  1.00  0.00    -0.022 C 
ATOM     14  C   UNL A   1      36.265  21.503  25.298  1.00  0.00     0.012 C 
ATOM     15  C   UNL A   1      35.631  23.552  24.003  1.00  0.00     0.068 C 
ATOM     16  C   UNL A   1      34.822  23.265  26.420  1.00  0.00     0.068 C 
ATOM     17  C   UNL A   1      34.179  23.313  23.578  1.00  0.00     0.263 C 
ATOM     18  C   UNL A   1      33.421  23.056  25.846  1.00  0.00     0.263 C 
ATOM     19  H   UNL A   1      32.261  23.363  24.315  1.00  0.00     0.348 HD
BRANCH  13  20
ATOM     20  C   UNL A   1      37.264  23.754  25.901  1.00  0.00     0.004 C 
ATOM     21  C   UNL A   1      38.490  22.876  26.127  1.00  0.00     0.004 C 
ENDBRANCH  13  20
ENDBRANCH   8  12
BRANCH   7  22
ATOM     22  N   UNL A   1      31.074  27.815  24.861  1.00  0.00    -0.329 N 
ATOM     23  H   UNL A   1      30.613  28.384  25.571  1.00  0.00     0.347 HD
ATOM     24  H   UNL A   1      30.615  26.941  24.602  1.00  0.00     0.347 HD
BRANCH  22  25
ATOM     25  C   UNL A   1      31.069  28.587  23.628  1.00  0.00     0.183 C 
ATOM     26  C   UNL A   1      30.470  27.971  22.395  1.00  0.00     0.071 C 
ATOM     27  C   UNL A   1      29.742  29.068  23.111  1.00  0.00     0.071 C 
ENDBRANCH  22  25
ENDBRANCH   7  22
ENDBRANCH   5   7
ENDBRANCH   4   5
ENDBRANCH   3   4
ENDBRANCH   2   3
ENDBRANCH   1   2
BRANCH   1  28
ATOM     28  C   UNL A   1      34.200  33.115  29.258  1.00  0.00     0.202 C 
BRANCH  28  29
ATOM     29  C   UNL A   1      35.020  32.466  30.378  1.00  0.00     0.261 C 
BRANCH  29  30
ATOM     30  O   UNL A   1      36.014  31.568  29.853  1.00  0.00    -0.460 OA
BRANCH  30  31
ATOM     31  C   UNL A   1      36.508  30.681  30.749  1.00  0.00     0.338 C 
ATOM     32  O   UNL A   1      36.000  30.333  31.807  1.00  0.00    -0.246 OA
BRANCH  31  33
ATOM     33  C   UNL A   1      37.687  30.009  30.176  1.00  0.00     0.060 A 
ATOM     34  C   UNL A   1      38.584  29.404  31.068  1.00  0.00     0.016 A 
ATOM     35  C   UNL A   1      37.938  30.006  28.803  1.00  0.00     0.016 A 
ATOM     36  C   UNL A   1      39.767  28.845  30.595  1.00  0.00     0.010 A 
ATOM     37  C   UNL A   1      39.132  29.453  28.330  1.00  0.00     0.010 A 
ATOM     38  C   UNL A   1      40.066  28.908  29.229  1.00  0.00    -0.014 A 
BRANCH  38  39
ATOM     39  C   UNL A   1      41.430  28.562  28.767  1.00  0.00     0.031 A 
ATOM     40  C   UNL A   1      41.709  27.148  28.344  1.00  0.00     0.074 A 
ATOM     41  C   UNL A   1      42.393  29.498  28.701  1.00  0.00     0.049 A 
ATOM     42  N   UNL A   1      42.830  26.605  27.944  1.00  0.00    -0.248 NA
ATOM     43  C   UNL A   1      40.569  26.217  28.379  1.00  0.00     0.031 C 
ATOM     44  C   UNL A   1      42.227  30.908  29.045  1.00  0.00     0.029 A 
ATOM     45  N   UNL A   1      43.708  29.393  28.324  1.00  0.00    -0.354 N 
ATOM     46  C   UNL A   1      42.533  25.272  27.688  1.00  0.00     0.074 A 
ATOM     47  C   UNL A   1      41.136  25.080  28.005  1.00  0.00     0.031 C 
ATOM     48  C   UNL A   1      43.402  31.538  28.874  1.00  0.00     0.029 A 
ATOM     49  C   UNL A   1      44.406  30.568  28.440  1.00  0.00     0.049 A 
ATOM     50  H   UNL A   1      44.111  28.555  28.001  1.00  0.00     0.167 HD
ATOM     51  C   UNL A   1      43.351  24.300  27.222  1.00  0.00     0.037 A 
ATOM     52  C   UNL A   1      45.713  30.823  28.238  1.00  0.00     0.037 A 
ATOM     53  C   UNL A   1      44.741  24.499  26.906  1.00  0.00     0.049 A 
ATOM     54  C   UNL A   1      46.619  29.708  27.787  1.00  0.00     0.074 A 
ATOM     55  C   UNL A   1      45.652  23.584  26.410  1.00  0.00     0.029 A 
ATOM     56  N   UNL A   1      45.420  25.697  27.065  1.00  0.00    -0.354 N 
ATOM     57  N   UNL A   1      46.325  28.456  27.524  1.00  0.00    -0.248 NA
ATOM     58  C   UNL A   1      48.038  30.041  27.602  1.00  0.00     0.031 C 
ATOM     59  C   UNL A   1      46.896  24.216  26.315  1.00  0.00     0.029 A 
ATOM     60  C   UNL A   1      46.748  25.539  26.701  1.00  0.00     0.049 A 
ATOM     61  H   UNL A   1      45.019  26.537  27.389  1.00  0.00     0.167 HD
ATOM     62  C   UNL A   1      47.513  27.863  27.115  1.00  0.00     0.074 A 
ATOM     63  C   UNL A   1      48.529  28.894  27.155  1.00  0.00     0.031 C 
ATOM     64  C   UNL A   1      47.743  26.580  26.740  1.00  0.00     0.037 A 
BRANCH  51  65
ATOM     65  C   UNL A   1      42.768  22.928  27.053  1.00  0.00     0.057 A 
ATOM     66  C   UNL A   1      42.451  22.116  28.151  1.00  0.00     0.134 A 
ATOM     67  C   UNL A   1      42.497  22.421  25.776  1.00  0.00     0.134 A 
ATOM     68  F   UNL A   1      42.702  22.534  29.401  1.00  0.00    -0.206 F 
ATOM     69  C   UNL A   1      41.906  20.842  27.983  1.00  0.00     0.040 A 
ATOM     70  C   UNL A   1      41.927  21.160  25.597  1.00  0.00     0.040 A 
ATOM     71  F   UNL A   1      42.774  23.147  24.683  1.00  0.00    -0.206 F 
ATOM     72  C   UNL A   1      41.636  20.363  26.702  1.00  0.00     0.006 A 
ENDBRANCH  51  65
BRANCH  52  73
ATOM     73  C   UNL A   1      46.250  32.187  28.473  1.00  0.00     0.057 A 
ATOM     74  C   UNL A   1      46.725  32.573  29.731  1.00  0.00     0.134 A 
ATOM     75  C   UNL A   1      46.284  33.143  27.449  1.00  0.00     0.134 A 
ATOM     76  F   UNL A   1      46.696  31.709  30.757  1.00  0.00    -0.206 F 
ATOM     77  C   UNL A   1      47.197  33.865  29.970  1.00  0.00     0.040 A 
ATOM     78  C   UNL A   1      46.777  34.430  27.667  1.00  0.00     0.040 A 
ATOM     79  F   UNL A   1      45.844  32.835  26.221  1.00  0.00    -0.206 F 
ATOM     80  C   UNL A   1      47.229  34.796  28.933  1.00  0.00     0.006 A 
ENDBRANCH  52  73
BRANCH  64  81
ATOM     81  C   UNL A   1      49.135  26.230  26.303  1.00  0.00     0.057 A 
ATOM     82  C   UNL A   1      49.615  26.554  25.028  1.00  0.00     0.134 A 
ATOM     83  C   UNL A   1      50.020  25.599  27.187  1.00  0.00     0.134 A 
ATOM     84  F   UNL A   1      48.815  27.148  24.130  1.00  0.00    -0.206 F 
ATOM     85  C   UNL A   1      50.920  26.242  24.640  1.00  0.00     0.040 A 
ATOM     86  C   UNL A   1      51.335  25.307  26.821  1.00  0.00     0.040 A 
ATOM     87  F   UNL A   1      49.626  25.271  28.427  1.00  0.00    -0.206 F 
ATOM     88  C   UNL A   1      51.785  25.623  25.540  1.00  0.00     0.006 A 
ENDBRANCH  64  81
ENDBRANCH  38  39
ENDBRANCH  31  33
ENDBRANCH  30  31
ENDBRANCH  29  30
ENDBRANCH  28  29
ENDBRANCH   1  28
TORSDOF 18
ENDMDL
MODEL 3
REMARK VINA RESULT:     -10.9      3.021      8.140
REMARK SMILES CCC1(C)CC[NH+]([C@@H]2CC[C@]([NH2+]C3CC3)(C(=O)OCCOCCOC(=O)c3ccc(-c4c5nc(c(-c6c(F)cccc6F)c6ccc([nH]6)c(-c6c(F)cccc6F)c6nc(c(-c7c(F)cccc7F)c7ccc4[nH]7)C=C6)C=C5)cc3)C2)CC1
REMARK SMILES IDX 21 1 20 2 19 3 18 4 16 5 17 6 11 7 8 8 9 9 81 10 10 11 7 12
REMARK SMILES IDX 3 13 4 14 5 15 83 16 6 17 82 18 2 20 1 21 12 22 13 25 14 26
REMARK SMILES IDX 15 27 22 28 23 29 24 30 25 31 26 32 27 33 28 34 80 35 29 36
REMARK SMILES IDX 79 37 30 38 31 39 32 40 73 41 33 42 78 43 72 44 74 45 34 46
REMARK SMILES IDX 77 47 71 48 70 49 35 51 61 52 44 53 60 54 45 55 48 56 59 57
REMARK SMILES IDX 75 58 46 59 47 60 58 62 76 63 49 64 36 65 37 66 42 67 38 68
REMARK SMILES IDX 39 69 41 70 43 71 40 72 62 73 63 74 68 75 64 76 65 77 67 78
REMARK SMILES IDX 69 79 66 80 50 81 51 82 56 83 52 84 53 85 55 86 57 87 54 88
REMARK H PARENT 7 19 12 23 12 24 74 50 48 61
REMARK Flexibility Score: inf
ROOT
ATOM      1  O   UNL A   1      32.181  30.726  27.256  1.00  0.00    -0.374 OA
ENDROOT
BRANCH   1   2
ATOM      2  C   UNL A   1      33.158  29.922  26.605  1.00  0.00     0.202 C 
BRANCH   2   3
ATOM      3  C   UNL A   1      33.466  28.540  27.194  1.00  0.00     0.261 C 
BRANCH   3   4
ATOM      4  O   UNL A   1      33.499  27.495  26.217  1.00  0.00    -0.459 OA
BRANCH   4   5
ATOM      5  C   UNL A   1      32.298  26.882  26.058  1.00  0.00     0.368 C 
ATOM      6  O   UNL A   1      31.436  26.806  26.934  1.00  0.00    -0.245 OA
BRANCH   5   7
ATOM      7  C   UNL A   1      32.101  26.202  24.683  1.00  0.00     0.200 C 
ATOM      8  C   UNL A   1      32.677  24.342  23.210  1.00  0.00     0.191 C 
ATOM      9  C   UNL A   1      33.653  25.482  22.897  1.00  0.00     0.072 C 
ATOM     10  C   UNL A   1      32.204  24.655  24.645  1.00  0.00     0.146 C 
ATOM     11  C   UNL A   1      33.312  26.637  23.831  1.00  0.00     0.087 C 
BRANCH   8  12
ATOM     12  N   UNL A   1      33.051  22.970  22.844  1.00  0.00    -0.332 N 
ATOM     13  C   UNL A   1      33.654  21.094  25.118  1.00  0.00    -0.022 C 
ATOM     14  C   UNL A   1      34.154  19.719  24.626  1.00  0.00     0.012 C 
ATOM     15  C   UNL A   1      34.652  22.175  24.624  1.00  0.00     0.068 C 
ATOM     16  C   UNL A   1      32.220  21.364  24.588  1.00  0.00     0.068 C 
ATOM     17  C   UNL A   1      34.437  22.617  23.173  1.00  0.00     0.263 C 
ATOM     18  C   UNL A   1      32.153  21.866  23.146  1.00  0.00     0.263 C 
ATOM     19  H   UNL A   1      32.944  23.067  21.835  1.00  0.00     0.348 HD
BRANCH  13  20
ATOM     20  C   UNL A   1      33.653  21.126  26.675  1.00  0.00     0.004 C 
ATOM     21  C   UNL A   1      34.400  22.290  27.316  1.00  0.00     0.004 C 
ENDBRANCH  13  20
ENDBRANCH   8  12
BRANCH   7  22
ATOM     22  N   UNL A   1      30.815  26.770  24.202  1.00  0.00    -0.329 N 
ATOM     23  H   UNL A   1      30.286  27.051  25.028  1.00  0.00     0.347 HD
ATOM     24  H   UNL A   1      30.418  26.020  23.635  1.00  0.00     0.347 HD
BRANCH  22  25
ATOM     25  C   UNL A   1      30.831  27.913  23.300  1.00  0.00     0.183 C 
ATOM     26  C   UNL A   1      29.528  28.578  22.958  1.00  0.00     0.071 C 
ATOM     27  C   UNL A   1      30.499  29.260  23.874  1.00  0.00     0.071 C 
ENDBRANCH  22  25
ENDBRANCH   7  22
ENDBRANCH   5   7
ENDBRANCH   4   5
ENDBRANCH   3   4
ENDBRANCH   2   3
ENDBRANCH   1   2
BRANCH   1  28
ATOM     28  C   UNL A   1      31.522  31.719  26.467  1.00  0.00     0.202 C 
BRANCH  28  29
ATOM     29  C   UNL A   1      31.725  33.181  26.876  1.00  0.00     0.261 C 
BRANCH  29  30
ATOM     30  O   UNL A   1      33.098  33.453  27.206  1.00  0.00    -0.460 OA
BRANCH  30  31
ATOM     31  C   UNL A   1      33.277  34.250  28.285  1.00  0.00     0.338 C 
ATOM     32  O   UNL A   1      32.564  35.175  28.652  1.00  0.00    -0.246 OA
BRANCH  31  33
ATOM     33  C   UNL A   1      34.375  33.720  29.113  1.00  0.00     0.060 A 
ATOM     34  C   UNL A   1      35.679  34.132  28.800  1.00  0.00     0.016 A 
ATOM     35  C   UNL A   1      34.145  32.807  30.143  1.00  0.00     0.016 A 
ATOM     36  C   UNL A   1      36.763  33.586  29.478  1.00  0.00     0.010 A 
ATOM     37  C   UNL A   1      35.236  32.251  30.816  1.00  0.00     0.010 A 
ATOM     38  C   UNL A   1      36.548  32.610  30.458  1.00  0.00    -0.014 A 
BRANCH  38  39
ATOM     39  C   UNL A   1      37.700  31.839  30.981  1.00  0.00     0.031 A 
ATOM     40  C   UNL A   1      38.203  32.147  32.364  1.00  0.00     0.074 A 
ATOM     41  C   UNL A   1      38.269  30.867  30.249  1.00  0.00     0.049 A 
ATOM     42  N   UNL A   1      39.216  31.635  33.014  1.00  0.00    -0.248 NA
ATOM     43  C   UNL A   1      37.463  33.175  33.115  1.00  0.00     0.031 C 
ATOM     44  C   UNL A   1      37.840  30.453  28.915  1.00  0.00     0.029 A 
ATOM     45  N   UNL A   1      39.338  30.054  30.529  1.00  0.00    -0.354 N 
ATOM     46  C   UNL A   1      39.240  32.282  34.243  1.00  0.00     0.074 A 
ATOM     47  C   UNL A   1      38.161  33.244  34.239  1.00  0.00     0.031 C 
ATOM     48  C   UNL A   1      38.649  29.468  28.485  1.00  0.00     0.029 A 
ATOM     49  C   UNL A   1      39.666  29.207  29.501  1.00  0.00     0.049 A 
ATOM     50  H   UNL A   1      39.822  30.077  31.386  1.00  0.00     0.167 HD
ATOM     51  C   UNL A   1      40.082  32.083  35.284  1.00  0.00     0.037 A 
ATOM     52  C   UNL A   1      40.688  28.336  29.389  1.00  0.00     0.037 A 
ATOM     53  C   UNL A   1      41.153  31.122  35.282  1.00  0.00     0.049 A 
ATOM     54  C   UNL A   1      41.654  28.184  30.534  1.00  0.00     0.074 A 
ATOM     55  C   UNL A   1      42.051  30.829  36.294  1.00  0.00     0.029 A 
ATOM     56  N   UNL A   1      41.474  30.303  34.211  1.00  0.00    -0.354 N 
ATOM     57  N   UNL A   1      41.656  28.782  31.702  1.00  0.00    -0.248 NA
ATOM     58  C   UNL A   1      42.759  27.234  30.346  1.00  0.00     0.031 C 
ATOM     59  C   UNL A   1      42.946  29.867  35.816  1.00  0.00     0.029 A 
ATOM     60  C   UNL A   1      42.573  29.521  34.526  1.00  0.00     0.049 A 
ATOM     61  H   UNL A   1      40.991  30.279  33.353  1.00  0.00     0.167 HD
ATOM     62  C   UNL A   1      42.740  28.259  32.396  1.00  0.00     0.074 A 
ATOM     63  C   UNL A   1      43.366  27.288  31.523  1.00  0.00     0.031 C 
ATOM     64  C   UNL A   1      43.178  28.555  33.646  1.00  0.00     0.037 A 
BRANCH  51  65
ATOM     65  C   UNL A   1      39.893  32.942  36.499  1.00  0.00     0.057 A 
ATOM     66  C   UNL A   1      40.658  34.097  36.717  1.00  0.00     0.134 A 
ATOM     67  C   UNL A   1      38.917  32.625  37.452  1.00  0.00     0.134 A 
ATOM     68  F   UNL A   1      41.622  34.448  35.853  1.00  0.00    -0.206 F 
ATOM     69  C   UNL A   1      40.472  34.892  37.850  1.00  0.00     0.040 A 
ATOM     70  C   UNL A   1      38.704  33.427  38.574  1.00  0.00     0.040 A 
ATOM     71  F   UNL A   1      38.150  31.535  37.303  1.00  0.00    -0.206 F 
ATOM     72  C   UNL A   1      39.488  34.561  38.780  1.00  0.00     0.006 A 
ENDBRANCH  51  65
BRANCH  52  73
ATOM     73  C   UNL A   1      40.861  27.550  28.142  1.00  0.00     0.057 A 
ATOM     74  C   UNL A   1      41.617  28.042  27.073  1.00  0.00     0.134 A 
ATOM     75  C   UNL A   1      40.259  26.295  27.982  1.00  0.00     0.134 A 
ATOM     76  F   UNL A   1      42.199  29.248  27.156  1.00  0.00    -0.206 F 
ATOM     77  C   UNL A   1      41.754  27.325  25.882  1.00  0.00     0.040 A 
ATOM     78  C   UNL A   1      40.408  25.556  26.809  1.00  0.00     0.040 A 
ATOM     79  F   UNL A   1      39.522  25.768  28.970  1.00  0.00    -0.206 F 
ATOM     80  C   UNL A   1      41.153  26.075  25.751  1.00  0.00     0.006 A 
ENDBRANCH  52  73
BRANCH  64  81
ATOM     81  C   UNL A   1      44.365  27.792  34.157  1.00  0.00     0.057 A 
ATOM     82  C   UNL A   1      44.231  26.551  34.791  1.00  0.00     0.134 A 
ATOM     83  C   UNL A   1      45.662  28.288  33.972  1.00  0.00     0.134 A 
ATOM     84  F   UNL A   1      43.016  26.026  35.010  1.00  0.00    -0.206 F 
ATOM     85  C   UNL A   1      45.345  25.841  35.244  1.00  0.00     0.040 A 
ATOM     86  C   UNL A   1      46.784  27.575  34.395  1.00  0.00     0.040 A 
ATOM     87  F   UNL A   1      45.860  29.467  33.362  1.00  0.00    -0.206 F 
ATOM     88  C   UNL A   1      46.626  26.349  35.039  1.00  0.00     0.006 A 
ENDBRANCH  64  81
ENDBRANCH  38  39
ENDBRANCH  31  33
ENDBRANCH  30  31
ENDBRANCH  29  30
ENDBRANCH  28  29
ENDBRANCH   1  28
TORSDOF 18
ENDMDL
