MODEL 1
REMARK VINA RESULT:     -11.5      0.000      0.000
REMARK SMILES Cc1cc2c(c(C)c1Cl)C=C(C(=O)OCCOCCOC(=O)c1ccc(-c3c4nc(c(-c5c(F)cccc5F)c5ccc([nH]5)c(-c5c(F)cccc5F)c5nc(c(-c6c(F)cccc6F)c6ccc3[nH]6)C=C5)C=C4)cc1)[C@@H](C(F)(F)F)O2
REMARK SMILES IDX 18 1 17 2 16 3 15 4 14 5 12 6 13 7 11 8 1 9 2 10 3 11 8 12
REMARK SMILES IDX 4 13 6 14 9 15 5 16 82 17 7 18 10 19 77 20 78 21 79 22 80 23
REMARK SMILES IDX 81 24 19 25 20 26 21 27 22 28 23 29 24 30 76 31 25 32 75 33
REMARK SMILES IDX 26 34 27 35 28 36 69 37 29 38 74 39 68 40 70 41 30 42 73 43
REMARK SMILES IDX 67 44 66 45 31 47 57 48 40 49 56 50 41 51 44 52 55 53 71 54
REMARK SMILES IDX 42 55 43 56 54 58 72 59 45 60 32 61 33 62 38 63 34 64 35 65
REMARK SMILES IDX 37 66 39 67 36 68 58 69 59 70 64 71 60 72 61 73 63 74 65 75
REMARK SMILES IDX 62 76 46 77 47 78 52 79 48 80 49 81 51 82 53 83 50 84
REMARK H PARENT 70 46 44 57
REMARK Flexibility Score: inf
ROOT
ATOM      1  C   UNL A   1      31.403  31.872  26.563  1.00  0.00     0.202 C 
ENDROOT
BRANCH   1   2
ATOM      2  O   UNL A   1      32.282  30.779  26.285  1.00  0.00    -0.374 OA
BRANCH   2   3
ATOM      3  C   UNL A   1      32.173  29.616  27.103  1.00  0.00     0.202 C 
BRANCH   3   4
ATOM      4  C   UNL A   1      32.017  28.282  26.368  1.00  0.00     0.261 C 
BRANCH   4   5
ATOM      5  O   UNL A   1      33.264  27.572  26.302  1.00  0.00    -0.460 OA
BRANCH   5   6
ATOM      6  C   UNL A   1      33.512  26.986  25.109  1.00  0.00     0.338 C 
ATOM      7  O   UNL A   1      33.849  27.542  24.075  1.00  0.00    -0.246 OA
BRANCH   6   8
ATOM      8  C   UNL A   1      33.439  25.520  25.245  1.00  0.00     0.087 C 
ATOM      9  C   UNL A   1      34.501  19.179  24.607  1.00  0.00     0.046 C 
ATOM     10  C   UNL A   1      34.581  20.648  24.922  1.00  0.00    -0.028 A 
ATOM     11  C   UNL A   1      33.393  21.382  25.034  1.00  0.00     0.052 A 
ATOM     12  C   UNL A   1      35.813  21.313  25.083  1.00  0.00     0.047 A 
ATOM     13  C   UNL A   1      33.424  22.763  25.221  1.00  0.00     0.128 A 
ATOM     14  C   UNL A   1      35.862  22.708  25.306  1.00  0.00    -0.021 A 
ATOM     15  Cl  UNL A   1      37.277  20.384  24.971  1.00  0.00    -0.084 Cl
ATOM     16  C   UNL A   1      34.646  23.436  25.315  1.00  0.00     0.022 A 
ATOM     17  O   UNL A   1      32.200  23.368  25.298  1.00  0.00    -0.475 OA
ATOM     18  C   UNL A   1      37.171  23.437  25.507  1.00  0.00     0.047 C 
ATOM     19  C   UNL A   1      34.618  24.894  25.335  1.00  0.00     0.027 C 
ATOM     20  C   UNL A   1      32.116  24.817  25.236  1.00  0.00     0.316 C 
BRANCH  20  21
ATOM     21  C   UNL A   1      31.244  25.195  24.030  1.00  0.00     0.430 C 
ATOM     22  F   UNL A   1      30.588  26.362  24.247  1.00  0.00    -0.167 F 
ATOM     23  F   UNL A   1      31.982  25.373  22.909  1.00  0.00    -0.167 F 
ATOM     24  F   UNL A   1      30.314  24.251  23.759  1.00  0.00    -0.167 F 
ENDBRANCH  20  21
ENDBRANCH   6   8
ENDBRANCH   5   6
ENDBRANCH   4   5
ENDBRANCH   3   4
ENDBRANCH   2   3
ENDBRANCH   1   2
BRANCH   1  25
ATOM     25  C   UNL A   1      32.049  33.250  26.742  1.00  0.00     0.261 C 
BRANCH  25  26
ATOM     26  O   UNL A   1      32.185  33.603  28.131  1.00  0.00    -0.460 OA
BRANCH  26  27
ATOM     27  C   UNL A   1      33.224  34.428  28.408  1.00  0.00     0.338 C 
ATOM     28  O   UNL A   1      33.186  35.634  28.595  1.00  0.00    -0.246 OA
BRANCH  27  29
ATOM     29  C   UNL A   1      34.445  33.638  28.643  1.00  0.00     0.060 A 
ATOM     30  C   UNL A   1      34.286  32.298  29.022  1.00  0.00     0.016 A 
ATOM     31  C   UNL A   1      35.715  34.218  28.595  1.00  0.00     0.016 A 
ATOM     32  C   UNL A   1      35.393  31.545  29.403  1.00  0.00     0.010 A 
ATOM     33  C   UNL A   1      36.824  33.465  28.992  1.00  0.00     0.010 A 
ATOM     34  C   UNL A   1      36.662  32.138  29.433  1.00  0.00    -0.014 A 
BRANCH  34  35
ATOM     35  C   UNL A   1      37.782  31.418  30.082  1.00  0.00     0.031 A 
ATOM     36  C   UNL A   1      38.081  31.694  31.529  1.00  0.00     0.074 A 
ATOM     37  C   UNL A   1      38.490  30.495  29.409  1.00  0.00     0.049 A 
ATOM     38  N   UNL A   1      39.016  31.189  32.293  1.00  0.00    -0.248 NA
ATOM     39  C   UNL A   1      37.206  32.663  32.209  1.00  0.00     0.031 C 
ATOM     40  C   UNL A   1      38.260  30.102  28.020  1.00  0.00     0.029 A 
ATOM     41  N   UNL A   1      39.547  29.717  29.810  1.00  0.00    -0.354 N 
ATOM     42  C   UNL A   1      38.839  31.774  33.541  1.00  0.00     0.074 A 
ATOM     43  C   UNL A   1      37.728  32.695  33.426  1.00  0.00     0.031 C 
ATOM     44  C   UNL A   1      39.154  29.155  27.683  1.00  0.00     0.029 A 
ATOM     45  C   UNL A   1      40.034  28.899  28.821  1.00  0.00     0.049 A 
ATOM     46  H   UNL A   1      39.921  29.744  30.720  1.00  0.00     0.167 HD
ATOM     47  C   UNL A   1      39.532  31.554  34.682  1.00  0.00     0.037 A 
ATOM     48  C   UNL A   1      41.082  28.052  28.831  1.00  0.00     0.037 A 
ATOM     49  C   UNL A   1      40.638  30.641  34.797  1.00  0.00     0.049 A 
ATOM     50  C   UNL A   1      41.893  27.892  30.090  1.00  0.00     0.074 A 
ATOM     51  C   UNL A   1      41.400  30.350  35.913  1.00  0.00     0.029 A 
ATOM     52  N   UNL A   1      41.138  29.875  33.756  1.00  0.00    -0.354 N 
ATOM     53  N   UNL A   1      41.715  28.447  31.264  1.00  0.00    -0.248 NA
ATOM     54  C   UNL A   1      43.055  26.992  30.021  1.00  0.00     0.031 C 
ATOM     55  C   UNL A   1      42.392  29.437  35.538  1.00  0.00     0.029 A 
ATOM     56  C   UNL A   1      42.216  29.129  34.198  1.00  0.00     0.049 A 
ATOM     57  H   UNL A   1      40.780  29.863  32.839  1.00  0.00     0.167 HD
ATOM     58  C   UNL A   1      42.726  27.950  32.078  1.00  0.00     0.074 A 
ATOM     59  C   UNL A   1      43.506  27.038  31.268  1.00  0.00     0.031 C 
ATOM     60  C   UNL A   1      42.983  28.225  33.380  1.00  0.00     0.037 A 
BRANCH  47  61
ATOM     61  C   UNL A   1      39.123  32.324  35.902  1.00  0.00     0.057 A 
ATOM     62  C   UNL A   1      39.574  33.630  36.132  1.00  0.00     0.134 A 
ATOM     63  C   UNL A   1      38.226  31.775  36.827  1.00  0.00     0.134 A 
ATOM     64  F   UNL A   1      40.446  34.205  35.290  1.00  0.00    -0.206 F 
ATOM     65  C   UNL A   1      39.153  34.361  37.244  1.00  0.00     0.040 A 
ATOM     66  C   UNL A   1      37.783  32.503  37.931  1.00  0.00     0.040 A 
ATOM     67  F   UNL A   1      37.756  30.529  36.662  1.00  0.00    -0.206 F 
ATOM     68  C   UNL A   1      38.248  33.800  38.143  1.00  0.00     0.006 A 
ENDBRANCH  47  61
BRANCH  48  69
ATOM     69  C   UNL A   1      41.429  27.291  27.605  1.00  0.00     0.057 A 
ATOM     70  C   UNL A   1      42.302  27.821  26.648  1.00  0.00     0.134 A 
ATOM     71  C   UNL A   1      40.893  26.022  27.358  1.00  0.00     0.134 A 
ATOM     72  F   UNL A   1      42.828  29.043  26.818  1.00  0.00    -0.206 F 
ATOM     73  C   UNL A   1      42.624  27.119  25.486  1.00  0.00     0.040 A 
ATOM     74  C   UNL A   1      41.223  25.300  26.212  1.00  0.00     0.040 A 
ATOM     75  F   UNL A   1      40.048  25.462  28.237  1.00  0.00    -0.206 F 
ATOM     76  C   UNL A   1      42.088  25.850  25.269  1.00  0.00     0.006 A 
ENDBRANCH  48  69
BRANCH  60  77
ATOM     77  C   UNL A   1      44.145  27.525  34.021  1.00  0.00     0.057 A 
ATOM     78  C   UNL A   1      44.008  26.258  34.602  1.00  0.00     0.134 A 
ATOM     79  C   UNL A   1      45.426  28.090  33.989  1.00  0.00     0.134 A 
ATOM     80  F   UNL A   1      42.805  25.669  34.671  1.00  0.00    -0.206 F 
ATOM     81  C   UNL A   1      45.104  25.582  35.140  1.00  0.00     0.040 A 
ATOM     82  C   UNL A   1      46.534  27.413  34.502  1.00  0.00     0.040 A 
ATOM     83  F   UNL A   1      45.626  29.295  33.436  1.00  0.00    -0.206 F 
ATOM     84  C   UNL A   1      46.373  26.156  35.082  1.00  0.00     0.006 A 
ENDBRANCH  60  77
ENDBRANCH  34  35
ENDBRANCH  27  29
ENDBRANCH  26  27
ENDBRANCH  25  26
ENDBRANCH   1  25
TORSDOF 15
ENDMDL
MODEL 2
REMARK VINA RESULT:     -11.3      4.105      7.829
REMARK SMILES Cc1cc2c(c(C)c1Cl)C=C(C(=O)OCCOCCOC(=O)c1ccc(-c3c4nc(c(-c5c(F)cccc5F)c5ccc([nH]5)c(-c5c(F)cccc5F)c5nc(c(-c6c(F)cccc6F)c6ccc3[nH]6)C=C5)C=C4)cc1)[C@@H](C(F)(F)F)O2
REMARK SMILES IDX 18 1 17 2 16 3 15 4 14 5 12 6 13 7 11 8 1 9 2 10 3 11 8 12
REMARK SMILES IDX 4 13 6 14 9 15 5 16 82 17 7 18 10 19 77 20 78 21 79 22 80 23
REMARK SMILES IDX 81 24 19 25 20 26 21 27 22 28 23 29 24 30 76 31 25 32 75 33
REMARK SMILES IDX 26 34 27 35 28 36 69 37 29 38 74 39 68 40 70 41 30 42 73 43
REMARK SMILES IDX 67 44 66 45 31 47 57 48 40 49 56 50 41 51 44 52 55 53 71 54
REMARK SMILES IDX 42 55 43 56 54 58 72 59 45 60 32 61 33 62 38 63 34 64 35 65
REMARK SMILES IDX 37 66 39 67 36 68 58 69 59 70 64 71 60 72 61 73 63 74 65 75
REMARK SMILES IDX 62 76 46 77 47 78 52 79 48 80 49 81 51 82 53 83 50 84
REMARK H PARENT 70 46 44 57
REMARK Flexibility Score: inf
ROOT
ATOM      1  C   UNL A   1      35.933  19.934  24.994  1.00  0.00     0.202 C 
ENDROOT
BRANCH   1   2
ATOM      2  O   UNL A   1      35.074  21.043  25.267  1.00  0.00    -0.374 OA
BRANCH   2   3
ATOM      3  C   UNL A   1      34.940  22.042  24.258  1.00  0.00     0.202 C 
BRANCH   3   4
ATOM      4  C   UNL A   1      33.601  22.783  24.210  1.00  0.00     0.261 C 
BRANCH   4   5
ATOM      5  O   UNL A   1      33.784  24.201  24.342  1.00  0.00    -0.460 OA
BRANCH   5   6
ATOM      6  C   UNL A   1      33.459  24.697  25.558  1.00  0.00     0.338 C 
ATOM      7  O   UNL A   1      33.604  24.145  26.637  1.00  0.00    -0.246 OA
BRANCH   6   8
ATOM      8  C   UNL A   1      32.998  26.091  25.424  1.00  0.00     0.087 C 
ATOM      9  C   UNL A   1      31.356  32.217  26.657  1.00  0.00     0.046 C 
ATOM     10  C   UNL A   1      32.078  30.915  26.435  1.00  0.00    -0.028 A 
ATOM     11  C   UNL A   1      31.484  29.943  25.621  1.00  0.00     0.052 A 
ATOM     12  C   UNL A   1      33.320  30.635  27.038  1.00  0.00     0.047 A 
ATOM     13  C   UNL A   1      32.066  28.686  25.471  1.00  0.00     0.128 A 
ATOM     14  C   UNL A   1      33.942  29.377  26.871  1.00  0.00    -0.021 A 
ATOM     15  Cl  UNL A   1      34.060  31.863  28.021  1.00  0.00    -0.084 Cl
ATOM     16  C   UNL A   1      33.266  28.381  26.123  1.00  0.00     0.022 A 
ATOM     17  O   UNL A   1      31.383  27.819  24.665  1.00  0.00    -0.475 OA
ATOM     18  C   UNL A   1      35.286  29.064  27.488  1.00  0.00     0.047 C 
ATOM     19  C   UNL A   1      33.736  27.002  26.070  1.00  0.00     0.027 C 
ATOM     20  C   UNL A   1      31.760  26.415  24.645  1.00  0.00     0.316 C 
BRANCH  20  21
ATOM     21  C   UNL A   1      30.543  25.585  25.078  1.00  0.00     0.430 C 
ATOM     22  F   UNL A   1      30.510  24.393  24.434  1.00  0.00    -0.167 F 
ATOM     23  F   UNL A   1      30.569  25.306  26.402  1.00  0.00    -0.167 F 
ATOM     24  F   UNL A   1      29.377  26.219  24.819  1.00  0.00    -0.167 F 
ENDBRANCH  20  21
ENDBRANCH   6   8
ENDBRANCH   5   6
ENDBRANCH   4   5
ENDBRANCH   3   4
ENDBRANCH   2   3
ENDBRANCH   1   2
BRANCH   1  25
ATOM     25  C   UNL A   1      37.401  20.253  24.692  1.00  0.00     0.261 C 
BRANCH  25  26
ATOM     26  O   UNL A   1      37.890  21.343  25.497  1.00  0.00    -0.460 OA
BRANCH  26  27
ATOM     27  C   UNL A   1      39.088  21.117  26.088  1.00  0.00     0.338 C 
ATOM     28  O   UNL A   1      39.766  20.103  26.030  1.00  0.00    -0.246 OA
BRANCH  27  29
ATOM     29  C   UNL A   1      39.591  22.361  26.696  1.00  0.00     0.060 A 
ATOM     30  C   UNL A   1      39.019  23.567  26.268  1.00  0.00     0.016 A 
ATOM     31  C   UNL A   1      40.667  22.359  27.586  1.00  0.00     0.016 A 
ATOM     32  C   UNL A   1      39.554  24.781  26.693  1.00  0.00     0.010 A 
ATOM     33  C   UNL A   1      41.212  23.579  28.000  1.00  0.00     0.010 A 
ATOM     34  C   UNL A   1      40.681  24.793  27.525  1.00  0.00    -0.014 A 
BRANCH  34  35
ATOM     35  C   UNL A   1      41.395  26.070  27.758  1.00  0.00     0.031 A 
ATOM     36  C   UNL A   1      40.696  27.165  28.514  1.00  0.00     0.074 A 
ATOM     37  C   UNL A   1      42.665  26.234  27.348  1.00  0.00     0.049 A 
ATOM     38  N   UNL A   1      41.123  28.363  28.822  1.00  0.00    -0.248 NA
ATOM     39  C   UNL A   1      39.335  26.870  28.992  1.00  0.00     0.031 C 
ATOM     40  C   UNL A   1      43.465  25.227  26.655  1.00  0.00     0.029 A 
ATOM     41  N   UNL A   1      43.503  27.314  27.462  1.00  0.00    -0.354 N 
ATOM     42  C   UNL A   1      40.089  28.960  29.532  1.00  0.00     0.074 A 
ATOM     43  C   UNL A   1      39.001  28.007  29.583  1.00  0.00     0.031 C 
ATOM     44  C   UNL A   1      44.682  25.739  26.402  1.00  0.00     0.029 A 
ATOM     45  C   UNL A   1      44.735  27.116  26.889  1.00  0.00     0.049 A 
ATOM     46  H   UNL A   1      43.246  28.151  27.912  1.00  0.00     0.167 HD
ATOM     47  C   UNL A   1      40.055  30.188  30.100  1.00  0.00     0.037 A 
ATOM     48  C   UNL A   1      45.779  27.957  26.760  1.00  0.00     0.037 A 
ATOM     49  C   UNL A   1      41.134  31.137  30.048  1.00  0.00     0.049 A 
ATOM     50  C   UNL A   1      45.682  29.351  27.324  1.00  0.00     0.074 A 
ATOM     51  C   UNL A   1      41.192  32.405  30.596  1.00  0.00     0.029 A 
ATOM     52  N   UNL A   1      42.343  30.920  29.407  1.00  0.00    -0.354 N 
ATOM     53  N   UNL A   1      44.702  29.904  27.996  1.00  0.00    -0.248 NA
ATOM     54  C   UNL A   1      46.835  30.238  27.105  1.00  0.00     0.031 C 
ATOM     55  C   UNL A   1      42.423  32.974  30.250  1.00  0.00     0.029 A 
ATOM     56  C   UNL A   1      43.146  32.042  29.524  1.00  0.00     0.049 A 
ATOM     57  H   UNL A   1      42.594  30.092  28.937  1.00  0.00     0.167 HD
ATOM     58  C   UNL A   1      45.126  31.192  28.297  1.00  0.00     0.074 A 
ATOM     59  C   UNL A   1      46.457  31.335  27.747  1.00  0.00     0.031 C 
ATOM     60  C   UNL A   1      44.469  32.169  28.971  1.00  0.00     0.037 A 
BRANCH  47  61
ATOM     61  C   UNL A   1      38.802  30.584  30.822  1.00  0.00     0.057 A 
ATOM     62  C   UNL A   1      37.728  31.186  30.154  1.00  0.00     0.134 A 
ATOM     63  C   UNL A   1      38.645  30.311  32.186  1.00  0.00     0.134 A 
ATOM     64  F   UNL A   1      37.822  31.485  28.849  1.00  0.00    -0.206 F 
ATOM     65  C   UNL A   1      36.545  31.509  30.819  1.00  0.00     0.040 A 
ATOM     66  C   UNL A   1      37.460  30.612  32.858  1.00  0.00     0.040 A 
ATOM     67  F   UNL A   1      39.637  29.735  32.883  1.00  0.00    -0.206 F 
ATOM     68  C   UNL A   1      36.405  31.213  32.174  1.00  0.00     0.006 A 
ENDBRANCH  47  61
BRANCH  48  69
ATOM     69  C   UNL A   1      47.009  27.508  26.061  1.00  0.00     0.057 A 
ATOM     70  C   UNL A   1      48.096  26.988  26.772  1.00  0.00     0.134 A 
ATOM     71  C   UNL A   1      47.128  27.593  24.669  1.00  0.00     0.134 A 
ATOM     72  F   UNL A   1      48.050  26.905  28.110  1.00  0.00    -0.206 F 
ATOM     73  C   UNL A   1      49.262  26.576  26.125  1.00  0.00     0.040 A 
ATOM     74  C   UNL A   1      48.278  27.164  24.007  1.00  0.00     0.040 A 
ATOM     75  F   UNL A   1      46.120  28.085  23.933  1.00  0.00    -0.206 F 
ATOM     76  C   UNL A   1      49.351  26.657  24.736  1.00  0.00     0.006 A 
ENDBRANCH  48  69
BRANCH  60  77
ATOM     77  C   UNL A   1      45.181  33.475  29.167  1.00  0.00     0.057 A 
ATOM     78  C   UNL A   1      45.023  34.538  28.270  1.00  0.00     0.134 A 
ATOM     79  C   UNL A   1      45.969  33.695  30.303  1.00  0.00     0.134 A 
ATOM     80  F   UNL A   1      44.287  34.386  27.158  1.00  0.00    -0.206 F 
ATOM     81  C   UNL A   1      45.635  35.773  28.490  1.00  0.00     0.040 A 
ATOM     82  C   UNL A   1      46.567  34.933  30.546  1.00  0.00     0.040 A 
ATOM     83  F   UNL A   1      46.151  32.721  31.207  1.00  0.00    -0.206 F 
ATOM     84  C   UNL A   1      46.402  35.976  29.636  1.00  0.00     0.006 A 
ENDBRANCH  60  77
ENDBRANCH  34  35
ENDBRANCH  27  29
ENDBRANCH  26  27
ENDBRANCH  25  26
ENDBRANCH   1  25
TORSDOF 15
ENDMDL
MODEL 3
REMARK VINA RESULT:     -11.2      1.342      6.422
REMARK SMILES Cc1cc2c(c(C)c1Cl)C=C(C(=O)OCCOCCOC(=O)c1ccc(-c3c4nc(c(-c5c(F)cccc5F)c5ccc([nH]5)c(-c5c(F)cccc5F)c5nc(c(-c6c(F)cccc6F)c6ccc3[nH]6)C=C5)C=C4)cc1)[C@@H](C(F)(F)F)O2
REMARK SMILES IDX 18 1 17 2 16 3 15 4 14 5 12 6 13 7 11 8 1 9 2 10 3 11 8 12
REMARK SMILES IDX 4 13 6 14 9 15 5 16 82 17 7 18 10 19 77 20 78 21 79 22 80 23
REMARK SMILES IDX 81 24 19 25 20 26 21 27 22 28 23 29 24 30 76 31 25 32 75 33
REMARK SMILES IDX 26 34 27 35 28 36 69 37 29 38 74 39 68 40 70 41 30 42 73 43
REMARK SMILES IDX 67 44 66 45 31 47 57 48 40 49 56 50 41 51 44 52 55 53 71 54
REMARK SMILES IDX 42 55 43 56 54 58 72 59 45 60 32 61 33 62 38 63 34 64 35 65
REMARK SMILES IDX 37 66 39 67 36 68 58 69 59 70 64 71 60 72 61 73 63 74 65 75
REMARK SMILES IDX 62 76 46 77 47 78 52 79 48 80 49 81 51 82 53 83 50 84
REMARK H PARENT 70 46 44 57
REMARK Flexibility Score: inf
ROOT
ATOM      1  C   UNL A   1      31.370  29.670  25.034  1.00  0.00     0.202 C 
ENDROOT
BRANCH   1   2
ATOM      2  O   UNL A   1      31.162  28.274  24.809  1.00  0.00    -0.374 OA
BRANCH   2   3
ATOM      3  C   UNL A   1      31.018  27.433  25.952  1.00  0.00     0.202 C 
BRANCH   3   4
ATOM      4  C   UNL A   1      31.670  26.051  25.864  1.00  0.00     0.261 C 
BRANCH   4   5
ATOM      5  O   UNL A   1      33.100  26.139  25.971  1.00  0.00    -0.460 OA
BRANCH   5   6
ATOM      6  C   UNL A   1      33.768  25.791  24.848  1.00  0.00     0.338 C 
ATOM      7  O   UNL A   1      33.969  26.489  23.867  1.00  0.00    -0.246 OA
BRANCH   6   8
ATOM      8  C   UNL A   1      34.353  24.447  25.008  1.00  0.00     0.087 C 
ATOM      9  C   UNL A   1      38.385  19.398  24.958  1.00  0.00     0.046 C 
ATOM     10  C   UNL A   1      37.676  20.698  25.228  1.00  0.00    -0.028 A 
ATOM     11  C   UNL A   1      36.308  20.794  24.946  1.00  0.00     0.052 A 
ATOM     12  C   UNL A   1      38.350  21.828  25.732  1.00  0.00     0.047 A 
ATOM     13  C   UNL A   1      35.635  22.006  25.082  1.00  0.00     0.128 A 
ATOM     14  C   UNL A   1      37.676  23.058  25.908  1.00  0.00    -0.021 A 
ATOM     15  Cl  UNL A   1      40.042  21.686  26.106  1.00  0.00    -0.084 Cl
ATOM     16  C   UNL A   1      36.316  23.147  25.520  1.00  0.00     0.022 A 
ATOM     17  O   UNL A   1      34.306  21.975  24.761  1.00  0.00    -0.475 OA
ATOM     18  C   UNL A   1      38.373  24.275  26.472  1.00  0.00     0.047 C 
ATOM     19  C   UNL A   1      35.606  24.420  25.477  1.00  0.00     0.027 C 
ATOM     20  C   UNL A   1      33.576  23.224  24.623  1.00  0.00     0.316 C 
BRANCH  20  21
ATOM     21  C   UNL A   1      33.015  23.296  23.195  1.00  0.00     0.430 C 
ATOM     22  F   UNL A   1      31.912  24.083  23.142  1.00  0.00    -0.167 F 
ATOM     23  F   UNL A   1      33.908  23.829  22.328  1.00  0.00    -0.167 F 
ATOM     24  F   UNL A   1      32.668  22.078  22.723  1.00  0.00    -0.167 F 
ENDBRANCH  20  21
ENDBRANCH   6   8
ENDBRANCH   5   6
ENDBRANCH   4   5
ENDBRANCH   3   4
ENDBRANCH   2   3
ENDBRANCH   1   2
BRANCH   1  25
ATOM     25  C   UNL A   1      32.657  30.068  25.763  1.00  0.00     0.261 C 
BRANCH  25  26
ATOM     26  O   UNL A   1      32.386  30.668  27.044  1.00  0.00    -0.460 OA
BRANCH  26  27
ATOM     27  C   UNL A   1      33.116  31.776  27.318  1.00  0.00     0.338 C 
ATOM     28  O   UNL A   1      32.727  32.933  27.350  1.00  0.00    -0.246 OA
BRANCH  27  29
ATOM     29  C   UNL A   1      34.465  31.391  27.767  1.00  0.00     0.060 A 
ATOM     30  C   UNL A   1      34.677  30.046  28.098  1.00  0.00     0.016 A 
ATOM     31  C   UNL A   1      35.472  32.339  27.960  1.00  0.00     0.016 A 
ATOM     32  C   UNL A   1      35.884  29.651  28.671  1.00  0.00     0.010 A 
ATOM     33  C   UNL A   1      36.677  31.943  28.548  1.00  0.00     0.010 A 
ATOM     34  C   UNL A   1      36.873  30.606  28.940  1.00  0.00    -0.014 A 
BRANCH  34  35
ATOM     35  C   UNL A   1      38.034  30.228  29.778  1.00  0.00     0.031 A 
ATOM     36  C   UNL A   1      39.068  29.297  29.208  1.00  0.00     0.074 A 
ATOM     37  C   UNL A   1      38.194  30.745  31.008  1.00  0.00     0.049 A 
ATOM     38  N   UNL A   1      40.155  28.826  29.764  1.00  0.00    -0.248 NA
ATOM     39  C   UNL A   1      38.852  28.840  27.826  1.00  0.00     0.031 C 
ATOM     40  C   UNL A   1      37.289  31.699  31.647  1.00  0.00     0.029 A 
ATOM     41  N   UNL A   1      39.182  30.540  31.938  1.00  0.00    -0.354 N 
ATOM     42  C   UNL A   1      40.753  28.024  28.800  1.00  0.00     0.074 A 
ATOM     43  C   UNL A   1      39.895  28.045  27.635  1.00  0.00     0.031 C 
ATOM     44  C   UNL A   1      37.763  31.995  32.870  1.00  0.00     0.029 A 
ATOM     45  C   UNL A   1      38.987  31.232  33.108  1.00  0.00     0.049 A 
ATOM     46  H   UNL A   1      39.956  29.954  31.781  1.00  0.00     0.167 HD
ATOM     47  C   UNL A   1      41.919  27.341  28.875  1.00  0.00     0.037 A 
ATOM     48  C   UNL A   1      39.707  31.234  34.247  1.00  0.00     0.037 A 
ATOM     49  C   UNL A   1      42.772  27.316  30.034  1.00  0.00     0.049 A 
ATOM     50  C   UNL A   1      40.954  30.394  34.337  1.00  0.00     0.074 A 
ATOM     51  C   UNL A   1      43.974  26.654  30.203  1.00  0.00     0.029 A 
ATOM     52  N   UNL A   1      42.509  27.982  31.220  1.00  0.00    -0.354 N 
ATOM     53  N   UNL A   1      41.512  29.643  33.419  1.00  0.00    -0.248 NA
ATOM     54  C   UNL A   1      41.667  30.400  35.623  1.00  0.00     0.031 C 
ATOM     55  C   UNL A   1      44.419  26.886  31.509  1.00  0.00     0.029 A 
ATOM     56  C   UNL A   1      43.515  27.727  32.136  1.00  0.00     0.049 A 
ATOM     57  H   UNL A   1      41.723  28.552  31.387  1.00  0.00     0.167 HD
ATOM     58  C   UNL A   1      42.649  29.104  34.007  1.00  0.00     0.074 A 
ATOM     59  C   UNL A   1      42.709  29.624  35.357  1.00  0.00     0.031 C 
ATOM     60  C   UNL A   1      43.561  28.253  33.476  1.00  0.00     0.037 A 
BRANCH  47  61
ATOM     61  C   UNL A   1      42.340  26.550  27.673  1.00  0.00     0.057 A 
ATOM     62  C   UNL A   1      41.939  25.220  27.492  1.00  0.00     0.134 A 
ATOM     63  C   UNL A   1      43.105  27.140  26.661  1.00  0.00     0.134 A 
ATOM     64  F   UNL A   1      41.216  24.594  28.433  1.00  0.00    -0.206 F 
ATOM     65  C   UNL A   1      42.292  24.502  26.348  1.00  0.00     0.040 A 
ATOM     66  C   UNL A   1      43.448  26.440  25.504  1.00  0.00     0.040 A 
ATOM     67  F   UNL A   1      43.519  28.412  26.774  1.00  0.00    -0.206 F 
ATOM     68  C   UNL A   1      43.042  25.116  25.346  1.00  0.00     0.006 A 
ENDBRANCH  47  61
BRANCH  48  69
ATOM     69  C   UNL A   1      39.264  32.056  35.400  1.00  0.00     0.057 A 
ATOM     70  C   UNL A   1      38.438  31.521  36.395  1.00  0.00     0.134 A 
ATOM     71  C   UNL A   1      39.649  33.395  35.532  1.00  0.00     0.134 A 
ATOM     72  F   UNL A   1      38.016  30.251  36.311  1.00  0.00    -0.206 F 
ATOM     73  C   UNL A   1      38.005  32.290  37.476  1.00  0.00     0.040 A 
ATOM     74  C   UNL A   1      39.243  34.170  36.618  1.00  0.00     0.040 A 
ATOM     75  F   UNL A   1      40.438  33.966  34.608  1.00  0.00    -0.206 F 
ATOM     76  C   UNL A   1      38.414  33.618  37.593  1.00  0.00     0.006 A 
ENDBRANCH  48  69
BRANCH  60  77
ATOM     77  C   UNL A   1      44.713  27.840  34.343  1.00  0.00     0.057 A 
ATOM     78  C   UNL A   1      44.662  26.682  35.129  1.00  0.00     0.134 A 
ATOM     79  C   UNL A   1      45.911  28.566  34.334  1.00  0.00     0.134 A 
ATOM     80  F   UNL A   1      43.539  25.949  35.186  1.00  0.00    -0.206 F 
ATOM     81  C   UNL A   1      45.759  26.266  35.884  1.00  0.00     0.040 A 
ATOM     82  C   UNL A   1      47.022  28.147  35.067  1.00  0.00     0.040 A 
ATOM     83  F   UNL A   1      46.029  29.678  33.594  1.00  0.00    -0.206 F 
ATOM     84  C   UNL A   1      46.947  26.994  35.847  1.00  0.00     0.006 A 
ENDBRANCH  60  77
ENDBRANCH  34  35
ENDBRANCH  27  29
ENDBRANCH  26  27
ENDBRANCH  25  26
ENDBRANCH   1  25
TORSDOF 15
ENDMDL
