MODEL 1
REMARK VINA RESULT:     -11.5      0.000      0.000
REMARK SMILES O=C(COc1ccc([N+](=O)[O-])cc1)Nc1ccc(C(=O)OCCOCCOC(=O)c2ccc(-c3c4nc(c(-c5c(F)cccc5F)c5ccc([nH]5)c(-c5c(F)cccc5F)c5nc(c(-c6c(F)cccc6F)c6ccc3[nH]6)C=C5)C=C4)cc2)c(O)c1
REMARK SMILES IDX 22 1 21 2 19 3 20 4 18 5 15 6 16 7 86 8 17 9 84 10 14 11
REMARK SMILES IDX 1 12 2 13 3 15 4 16 5 17 6 18 13 19 7 20 12 21 8 22 9 23
REMARK SMILES IDX 10 24 11 25 85 26 23 28 24 29 25 30 26 31 27 32 28 33 29 34
REMARK SMILES IDX 30 35 31 36 83 37 32 38 82 39 33 40 34 41 35 42 76 43 36 44
REMARK SMILES IDX 81 45 75 46 77 47 37 48 80 49 74 50 73 51 38 53 64 54 47 55
REMARK SMILES IDX 63 56 48 57 51 58 62 59 78 60 49 61 50 62 61 64 79 65 52 66
REMARK SMILES IDX 39 67 40 68 45 69 41 70 42 71 44 72 46 73 43 74 65 75 66 76
REMARK SMILES IDX 71 77 67 78 68 79 70 80 72 81 69 82 53 83 54 84 59 85 55 86
REMARK SMILES IDX 56 87 58 88 60 89 57 90
REMARK H PARENT 14 14 85 27 77 52 51 63
REMARK Flexibility Score: inf
ROOT
ATOM      1  C   UNL A   1      39.009  22.316  26.429  1.00  0.00     0.261 C 
ENDROOT
BRANCH   1   2
ATOM      2  O   UNL A   1      38.495  22.232  25.091  1.00  0.00    -0.460 OA
BRANCH   2   3
ATOM      3  C   UNL A   1      37.492  21.347  24.905  1.00  0.00     0.341 C 
ATOM      4  O   UNL A   1      37.562  20.133  25.030  1.00  0.00    -0.246 OA
BRANCH   3   5
ATOM      5  C   UNL A   1      36.195  22.031  24.690  1.00  0.00     0.101 A 
ATOM      6  C   UNL A   1      33.938  23.630  24.203  1.00  0.00     0.045 A 
ATOM      7  C   UNL A   1      34.916  23.481  23.216  1.00  0.00     0.027 A 
ATOM      8  C   UNL A   1      34.038  22.888  25.384  1.00  0.00     0.073 A 
ATOM      9  C   UNL A   1      36.046  22.702  23.467  1.00  0.00     0.022 A 
ATOM     10  C   UNL A   1      35.161  22.088  25.627  1.00  0.00     0.132 A 
BRANCH   6  11
ATOM     11  N   UNL A   1      32.969  24.629  23.984  1.00  0.00    -0.323 N 
ATOM     12  O   UNL A   1      31.138  23.374  23.263  1.00  0.00    -0.271 OA
ATOM     13  C   UNL A   1      31.635  24.419  23.671  1.00  0.00     0.262 C 
ATOM     14  H   UNL A   1      33.267  25.563  24.059  1.00  0.00     0.170 HD
BRANCH  13  15
ATOM     15  C   UNL A   1      30.763  25.650  23.946  1.00  0.00     0.329 C 
BRANCH  15  16
ATOM     16  O   UNL A   1      31.460  26.895  24.009  1.00  0.00    -0.484 OA
BRANCH  16  17
ATOM     17  C   UNL A   1      30.665  28.008  23.922  1.00  0.00     0.120 A 
ATOM     18  C   UNL A   1      29.498  27.884  23.166  1.00  0.00     0.053 A 
ATOM     19  C   UNL A   1      31.043  29.259  24.418  1.00  0.00     0.053 A 
ATOM     20  C   UNL A   1      28.704  29.004  22.899  1.00  0.00     0.089 A 
ATOM     21  C   UNL A   1      30.267  30.390  24.142  1.00  0.00     0.089 A 
ATOM     22  C   UNL A   1      29.104  30.260  23.374  1.00  0.00     0.269 A 
BRANCH  22  23
ATOM     23  N   UNL A   1      28.319  31.454  23.036  1.00  0.00     0.062 N 
ATOM     24  O   UNL A   1      27.164  31.529  23.479  1.00  0.00    -0.258 OA
ATOM     25  O   UNL A   1      28.855  32.312  22.318  1.00  0.00    -0.258 OA
ENDBRANCH  22  23
ENDBRANCH  16  17
ENDBRANCH  15  16
ENDBRANCH  13  15
ENDBRANCH   6  11
BRANCH  10  26
ATOM     26  O   UNL A   1      35.246  21.414  26.813  1.00  0.00    -0.507 OA
ATOM     27  H   UNL A   1      34.498  21.358  27.375  1.00  0.00     0.293 HD
ENDBRANCH  10  26
ENDBRANCH   3   5
ENDBRANCH   2   3
ENDBRANCH   1   2
BRANCH   1  28
ATOM     28  C   UNL A   1      40.049  21.219  26.661  1.00  0.00     0.202 C 
BRANCH  28  29
ATOM     29  O   UNL A   1      41.082  21.134  25.677  1.00  0.00    -0.374 OA
BRANCH  29  30
ATOM     30  C   UNL A   1      42.428  21.082  26.154  1.00  0.00     0.202 C 
BRANCH  30  31
ATOM     31  C   UNL A   1      43.479  21.742  25.255  1.00  0.00     0.261 C 
BRANCH  31  32
ATOM     32  O   UNL A   1      43.019  22.993  24.714  1.00  0.00    -0.460 OA
BRANCH  32  33
ATOM     33  C   UNL A   1      43.811  24.056  24.980  1.00  0.00     0.338 C 
ATOM     34  O   UNL A   1      44.896  24.318  24.479  1.00  0.00    -0.246 OA
BRANCH  33  35
ATOM     35  C   UNL A   1      43.112  24.993  25.878  1.00  0.00     0.060 A 
ATOM     36  C   UNL A   1      43.636  26.287  26.001  1.00  0.00     0.016 A 
ATOM     37  C   UNL A   1      42.012  24.597  26.642  1.00  0.00     0.016 A 
ATOM     38  C   UNL A   1      43.093  27.176  26.927  1.00  0.00     0.010 A 
ATOM     39  C   UNL A   1      41.475  25.486  27.577  1.00  0.00     0.010 A 
ATOM     40  C   UNL A   1      42.035  26.765  27.748  1.00  0.00    -0.014 A 
BRANCH  40  41
ATOM     41  C   UNL A   1      41.613  27.615  28.887  1.00  0.00     0.031 A 
ATOM     42  C   UNL A   1      42.364  27.513  30.186  1.00  0.00     0.074 A 
ATOM     43  C   UNL A   1      40.586  28.474  28.765  1.00  0.00     0.049 A 
ATOM     44  N   UNL A   1      42.130  28.105  31.329  1.00  0.00    -0.248 NA
ATOM     45  C   UNL A   1      43.533  26.620  30.196  1.00  0.00     0.031 C 
ATOM     46  C   UNL A   1      39.809  28.696  27.547  1.00  0.00     0.029 A 
ATOM     47  N   UNL A   1      40.016  29.313  29.689  1.00  0.00    -0.354 N 
ATOM     48  C   UNL A   1      43.115  27.649  32.197  1.00  0.00     0.074 A 
ATOM     49  C   UNL A   1      43.933  26.713  31.457  1.00  0.00     0.031 C 
ATOM     50  C   UNL A   1      38.850  29.602  27.804  1.00  0.00     0.029 A 
ATOM     51  C   UNL A   1      38.927  29.997  29.209  1.00  0.00     0.049 A 
ATOM     52  H   UNL A   1      40.355  29.415  30.607  1.00  0.00     0.167 HD
ATOM     53  C   UNL A   1      43.322  27.986  33.491  1.00  0.00     0.037 A 
ATOM     54  C   UNL A   1      38.075  30.828  29.841  1.00  0.00     0.037 A 
ATOM     55  C   UNL A   1      42.511  28.921  34.225  1.00  0.00     0.049 A 
ATOM     56  C   UNL A   1      38.284  31.134  31.300  1.00  0.00     0.074 A 
ATOM     57  C   UNL A   1      42.652  29.342  35.535  1.00  0.00     0.029 A 
ATOM     58  N   UNL A   1      41.403  29.575  33.710  1.00  0.00    -0.354 N 
ATOM     59  N   UNL A   1      39.227  30.712  32.107  1.00  0.00    -0.248 NA
ATOM     60  C   UNL A   1      37.309  32.031  31.937  1.00  0.00     0.031 C 
ATOM     61  C   UNL A   1      41.601  30.218  35.827  1.00  0.00     0.029 A 
ATOM     62  C   UNL A   1      40.836  30.380  34.684  1.00  0.00     0.049 A 
ATOM     63  H   UNL A   1      41.069  29.482  32.788  1.00  0.00     0.167 HD
ATOM     64  C   UNL A   1      38.979  31.316  33.335  1.00  0.00     0.074 A 
ATOM     65  C   UNL A   1      37.798  32.137  33.164  1.00  0.00     0.031 C 
ATOM     66  C   UNL A   1      39.668  31.203  34.495  1.00  0.00     0.037 A 
BRANCH  53  67
ATOM     67  C   UNL A   1      44.459  27.318  34.205  1.00  0.00     0.057 A 
ATOM     68  C   UNL A   1      44.302  26.089  34.860  1.00  0.00     0.134 A 
ATOM     69  C   UNL A   1      45.734  27.897  34.214  1.00  0.00     0.134 A 
ATOM     70  F   UNL A   1      43.103  25.489  34.901  1.00  0.00    -0.206 F 
ATOM     71  C   UNL A   1      45.369  25.471  35.514  1.00  0.00     0.040 A 
ATOM     72  C   UNL A   1      46.814  27.277  34.844  1.00  0.00     0.040 A 
ATOM     73  F   UNL A   1      45.953  29.072  33.603  1.00  0.00    -0.206 F 
ATOM     74  C   UNL A   1      46.631  26.063  35.502  1.00  0.00     0.006 A 
ENDBRANCH  53  67
BRANCH  54  75
ATOM     75  C   UNL A   1      36.931  31.420  29.102  1.00  0.00     0.057 A 
ATOM     76  C   UNL A   1      36.961  32.748  28.665  1.00  0.00     0.134 A 
ATOM     77  C   UNL A   1      35.775  30.678  28.834  1.00  0.00     0.134 A 
ATOM     78  F   UNL A   1      38.031  33.517  28.915  1.00  0.00    -0.206 F 
ATOM     79  C   UNL A   1      35.876  33.324  28.001  1.00  0.00     0.040 A 
ATOM     80  C   UNL A   1      34.692  31.232  28.150  1.00  0.00     0.040 A 
ATOM     81  F   UNL A   1      35.684  29.399  29.228  1.00  0.00    -0.206 F 
ATOM     82  C   UNL A   1      34.739  32.562  27.736  1.00  0.00     0.006 A 
ENDBRANCH  54  75
BRANCH  66  83
ATOM     83  C   UNL A   1      39.194  32.016  35.664  1.00  0.00     0.057 A 
ATOM     84  C   UNL A   1      39.563  33.355  35.833  1.00  0.00     0.134 A 
ATOM     85  C   UNL A   1      38.313  31.463  36.602  1.00  0.00     0.134 A 
ATOM     86  F   UNL A   1      40.414  33.940  34.976  1.00  0.00    -0.206 F 
ATOM     87  C   UNL A   1      39.084  34.113  36.903  1.00  0.00     0.040 A 
ATOM     88  C   UNL A   1      37.808  32.218  37.662  1.00  0.00     0.040 A 
ATOM     89  F   UNL A   1      37.912  30.188  36.492  1.00  0.00    -0.206 F 
ATOM     90  C   UNL A   1      38.198  33.547  37.817  1.00  0.00     0.006 A 
ENDBRANCH  66  83
ENDBRANCH  40  41
ENDBRANCH  33  35
ENDBRANCH  32  33
ENDBRANCH  31  32
ENDBRANCH  30  31
ENDBRANCH  29  30
ENDBRANCH  28  29
ENDBRANCH   1  28
TORSDOF 20
ENDMDL
MODEL 2
REMARK VINA RESULT:     -11.4      4.645     10.267
REMARK SMILES O=C(COc1ccc([N+](=O)[O-])cc1)Nc1ccc(C(=O)OCCOCCOC(=O)c2ccc(-c3c4nc(c(-c5c(F)cccc5F)c5ccc([nH]5)c(-c5c(F)cccc5F)c5nc(c(-c6c(F)cccc6F)c6ccc3[nH]6)C=C5)C=C4)cc2)c(O)c1
REMARK SMILES IDX 22 1 21 2 19 3 20 4 18 5 15 6 16 7 86 8 17 9 84 10 14 11
REMARK SMILES IDX 1 12 2 13 3 15 4 16 5 17 6 18 13 19 7 20 12 21 8 22 9 23
REMARK SMILES IDX 10 24 11 25 85 26 23 28 24 29 25 30 26 31 27 32 28 33 29 34
REMARK SMILES IDX 30 35 31 36 83 37 32 38 82 39 33 40 34 41 35 42 76 43 36 44
REMARK SMILES IDX 81 45 75 46 77 47 37 48 80 49 74 50 73 51 38 53 64 54 47 55
REMARK SMILES IDX 63 56 48 57 51 58 62 59 78 60 49 61 50 62 61 64 79 65 52 66
REMARK SMILES IDX 39 67 40 68 45 69 41 70 42 71 44 72 46 73 43 74 65 75 66 76
REMARK SMILES IDX 71 77 67 78 68 79 70 80 72 81 69 82 53 83 54 84 59 85 55 86
REMARK SMILES IDX 56 87 58 88 60 89 57 90
REMARK H PARENT 14 14 85 27 77 52 51 63
REMARK Flexibility Score: inf
ROOT
ATOM      1  C   UNL A   1      34.492  34.200  29.079  1.00  0.00     0.261 C 
ENDROOT
BRANCH   1   2
ATOM      2  O   UNL A   1      33.976  32.894  28.779  1.00  0.00    -0.460 OA
BRANCH   2   3
ATOM      3  C   UNL A   1      34.707  32.162  27.910  1.00  0.00     0.341 C 
ATOM      4  O   UNL A   1      35.863  32.376  27.574  1.00  0.00    -0.246 OA
BRANCH   3   5
ATOM      5  C   UNL A   1      34.001  30.920  27.517  1.00  0.00     0.101 A 
ATOM      6  C   UNL A   1      32.419  28.649  27.039  1.00  0.00     0.045 A 
ATOM      7  C   UNL A   1      31.847  29.923  26.989  1.00  0.00     0.027 A 
ATOM      8  C   UNL A   1      33.800  28.525  27.214  1.00  0.00     0.073 A 
ATOM      9  C   UNL A   1      32.630  31.049  27.246  1.00  0.00     0.022 A 
ATOM     10  C   UNL A   1      34.591  29.657  27.449  1.00  0.00     0.132 A 
BRANCH   6  11
ATOM     11  N   UNL A   1      31.528  27.558  27.032  1.00  0.00    -0.323 N 
ATOM     12  O   UNL A   1      31.193  27.225  24.747  1.00  0.00    -0.271 OA
ATOM     13  C   UNL A   1      31.101  26.859  25.914  1.00  0.00     0.262 C 
ATOM     14  H   UNL A   1      31.175  27.266  27.902  1.00  0.00     0.170 HD
BRANCH  13  15
ATOM     15  C   UNL A   1      30.525  25.481  26.264  1.00  0.00     0.329 C 
BRANCH  15  16
ATOM     16  O   UNL A   1      31.295  24.709  27.185  1.00  0.00    -0.484 OA
BRANCH  16  17
ATOM     17  C   UNL A   1      31.901  23.603  26.649  1.00  0.00     0.120 A 
ATOM     18  C   UNL A   1      32.828  22.944  27.459  1.00  0.00     0.053 A 
ATOM     19  C   UNL A   1      31.743  23.215  25.316  1.00  0.00     0.053 A 
ATOM     20  C   UNL A   1      33.601  21.898  26.945  1.00  0.00     0.089 A 
ATOM     21  C   UNL A   1      32.524  22.183  24.785  1.00  0.00     0.089 A 
ATOM     22  C   UNL A   1      33.459  21.534  25.600  1.00  0.00     0.269 A 
BRANCH  22  23
ATOM     23  N   UNL A   1      34.319  20.489  25.030  1.00  0.00     0.062 N 
ATOM     24  O   UNL A   1      35.546  20.635  25.129  1.00  0.00    -0.258 OA
ATOM     25  O   UNL A   1      33.767  19.529  24.473  1.00  0.00    -0.258 OA
ENDBRANCH  22  23
ENDBRANCH  16  17
ENDBRANCH  15  16
ENDBRANCH  13  15
ENDBRANCH   6  11
BRANCH  10  26
ATOM     26  O   UNL A   1      35.931  29.492  27.663  1.00  0.00    -0.507 OA
ATOM     27  H   UNL A   1      36.436  28.959  27.080  1.00  0.00     0.293 HD
ENDBRANCH  10  26
ENDBRANCH   3   5
ENDBRANCH   2   3
ENDBRANCH   1   2
BRANCH   1  28
ATOM     28  C   UNL A   1      33.658  34.852  30.183  1.00  0.00     0.202 C 
BRANCH  28  29
ATOM     29  O   UNL A   1      34.350  35.108  31.407  1.00  0.00    -0.374 OA
BRANCH  29  30
ATOM     30  C   UNL A   1      33.723  34.664  32.611  1.00  0.00     0.202 C 
BRANCH  30  31
ATOM     31  C   UNL A   1      34.055  33.232  33.047  1.00  0.00     0.261 C 
BRANCH  31  32
ATOM     32  O   UNL A   1      35.163  32.687  32.308  1.00  0.00    -0.460 OA
BRANCH  32  33
ATOM     33  C   UNL A   1      36.228  32.326  33.060  1.00  0.00     0.338 C 
ATOM     34  O   UNL A   1      36.372  32.477  34.266  1.00  0.00    -0.246 OA
BRANCH  33  35
ATOM     35  C   UNL A   1      37.181  31.552  32.244  1.00  0.00     0.060 A 
ATOM     36  C   UNL A   1      38.112  30.752  32.919  1.00  0.00     0.016 A 
ATOM     37  C   UNL A   1      37.216  31.663  30.852  1.00  0.00     0.016 A 
ATOM     38  C   UNL A   1      39.116  30.097  32.208  1.00  0.00     0.010 A 
ATOM     39  C   UNL A   1      38.229  31.013  30.141  1.00  0.00     0.010 A 
ATOM     40  C   UNL A   1      39.203  30.257  30.819  1.00  0.00    -0.014 A 
BRANCH  40  41
ATOM     41  C   UNL A   1      40.396  29.761  30.093  1.00  0.00     0.031 A 
ATOM     42  C   UNL A   1      41.547  30.700  29.860  1.00  0.00     0.074 A 
ATOM     43  C   UNL A   1      40.462  28.490  29.658  1.00  0.00     0.049 A 
ATOM     44  N   UNL A   1      42.656  30.507  29.194  1.00  0.00    -0.248 NA
ATOM     45  C   UNL A   1      41.428  32.040  30.457  1.00  0.00     0.031 C 
ATOM     46  C   UNL A   1      39.432  27.474  29.859  1.00  0.00     0.029 A 
ATOM     47  N   UNL A   1      41.440  27.846  28.943  1.00  0.00    -0.354 N 
ATOM     48  C   UNL A   1      43.361  31.700  29.282  1.00  0.00     0.074 A 
ATOM     49  C   UNL A   1      42.545  32.620  30.044  1.00  0.00     0.031 C 
ATOM     50  C   UNL A   1      39.826  26.333  29.267  1.00  0.00     0.029 A 
ATOM     51  C   UNL A   1      41.118  26.551  28.619  1.00  0.00     0.049 A 
ATOM     52  H   UNL A   1      42.291  28.270  28.689  1.00  0.00     0.167 HD
ATOM     53  C   UNL A   1      44.582  32.000  28.779  1.00  0.00     0.037 A 
ATOM     54  C   UNL A   1      41.782  25.655  27.863  1.00  0.00     0.037 A 
ATOM     55  C   UNL A   1      45.395  31.081  28.025  1.00  0.00     0.049 A 
ATOM     56  C   UNL A   1      43.105  26.033  27.255  1.00  0.00     0.074 A 
ATOM     57  C   UNL A   1      46.654  31.285  27.489  1.00  0.00     0.029 A 
ATOM     58  N   UNL A   1      45.023  29.787  27.698  1.00  0.00    -0.354 N 
ATOM     59  N   UNL A   1      43.772  27.157  27.359  1.00  0.00    -0.248 NA
ATOM     60  C   UNL A   1      43.770  25.018  26.425  1.00  0.00     0.031 C 
ATOM     61  C   UNL A   1      47.026  30.127  26.798  1.00  0.00     0.029 A 
ATOM     62  C   UNL A   1      46.020  29.186  26.947  1.00  0.00     0.049 A 
ATOM     63  H   UNL A   1      44.178  29.358  27.962  1.00  0.00     0.167 HD
ATOM     64  C   UNL A   1      44.946  26.974  26.635  1.00  0.00     0.074 A 
ATOM     65  C   UNL A   1      44.901  25.629  26.102  1.00  0.00     0.031 C 
ATOM     66  C   UNL A   1      45.967  27.841  26.435  1.00  0.00     0.037 A 
BRANCH  53  67
ATOM     67  C   UNL A   1      45.101  33.387  29.007  1.00  0.00     0.057 A 
ATOM     68  C   UNL A   1      45.889  33.709  30.119  1.00  0.00     0.134 A 
ATOM     69  C   UNL A   1      44.835  34.408  28.086  1.00  0.00     0.134 A 
ATOM     70  F   UNL A   1      46.168  32.781  31.047  1.00  0.00    -0.206 F 
ATOM     71  C   UNL A   1      46.376  35.003  30.318  1.00  0.00     0.040 A 
ATOM     72  C   UNL A   1      45.336  35.699  28.260  1.00  0.00     0.040 A 
ATOM     73  F   UNL A   1      44.090  34.165  26.996  1.00  0.00    -0.206 F 
ATOM     74  C   UNL A   1      46.104  36.000  29.383  1.00  0.00     0.006 A 
ENDBRANCH  53  67
BRANCH  54  75
ATOM     75  C   UNL A   1      41.197  24.312  27.622  1.00  0.00     0.057 A 
ATOM     76  C   UNL A   1      41.680  23.181  28.289  1.00  0.00     0.134 A 
ATOM     77  C   UNL A   1      40.157  24.124  26.704  1.00  0.00     0.134 A 
ATOM     78  F   UNL A   1      42.693  23.293  29.162  1.00  0.00    -0.206 F 
ATOM     79  C   UNL A   1      41.160  21.909  28.042  1.00  0.00     0.040 A 
ATOM     80  C   UNL A   1      39.610  22.863  26.465  1.00  0.00     0.040 A 
ATOM     81  F   UNL A   1      39.651  25.168  26.031  1.00  0.00    -0.206 F 
ATOM     82  C   UNL A   1      40.117  21.749  27.131  1.00  0.00     0.006 A 
ENDBRANCH  54  75
BRANCH  66  83
ATOM     83  C   UNL A   1      47.144  27.352  25.640  1.00  0.00     0.057 A 
ATOM     84  C   UNL A   1      47.254  27.580  24.264  1.00  0.00     0.134 A 
ATOM     85  C   UNL A   1      48.203  26.693  26.276  1.00  0.00     0.134 A 
ATOM     86  F   UNL A   1      46.267  28.196  23.595  1.00  0.00    -0.206 F 
ATOM     87  C   UNL A   1      48.371  27.156  23.543  1.00  0.00     0.040 A 
ATOM     88  C   UNL A   1      49.337  26.285  25.570  1.00  0.00     0.040 A 
ATOM     89  F   UNL A   1      48.164  26.452  27.594  1.00  0.00    -0.206 F 
ATOM     90  C   UNL A   1      49.421  26.513  24.198  1.00  0.00     0.006 A 
ENDBRANCH  66  83
ENDBRANCH  40  41
ENDBRANCH  33  35
ENDBRANCH  32  33
ENDBRANCH  31  32
ENDBRANCH  30  31
ENDBRANCH  29  30
ENDBRANCH  28  29
ENDBRANCH   1  28
TORSDOF 20
ENDMDL
MODEL 3
REMARK VINA RESULT:     -11.3      1.906      2.088
REMARK SMILES O=C(COc1ccc([N+](=O)[O-])cc1)Nc1ccc(C(=O)OCCOCCOC(=O)c2ccc(-c3c4nc(c(-c5c(F)cccc5F)c5ccc([nH]5)c(-c5c(F)cccc5F)c5nc(c(-c6c(F)cccc6F)c6ccc3[nH]6)C=C5)C=C4)cc2)c(O)c1
REMARK SMILES IDX 22 1 21 2 19 3 20 4 18 5 15 6 16 7 86 8 17 9 84 10 14 11
REMARK SMILES IDX 1 12 2 13 3 15 4 16 5 17 6 18 13 19 7 20 12 21 8 22 9 23
REMARK SMILES IDX 10 24 11 25 85 26 23 28 24 29 25 30 26 31 27 32 28 33 29 34
REMARK SMILES IDX 30 35 31 36 83 37 32 38 82 39 33 40 34 41 35 42 76 43 36 44
REMARK SMILES IDX 81 45 75 46 77 47 37 48 80 49 74 50 73 51 38 53 64 54 47 55
REMARK SMILES IDX 63 56 48 57 51 58 62 59 78 60 49 61 50 62 61 64 79 65 52 66
REMARK SMILES IDX 39 67 40 68 45 69 41 70 42 71 44 72 46 73 43 74 65 75 66 76
REMARK SMILES IDX 71 77 67 78 68 79 70 80 72 81 69 82 53 83 54 84 59 85 55 86
REMARK SMILES IDX 56 87 58 88 60 89 57 90
REMARK H PARENT 14 14 85 27 77 52 51 63
REMARK Flexibility Score: inf
ROOT
ATOM      1  C   UNL A   1      39.653  21.421  26.476  1.00  0.00     0.261 C 
ENDROOT
BRANCH   1   2
ATOM      2  O   UNL A   1      38.802  21.815  25.389  1.00  0.00    -0.460 OA
BRANCH   2   3
ATOM      3  C   UNL A   1      37.847  20.925  25.041  1.00  0.00     0.341 C 
ATOM      4  O   UNL A   1      38.031  19.801  24.597  1.00  0.00    -0.246 OA
BRANCH   3   5
ATOM      5  C   UNL A   1      36.497  21.397  25.426  1.00  0.00     0.101 A 
ATOM      6  C   UNL A   1      33.835  22.207  25.810  1.00  0.00     0.045 A 
ATOM      7  C   UNL A   1      34.115  20.908  25.376  1.00  0.00     0.027 A 
ATOM      8  C   UNL A   1      34.890  23.055  26.158  1.00  0.00     0.073 A 
ATOM      9  C   UNL A   1      35.437  20.513  25.168  1.00  0.00     0.022 A 
ATOM     10  C   UNL A   1      36.218  22.652  25.971  1.00  0.00     0.132 A 
BRANCH   6  11
ATOM     11  N   UNL A   1      32.489  22.616  25.745  1.00  0.00    -0.323 N 
ATOM     12  O   UNL A   1      31.967  22.914  28.001  1.00  0.00    -0.271 OA
ATOM     13  C   UNL A   1      31.717  23.059  26.809  1.00  0.00     0.262 C 
ATOM     14  H   UNL A   1      32.054  22.582  24.864  1.00  0.00     0.170 HD
BRANCH  13  15
ATOM     15  C   UNL A   1      30.482  23.847  26.354  1.00  0.00     0.329 C 
BRANCH  15  16
ATOM     16  O   UNL A   1      30.628  25.267  26.344  1.00  0.00    -0.484 OA
BRANCH  16  17
ATOM     17  C   UNL A   1      31.289  25.773  25.255  1.00  0.00     0.120 A 
ATOM     18  C   UNL A   1      30.657  25.626  24.018  1.00  0.00     0.053 A 
ATOM     19  C   UNL A   1      32.592  26.275  25.316  1.00  0.00     0.053 A 
ATOM     20  C   UNL A   1      31.320  25.978  22.838  1.00  0.00     0.089 A 
ATOM     21  C   UNL A   1      33.272  26.612  24.141  1.00  0.00     0.089 A 
ATOM     22  C   UNL A   1      32.637  26.452  22.904  1.00  0.00     0.269 A 
BRANCH  22  23
ATOM     23  N   UNL A   1      33.370  26.752  21.666  1.00  0.00     0.062 N 
ATOM     24  O   UNL A   1      34.028  27.802  21.626  1.00  0.00    -0.258 OA
ATOM     25  O   UNL A   1      33.277  25.943  20.732  1.00  0.00    -0.258 OA
ENDBRANCH  22  23
ENDBRANCH  16  17
ENDBRANCH  15  16
ENDBRANCH  13  15
ENDBRANCH   6  11
BRANCH  10  26
ATOM     26  O   UNL A   1      37.222  23.526  26.279  1.00  0.00    -0.507 OA
ATOM     27  H   UNL A   1      37.498  23.629  27.169  1.00  0.00     0.293 HD
ENDBRANCH  10  26
ENDBRANCH   3   5
ENDBRANCH   2   3
ENDBRANCH   1   2
BRANCH   1  28
ATOM     28  C   UNL A   1      40.352  20.102  26.143  1.00  0.00     0.202 C 
BRANCH  28  29
ATOM     29  O   UNL A   1      41.560  20.220  25.388  1.00  0.00    -0.374 OA
BRANCH  29  30
ATOM     30  C   UNL A   1      42.768  20.415  26.124  1.00  0.00     0.202 C 
BRANCH  30  31
ATOM     31  C   UNL A   1      43.672  21.550  25.632  1.00  0.00     0.261 C 
BRANCH  31  32
ATOM     32  O   UNL A   1      42.915  22.643  25.083  1.00  0.00    -0.460 OA
BRANCH  32  33
ATOM     33  C   UNL A   1      43.565  23.828  25.050  1.00  0.00     0.338 C 
ATOM     34  O   UNL A   1      44.495  24.147  24.322  1.00  0.00    -0.246 OA
BRANCH  33  35
ATOM     35  C   UNL A   1      42.891  24.797  25.933  1.00  0.00     0.060 A 
ATOM     36  C   UNL A   1      43.434  26.086  26.017  1.00  0.00     0.016 A 
ATOM     37  C   UNL A   1      41.797  24.435  26.722  1.00  0.00     0.016 A 
ATOM     38  C   UNL A   1      42.915  27.005  26.928  1.00  0.00     0.010 A 
ATOM     39  C   UNL A   1      41.283  25.354  27.641  1.00  0.00     0.010 A 
ATOM     40  C   UNL A   1      41.863  26.629  27.773  1.00  0.00    -0.014 A 
BRANCH  40  41
ATOM     41  C   UNL A   1      41.468  27.512  28.896  1.00  0.00     0.031 A 
ATOM     42  C   UNL A   1      42.229  27.426  30.190  1.00  0.00     0.074 A 
ATOM     43  C   UNL A   1      40.455  28.387  28.764  1.00  0.00     0.049 A 
ATOM     44  N   UNL A   1      42.017  28.048  31.321  1.00  0.00    -0.248 NA
ATOM     45  C   UNL A   1      43.382  26.513  30.210  1.00  0.00     0.031 C 
ATOM     46  C   UNL A   1      39.670  28.594  27.549  1.00  0.00     0.029 A 
ATOM     47  N   UNL A   1      39.909  29.257  29.673  1.00  0.00    -0.354 N 
ATOM     48  C   UNL A   1      43.002  27.594  32.190  1.00  0.00     0.074 A 
ATOM     49  C   UNL A   1      43.796  26.627  31.464  1.00  0.00     0.031 C 
ATOM     50  C   UNL A   1      38.730  29.524  27.793  1.00  0.00     0.029 A 
ATOM     51  C   UNL A   1      38.828  29.950  29.188  1.00  0.00     0.049 A 
ATOM     52  H   UNL A   1      40.259  29.374  30.586  1.00  0.00     0.167 HD
ATOM     53  C   UNL A   1      43.229  27.957  33.474  1.00  0.00     0.037 A 
ATOM     54  C   UNL A   1      37.997  30.810  29.809  1.00  0.00     0.037 A 
ATOM     55  C   UNL A   1      42.441  28.924  34.194  1.00  0.00     0.049 A 
ATOM     56  C   UNL A   1      38.226  31.145  31.258  1.00  0.00     0.074 A 
ATOM     57  C   UNL A   1      42.603  29.372  35.493  1.00  0.00     0.029 A 
ATOM     58  N   UNL A   1      41.340  29.586  33.674  1.00  0.00    -0.354 N 
ATOM     59  N   UNL A   1      39.170  30.725  32.066  1.00  0.00    -0.248 NA
ATOM     60  C   UNL A   1      37.274  32.075  31.884  1.00  0.00     0.031 C 
ATOM     61  C   UNL A   1      41.571  30.274  35.774  1.00  0.00     0.029 A 
ATOM     62  C   UNL A   1      40.797  30.423  34.635  1.00  0.00     0.049 A 
ATOM     63  H   UNL A   1      40.995  29.478  32.758  1.00  0.00     0.167 HD
ATOM     64  C   UNL A   1      38.944  31.362  33.282  1.00  0.00     0.074 A 
ATOM     65  C   UNL A   1      37.777  32.200  33.104  1.00  0.00     0.031 C 
ATOM     66  C   UNL A   1      39.643  31.263  34.438  1.00  0.00     0.037 A 
BRANCH  53  67
ATOM     67  C   UNL A   1      44.360  27.286  34.192  1.00  0.00     0.057 A 
ATOM     68  C   UNL A   1      44.194  26.061  34.852  1.00  0.00     0.134 A 
ATOM     69  C   UNL A   1      45.638  27.857  34.200  1.00  0.00     0.134 A 
ATOM     70  F   UNL A   1      42.992  25.468  34.895  1.00  0.00    -0.206 F 
ATOM     71  C   UNL A   1      45.257  25.438  35.511  1.00  0.00     0.040 A 
ATOM     72  C   UNL A   1      46.714  27.232  34.835  1.00  0.00     0.040 A 
ATOM     73  F   UNL A   1      45.865  29.027  33.584  1.00  0.00    -0.206 F 
ATOM     74  C   UNL A   1      46.522  26.022  35.498  1.00  0.00     0.006 A 
ENDBRANCH  53  67
BRANCH  54  75
ATOM     75  C   UNL A   1      36.857  31.405  29.068  1.00  0.00     0.057 A 
ATOM     76  C   UNL A   1      36.874  32.746  28.668  1.00  0.00     0.134 A 
ATOM     77  C   UNL A   1      35.717  30.655  28.760  1.00  0.00     0.134 A 
ATOM     78  F   UNL A   1      37.929  33.523  28.956  1.00  0.00    -0.206 F 
ATOM     79  C   UNL A   1      35.792  33.324  28.001  1.00  0.00     0.040 A 
ATOM     80  C   UNL A   1      34.637  31.212  28.073  1.00  0.00     0.040 A 
ATOM     81  F   UNL A   1      35.638  29.364  29.117  1.00  0.00    -0.206 F 
ATOM     82  C   UNL A   1      34.671  32.553  27.697  1.00  0.00     0.006 A 
ENDBRANCH  54  75
BRANCH  66  83
ATOM     83  C   UNL A   1      39.195  32.111  35.592  1.00  0.00     0.057 A 
ATOM     84  C   UNL A   1      39.647  33.424  35.765  1.00  0.00     0.134 A 
ATOM     85  C   UNL A   1      38.257  31.622  36.510  1.00  0.00     0.134 A 
ATOM     86  F   UNL A   1      40.554  33.948  34.927  1.00  0.00    -0.206 F 
ATOM     87  C   UNL A   1      39.193  34.217  36.820  1.00  0.00     0.040 A 
ATOM     88  C   UNL A   1      37.777  32.413  37.556  1.00  0.00     0.040 A 
ATOM     89  F   UNL A   1      37.777  30.375  36.395  1.00  0.00    -0.206 F 
ATOM     90  C   UNL A   1      38.249  33.714  37.715  1.00  0.00     0.006 A 
ENDBRANCH  66  83
ENDBRANCH  40  41
ENDBRANCH  33  35
ENDBRANCH  32  33
ENDBRANCH  31  32
ENDBRANCH  30  31
ENDBRANCH  29  30
ENDBRANCH  28  29
ENDBRANCH   1  28
TORSDOF 20
ENDMDL
