MODEL 1
REMARK VINA RESULT:     -11.5      0.000      0.000
REMARK SMILES CCc1cc(N2CCC(O)(C(=O)OCCOCCOC(=O)c3ccc(-c4c5nc(c(-c6c(F)cccc6F)c6ccc([nH]6)c(-c6c(F)cccc6F)c6nc(c(-c7c(F)cccc7F)c7ccc4[nH]7)C=C6)C=C5)cc3)CC2)nc(N2CCOCC2)n1
REMARK SMILES IDX 16 1 15 2 14 3 13 4 11 5 12 6 9 7 6 8 7 9 77 10 8 11 76 12
REMARK SMILES IDX 5 13 3 14 4 15 86 16 79 17 78 18 2 19 1 20 80 21 81 22 85 23
REMARK SMILES IDX 82 24 84 25 83 26 10 27 17 29 18 30 19 31 20 32 21 33 22 34
REMARK SMILES IDX 23 35 75 36 24 37 74 38 25 39 26 40 27 41 68 42 28 43 73 44
REMARK SMILES IDX 67 45 69 46 29 47 72 48 66 49 65 50 30 52 56 53 39 54 55 55
REMARK SMILES IDX 40 56 43 57 54 58 70 59 41 60 42 61 53 63 71 64 44 65 31 66
REMARK SMILES IDX 32 67 37 68 33 69 34 70 36 71 38 72 35 73 57 74 58 75 63 76
REMARK SMILES IDX 59 77 60 78 62 79 64 80 61 81 45 82 46 83 51 84 47 85 48 86
REMARK SMILES IDX 50 87 52 88 49 89
REMARK H PARENT 10 28 69 51 43 62
REMARK Flexibility Score: inf
ROOT
ATOM      1  O   UNL A   1      35.473  33.860  29.387  1.00  0.00    -0.374 OA
ENDROOT
BRANCH   1   2
ATOM      2  C   UNL A   1      35.255  32.972  28.287  1.00  0.00     0.202 C 
BRANCH   2   3
ATOM      3  C   UNL A   1      33.794  32.600  28.012  1.00  0.00     0.261 C 
BRANCH   3   4
ATOM      4  O   UNL A   1      33.710  31.237  27.562  1.00  0.00    -0.461 OA
BRANCH   4   5
ATOM      5  C   UNL A   1      32.588  30.901  26.877  1.00  0.00     0.338 C 
ATOM      6  O   UNL A   1      31.554  31.562  26.861  1.00  0.00    -0.249 OA
BRANCH   5   7
ATOM      7  C   UNL A   1      32.762  29.629  26.017  1.00  0.00     0.165 C 
ATOM      8  N   UNL A   1      32.714  26.791  25.905  1.00  0.00    -0.356 N 
ATOM      9  C   UNL A   1      31.726  27.496  25.109  1.00  0.00     0.121 C 
ATOM     10  C   UNL A   1      34.016  27.427  26.047  1.00  0.00     0.121 C 
ATOM     11  C   UNL A   1      31.460  28.844  25.781  1.00  0.00     0.069 C 
ATOM     12  C   UNL A   1      33.829  28.774  26.724  1.00  0.00     0.069 C 
BRANCH   8  13
ATOM     13  C   UNL A   1      32.739  25.419  26.011  1.00  0.00     0.134 A 
ATOM     14  C   UNL A   1      31.737  23.296  26.115  1.00  0.00     0.048 A 
ATOM     15  C   UNL A   1      31.599  24.669  26.191  1.00  0.00     0.071 A 
ATOM     16  N   UNL A   1      32.928  22.714  25.873  1.00  0.00    -0.218 NA
ATOM     17  C   UNL A   1      34.003  23.507  25.791  1.00  0.00     0.227 A 
ATOM     18  N   UNL A   1      33.939  24.841  25.847  1.00  0.00    -0.196 NA
BRANCH  14  19
ATOM     19  C   UNL A   1      30.523  22.414  26.283  1.00  0.00     0.053 C 
ATOM     20  C   UNL A   1      29.477  22.952  27.251  1.00  0.00     0.011 C 
ENDBRANCH  14  19
BRANCH  17  21
ATOM     21  N   UNL A   1      35.230  22.934  25.640  1.00  0.00    -0.336 N 
ATOM     22  C   UNL A   1      36.278  23.600  24.886  1.00  0.00     0.148 C 
ATOM     23  C   UNL A   1      35.499  21.596  26.130  1.00  0.00     0.148 C 
ATOM     24  C   UNL A   1      36.823  22.661  23.804  1.00  0.00     0.181 C 
ATOM     25  C   UNL A   1      36.064  20.751  24.971  1.00  0.00     0.181 C 
ATOM     26  O   UNL A   1      37.200  21.383  24.352  1.00  0.00    -0.378 OA
ENDBRANCH  17  21
ENDBRANCH   8  13
BRANCH   7  27
ATOM     27  O   UNL A   1      33.278  30.013  24.730  1.00  0.00    -0.378 OA
ATOM     28  H   UNL A   1      32.748  29.596  24.032  1.00  0.00     0.212 HD
ENDBRANCH   7  27
ENDBRANCH   5   7
ENDBRANCH   4   5
ENDBRANCH   3   4
ENDBRANCH   2   3
ENDBRANCH   1   2
BRANCH   1  29
ATOM     29  C   UNL A   1      34.421  33.998  30.343  1.00  0.00     0.202 C 
BRANCH  29  30
ATOM     30  C   UNL A   1      34.813  33.865  31.819  1.00  0.00     0.261 C 
BRANCH  30  31
ATOM     31  O   UNL A   1      34.862  32.494  32.255  1.00  0.00    -0.460 OA
BRANCH  31  32
ATOM     32  C   UNL A   1      35.966  32.176  32.971  1.00  0.00     0.338 C 
ATOM     33  O   UNL A   1      36.201  32.466  34.138  1.00  0.00    -0.246 OA
BRANCH  32  34
ATOM     34  C   UNL A   1      36.846  31.266  32.214  1.00  0.00     0.060 A 
ATOM     35  C   UNL A   1      38.057  30.908  32.820  1.00  0.00     0.016 A 
ATOM     36  C   UNL A   1      36.564  30.869  30.904  1.00  0.00     0.016 A 
ATOM     37  C   UNL A   1      39.028  30.228  32.091  1.00  0.00     0.010 A 
ATOM     38  C   UNL A   1      37.545  30.187  30.171  1.00  0.00     0.010 A 
ATOM     39  C   UNL A   1      38.801  29.915  30.744  1.00  0.00    -0.014 A 
BRANCH  39  40
ATOM     40  C   UNL A   1      39.961  29.503  29.913  1.00  0.00     0.031 A 
ATOM     41  C   UNL A   1      41.082  30.486  29.697  1.00  0.00     0.074 A 
ATOM     42  C   UNL A   1      40.069  28.248  29.442  1.00  0.00     0.049 A 
ATOM     43  N   UNL A   1      42.229  30.319  29.087  1.00  0.00    -0.248 NA
ATOM     44  C   UNL A   1      40.887  31.837  30.248  1.00  0.00     0.031 C 
ATOM     45  C   UNL A   1      39.074  27.192  29.611  1.00  0.00     0.029 A 
ATOM     46  N   UNL A   1      41.082  27.649  28.735  1.00  0.00    -0.354 N 
ATOM     47  C   UNL A   1      42.889  31.538  29.184  1.00  0.00     0.074 A 
ATOM     48  C   UNL A   1      42.002  32.447  29.876  1.00  0.00     0.031 C 
ATOM     49  C   UNL A   1      39.528  26.069  29.028  1.00  0.00     0.029 A 
ATOM     50  C   UNL A   1      40.840  26.331  28.437  1.00  0.00     0.049 A 
ATOM     51  H   UNL A   1      41.905  28.119  28.470  1.00  0.00     0.167 HD
ATOM     52  C   UNL A   1      44.129  31.870  28.753  1.00  0.00     0.037 A 
ATOM     53  C   UNL A   1      41.592  25.439  27.764  1.00  0.00     0.037 A 
ATOM     54  C   UNL A   1      45.020  30.971  28.070  1.00  0.00     0.049 A 
ATOM     55  C   UNL A   1      42.952  25.843  27.258  1.00  0.00     0.074 A 
ATOM     56  C   UNL A   1      46.297  31.215  27.596  1.00  0.00     0.029 A 
ATOM     57  N   UNL A   1      44.723  29.652  27.762  1.00  0.00    -0.354 N 
ATOM     58  N   UNL A   1      43.574  26.990  27.379  1.00  0.00    -0.248 NA
ATOM     59  C   UNL A   1      43.719  24.819  26.533  1.00  0.00     0.031 C 
ATOM     60  C   UNL A   1      46.762  30.052  26.971  1.00  0.00     0.029 A 
ATOM     61  C   UNL A   1      45.789  29.073  27.094  1.00  0.00     0.049 A 
ATOM     62  H   UNL A   1      43.881  29.195  27.986  1.00  0.00     0.167 HD
ATOM     63  C   UNL A   1      44.815  26.817  26.778  1.00  0.00     0.074 A 
ATOM     64  C   UNL A   1      44.861  25.452  26.300  1.00  0.00     0.031 C 
ATOM     65  C   UNL A   1      45.826  27.708  26.638  1.00  0.00     0.037 A 
BRANCH  52  66
ATOM     66  C   UNL A   1      44.586  33.277  28.997  1.00  0.00     0.057 A 
ATOM     67  C   UNL A   1      45.262  33.641  30.170  1.00  0.00     0.134 A 
ATOM     68  C   UNL A   1      44.366  34.276  28.041  1.00  0.00     0.134 A 
ATOM     69  F   UNL A   1      45.490  32.734  31.132  1.00  0.00    -0.206 F 
ATOM     70  C   UNL A   1      45.683  34.953  30.392  1.00  0.00     0.040 A 
ATOM     71  C   UNL A   1      44.802  35.587  28.241  1.00  0.00     0.040 A 
ATOM     72  F   UNL A   1      43.726  33.994  26.896  1.00  0.00    -0.206 F 
ATOM     73  C   UNL A   1      45.457  35.929  29.422  1.00  0.00     0.006 A 
ENDBRANCH  52  66
BRANCH  53  74
ATOM     74  C   UNL A   1      41.086  24.062  27.538  1.00  0.00     0.057 A 
ATOM     75  C   UNL A   1      41.609  22.969  28.239  1.00  0.00     0.134 A 
ATOM     76  C   UNL A   1      40.085  23.805  26.595  1.00  0.00     0.134 A 
ATOM     77  F   UNL A   1      42.588  23.151  29.138  1.00  0.00    -0.206 F 
ATOM     78  C   UNL A   1      41.168  21.667  27.997  1.00  0.00     0.040 A 
ATOM     79  C   UNL A   1      39.618  22.511  26.359  1.00  0.00     0.040 A 
ATOM     80  F   UNL A   1      39.543  24.809  25.891  1.00  0.00    -0.206 F 
ATOM     81  C   UNL A   1      40.166  21.437  27.056  1.00  0.00     0.006 A 
ENDBRANCH  53  74
BRANCH  65  82
ATOM     82  C   UNL A   1      47.085  27.221  25.981  1.00  0.00     0.057 A 
ATOM     83  C   UNL A   1      47.327  27.404  24.614  1.00  0.00     0.134 A 
ATOM     84  C   UNL A   1      48.082  26.590  26.736  1.00  0.00     0.134 A 
ATOM     85  F   UNL A   1      46.409  27.992  23.833  1.00  0.00    -0.206 F 
ATOM     86  C   UNL A   1      48.504  26.950  24.015  1.00  0.00     0.040 A 
ATOM     87  C   UNL A   1      49.273  26.154  26.154  1.00  0.00     0.040 A 
ATOM     88  F   UNL A   1      47.917  26.393  28.053  1.00  0.00    -0.206 F 
ATOM     89  C   UNL A   1      49.483  26.327  24.787  1.00  0.00     0.006 A 
ENDBRANCH  65  82
ENDBRANCH  39  40
ENDBRANCH  32  34
ENDBRANCH  31  32
ENDBRANCH  30  31
ENDBRANCH  29  30
ENDBRANCH   1  29
TORSDOF 18
ENDMDL
MODEL 2
REMARK VINA RESULT:     -11.3      1.451      2.682
REMARK SMILES CCc1cc(N2CCC(O)(C(=O)OCCOCCOC(=O)c3ccc(-c4c5nc(c(-c6c(F)cccc6F)c6ccc([nH]6)c(-c6c(F)cccc6F)c6nc(c(-c7c(F)cccc7F)c7ccc4[nH]7)C=C6)C=C5)cc3)CC2)nc(N2CCOCC2)n1
REMARK SMILES IDX 16 1 15 2 14 3 13 4 11 5 12 6 9 7 6 8 7 9 77 10 8 11 76 12
REMARK SMILES IDX 5 13 3 14 4 15 86 16 79 17 78 18 2 19 1 20 80 21 81 22 85 23
REMARK SMILES IDX 82 24 84 25 83 26 10 27 17 29 18 30 19 31 20 32 21 33 22 34
REMARK SMILES IDX 23 35 75 36 24 37 74 38 25 39 26 40 27 41 68 42 28 43 73 44
REMARK SMILES IDX 67 45 69 46 29 47 72 48 66 49 65 50 30 52 56 53 39 54 55 55
REMARK SMILES IDX 40 56 43 57 54 58 70 59 41 60 42 61 53 63 71 64 44 65 31 66
REMARK SMILES IDX 32 67 37 68 33 69 34 70 36 71 38 72 35 73 57 74 58 75 63 76
REMARK SMILES IDX 59 77 60 78 62 79 64 80 61 81 45 82 46 83 51 84 47 85 48 86
REMARK SMILES IDX 50 87 52 88 49 89
REMARK H PARENT 10 28 69 51 43 62
REMARK Flexibility Score: inf
ROOT
ATOM      1  O   UNL A   1      34.321  33.674  31.309  1.00  0.00    -0.374 OA
ENDROOT
BRANCH   1   2
ATOM      2  C   UNL A   1      33.820  34.386  30.174  1.00  0.00     0.202 C 
BRANCH   2   3
ATOM      3  C   UNL A   1      34.872  34.848  29.160  1.00  0.00     0.261 C 
BRANCH   3   4
ATOM      4  O   UNL A   1      34.863  33.983  28.012  1.00  0.00    -0.461 OA
BRANCH   4   5
ATOM      5  C   UNL A   1      35.696  32.912  28.063  1.00  0.00     0.338 C 
ATOM      6  O   UNL A   1      36.914  32.979  28.200  1.00  0.00    -0.249 OA
BRANCH   5   7
ATOM      7  C   UNL A   1      34.947  31.561  28.032  1.00  0.00     0.165 C 
ATOM      8  N   UNL A   1      33.673  29.567  26.460  1.00  0.00    -0.356 N 
ATOM      9  C   UNL A   1      34.872  29.171  27.176  1.00  0.00     0.121 C 
ATOM     10  C   UNL A   1      32.815  30.549  27.109  1.00  0.00     0.121 C 
ATOM     11  C   UNL A   1      35.736  30.419  27.367  1.00  0.00     0.069 C 
ATOM     12  C   UNL A   1      33.609  31.827  27.319  1.00  0.00     0.069 C 
BRANCH   8  13
ATOM     13  C   UNL A   1      33.016  28.725  25.592  1.00  0.00     0.134 A 
ATOM     14  C   UNL A   1      31.623  28.260  23.758  1.00  0.00     0.048 A 
ATOM     15  C   UNL A   1      32.086  29.176  24.682  1.00  0.00     0.071 A 
ATOM     16  N   UNL A   1      32.059  26.985  23.740  1.00  0.00    -0.218 NA
ATOM     17  C   UNL A   1      32.902  26.602  24.707  1.00  0.00     0.227 A 
ATOM     18  N   UNL A   1      33.395  27.439  25.626  1.00  0.00    -0.196 NA
BRANCH  14  19
ATOM     19  C   UNL A   1      30.617  28.693  22.719  1.00  0.00     0.053 C 
ATOM     20  C   UNL A   1      29.175  28.318  23.036  1.00  0.00     0.011 C 
ENDBRANCH  14  19
BRANCH  17  21
ATOM     21  N   UNL A   1      33.284  25.296  24.764  1.00  0.00    -0.336 N 
ATOM     22  C   UNL A   1      33.732  24.701  26.011  1.00  0.00     0.148 C 
ATOM     23  C   UNL A   1      33.361  24.483  23.564  1.00  0.00     0.148 C 
ATOM     24  C   UNL A   1      35.103  24.045  25.816  1.00  0.00     0.181 C 
ATOM     25  C   UNL A   1      34.767  23.856  23.485  1.00  0.00     0.181 C 
ATOM     26  O   UNL A   1      35.106  23.146  24.691  1.00  0.00    -0.378 OA
ENDBRANCH  17  21
ENDBRANCH   8  13
BRANCH   7  27
ATOM     27  O   UNL A   1      34.662  31.162  29.384  1.00  0.00    -0.378 OA
ATOM     28  H   UNL A   1      34.186  31.875  29.838  1.00  0.00     0.212 HD
ENDBRANCH   7  27
ENDBRANCH   5   7
ENDBRANCH   4   5
ENDBRANCH   3   4
ENDBRANCH   2   3
ENDBRANCH   1   2
BRANCH   1  29
ATOM     29  C   UNL A   1      34.140  34.271  32.594  1.00  0.00     0.202 C 
BRANCH  29  30
ATOM     30  C   UNL A   1      34.878  33.613  33.766  1.00  0.00     0.261 C 
BRANCH  30  31
ATOM     31  O   UNL A   1      35.440  32.334  33.416  1.00  0.00    -0.460 OA
BRANCH  31  32
ATOM     32  C   UNL A   1      36.740  32.183  33.762  1.00  0.00     0.338 C 
ATOM     33  O   UNL A   1      37.276  32.547  34.801  1.00  0.00    -0.246 OA
BRANCH  32  34
ATOM     34  C   UNL A   1      37.460  31.358  32.775  1.00  0.00     0.060 A 
ATOM     35  C   UNL A   1      38.513  30.570  33.257  1.00  0.00     0.016 A 
ATOM     36  C   UNL A   1      37.205  31.436  31.403  1.00  0.00     0.016 A 
ATOM     37  C   UNL A   1      39.369  29.929  32.367  1.00  0.00     0.010 A 
ATOM     38  C   UNL A   1      38.071  30.792  30.508  1.00  0.00     0.010 A 
ATOM     39  C   UNL A   1      39.188  30.084  30.986  1.00  0.00    -0.014 A 
BRANCH  39  40
ATOM     40  C   UNL A   1      40.294  29.678  30.082  1.00  0.00     0.031 A 
ATOM     41  C   UNL A   1      41.406  30.658  29.813  1.00  0.00     0.074 A 
ATOM     42  C   UNL A   1      40.367  28.429  29.589  1.00  0.00     0.049 A 
ATOM     43  N   UNL A   1      42.514  30.494  29.134  1.00  0.00    -0.248 NA
ATOM     44  C   UNL A   1      41.251  32.002  30.392  1.00  0.00     0.031 C 
ATOM     45  C   UNL A   1      39.378  27.375  29.803  1.00  0.00     0.029 A 
ATOM     46  N   UNL A   1      41.334  27.835  28.815  1.00  0.00    -0.354 N 
ATOM     47  C   UNL A   1      43.186  31.709  29.207  1.00  0.00     0.074 A 
ATOM     48  C   UNL A   1      42.346  32.612  29.964  1.00  0.00     0.031 C 
ATOM     49  C   UNL A   1      39.791  26.258  29.179  1.00  0.00     0.029 A 
ATOM     50  C   UNL A   1      41.067  26.522  28.514  1.00  0.00     0.049 A 
ATOM     51  H   UNL A   1      42.141  28.305  28.507  1.00  0.00     0.167 HD
ATOM     52  C   UNL A   1      44.399  32.040  28.707  1.00  0.00     0.037 A 
ATOM     53  C   UNL A   1      41.772  25.635  27.786  1.00  0.00     0.037 A 
ATOM     54  C   UNL A   1      45.243  31.147  27.961  1.00  0.00     0.049 A 
ATOM     55  C   UNL A   1      43.102  26.040  27.205  1.00  0.00     0.074 A 
ATOM     56  C   UNL A   1      46.491  31.391  27.415  1.00  0.00     0.029 A 
ATOM     57  N   UNL A   1      44.921  29.834  27.653  1.00  0.00    -0.354 N 
ATOM     58  N   UNL A   1      43.736  27.183  27.304  1.00  0.00    -0.248 NA
ATOM     59  C   UNL A   1      43.819  25.023  26.422  1.00  0.00     0.031 C 
ATOM     60  C   UNL A   1      46.911  30.235  26.748  1.00  0.00     0.029 A 
ATOM     61  C   UNL A   1      45.942  29.259  26.915  1.00  0.00     0.049 A 
ATOM     62  H   UNL A   1      44.091  29.378  27.921  1.00  0.00     0.167 HD
ATOM     63  C   UNL A   1      44.938  27.012  26.628  1.00  0.00     0.074 A 
ATOM     64  C   UNL A   1      44.948  25.653  26.129  1.00  0.00     0.031 C 
ATOM     65  C   UNL A   1      45.944  27.900  26.439  1.00  0.00     0.037 A 
BRANCH  52  66
ATOM     66  C   UNL A   1      44.878  33.442  28.943  1.00  0.00     0.057 A 
ATOM     67  C   UNL A   1      44.544  34.492  28.077  1.00  0.00     0.134 A 
ATOM     68  C   UNL A   1      45.664  33.750  30.060  1.00  0.00     0.134 A 
ATOM     69  F   UNL A   1      43.807  34.260  26.980  1.00  0.00    -0.206 F 
ATOM     70  C   UNL A   1      44.995  35.794  28.301  1.00  0.00     0.040 A 
ATOM     71  C   UNL A   1      46.102  35.052  30.307  1.00  0.00     0.040 A 
ATOM     72  F   UNL A   1      46.018  32.792  30.929  1.00  0.00    -0.206 F 
ATOM     73  C   UNL A   1      45.772  36.077  29.423  1.00  0.00     0.006 A 
ENDBRANCH  52  66
BRANCH  53  74
ATOM     74  C   UNL A   1      41.246  24.265  27.572  1.00  0.00     0.057 A 
ATOM     75  C   UNL A   1      40.200  24.019  26.674  1.00  0.00     0.134 A 
ATOM     76  C   UNL A   1      41.758  23.173  28.280  1.00  0.00     0.134 A 
ATOM     77  F   UNL A   1      39.651  25.030  25.984  1.00  0.00    -0.206 F 
ATOM     78  C   UNL A   1      39.670  22.739  26.502  1.00  0.00     0.040 A 
ATOM     79  C   UNL A   1      41.254  21.884  28.102  1.00  0.00     0.040 A 
ATOM     80  F   UNL A   1      42.760  23.343  29.155  1.00  0.00    -0.206 F 
ATOM     81  C   UNL A   1      40.201  21.666  27.216  1.00  0.00     0.006 A 
ENDBRANCH  53  74
BRANCH  65  82
ATOM     82  C   UNL A   1      47.159  27.417  25.702  1.00  0.00     0.057 A 
ATOM     83  C   UNL A   1      47.306  27.589  24.320  1.00  0.00     0.134 A 
ATOM     84  C   UNL A   1      48.210  26.799  26.393  1.00  0.00     0.134 A 
ATOM     85  F   UNL A   1      46.332  28.164  23.599  1.00  0.00    -0.206 F 
ATOM     86  C   UNL A   1      48.443  27.138  23.647  1.00  0.00     0.040 A 
ATOM     87  C   UNL A   1      49.361  26.366  25.734  1.00  0.00     0.040 A 
ATOM     88  F   UNL A   1      48.137  26.613  27.719  1.00  0.00    -0.206 F 
ATOM     89  C   UNL A   1      49.477  26.529  24.355  1.00  0.00     0.006 A 
ENDBRANCH  65  82
ENDBRANCH  39  40
ENDBRANCH  32  34
ENDBRANCH  31  32
ENDBRANCH  30  31
ENDBRANCH  29  30
ENDBRANCH   1  29
TORSDOF 18
ENDMDL
MODEL 3
REMARK VINA RESULT:     -11.2      3.801      7.679
REMARK SMILES CCc1cc(N2CCC(O)(C(=O)OCCOCCOC(=O)c3ccc(-c4c5nc(c(-c6c(F)cccc6F)c6ccc([nH]6)c(-c6c(F)cccc6F)c6nc(c(-c7c(F)cccc7F)c7ccc4[nH]7)C=C6)C=C5)cc3)CC2)nc(N2CCOCC2)n1
REMARK SMILES IDX 16 1 15 2 14 3 13 4 11 5 12 6 9 7 6 8 7 9 77 10 8 11 76 12
REMARK SMILES IDX 5 13 3 14 4 15 86 16 79 17 78 18 2 19 1 20 80 21 81 22 85 23
REMARK SMILES IDX 82 24 84 25 83 26 10 27 17 29 18 30 19 31 20 32 21 33 22 34
REMARK SMILES IDX 23 35 75 36 24 37 74 38 25 39 26 40 27 41 68 42 28 43 73 44
REMARK SMILES IDX 67 45 69 46 29 47 72 48 66 49 65 50 30 52 56 53 39 54 55 55
REMARK SMILES IDX 40 56 43 57 54 58 70 59 41 60 42 61 53 63 71 64 44 65 31 66
REMARK SMILES IDX 32 67 37 68 33 69 34 70 36 71 38 72 35 73 57 74 58 75 63 76
REMARK SMILES IDX 59 77 60 78 62 79 64 80 61 81 45 82 46 83 51 84 47 85 48 86
REMARK SMILES IDX 50 87 52 88 49 89
REMARK H PARENT 10 28 69 51 43 62
REMARK Flexibility Score: inf
ROOT
ATOM      1  O   UNL A   1      32.414  30.229  26.185  1.00  0.00    -0.374 OA
ENDROOT
BRANCH   1   2
ATOM      2  C   UNL A   1      32.609  29.314  25.102  1.00  0.00     0.202 C 
BRANCH   2   3
ATOM      3  C   UNL A   1      31.508  29.301  24.035  1.00  0.00     0.261 C 
BRANCH   3   4
ATOM      4  O   UNL A   1      30.655  28.158  24.223  1.00  0.00    -0.461 OA
BRANCH   4   5
ATOM      5  C   UNL A   1      30.684  27.222  23.241  1.00  0.00     0.338 C 
ATOM      6  O   UNL A   1      30.634  27.467  22.040  1.00  0.00    -0.249 OA
BRANCH   5   7
ATOM      7  C   UNL A   1      30.891  25.788  23.778  1.00  0.00     0.165 C 
ATOM      8  N   UNL A   1      32.704  23.662  24.289  1.00  0.00    -0.356 N 
ATOM      9  C   UNL A   1      32.064  24.269  25.442  1.00  0.00     0.121 C 
ATOM     10  C   UNL A   1      31.915  23.582  23.067  1.00  0.00     0.121 C 
ATOM     11  C   UNL A   1      31.715  25.713  25.076  1.00  0.00     0.069 C 
ATOM     12  C   UNL A   1      31.543  24.990  22.635  1.00  0.00     0.069 C 
BRANCH   8  13
ATOM     13  C   UNL A   1      33.670  22.688  24.405  1.00  0.00     0.134 A 
ATOM     14  C   UNL A   1      35.815  21.904  24.959  1.00  0.00     0.048 A 
ATOM     15  C   UNL A   1      34.982  22.978  24.707  1.00  0.00     0.071 A 
ATOM     16  N   UNL A   1      35.369  20.633  24.917  1.00  0.00    -0.218 NA
ATOM     17  C   UNL A   1      34.102  20.430  24.536  1.00  0.00     0.227 A 
ATOM     18  N   UNL A   1      33.242  21.422  24.286  1.00  0.00    -0.196 NA
BRANCH  14  19
ATOM     19  C   UNL A   1      37.261  22.152  25.316  1.00  0.00     0.053 C 
ATOM     20  C   UNL A   1      37.545  23.535  25.887  1.00  0.00     0.011 C 
ENDBRANCH  14  19
BRANCH  17  21
ATOM     21  N   UNL A   1      33.657  19.150  24.397  1.00  0.00    -0.336 N 
ATOM     22  C   UNL A   1      34.539  18.021  24.638  1.00  0.00     0.148 C 
ATOM     23  C   UNL A   1      32.324  18.869  23.899  1.00  0.00     0.148 C 
ATOM     24  C   UNL A   1      34.535  17.084  23.426  1.00  0.00     0.181 C 
ATOM     25  C   UNL A   1      32.439  17.903  22.703  1.00  0.00     0.181 C 
ATOM     26  O   UNL A   1      33.196  16.724  23.038  1.00  0.00    -0.378 OA
ENDBRANCH  17  21
ENDBRANCH   8  13
BRANCH   7  27
ATOM     27  O   UNL A   1      29.602  25.209  24.049  1.00  0.00    -0.378 OA
ATOM     28  H   UNL A   1      29.716  24.298  24.361  1.00  0.00     0.212 HD
ENDBRANCH   7  27
ENDBRANCH   5   7
ENDBRANCH   4   5
ENDBRANCH   3   4
ENDBRANCH   2   3
ENDBRANCH   1   2
BRANCH   1  29
ATOM     29  C   UNL A   1      31.321  31.142  26.087  1.00  0.00     0.202 C 
BRANCH  29  30
ATOM     30  C   UNL A   1      31.401  32.402  26.957  1.00  0.00     0.261 C 
BRANCH  30  31
ATOM     31  O   UNL A   1      32.607  33.156  26.726  1.00  0.00    -0.460 OA
BRANCH  31  32
ATOM     32  C   UNL A   1      33.163  33.673  27.846  1.00  0.00     0.338 C 
ATOM     33  O   UNL A   1      32.665  34.492  28.610  1.00  0.00    -0.246 OA
BRANCH  32  34
ATOM     34  C   UNL A   1      34.440  33.008  28.161  1.00  0.00     0.060 A 
ATOM     35  C   UNL A   1      34.386  31.639  28.451  1.00  0.00     0.016 A 
ATOM     36  C   UNL A   1      35.640  33.713  28.293  1.00  0.00     0.016 A 
ATOM     37  C   UNL A   1      35.506  30.988  28.958  1.00  0.00     0.010 A 
ATOM     38  C   UNL A   1      36.766  33.055  28.808  1.00  0.00     0.010 A 
ATOM     39  C   UNL A   1      36.686  31.706  29.195  1.00  0.00    -0.014 A 
BRANCH  39  40
ATOM     40  C   UNL A   1      37.735  31.076  30.038  1.00  0.00     0.031 A 
ATOM     41  C   UNL A   1      38.690  30.104  29.397  1.00  0.00     0.074 A 
ATOM     42  C   UNL A   1      37.904  31.435  31.322  1.00  0.00     0.049 A 
ATOM     43  N   UNL A   1      39.735  29.503  29.909  1.00  0.00    -0.248 NA
ATOM     44  C   UNL A   1      38.438  29.767  27.986  1.00  0.00     0.031 C 
ATOM     45  C   UNL A   1      37.073  32.390  32.052  1.00  0.00     0.029 A 
ATOM     46  N   UNL A   1      38.850  31.043  32.237  1.00  0.00    -0.354 N 
ATOM     47  C   UNL A   1      40.263  28.724  28.887  1.00  0.00     0.074 A 
ATOM     48  C   UNL A   1      39.404  28.897  27.736  1.00  0.00     0.031 C 
ATOM     49  C   UNL A   1      37.549  32.515  33.302  1.00  0.00     0.029 A 
ATOM     50  C   UNL A   1      38.711  31.642  33.464  1.00  0.00     0.049 A 
ATOM     51  H   UNL A   1      39.562  30.395  32.031  1.00  0.00     0.167 HD
ATOM     52  C   UNL A   1      41.372  27.948  28.896  1.00  0.00     0.037 A 
ATOM     53  C   UNL A   1      39.439  31.501  34.589  1.00  0.00     0.037 A 
ATOM     54  C   UNL A   1      42.236  27.777  30.033  1.00  0.00     0.049 A 
ATOM     55  C   UNL A   1      40.646  30.600  34.587  1.00  0.00     0.074 A 
ATOM     56  C   UNL A   1      43.385  27.012  30.138  1.00  0.00     0.029 A 
ATOM     57  N   UNL A   1      42.042  28.380  31.266  1.00  0.00    -0.354 N 
ATOM     58  N   UNL A   1      41.148  29.890  33.606  1.00  0.00    -0.248 NA
ATOM     59  C   UNL A   1      41.395  30.494  35.847  1.00  0.00     0.031 C 
ATOM     60  C   UNL A   1      43.868  27.126  31.446  1.00  0.00     0.029 A 
ATOM     61  C   UNL A   1      43.043  27.995  32.142  1.00  0.00     0.049 A 
ATOM     62  H   UNL A   1      41.302  28.991  31.486  1.00  0.00     0.167 HD
ATOM     63  C   UNL A   1      42.287  29.282  34.119  1.00  0.00     0.074 A 
ATOM     64  C   UNL A   1      42.407  29.713  35.496  1.00  0.00     0.031 C 
ATOM     65  C   UNL A   1      43.157  28.444  33.505  1.00  0.00     0.037 A 
BRANCH  52  66
ATOM     66  C   UNL A   1      41.704  27.212  27.632  1.00  0.00     0.057 A 
ATOM     67  C   UNL A   1      42.507  27.781  26.635  1.00  0.00     0.134 A 
ATOM     68  C   UNL A   1      41.232  25.911  27.419  1.00  0.00     0.134 A 
ATOM     69  F   UNL A   1      42.977  29.030  26.771  1.00  0.00    -0.206 F 
ATOM     70  C   UNL A   1      42.810  27.091  25.460  1.00  0.00     0.040 A 
ATOM     71  C   UNL A   1      41.546  25.202  26.258  1.00  0.00     0.040 A 
ATOM     72  F   UNL A   1      40.460  25.307  28.335  1.00  0.00    -0.206 F 
ATOM     73  C   UNL A   1      42.333  25.795  25.272  1.00  0.00     0.006 A 
ENDBRANCH  52  66
BRANCH  53  74
ATOM     74  C   UNL A   1      39.058  32.243  35.817  1.00  0.00     0.057 A 
ATOM     75  C   UNL A   1      38.229  31.668  36.787  1.00  0.00     0.134 A 
ATOM     76  C   UNL A   1      39.494  33.554  36.035  1.00  0.00     0.134 A 
ATOM     77  F   UNL A   1      37.760  30.423  36.621  1.00  0.00    -0.206 F 
ATOM     78  C   UNL A   1      37.831  32.378  37.921  1.00  0.00     0.040 A 
ATOM     79  C   UNL A   1      39.123  34.268  37.175  1.00  0.00     0.040 A 
ATOM     80  F   UNL A   1      40.290  34.161  35.142  1.00  0.00    -0.206 F 
ATOM     81  C   UNL A   1      38.282  33.681  38.119  1.00  0.00     0.006 A 
ENDBRANCH  53  74
BRANCH  65  82
ATOM     82  C   UNL A   1      44.340  27.976  34.302  1.00  0.00     0.057 A 
ATOM     83  C   UNL A   1      45.538  28.700  34.347  1.00  0.00     0.134 A 
ATOM     84  C   UNL A   1      44.265  26.799  35.059  1.00  0.00     0.134 A 
ATOM     85  F   UNL A   1      45.677  29.829  33.636  1.00  0.00    -0.206 F 
ATOM     86  C   UNL A   1      46.630  28.256  35.095  1.00  0.00     0.040 A 
ATOM     87  C   UNL A   1      45.342  26.358  35.829  1.00  0.00     0.040 A 
ATOM     88  F   UNL A   1      43.143  26.065  35.068  1.00  0.00    -0.206 F 
ATOM     89  C   UNL A   1      46.532  27.084  35.843  1.00  0.00     0.006 A 
ENDBRANCH  65  82
ENDBRANCH  39  40
ENDBRANCH  32  34
ENDBRANCH  31  32
ENDBRANCH  30  31
ENDBRANCH  29  30
ENDBRANCH   1  29
TORSDOF 18
ENDMDL
