MODEL 1
REMARK VINA RESULT:     -12.3      0.000      0.000
REMARK SMILES O=C(OCCOCCOC(=O)[C@]1(NC(=O)C2CCN(C(=O)C3CC3)CC2)CCCc2ccccc21)c1ccc(-c2c3nc(c(-c4c(F)cccc4F)c4ccc([nH]4)c(-c4c(F)cccc4F)c4nc(c(-c5c(F)cccc5F)c5ccc2[nH]5)C=C4)C=C3)cc1
REMARK SMILES IDX 7 1 6 2 5 3 4 4 3 5 2 6 1 7 36 8 37 9 89 10 38 11 88 12
REMARK SMILES IDX 39 13 40 14 41 15 82 16 42 17 87 18 81 19 83 20 43 21 86 22
REMARK SMILES IDX 80 23 79 24 44 26 70 27 53 28 69 29 54 30 57 31 68 32 84 33
REMARK SMILES IDX 55 34 56 35 67 37 85 38 58 39 45 40 46 41 51 42 47 43 48 44
REMARK SMILES IDX 50 45 52 46 49 47 71 48 72 49 77 50 73 51 74 52 76 53 78 54
REMARK SMILES IDX 75 55 59 56 60 57 65 58 61 59 62 60 64 61 66 62 63 63 8 64
REMARK SMILES IDX 9 65 10 66 11 67 12 68 27 69 35 70 28 71 30 72 34 73 29 74
REMARK SMILES IDX 31 75 33 76 32 77 13 78 14 79 15 81 16 82 17 83 26 84 18 85
REMARK SMILES IDX 25 86 19 87 20 88 21 89 22 90 23 91 24 92
REMARK H PARENT 83 25 57 36 13 80
REMARK Flexibility Score: inf
ROOT
ATOM      1  C   UNL A   1      34.522  29.989  27.189  1.00  0.00     0.202 C 
ENDROOT
BRANCH   1   2
ATOM      2  O   UNL A   1      33.654  30.976  27.733  1.00  0.00    -0.374 OA
BRANCH   2   3
ATOM      3  C   UNL A   1      34.135  32.281  28.002  1.00  0.00     0.202 C 
BRANCH   3   4
ATOM      4  C   UNL A   1      34.448  32.758  29.433  1.00  0.00     0.261 C 
BRANCH   4   5
ATOM      5  O   UNL A   1      34.950  31.733  30.345  1.00  0.00    -0.460 OA
BRANCH   5   6
ATOM      6  C   UNL A   1      35.882  31.811  31.334  1.00  0.00     0.338 C 
ATOM      7  O   UNL A   1      35.667  32.404  32.383  1.00  0.00    -0.246 OA
BRANCH   6   8
ATOM      8  C   UNL A   1      37.165  31.153  31.082  1.00  0.00     0.060 A 
ATOM      9  C   UNL A   1      37.667  31.233  29.800  1.00  0.00     0.016 A 
ATOM     10  C   UNL A   1      37.869  30.449  32.058  1.00  0.00     0.016 A 
ATOM     11  C   UNL A   1      38.575  30.329  29.369  1.00  0.00     0.010 A 
ATOM     12  C   UNL A   1      39.061  29.822  31.687  1.00  0.00     0.010 A 
ATOM     13  C   UNL A   1      39.405  29.776  30.330  1.00  0.00    -0.014 A 
BRANCH  13  14
ATOM     14  C   UNL A   1      40.664  29.293  29.757  1.00  0.00     0.031 A 
ATOM     15  C   UNL A   1      40.683  27.959  29.112  1.00  0.00     0.074 A 
ATOM     16  C   UNL A   1      41.612  30.237  29.558  1.00  0.00     0.049 A 
ATOM     17  N   UNL A   1      41.643  27.413  28.428  1.00  0.00    -0.248 NA
ATOM     18  C   UNL A   1      39.468  27.135  29.236  1.00  0.00     0.031 C 
ATOM     19  C   UNL A   1      41.528  31.630  30.045  1.00  0.00     0.029 A 
ATOM     20  N   UNL A   1      42.728  30.247  28.774  1.00  0.00    -0.354 N 
ATOM     21  C   UNL A   1      41.184  26.149  28.101  1.00  0.00     0.074 A 
ATOM     22  C   UNL A   1      39.839  26.025  28.616  1.00  0.00     0.031 C 
ATOM     23  C   UNL A   1      42.434  32.381  29.408  1.00  0.00     0.029 A 
ATOM     24  C   UNL A   1      43.290  31.497  28.641  1.00  0.00     0.049 A 
ATOM     25  H   UNL A   1      43.096  29.440  28.347  1.00  0.00     0.167 HD
ATOM     26  C   UNL A   1      41.877  25.181  27.463  1.00  0.00     0.037 A 
ATOM     27  C   UNL A   1      44.419  31.869  28.013  1.00  0.00     0.037 A 
ATOM     28  C   UNL A   1      43.217  25.388  26.984  1.00  0.00     0.049 A 
ATOM     29  C   UNL A   1      45.197  30.758  27.380  1.00  0.00     0.074 A 
ATOM     30  C   UNL A   1      44.099  24.477  26.441  1.00  0.00     0.029 A 
ATOM     31  N   UNL A   1      43.865  26.622  26.997  1.00  0.00    -0.354 N 
ATOM     32  N   UNL A   1      44.840  29.506  27.206  1.00  0.00    -0.248 NA
ATOM     33  C   UNL A   1      46.550  31.077  26.922  1.00  0.00     0.031 C 
ATOM     34  C   UNL A   1      45.294  25.154  26.163  1.00  0.00     0.029 A 
ATOM     35  C   UNL A   1      45.140  26.497  26.483  1.00  0.00     0.049 A 
ATOM     36  H   UNL A   1      43.469  27.463  27.325  1.00  0.00     0.167 HD
ATOM     37  C   UNL A   1      45.930  28.874  26.638  1.00  0.00     0.074 A 
ATOM     38  C   UNL A   1      46.945  29.900  26.454  1.00  0.00     0.031 C 
ATOM     39  C   UNL A   1      46.097  27.567  26.321  1.00  0.00     0.037 A 
BRANCH  26  40
ATOM     40  C   UNL A   1      41.235  23.831  27.401  1.00  0.00     0.057 A 
ATOM     41  C   UNL A   1      41.699  22.738  28.143  1.00  0.00     0.134 A 
ATOM     42  C   UNL A   1      40.182  23.602  26.504  1.00  0.00     0.134 A 
ATOM     43  F   UNL A   1      42.734  22.878  28.984  1.00  0.00    -0.206 F 
ATOM     44  C   UNL A   1      41.155  21.461  27.977  1.00  0.00     0.040 A 
ATOM     45  C   UNL A   1      39.616  22.337  26.346  1.00  0.00     0.040 A 
ATOM     46  F   UNL A   1      39.705  24.601  25.746  1.00  0.00    -0.206 F 
ATOM     47  C   UNL A   1      40.110  21.259  27.078  1.00  0.00     0.006 A 
ENDBRANCH  26  40
BRANCH  27  48
ATOM     48  C   UNL A   1      44.917  33.270  28.087  1.00  0.00     0.057 A 
ATOM     49  C   UNL A   1      44.593  34.224  27.117  1.00  0.00     0.134 A 
ATOM     50  C   UNL A   1      45.740  33.697  29.143  1.00  0.00     0.134 A 
ATOM     51  F   UNL A   1      43.828  33.888  26.068  1.00  0.00    -0.206 F 
ATOM     52  C   UNL A   1      45.067  35.538  27.191  1.00  0.00     0.040 A 
ATOM     53  C   UNL A   1      46.188  35.013  29.252  1.00  0.00     0.040 A 
ATOM     54  F   UNL A   1      46.103  32.840  30.110  1.00  0.00    -0.206 F 
ATOM     55  C   UNL A   1      45.860  35.938  28.266  1.00  0.00     0.006 A 
ENDBRANCH  27  48
BRANCH  39  56
ATOM     56  C   UNL A   1      47.413  27.210  25.713  1.00  0.00     0.057 A 
ATOM     57  C   UNL A   1      47.665  27.391  24.348  1.00  0.00     0.134 A 
ATOM     58  C   UNL A   1      48.444  26.711  26.515  1.00  0.00     0.134 A 
ATOM     59  F   UNL A   1      46.702  27.845  23.532  1.00  0.00    -0.206 F 
ATOM     60  C   UNL A   1      48.903  27.067  23.796  1.00  0.00     0.040 A 
ATOM     61  C   UNL A   1      49.693  26.410  25.980  1.00  0.00     0.040 A 
ATOM     62  F   UNL A   1      48.254  26.523  27.830  1.00  0.00    -0.206 F 
ATOM     63  C   UNL A   1      49.922  26.584  24.616  1.00  0.00     0.006 A 
ENDBRANCH  39  56
ENDBRANCH  13  14
ENDBRANCH   6   8
ENDBRANCH   5   6
ENDBRANCH   4   5
ENDBRANCH   3   4
ENDBRANCH   2   3
ENDBRANCH   1   2
BRANCH   1  64
ATOM     64  C   UNL A   1      34.027  28.563  26.870  1.00  0.00     0.261 C 
BRANCH  64  65
ATOM     65  O   UNL A   1      33.163  28.465  25.720  1.00  0.00    -0.461 OA
BRANCH  65  66
ATOM     66  C   UNL A   1      33.715  27.944  24.605  1.00  0.00     0.336 C 
ATOM     67  O   UNL A   1      34.381  28.624  23.828  1.00  0.00    -0.249 OA
BRANCH  66  68
ATOM     68  C   UNL A   1      33.517  26.378  24.455  1.00  0.00     0.164 C 
ATOM     69  C   UNL A   1      33.793  26.023  22.932  1.00  0.00     0.046 C 
ATOM     70  C   UNL A   1      32.016  26.121  24.653  1.00  0.00    -0.008 A 
ATOM     71  C   UNL A   1      32.991  26.826  21.925  1.00  0.00     0.008 C 
ATOM     72  C   UNL A   1      31.098  26.273  23.582  1.00  0.00    -0.042 A 
ATOM     73  C   UNL A   1      31.522  25.829  25.933  1.00  0.00     0.007 A 
ATOM     74  C   UNL A   1      31.498  26.671  22.175  1.00  0.00     0.036 C 
ATOM     75  C   UNL A   1      29.731  26.059  23.813  1.00  0.00     0.004 A 
ATOM     76  C   UNL A   1      30.163  25.615  26.141  1.00  0.00     0.000 A 
ATOM     77  C   UNL A   1      29.270  25.719  25.081  1.00  0.00     0.000 A 
BRANCH  68  78
ATOM     78  N   UNL A   1      34.358  25.303  25.161  1.00  0.00    -0.336 N 
ATOM     79  C   UNL A   1      35.093  24.180  24.962  1.00  0.00     0.224 C 
ATOM     80  H   UNL A   1      34.369  25.508  26.124  1.00  0.00     0.164 HD
ATOM     81  O   UNL A   1      36.064  24.069  25.722  1.00  0.00    -0.275 OA
BRANCH  79  82
ATOM     82  C   UNL A   1      34.742  23.008  24.050  1.00  0.00     0.082 C 
ATOM     83  C   UNL A   1      33.275  22.545  24.325  1.00  0.00     0.035 C 
ATOM     84  C   UNL A   1      35.708  21.810  24.231  1.00  0.00     0.035 C 
ATOM     85  C   UNL A   1      33.078  21.603  25.503  1.00  0.00     0.120 C 
ATOM     86  C   UNL A   1      35.351  20.873  25.401  1.00  0.00     0.120 C 
ATOM     87  N   UNL A   1      33.954  20.471  25.307  1.00  0.00    -0.342 N 
ATOM     88  C   UNL A   1      33.373  19.310  24.793  1.00  0.00     0.225 C 
ATOM     89  O   UNL A   1      32.154  19.235  24.630  1.00  0.00    -0.275 OA
BRANCH  88  90
ATOM     90  C   UNL A   1      34.129  18.083  24.415  1.00  0.00     0.079 C 
ATOM     91  C   UNL A   1      33.727  16.643  24.513  1.00  0.00     0.014 C 
ATOM     92  C   UNL A   1      33.792  17.314  23.165  1.00  0.00     0.014 C 
ENDBRANCH  88  90
ENDBRANCH  79  82
ENDBRANCH  68  78
ENDBRANCH  66  68
ENDBRANCH  65  66
ENDBRANCH  64  65
ENDBRANCH   1  64
TORSDOF 17
ENDMDL
MODEL 2
REMARK VINA RESULT:     -12.2      3.913      7.480
REMARK SMILES O=C(OCCOCCOC(=O)[C@]1(NC(=O)C2CCN(C(=O)C3CC3)CC2)CCCc2ccccc21)c1ccc(-c2c3nc(c(-c4c(F)cccc4F)c4ccc([nH]4)c(-c4c(F)cccc4F)c4nc(c(-c5c(F)cccc5F)c5ccc2[nH]5)C=C4)C=C3)cc1
REMARK SMILES IDX 7 1 6 2 5 3 4 4 3 5 2 6 1 7 36 8 37 9 89 10 38 11 88 12
REMARK SMILES IDX 39 13 40 14 41 15 82 16 42 17 87 18 81 19 83 20 43 21 86 22
REMARK SMILES IDX 80 23 79 24 44 26 70 27 53 28 69 29 54 30 57 31 68 32 84 33
REMARK SMILES IDX 55 34 56 35 67 37 85 38 58 39 45 40 46 41 51 42 47 43 48 44
REMARK SMILES IDX 50 45 52 46 49 47 71 48 72 49 77 50 73 51 74 52 76 53 78 54
REMARK SMILES IDX 75 55 59 56 60 57 65 58 61 59 62 60 64 61 66 62 63 63 8 64
REMARK SMILES IDX 9 65 10 66 11 67 12 68 27 69 35 70 28 71 30 72 34 73 29 74
REMARK SMILES IDX 31 75 33 76 32 77 13 78 14 79 15 81 16 82 17 83 26 84 18 85
REMARK SMILES IDX 25 86 19 87 20 88 21 89 22 90 23 91 24 92
REMARK H PARENT 83 25 57 36 13 80
REMARK Flexibility Score: inf
ROOT
ATOM      1  C   UNL A   1      34.906  30.702  27.946  1.00  0.00     0.202 C 
ENDROOT
BRANCH   1   2
ATOM      2  O   UNL A   1      34.241  31.690  27.168  1.00  0.00    -0.374 OA
BRANCH   2   3
ATOM      3  C   UNL A   1      32.909  32.064  27.475  1.00  0.00     0.202 C 
BRANCH   3   4
ATOM      4  C   UNL A   1      32.396  33.502  27.269  1.00  0.00     0.261 C 
BRANCH   4   5
ATOM      5  O   UNL A   1      32.545  34.397  28.413  1.00  0.00    -0.460 OA
BRANCH   5   6
ATOM      6  C   UNL A   1      33.635  35.075  28.867  1.00  0.00     0.338 C 
ATOM      7  O   UNL A   1      33.768  36.280  28.696  1.00  0.00    -0.246 OA
BRANCH   6   8
ATOM      8  C   UNL A   1      34.652  34.290  29.570  1.00  0.00     0.060 A 
ATOM      9  C   UNL A   1      35.969  34.553  29.260  1.00  0.00     0.016 A 
ATOM     10  C   UNL A   1      34.345  33.298  30.501  1.00  0.00     0.016 A 
ATOM     11  C   UNL A   1      36.922  33.626  29.506  1.00  0.00     0.010 A 
ATOM     12  C   UNL A   1      35.399  32.582  31.073  1.00  0.00     0.010 A 
ATOM     13  C   UNL A   1      36.691  32.764  30.564  1.00  0.00    -0.014 A 
BRANCH  13  14
ATOM     14  C   UNL A   1      37.936  32.218  31.110  1.00  0.00     0.031 A 
ATOM     15  C   UNL A   1      38.228  32.421  32.548  1.00  0.00     0.074 A 
ATOM     16  C   UNL A   1      38.548  31.286  30.344  1.00  0.00     0.049 A 
ATOM     17  N   UNL A   1      39.190  31.905  33.252  1.00  0.00    -0.248 NA
ATOM     18  C   UNL A   1      37.319  33.303  33.300  1.00  0.00     0.031 C 
ATOM     19  C   UNL A   1      38.156  30.943  28.961  1.00  0.00     0.029 A 
ATOM     20  N   UNL A   1      39.490  30.346  30.643  1.00  0.00    -0.354 N 
ATOM     21  C   UNL A   1      39.054  32.456  34.515  1.00  0.00     0.074 A 
ATOM     22  C   UNL A   1      37.887  33.308  34.497  1.00  0.00     0.031 C 
ATOM     23  C   UNL A   1      38.715  29.779  28.613  1.00  0.00     0.029 A 
ATOM     24  C   UNL A   1      39.661  29.408  29.649  1.00  0.00     0.049 A 
ATOM     25  H   UNL A   1      39.999  30.340  31.485  1.00  0.00     0.167 HD
ATOM     26  C   UNL A   1      39.885  32.279  35.564  1.00  0.00     0.037 A 
ATOM     27  C   UNL A   1      40.538  28.394  29.567  1.00  0.00     0.037 A 
ATOM     28  C   UNL A   1      41.032  31.413  35.494  1.00  0.00     0.049 A 
ATOM     29  C   UNL A   1      41.491  28.274  30.714  1.00  0.00     0.074 A 
ATOM     30  C   UNL A   1      42.041  31.227  36.416  1.00  0.00     0.029 A 
ATOM     31  N   UNL A   1      41.309  30.575  34.415  1.00  0.00    -0.354 N 
ATOM     32  N   UNL A   1      41.471  28.911  31.863  1.00  0.00    -0.248 NA
ATOM     33  C   UNL A   1      42.621  27.360  30.543  1.00  0.00     0.031 C 
ATOM     34  C   UNL A   1      42.949  30.307  35.875  1.00  0.00     0.029 A 
ATOM     35  C   UNL A   1      42.479  29.879  34.640  1.00  0.00     0.049 A 
ATOM     36  H   UNL A   1      40.749  30.492  33.608  1.00  0.00     0.167 HD
ATOM     37  C   UNL A   1      42.598  28.498  32.548  1.00  0.00     0.074 A 
ATOM     38  C   UNL A   1      43.251  27.514  31.699  1.00  0.00     0.031 C 
ATOM     39  C   UNL A   1      43.070  28.906  33.751  1.00  0.00     0.037 A 
BRANCH  26  40
ATOM     40  C   UNL A   1      39.639  33.138  36.763  1.00  0.00     0.057 A 
ATOM     41  C   UNL A   1      38.691  32.817  37.742  1.00  0.00     0.134 A 
ATOM     42  C   UNL A   1      40.308  34.364  36.889  1.00  0.00     0.134 A 
ATOM     43  F   UNL A   1      37.982  31.682  37.656  1.00  0.00    -0.206 F 
ATOM     44  C   UNL A   1      38.399  33.696  38.789  1.00  0.00     0.040 A 
ATOM     45  C   UNL A   1      40.041  35.240  37.942  1.00  0.00     0.040 A 
ATOM     46  F   UNL A   1      41.212  34.743  35.974  1.00  0.00    -0.206 F 
ATOM     47  C   UNL A   1      39.076  34.910  38.891  1.00  0.00     0.006 A 
ENDBRANCH  26  40
BRANCH  27  48
ATOM     48  C   UNL A   1      40.636  27.557  28.339  1.00  0.00     0.057 A 
ATOM     49  C   UNL A   1      39.963  26.336  28.219  1.00  0.00     0.134 A 
ATOM     50  C   UNL A   1      41.414  27.961  27.241  1.00  0.00     0.134 A 
ATOM     51  F   UNL A   1      39.216  25.874  29.232  1.00  0.00    -0.206 F 
ATOM     52  C   UNL A   1      40.063  25.553  27.064  1.00  0.00     0.040 A 
ATOM     53  C   UNL A   1      41.491  27.210  26.068  1.00  0.00     0.040 A 
ATOM     54  F   UNL A   1      42.097  29.115  27.280  1.00  0.00    -0.206 F 
ATOM     55  C   UNL A   1      40.821  25.994  25.980  1.00  0.00     0.006 A 
ENDBRANCH  27  48
BRANCH  39  56
ATOM     56  C   UNL A   1      44.330  28.248  34.210  1.00  0.00     0.057 A 
ATOM     57  C   UNL A   1      45.586  28.810  33.956  1.00  0.00     0.134 A 
ATOM     58  C   UNL A   1      44.274  27.056  34.939  1.00  0.00     0.134 A 
ATOM     59  F   UNL A   1      45.695  29.940  33.242  1.00  0.00    -0.206 F 
ATOM     60  C   UNL A   1      46.753  28.193  34.402  1.00  0.00     0.040 A 
ATOM     61  C   UNL A   1      45.431  26.446  35.413  1.00  0.00     0.040 A 
ATOM     62  F   UNL A   1      43.094  26.479  35.211  1.00  0.00    -0.206 F 
ATOM     63  C   UNL A   1      46.675  27.012  35.140  1.00  0.00     0.006 A 
ENDBRANCH  39  56
ENDBRANCH  13  14
ENDBRANCH   6   8
ENDBRANCH   5   6
ENDBRANCH   4   5
ENDBRANCH   3   4
ENDBRANCH   2   3
ENDBRANCH   1   2
BRANCH   1  64
ATOM     64  C   UNL A   1      34.916  29.216  27.531  1.00  0.00     0.261 C 
BRANCH  64  65
ATOM     65  O   UNL A   1      34.460  28.961  26.187  1.00  0.00    -0.461 OA
BRANCH  65  66
ATOM     66  C   UNL A   1      33.247  28.382  26.071  1.00  0.00     0.336 C 
ATOM     67  O   UNL A   1      32.222  28.931  26.466  1.00  0.00    -0.249 OA
BRANCH  66  68
ATOM     68  C   UNL A   1      33.261  26.998  25.295  1.00  0.00     0.164 C 
ATOM     69  C   UNL A   1      33.894  27.280  23.866  1.00  0.00     0.046 C 
ATOM     70  C   UNL A   1      31.792  26.656  25.014  1.00  0.00    -0.008 A 
ATOM     71  C   UNL A   1      33.241  28.401  23.078  1.00  0.00     0.008 C 
ATOM     72  C   UNL A   1      31.112  27.202  23.895  1.00  0.00    -0.042 A 
ATOM     73  C   UNL A   1      31.072  25.873  25.928  1.00  0.00     0.007 A 
ATOM     74  C   UNL A   1      31.756  28.131  22.885  1.00  0.00     0.036 C 
ATOM     75  C   UNL A   1      29.760  26.888  23.691  1.00  0.00     0.004 A 
ATOM     76  C   UNL A   1      29.731  25.569  25.707  1.00  0.00     0.000 A 
ATOM     77  C   UNL A   1      29.080  26.067  24.584  1.00  0.00     0.000 A 
BRANCH  68  78
ATOM     78  N   UNL A   1      34.048  25.748  25.720  1.00  0.00    -0.336 N 
ATOM     79  C   UNL A   1      34.519  24.551  25.290  1.00  0.00     0.224 C 
ATOM     80  H   UNL A   1      34.309  25.859  26.663  1.00  0.00     0.164 HD
ATOM     81  O   UNL A   1      35.604  24.224  25.791  1.00  0.00    -0.275 OA
BRANCH  79  82
ATOM     82  C   UNL A   1      33.780  23.536  24.423  1.00  0.00     0.082 C 
ATOM     83  C   UNL A   1      32.690  22.808  25.275  1.00  0.00     0.035 C 
ATOM     84  C   UNL A   1      34.736  22.488  23.798  1.00  0.00     0.035 C 
ATOM     85  C   UNL A   1      33.170  21.639  26.123  1.00  0.00     0.120 C 
ATOM     86  C   UNL A   1      35.074  21.301  24.720  1.00  0.00     0.120 C 
ATOM     87  N   UNL A   1      33.848  20.714  25.245  1.00  0.00    -0.342 N 
ATOM     88  C   UNL A   1      33.122  19.598  24.827  1.00  0.00     0.225 C 
ATOM     89  O   UNL A   1      32.001  19.369  25.285  1.00  0.00    -0.275 OA
BRANCH  88  90
ATOM     90  C   UNL A   1      33.607  18.597  23.835  1.00  0.00     0.079 C 
ATOM     91  C   UNL A   1      34.528  17.431  24.024  1.00  0.00     0.014 C 
ATOM     92  C   UNL A   1      33.055  17.196  23.809  1.00  0.00     0.014 C 
ENDBRANCH  88  90
ENDBRANCH  79  82
ENDBRANCH  68  78
ENDBRANCH  66  68
ENDBRANCH  65  66
ENDBRANCH  64  65
ENDBRANCH   1  64
TORSDOF 17
ENDMDL
MODEL 3
REMARK VINA RESULT:     -12.1      4.677     10.074
REMARK SMILES O=C(OCCOCCOC(=O)[C@]1(NC(=O)C2CCN(C(=O)C3CC3)CC2)CCCc2ccccc21)c1ccc(-c2c3nc(c(-c4c(F)cccc4F)c4ccc([nH]4)c(-c4c(F)cccc4F)c4nc(c(-c5c(F)cccc5F)c5ccc2[nH]5)C=C4)C=C3)cc1
REMARK SMILES IDX 7 1 6 2 5 3 4 4 3 5 2 6 1 7 36 8 37 9 89 10 38 11 88 12
REMARK SMILES IDX 39 13 40 14 41 15 82 16 42 17 87 18 81 19 83 20 43 21 86 22
REMARK SMILES IDX 80 23 79 24 44 26 70 27 53 28 69 29 54 30 57 31 68 32 84 33
REMARK SMILES IDX 55 34 56 35 67 37 85 38 58 39 45 40 46 41 51 42 47 43 48 44
REMARK SMILES IDX 50 45 52 46 49 47 71 48 72 49 77 50 73 51 74 52 76 53 78 54
REMARK SMILES IDX 75 55 59 56 60 57 65 58 61 59 62 60 64 61 66 62 63 63 8 64
REMARK SMILES IDX 9 65 10 66 11 67 12 68 27 69 35 70 28 71 30 72 34 73 29 74
REMARK SMILES IDX 31 75 33 76 32 77 13 78 14 79 15 81 16 82 17 83 26 84 18 85
REMARK SMILES IDX 25 86 19 87 20 88 21 89 22 90 23 91 24 92
REMARK H PARENT 83 25 57 36 13 80
REMARK Flexibility Score: inf
ROOT
ATOM      1  C   UNL A   1      37.975  20.811  24.975  1.00  0.00     0.202 C 
ENDROOT
BRANCH   1   2
ATOM      2  O   UNL A   1      38.735  21.031  26.157  1.00  0.00    -0.374 OA
BRANCH   2   3
ATOM      3  C   UNL A   1      39.915  21.815  26.113  1.00  0.00     0.202 C 
BRANCH   3   4
ATOM      4  C   UNL A   1      40.119  23.036  27.029  1.00  0.00     0.261 C 
BRANCH   4   5
ATOM      5  O   UNL A   1      41.080  24.029  26.554  1.00  0.00    -0.460 OA
BRANCH   5   6
ATOM      6  C   UNL A   1      40.921  25.355  26.293  1.00  0.00     0.338 C 
ATOM      7  O   UNL A   1      40.997  25.807  25.158  1.00  0.00    -0.246 OA
BRANCH   6   8
ATOM      8  C   UNL A   1      40.661  26.225  27.441  1.00  0.00     0.060 A 
ATOM      9  C   UNL A   1      41.381  27.398  27.512  1.00  0.00     0.016 A 
ATOM     10  C   UNL A   1      39.752  25.910  28.450  1.00  0.00     0.016 A 
ATOM     11  C   UNL A   1      41.538  28.028  28.699  1.00  0.00     0.010 A 
ATOM     12  C   UNL A   1      39.622  26.796  29.522  1.00  0.00     0.010 A 
ATOM     13  C   UNL A   1      40.526  27.861  29.628  1.00  0.00    -0.014 A 
BRANCH  13  14
ATOM     14  C   UNL A   1      40.473  28.966  30.589  1.00  0.00     0.031 A 
ATOM     15  C   UNL A   1      39.335  29.912  30.519  1.00  0.00     0.074 A 
ATOM     16  C   UNL A   1      41.275  28.836  31.670  1.00  0.00     0.049 A 
ATOM     17  N   UNL A   1      39.028  30.860  31.352  1.00  0.00    -0.248 NA
ATOM     18  C   UNL A   1      38.414  29.772  29.378  1.00  0.00     0.031 C 
ATOM     19  C   UNL A   1      42.301  27.784  31.836  1.00  0.00     0.029 A 
ATOM     20  N   UNL A   1      41.260  29.449  32.888  1.00  0.00    -0.354 N 
ATOM     21  C   UNL A   1      37.921  31.484  30.802  1.00  0.00     0.074 A 
ATOM     22  C   UNL A   1      37.578  30.777  29.589  1.00  0.00     0.031 C 
ATOM     23  C   UNL A   1      42.672  27.720  33.119  1.00  0.00     0.029 A 
ATOM     24  C   UNL A   1      42.081  28.847  33.814  1.00  0.00     0.049 A 
ATOM     25  H   UNL A   1      40.715  30.246  33.084  1.00  0.00     0.167 HD
ATOM     26  C   UNL A   1      37.300  32.585  31.276  1.00  0.00     0.037 A 
ATOM     27  C   UNL A   1      42.369  29.215  35.074  1.00  0.00     0.037 A 
ATOM     28  C   UNL A   1      37.711  33.232  32.494  1.00  0.00     0.049 A 
ATOM     29  C   UNL A   1      41.719  30.480  35.539  1.00  0.00     0.074 A 
ATOM     30  C   UNL A   1      37.277  34.422  33.037  1.00  0.00     0.029 A 
ATOM     31  N   UNL A   1      38.668  32.713  33.363  1.00  0.00    -0.354 N 
ATOM     32  N   UNL A   1      40.776  31.179  34.948  1.00  0.00    -0.248 NA
ATOM     33  C   UNL A   1      42.207  31.052  36.795  1.00  0.00     0.031 C 
ATOM     34  C   UNL A   1      38.003  34.643  34.215  1.00  0.00     0.029 A 
ATOM     35  C   UNL A   1      38.850  33.565  34.435  1.00  0.00     0.049 A 
ATOM     36  H   UNL A   1      39.147  31.861  33.232  1.00  0.00     0.167 HD
ATOM     37  C   UNL A   1      40.570  32.290  35.745  1.00  0.00     0.074 A 
ATOM     38  C   UNL A   1      41.456  32.140  36.888  1.00  0.00     0.031 C 
ATOM     39  C   UNL A   1      39.748  33.349  35.545  1.00  0.00     0.037 A 
BRANCH  26  40
ATOM     40  C   UNL A   1      36.250  33.190  30.398  1.00  0.00     0.057 A 
ATOM     41  C   UNL A   1      34.880  33.014  30.626  1.00  0.00     0.134 A 
ATOM     42  C   UNL A   1      36.628  33.889  29.243  1.00  0.00     0.134 A 
ATOM     43  F   UNL A   1      34.452  32.314  31.687  1.00  0.00    -0.206 F 
ATOM     44  C   UNL A   1      33.924  33.491  29.724  1.00  0.00     0.040 A 
ATOM     45  C   UNL A   1      35.683  34.388  28.347  1.00  0.00     0.040 A 
ATOM     46  F   UNL A   1      37.925  34.072  28.952  1.00  0.00    -0.206 F 
ATOM     47  C   UNL A   1      34.326  34.181  28.582  1.00  0.00     0.006 A 
ENDBRANCH  26  40
BRANCH  27  48
ATOM     48  C   UNL A   1      43.386  28.482  35.878  1.00  0.00     0.057 A 
ATOM     49  C   UNL A   1      43.039  27.424  36.725  1.00  0.00     0.134 A 
ATOM     50  C   UNL A   1      44.748  28.823  35.819  1.00  0.00     0.134 A 
ATOM     51  F   UNL A   1      41.756  27.052  36.850  1.00  0.00    -0.206 F 
ATOM     52  C   UNL A   1      43.998  26.742  37.480  1.00  0.00     0.040 A 
ATOM     53  C   UNL A   1      45.721  28.127  36.535  1.00  0.00     0.040 A 
ATOM     54  F   UNL A   1      45.162  29.831  35.036  1.00  0.00    -0.206 F 
ATOM     55  C   UNL A   1      45.346  27.087  37.379  1.00  0.00     0.006 A 
ENDBRANCH  27  48
BRANCH  39  56
ATOM     56  C   UNL A   1      39.764  34.391  36.615  1.00  0.00     0.057 A 
ATOM     57  C   UNL A   1      40.564  35.535  36.514  1.00  0.00     0.134 A 
ATOM     58  C   UNL A   1      38.943  34.256  37.738  1.00  0.00     0.134 A 
ATOM     59  F   UNL A   1      41.386  35.701  35.467  1.00  0.00    -0.206 F 
ATOM     60  C   UNL A   1      40.559  36.506  37.513  1.00  0.00     0.040 A 
ATOM     61  C   UNL A   1      38.909  35.233  38.728  1.00  0.00     0.040 A 
ATOM     62  F   UNL A   1      38.155  33.180  37.880  1.00  0.00    -0.206 F 
ATOM     63  C   UNL A   1      39.722  36.359  38.619  1.00  0.00     0.006 A 
ENDBRANCH  39  56
ENDBRANCH  13  14
ENDBRANCH   6   8
ENDBRANCH   5   6
ENDBRANCH   4   5
ENDBRANCH   3   4
ENDBRANCH   2   3
ENDBRANCH   1   2
BRANCH   1  64
ATOM     64  C   UNL A   1      37.165  21.945  24.311  1.00  0.00     0.261 C 
BRANCH  64  65
ATOM     65  O   UNL A   1      35.872  22.189  24.899  1.00  0.00    -0.461 OA
BRANCH  65  66
ATOM     66  C   UNL A   1      35.773  23.281  25.684  1.00  0.00     0.336 C 
ATOM     67  O   UNL A   1      36.686  23.637  26.425  1.00  0.00    -0.249 OA
BRANCH  66  68
ATOM     68  C   UNL A   1      34.433  24.106  25.481  1.00  0.00     0.164 C 
ATOM     69  C   UNL A   1      33.534  23.846  26.764  1.00  0.00     0.046 C 
ATOM     70  C   UNL A   1      33.684  23.419  24.330  1.00  0.00    -0.008 A 
ATOM     71  C   UNL A   1      33.293  22.386  27.100  1.00  0.00     0.008 C 
ATOM     72  C   UNL A   1      32.870  22.280  24.560  1.00  0.00    -0.042 A 
ATOM     73  C   UNL A   1      33.882  23.855  23.012  1.00  0.00     0.007 A 
ATOM     74  C   UNL A   1      32.649  21.661  25.926  1.00  0.00     0.036 C 
ATOM     75  C   UNL A   1      32.228  21.664  23.477  1.00  0.00     0.004 A 
ATOM     76  C   UNL A   1      33.232  23.233  21.949  1.00  0.00     0.000 A 
ATOM     77  C   UNL A   1      32.397  22.146  22.183  1.00  0.00     0.000 A 
BRANCH  68  78
ATOM     78  N   UNL A   1      34.340  25.635  25.365  1.00  0.00    -0.336 N 
ATOM     79  C   UNL A   1      33.517  26.700  25.542  1.00  0.00     0.224 C 
ATOM     80  H   UNL A   1      35.207  25.970  25.039  1.00  0.00     0.164 HD
ATOM     81  O   UNL A   1      34.095  27.728  25.922  1.00  0.00    -0.275 OA
BRANCH  79  82
ATOM     82  C   UNL A   1      32.043  26.790  25.159  1.00  0.00     0.082 C 
ATOM     83  C   UNL A   1      31.903  26.832  23.603  1.00  0.00     0.035 C 
ATOM     84  C   UNL A   1      31.348  28.030  25.778  1.00  0.00     0.035 C 
ATOM     85  C   UNL A   1      32.090  28.194  22.949  1.00  0.00     0.120 C 
ATOM     86  C   UNL A   1      31.530  29.332  24.974  1.00  0.00     0.120 C 
ATOM     87  N   UNL A   1      31.169  29.110  23.580  1.00  0.00    -0.342 N 
ATOM     88  C   UNL A   1      29.986  29.384  22.892  1.00  0.00     0.225 C 
ATOM     89  O   UNL A   1      29.805  28.949  21.753  1.00  0.00    -0.275 OA
BRANCH  88  90
ATOM     90  C   UNL A   1      28.867  30.208  23.430  1.00  0.00     0.079 C 
ATOM     91  C   UNL A   1      28.723  31.698  23.499  1.00  0.00     0.014 C 
ATOM     92  C   UNL A   1      27.904  30.910  22.510  1.00  0.00     0.014 C 
ENDBRANCH  88  90
ENDBRANCH  79  82
ENDBRANCH  68  78
ENDBRANCH  66  68
ENDBRANCH  65  66
ENDBRANCH  64  65
ENDBRANCH   1  64
TORSDOF 17
ENDMDL
