MODEL 1
REMARK VINA RESULT:     -11.2      0.000      0.000
REMARK SMILES O=C(OCCOCCOC(=O)c1sccc1S(=O)(=O)Nc1ccccc1N1CCCCC1)c1ccc(-c2c3nc(c(-c4c(F)cccc4F)c4ccc([nH]4)c(-c4c(F)cccc4F)c4nc(c(-c5c(F)cccc5F)c5ccc2[nH]5)C=C4)C=C3)cc1
REMARK SMILES IDX 7 1 6 2 5 3 4 4 3 5 2 6 1 7 33 8 34 9 86 10 35 11 85 12
REMARK SMILES IDX 36 13 37 14 38 15 79 16 39 17 84 18 78 19 80 20 40 21 83 22
REMARK SMILES IDX 77 23 76 24 41 26 67 27 50 28 66 29 51 30 54 31 65 32 81 33
REMARK SMILES IDX 52 34 53 35 64 37 82 38 55 39 42 40 43 41 48 42 44 43 45 44
REMARK SMILES IDX 47 45 49 46 46 47 68 48 69 49 74 50 70 51 71 52 73 53 75 54
REMARK SMILES IDX 72 55 56 56 57 57 62 58 58 59 59 60 61 61 63 62 60 63 8 64
REMARK SMILES IDX 9 65 10 66 11 67 12 68 13 69 16 70 14 71 15 72 17 73 18 74
REMARK SMILES IDX 19 75 20 76 21 78 22 79 26 80 23 81 25 82 24 83 27 84 28 85
REMARK SMILES IDX 32 86 29 87 31 88 30 89
REMARK H PARENT 80 25 54 36 20 77
REMARK Flexibility Score: inf
ROOT
ATOM      1  C   UNL A   1      33.207  29.588  25.908  1.00  0.00     0.202 C 
ENDROOT
BRANCH   1   2
ATOM      2  O   UNL A   1      31.943  30.200  25.641  1.00  0.00    -0.374 OA
BRANCH   2   3
ATOM      3  C   UNL A   1      31.533  31.187  26.585  1.00  0.00     0.202 C 
BRANCH   3   4
ATOM      4  C   UNL A   1      32.691  32.124  26.940  1.00  0.00     0.261 C 
BRANCH   4   5
ATOM      5  O   UNL A   1      32.229  33.375  27.480  1.00  0.00    -0.460 OA
BRANCH   5   6
ATOM      6  C   UNL A   1      32.971  34.236  28.225  1.00  0.00     0.338 C 
ATOM      7  O   UNL A   1      32.502  35.335  28.515  1.00  0.00    -0.246 OA
BRANCH   6   8
ATOM      8  C   UNL A   1      34.238  33.805  28.901  1.00  0.00     0.060 A 
ATOM      9  C   UNL A   1      35.523  34.280  28.625  1.00  0.00     0.016 A 
ATOM     10  C   UNL A   1      34.094  32.861  29.935  1.00  0.00     0.016 A 
ATOM     11  C   UNL A   1      36.643  33.735  29.261  1.00  0.00     0.010 A 
ATOM     12  C   UNL A   1      35.206  32.344  30.608  1.00  0.00     0.010 A 
ATOM     13  C   UNL A   1      36.493  32.741  30.232  1.00  0.00    -0.014 A 
BRANCH  13  14
ATOM     14  C   UNL A   1      37.687  32.031  30.741  1.00  0.00     0.031 A 
ATOM     15  C   UNL A   1      38.149  32.309  32.143  1.00  0.00     0.074 A 
ATOM     16  C   UNL A   1      38.296  31.087  30.002  1.00  0.00     0.049 A 
ATOM     17  N   UNL A   1      39.130  31.766  32.817  1.00  0.00    -0.248 NA
ATOM     18  C   UNL A   1      37.394  33.326  32.893  1.00  0.00     0.031 C 
ATOM     19  C   UNL A   1      37.912  30.690  28.648  1.00  0.00     0.029 A 
ATOM     20  N   UNL A   1      39.358  30.273  30.304  1.00  0.00    -0.354 N 
ATOM     21  C   UNL A   1      39.096  32.358  34.071  1.00  0.00     0.074 A 
ATOM     22  C   UNL A   1      38.022  33.327  34.058  1.00  0.00     0.031 C 
ATOM     23  C   UNL A   1      38.712  29.688  28.244  1.00  0.00     0.029 A 
ATOM     24  C   UNL A   1      39.673  29.387  29.303  1.00  0.00     0.049 A 
ATOM     25  H   UNL A   1      39.847  30.319  31.157  1.00  0.00     0.167 HD
ATOM     26  C   UNL A   1      39.878  32.110  35.148  1.00  0.00     0.037 A 
ATOM     27  C   UNL A   1      40.628  28.439  29.256  1.00  0.00     0.037 A 
ATOM     28  C   UNL A   1      40.966  31.176  35.165  1.00  0.00     0.049 A 
ATOM     29  C   UNL A   1      41.537  28.239  30.436  1.00  0.00     0.074 A 
ATOM     30  C   UNL A   1      41.873  30.918  36.178  1.00  0.00     0.029 A 
ATOM     31  N   UNL A   1      41.292  30.339  34.110  1.00  0.00    -0.354 N 
ATOM     32  N   UNL A   1      41.521  28.837  31.601  1.00  0.00    -0.248 NA
ATOM     33  C   UNL A   1      42.602  27.236  30.288  1.00  0.00     0.031 C 
ATOM     34  C   UNL A   1      42.759  29.930  35.728  1.00  0.00     0.029 A 
ATOM     35  C   UNL A   1      42.389  29.564  34.444  1.00  0.00     0.049 A 
ATOM     36  H   UNL A   1      40.815  30.302  33.250  1.00  0.00     0.167 HD
ATOM     37  C   UNL A   1      42.569  28.286  32.326  1.00  0.00     0.074 A 
ATOM     38  C   UNL A   1      43.191  27.291  31.476  1.00  0.00     0.031 C 
ATOM     39  C   UNL A   1      42.988  28.583  33.580  1.00  0.00     0.037 A 
BRANCH  26  40
ATOM     40  C   UNL A   1      39.565  32.884  36.388  1.00  0.00     0.057 A 
ATOM     41  C   UNL A   1      40.224  34.086  36.674  1.00  0.00     0.134 A 
ATOM     42  C   UNL A   1      38.634  32.412  37.318  1.00  0.00     0.134 A 
ATOM     43  F   UNL A   1      41.147  34.572  35.830  1.00  0.00    -0.206 F 
ATOM     44  C   UNL A   1      39.979  34.784  37.857  1.00  0.00     0.040 A 
ATOM     45  C   UNL A   1      38.373  33.107  38.500  1.00  0.00     0.040 A 
ATOM     46  F   UNL A   1      37.981  31.260  37.104  1.00  0.00    -0.206 F 
ATOM     47  C   UNL A   1      39.051  34.295  38.774  1.00  0.00     0.006 A 
ENDBRANCH  26  40
BRANCH  27  48
ATOM     48  C   UNL A   1      40.770  27.595  28.048  1.00  0.00     0.057 A 
ATOM     49  C   UNL A   1      40.138  26.350  27.960  1.00  0.00     0.134 A 
ATOM     50  C   UNL A   1      41.551  28.006  26.960  1.00  0.00     0.134 A 
ATOM     51  F   UNL A   1      39.395  25.899  28.980  1.00  0.00    -0.206 F 
ATOM     52  C   UNL A   1      40.281  25.538  26.835  1.00  0.00     0.040 A 
ATOM     53  C   UNL A   1      41.693  27.209  25.824  1.00  0.00     0.040 A 
ATOM     54  F   UNL A   1      42.184  29.187  26.991  1.00  0.00    -0.206 F 
ATOM     55  C   UNL A   1      41.058  25.970  25.761  1.00  0.00     0.006 A 
ENDBRANCH  27  48
BRANCH  39  56
ATOM     56  C   UNL A   1      44.172  27.830  34.097  1.00  0.00     0.057 A 
ATOM     57  C   UNL A   1      44.019  26.607  34.761  1.00  0.00     0.134 A 
ATOM     58  C   UNL A   1      45.472  28.307  33.895  1.00  0.00     0.134 A 
ATOM     59  F   UNL A   1      42.795  26.108  34.990  1.00  0.00    -0.206 F 
ATOM     60  C   UNL A   1      45.122  25.886  35.215  1.00  0.00     0.040 A 
ATOM     61  C   UNL A   1      46.584  27.589  34.336  1.00  0.00     0.040 A 
ATOM     62  F   UNL A   1      45.679  29.472  33.264  1.00  0.00    -0.206 F 
ATOM     63  C   UNL A   1      46.409  26.375  34.999  1.00  0.00     0.006 A 
ENDBRANCH  39  56
ENDBRANCH  13  14
ENDBRANCH   6   8
ENDBRANCH   5   6
ENDBRANCH   4   5
ENDBRANCH   3   4
ENDBRANCH   2   3
ENDBRANCH   1   2
BRANCH   1  64
ATOM     64  C   UNL A   1      33.062  28.515  26.986  1.00  0.00     0.261 C 
BRANCH  64  65
ATOM     65  O   UNL A   1      33.535  27.229  26.547  1.00  0.00    -0.459 OA
BRANCH  65  66
ATOM     66  C   UNL A   1      32.577  26.355  26.135  1.00  0.00     0.349 C 
ATOM     67  O   UNL A   1      31.450  26.254  26.598  1.00  0.00    -0.245 OA
BRANCH  66  68
ATOM     68  C   UNL A   1      33.079  25.585  25.033  1.00  0.00     0.133 A 
ATOM     69  S   UNL A   1      33.929  24.137  25.368  1.00  0.00    -0.136 S 
ATOM     70  C   UNL A   1      33.034  25.856  23.683  1.00  0.00     0.113 A 
ATOM     71  C   UNL A   1      34.211  23.846  23.705  1.00  0.00     0.067 A 
ATOM     72  C   UNL A   1      33.682  24.839  22.911  1.00  0.00     0.035 A 
BRANCH  70  73
ATOM     73  S   UNL A   1      32.222  27.199  22.965  1.00  0.00     0.263 S 
ATOM     74  O   UNL A   1      33.236  28.194  22.701  1.00  0.00    -0.201 OA
ATOM     75  O   UNL A   1      31.559  26.563  21.841  1.00  0.00    -0.201 OA
BRANCH  73  76
ATOM     76  N   UNL A   1      30.980  27.817  23.862  1.00  0.00    -0.277 N 
ATOM     77  H   UNL A   1      31.251  28.200  24.729  1.00  0.00     0.180 HD
BRANCH  76  78
ATOM     78  C   UNL A   1      29.575  27.890  23.590  1.00  0.00     0.072 A 
ATOM     79  C   UNL A   1      28.906  26.702  23.967  1.00  0.00     0.029 A 
ATOM     80  C   UNL A   1      28.812  29.021  23.212  1.00  0.00     0.061 A 
ATOM     81  C   UNL A   1      27.517  26.605  23.984  1.00  0.00     0.002 A 
ATOM     82  C   UNL A   1      27.405  28.885  23.242  1.00  0.00     0.028 A 
ATOM     83  C   UNL A   1      26.763  27.706  23.627  1.00  0.00     0.002 A 
BRANCH  80  84
ATOM     84  N   UNL A   1      29.371  30.223  22.771  1.00  0.00    -0.370 N 
ATOM     85  C   UNL A   1      29.227  31.440  23.583  1.00  0.00     0.116 C 
ATOM     86  C   UNL A   1      29.375  30.421  21.314  1.00  0.00     0.116 C 
ATOM     87  C   UNL A   1      28.092  32.353  23.115  1.00  0.00     0.021 C 
ATOM     88  C   UNL A   1      28.158  31.230  20.868  1.00  0.00     0.021 C 
ATOM     89  C   UNL A   1      28.101  32.563  21.606  1.00  0.00     0.004 C 
ENDBRANCH  80  84
ENDBRANCH  76  78
ENDBRANCH  73  76
ENDBRANCH  70  73
ENDBRANCH  66  68
ENDBRANCH  65  66
ENDBRANCH  64  65
ENDBRANCH   1  64
TORSDOF 18
ENDMDL
MODEL 2
REMARK VINA RESULT:     -11.0      2.100      4.188
REMARK SMILES O=C(OCCOCCOC(=O)c1sccc1S(=O)(=O)Nc1ccccc1N1CCCCC1)c1ccc(-c2c3nc(c(-c4c(F)cccc4F)c4ccc([nH]4)c(-c4c(F)cccc4F)c4nc(c(-c5c(F)cccc5F)c5ccc2[nH]5)C=C4)C=C3)cc1
REMARK SMILES IDX 7 1 6 2 5 3 4 4 3 5 2 6 1 7 33 8 34 9 86 10 35 11 85 12
REMARK SMILES IDX 36 13 37 14 38 15 79 16 39 17 84 18 78 19 80 20 40 21 83 22
REMARK SMILES IDX 77 23 76 24 41 26 67 27 50 28 66 29 51 30 54 31 65 32 81 33
REMARK SMILES IDX 52 34 53 35 64 37 82 38 55 39 42 40 43 41 48 42 44 43 45 44
REMARK SMILES IDX 47 45 49 46 46 47 68 48 69 49 74 50 70 51 71 52 73 53 75 54
REMARK SMILES IDX 72 55 56 56 57 57 62 58 58 59 59 60 61 61 63 62 60 63 8 64
REMARK SMILES IDX 9 65 10 66 11 67 12 68 13 69 16 70 14 71 15 72 17 73 18 74
REMARK SMILES IDX 19 75 20 76 21 78 22 79 26 80 23 81 25 82 24 83 27 84 28 85
REMARK SMILES IDX 32 86 29 87 31 88 30 89
REMARK H PARENT 80 25 54 36 20 77
REMARK Flexibility Score: inf
ROOT
ATOM      1  C   UNL A   1      33.442  28.766  26.742  1.00  0.00     0.202 C 
ENDROOT
BRANCH   1   2
ATOM      2  O   UNL A   1      32.975  29.955  27.382  1.00  0.00    -0.374 OA
BRANCH   2   3
ATOM      3  C   UNL A   1      32.507  30.976  26.503  1.00  0.00     0.202 C 
BRANCH   3   4
ATOM      4  C   UNL A   1      31.808  32.094  27.280  1.00  0.00     0.261 C 
BRANCH   4   5
ATOM      5  O   UNL A   1      32.439  33.371  27.075  1.00  0.00    -0.460 OA
BRANCH   5   6
ATOM      6  C   UNL A   1      33.012  34.133  28.044  1.00  0.00     0.338 C 
ATOM      7  O   UNL A   1      32.393  35.095  28.494  1.00  0.00    -0.246 OA
BRANCH   6   8
ATOM      8  C   UNL A   1      34.266  33.704  28.746  1.00  0.00     0.060 A 
ATOM      9  C   UNL A   1      35.548  34.218  28.532  1.00  0.00     0.016 A 
ATOM     10  C   UNL A   1      34.109  32.720  29.740  1.00  0.00     0.016 A 
ATOM     11  C   UNL A   1      36.658  33.673  29.185  1.00  0.00     0.010 A 
ATOM     12  C   UNL A   1      35.210  32.202  30.430  1.00  0.00     0.010 A 
ATOM     13  C   UNL A   1      36.499  32.641  30.113  1.00  0.00    -0.014 A 
BRANCH  13  14
ATOM     14  C   UNL A   1      37.692  31.938  30.636  1.00  0.00     0.031 A 
ATOM     15  C   UNL A   1      38.127  32.209  32.048  1.00  0.00     0.074 A 
ATOM     16  C   UNL A   1      38.322  31.007  29.899  1.00  0.00     0.049 A 
ATOM     17  N   UNL A   1      39.103  31.670  32.733  1.00  0.00    -0.248 NA
ATOM     18  C   UNL A   1      37.350  33.212  32.794  1.00  0.00     0.031 C 
ATOM     19  C   UNL A   1      37.964  30.618  28.536  1.00  0.00     0.029 A 
ATOM     20  N   UNL A   1      39.387  30.200  30.212  1.00  0.00    -0.354 N 
ATOM     21  C   UNL A   1      39.041  32.251  33.992  1.00  0.00     0.074 A 
ATOM     22  C   UNL A   1      37.959  33.209  33.969  1.00  0.00     0.031 C 
ATOM     23  C   UNL A   1      38.781  29.627  28.137  1.00  0.00     0.029 A 
ATOM     24  C   UNL A   1      39.728  29.327  29.209  1.00  0.00     0.049 A 
ATOM     25  H   UNL A   1      39.862  30.245  31.073  1.00  0.00     0.167 HD
ATOM     26  C   UNL A   1      39.808  32.002  35.079  1.00  0.00     0.037 A 
ATOM     27  C   UNL A   1      40.692  28.388  29.170  1.00  0.00     0.037 A 
ATOM     28  C   UNL A   1      40.905  31.078  35.107  1.00  0.00     0.049 A 
ATOM     29  C   UNL A   1      41.584  28.188  30.363  1.00  0.00     0.074 A 
ATOM     30  C   UNL A   1      41.798  30.821  36.132  1.00  0.00     0.029 A 
ATOM     31  N   UNL A   1      41.257  30.254  34.050  1.00  0.00    -0.354 N 
ATOM     32  N   UNL A   1      41.543  28.775  31.533  1.00  0.00    -0.248 NA
ATOM     33  C   UNL A   1      42.661  27.196  30.225  1.00  0.00     0.031 C 
ATOM     34  C   UNL A   1      42.701  29.845  35.689  1.00  0.00     0.029 A 
ATOM     35  C   UNL A   1      42.356  29.487  34.396  1.00  0.00     0.049 A 
ATOM     36  H   UNL A   1      40.794  30.219  33.182  1.00  0.00     0.167 HD
ATOM     37  C   UNL A   1      42.584  28.229  32.271  1.00  0.00     0.074 A 
ATOM     38  C   UNL A   1      43.229  27.247  31.423  1.00  0.00     0.031 C 
ATOM     39  C   UNL A   1      42.979  28.519  33.534  1.00  0.00     0.037 A 
BRANCH  26  40
ATOM     40  C   UNL A   1      39.467  32.762  36.321  1.00  0.00     0.057 A 
ATOM     41  C   UNL A   1      38.547  32.255  37.246  1.00  0.00     0.134 A 
ATOM     42  C   UNL A   1      40.026  34.018  36.575  1.00  0.00     0.134 A 
ATOM     43  F   UNL A   1      37.959  31.067  37.040  1.00  0.00    -0.206 F 
ATOM     44  C   UNL A   1      38.180  32.984  38.378  1.00  0.00     0.040 A 
ATOM     45  C   UNL A   1      39.675  34.752  37.709  1.00  0.00     0.040 A 
ATOM     46  F   UNL A   1      40.904  34.559  35.717  1.00  0.00    -0.206 F 
ATOM     47  C   UNL A   1      38.745  34.237  38.612  1.00  0.00     0.006 A 
ENDBRANCH  26  40
BRANCH  27  48
ATOM     48  C   UNL A   1      40.863  27.556  27.958  1.00  0.00     0.057 A 
ATOM     49  C   UNL A   1      40.229  26.315  27.841  1.00  0.00     0.134 A 
ATOM     50  C   UNL A   1      41.673  27.975  26.895  1.00  0.00     0.134 A 
ATOM     51  F   UNL A   1      39.459  25.855  28.837  1.00  0.00    -0.206 F 
ATOM     52  C   UNL A   1      40.399  25.513  26.711  1.00  0.00     0.040 A 
ATOM     53  C   UNL A   1      41.841  27.190  25.754  1.00  0.00     0.040 A 
ATOM     54  F   UNL A   1      42.309  29.154  26.954  1.00  0.00    -0.206 F 
ATOM     55  C   UNL A   1      41.205  25.953  25.662  1.00  0.00     0.006 A 
ENDBRANCH  27  48
BRANCH  39  56
ATOM     56  C   UNL A   1      44.162  27.774  34.064  1.00  0.00     0.057 A 
ATOM     57  C   UNL A   1      45.455  28.302  33.964  1.00  0.00     0.134 A 
ATOM     58  C   UNL A   1      44.007  26.544  34.712  1.00  0.00     0.134 A 
ATOM     59  F   UNL A   1      45.663  29.473  33.342  1.00  0.00    -0.206 F 
ATOM     60  C   UNL A   1      46.556  27.627  34.486  1.00  0.00     0.040 A 
ATOM     61  C   UNL A   1      45.100  25.863  35.248  1.00  0.00     0.040 A 
ATOM     62  F   UNL A   1      42.791  25.991  34.839  1.00  0.00    -0.206 F 
ATOM     63  C   UNL A   1      46.380  26.405  35.134  1.00  0.00     0.006 A 
ENDBRANCH  39  56
ENDBRANCH  13  14
ENDBRANCH   6   8
ENDBRANCH   5   6
ENDBRANCH   4   5
ENDBRANCH   3   4
ENDBRANCH   2   3
ENDBRANCH   1   2
BRANCH   1  64
ATOM     64  C   UNL A   1      33.851  29.063  25.299  1.00  0.00     0.261 C 
BRANCH  64  65
ATOM     65  O   UNL A   1      33.743  27.906  24.450  1.00  0.00    -0.459 OA
BRANCH  65  66
ATOM     66  C   UNL A   1      32.842  27.998  23.436  1.00  0.00     0.349 C 
ATOM     67  O   UNL A   1      32.875  28.804  22.516  1.00  0.00    -0.245 OA
BRANCH  66  68
ATOM     68  C   UNL A   1      31.855  26.968  23.582  1.00  0.00     0.133 A 
ATOM     69  S   UNL A   1      30.641  27.162  24.774  1.00  0.00    -0.136 S 
ATOM     70  C   UNL A   1      31.744  25.761  22.925  1.00  0.00     0.113 A 
ATOM     71  C   UNL A   1      29.939  25.648  24.394  1.00  0.00     0.067 A 
ATOM     72  C   UNL A   1      30.624  25.000  23.390  1.00  0.00     0.035 A 
BRANCH  70  73
ATOM     73  S   UNL A   1      32.757  25.238  21.630  1.00  0.00     0.263 S 
ATOM     74  O   UNL A   1      32.128  25.693  20.412  1.00  0.00    -0.201 OA
ATOM     75  O   UNL A   1      34.033  25.816  22.015  1.00  0.00    -0.201 OA
BRANCH  73  76
ATOM     76  N   UNL A   1      33.052  23.613  21.594  1.00  0.00    -0.277 N 
ATOM     77  H   UNL A   1      33.174  23.238  20.691  1.00  0.00     0.180 HD
BRANCH  76  78
ATOM     78  C   UNL A   1      33.159  22.657  22.657  1.00  0.00     0.072 A 
ATOM     79  C   UNL A   1      32.150  21.669  22.577  1.00  0.00     0.029 A 
ATOM     80  C   UNL A   1      34.217  22.489  23.582  1.00  0.00     0.061 A 
ATOM     81  C   UNL A   1      32.163  20.529  23.376  1.00  0.00     0.002 A 
ATOM     82  C   UNL A   1      34.197  21.319  24.375  1.00  0.00     0.028 A 
ATOM     83  C   UNL A   1      33.196  20.350  24.274  1.00  0.00     0.002 A 
BRANCH  80  84
ATOM     84  N   UNL A   1      35.233  23.428  23.779  1.00  0.00    -0.370 N 
ATOM     85  C   UNL A   1      36.625  23.082  23.457  1.00  0.00     0.116 C 
ATOM     86  C   UNL A   1      35.046  24.329  24.927  1.00  0.00     0.116 C 
ATOM     87  C   UNL A   1      37.444  22.653  24.675  1.00  0.00     0.021 C 
ATOM     88  C   UNL A   1      35.774  23.801  26.162  1.00  0.00     0.021 C 
ATOM     89  C   UNL A   1      37.254  23.591  25.862  1.00  0.00     0.004 C 
ENDBRANCH  80  84
ENDBRANCH  76  78
ENDBRANCH  73  76
ENDBRANCH  70  73
ENDBRANCH  66  68
ENDBRANCH  65  66
ENDBRANCH  64  65
ENDBRANCH   1  64
TORSDOF 18
ENDMDL
MODEL 3
REMARK VINA RESULT:     -10.8      4.103      8.650
REMARK SMILES O=C(OCCOCCOC(=O)c1sccc1S(=O)(=O)Nc1ccccc1N1CCCCC1)c1ccc(-c2c3nc(c(-c4c(F)cccc4F)c4ccc([nH]4)c(-c4c(F)cccc4F)c4nc(c(-c5c(F)cccc5F)c5ccc2[nH]5)C=C4)C=C3)cc1
REMARK SMILES IDX 7 1 6 2 5 3 4 4 3 5 2 6 1 7 33 8 34 9 86 10 35 11 85 12
REMARK SMILES IDX 36 13 37 14 38 15 79 16 39 17 84 18 78 19 80 20 40 21 83 22
REMARK SMILES IDX 77 23 76 24 41 26 67 27 50 28 66 29 51 30 54 31 65 32 81 33
REMARK SMILES IDX 52 34 53 35 64 37 82 38 55 39 42 40 43 41 48 42 44 43 45 44
REMARK SMILES IDX 47 45 49 46 46 47 68 48 69 49 74 50 70 51 71 52 73 53 75 54
REMARK SMILES IDX 72 55 56 56 57 57 62 58 58 59 59 60 61 61 63 62 60 63 8 64
REMARK SMILES IDX 9 65 10 66 11 67 12 68 13 69 16 70 14 71 15 72 17 73 18 74
REMARK SMILES IDX 19 75 20 76 21 78 22 79 26 80 23 81 25 82 24 83 27 84 28 85
REMARK SMILES IDX 32 86 29 87 31 88 30 89
REMARK H PARENT 80 25 54 36 20 77
REMARK Flexibility Score: inf
ROOT
ATOM      1  C   UNL A   1      37.414  23.639  25.253  1.00  0.00     0.202 C 
ENDROOT
BRANCH   1   2
ATOM      2  O   UNL A   1      37.475  22.245  24.945  1.00  0.00    -0.374 OA
BRANCH   2   3
ATOM      3  C   UNL A   1      38.388  21.486  25.736  1.00  0.00     0.202 C 
BRANCH   3   4
ATOM      4  C   UNL A   1      38.756  20.172  25.041  1.00  0.00     0.261 C 
BRANCH   4   5
ATOM      5  O   UNL A   1      39.648  19.372  25.837  1.00  0.00    -0.460 OA
BRANCH   5   6
ATOM      6  C   UNL A   1      40.978  19.600  26.004  1.00  0.00     0.338 C 
ATOM      7  O   UNL A   1      41.786  18.889  25.410  1.00  0.00    -0.246 OA
BRANCH   6   8
ATOM      8  C   UNL A   1      41.487  20.830  26.693  1.00  0.00     0.060 A 
ATOM      9  C   UNL A   1      41.481  21.066  28.071  1.00  0.00     0.016 A 
ATOM     10  C   UNL A   1      42.059  21.810  25.861  1.00  0.00     0.016 A 
ATOM     11  C   UNL A   1      41.902  22.293  28.591  1.00  0.00     0.010 A 
ATOM     12  C   UNL A   1      42.524  23.023  26.379  1.00  0.00     0.010 A 
ATOM     13  C   UNL A   1      42.395  23.290  27.746  1.00  0.00    -0.014 A 
BRANCH  13  14
ATOM     14  C   UNL A   1      42.638  24.648  28.282  1.00  0.00     0.031 A 
ATOM     15  C   UNL A   1      44.051  25.067  28.573  1.00  0.00     0.074 A 
ATOM     16  C   UNL A   1      41.629  25.526  28.420  1.00  0.00     0.049 A 
ATOM     17  N   UNL A   1      44.505  26.220  28.991  1.00  0.00    -0.248 NA
ATOM     18  C   UNL A   1      45.095  24.053  28.349  1.00  0.00     0.031 C 
ATOM     19  C   UNL A   1      40.223  25.257  28.122  1.00  0.00     0.029 A 
ATOM     20  N   UNL A   1      41.644  26.837  28.826  1.00  0.00    -0.354 N 
ATOM     21  C   UNL A   1      45.884  26.077  29.059  1.00  0.00     0.074 A 
ATOM     22  C   UNL A   1      46.193  24.717  28.675  1.00  0.00     0.031 C 
ATOM     23  C   UNL A   1      39.512  26.378  28.332  1.00  0.00     0.029 A 
ATOM     24  C   UNL A   1      40.409  27.435  28.795  1.00  0.00     0.049 A 
ATOM     25  H   UNL A   1      42.462  27.303  29.113  1.00  0.00     0.167 HD
ATOM     26  C   UNL A   1      46.817  26.998  29.397  1.00  0.00     0.037 A 
ATOM     27  C   UNL A   1      40.050  28.696  29.100  1.00  0.00     0.037 A 
ATOM     28  C   UNL A   1      46.523  28.339  29.811  1.00  0.00     0.049 A 
ATOM     29  C   UNL A   1      41.095  29.678  29.552  1.00  0.00     0.074 A 
ATOM     30  C   UNL A   1      47.391  29.320  30.259  1.00  0.00     0.029 A 
ATOM     31  N   UNL A   1      45.252  28.890  29.823  1.00  0.00    -0.354 N 
ATOM     32  N   UNL A   1      42.392  29.516  29.654  1.00  0.00    -0.248 NA
ATOM     33  C   UNL A   1      40.623  31.016  29.938  1.00  0.00     0.031 C 
ATOM     34  C   UNL A   1      46.640  30.464  30.554  1.00  0.00     0.029 A 
ATOM     35  C   UNL A   1      45.309  30.198  30.274  1.00  0.00     0.049 A 
ATOM     36  H   UNL A   1      44.430  28.422  29.552  1.00  0.00     0.167 HD
ATOM     37  C   UNL A   1      42.891  30.726  30.115  1.00  0.00     0.074 A 
ATOM     38  C   UNL A   1      41.761  31.622  30.255  1.00  0.00     0.031 C 
ATOM     39  C   UNL A   1      44.170  31.066  30.405  1.00  0.00     0.037 A 
BRANCH  26  40
ATOM     40  C   UNL A   1      48.243  26.554  29.331  1.00  0.00     0.057 A 
ATOM     41  C   UNL A   1      48.852  25.919  30.420  1.00  0.00     0.134 A 
ATOM     42  C   UNL A   1      49.022  26.793  28.194  1.00  0.00     0.134 A 
ATOM     43  F   UNL A   1      48.159  25.688  31.546  1.00  0.00    -0.206 F 
ATOM     44  C   UNL A   1      50.198  25.553  30.387  1.00  0.00     0.040 A 
ATOM     45  C   UNL A   1      50.366  26.422  28.146  1.00  0.00     0.040 A 
ATOM     46  F   UNL A   1      48.495  27.409  27.125  1.00  0.00    -0.206 F 
ATOM     47  C   UNL A   1      50.959  25.805  29.247  1.00  0.00     0.006 A 
ENDBRANCH  26  40
BRANCH  27  48
ATOM     48  C   UNL A   1      38.634  29.111  28.982  1.00  0.00     0.057 A 
ATOM     49  C   UNL A   1      37.766  29.028  30.077  1.00  0.00     0.134 A 
ATOM     50  C   UNL A   1      38.113  29.586  27.773  1.00  0.00     0.134 A 
ATOM     51  F   UNL A   1      38.208  28.561  31.253  1.00  0.00    -0.206 F 
ATOM     52  C   UNL A   1      36.425  29.397  29.971  1.00  0.00     0.040 A 
ATOM     53  C   UNL A   1      36.777  29.971  27.658  1.00  0.00     0.040 A 
ATOM     54  F   UNL A   1      38.897  29.682  26.690  1.00  0.00    -0.206 F 
ATOM     55  C   UNL A   1      35.928  29.874  28.759  1.00  0.00     0.006 A 
ENDBRANCH  27  48
BRANCH  39  56
ATOM     56  C   UNL A   1      44.407  32.454  30.909  1.00  0.00     0.057 A 
ATOM     57  C   UNL A   1      44.402  32.737  32.280  1.00  0.00     0.134 A 
ATOM     58  C   UNL A   1      44.681  33.503  30.025  1.00  0.00     0.134 A 
ATOM     59  F   UNL A   1      44.135  31.770  33.172  1.00  0.00    -0.206 F 
ATOM     60  C   UNL A   1      44.656  34.022  32.756  1.00  0.00     0.040 A 
ATOM     61  C   UNL A   1      44.946  34.792  30.490  1.00  0.00     0.040 A 
ATOM     62  F   UNL A   1      44.700  33.290  28.701  1.00  0.00    -0.206 F 
ATOM     63  C   UNL A   1      44.932  35.053  31.860  1.00  0.00     0.006 A 
ENDBRANCH  39  56
ENDBRANCH  13  14
ENDBRANCH   6   8
ENDBRANCH   5   6
ENDBRANCH   4   5
ENDBRANCH   3   4
ENDBRANCH   2   3
ENDBRANCH   1   2
BRANCH   1  64
ATOM     64  C   UNL A   1      36.019  24.014  25.752  1.00  0.00     0.261 C 
BRANCH  64  65
ATOM     65  O   UNL A   1      35.182  22.861  25.959  1.00  0.00    -0.459 OA
BRANCH  65  66
ATOM     66  C   UNL A   1      33.846  23.103  26.019  1.00  0.00     0.349 C 
ATOM     67  O   UNL A   1      33.268  23.734  26.893  1.00  0.00    -0.245 OA
BRANCH  66  68
ATOM     68  C   UNL A   1      33.208  22.534  24.867  1.00  0.00     0.133 A 
ATOM     69  S   UNL A   1      33.184  20.830  24.703  1.00  0.00    -0.136 S 
ATOM     70  C   UNL A   1      32.626  23.164  23.788  1.00  0.00     0.113 A 
ATOM     71  C   UNL A   1      32.364  20.924  23.204  1.00  0.00     0.067 A 
ATOM     72  C   UNL A   1      32.125  22.227  22.827  1.00  0.00     0.035 A 
BRANCH  70  73
ATOM     73  S   UNL A   1      32.422  24.869  23.623  1.00  0.00     0.263 S 
ATOM     74  O   UNL A   1      33.750  25.436  23.589  1.00  0.00    -0.201 OA
ATOM     75  O   UNL A   1      31.600  24.943  22.428  1.00  0.00    -0.201 OA
BRANCH  73  76
ATOM     76  N   UNL A   1      31.489  25.571  24.793  1.00  0.00    -0.277 N 
ATOM     77  H   UNL A   1      30.868  24.955  25.246  1.00  0.00     0.180 HD
BRANCH  76  78
ATOM     78  C   UNL A   1      31.434  26.925  25.258  1.00  0.00     0.072 A 
ATOM     79  C   UNL A   1      31.992  27.058  26.552  1.00  0.00     0.029 A 
ATOM     80  C   UNL A   1      31.102  28.091  24.528  1.00  0.00     0.061 A 
ATOM     81  C   UNL A   1      32.231  28.300  27.133  1.00  0.00     0.002 A 
ATOM     82  C   UNL A   1      31.359  29.334  25.150  1.00  0.00     0.028 A 
ATOM     83  C   UNL A   1      31.920  29.444  26.425  1.00  0.00     0.002 A 
BRANCH  80  84
ATOM     84  N   UNL A   1      30.498  28.072  23.268  1.00  0.00    -0.370 N 
ATOM     85  C   UNL A   1      30.700  29.195  22.341  1.00  0.00     0.116 C 
ATOM     86  C   UNL A   1      29.179  27.422  23.209  1.00  0.00     0.116 C 
ATOM     87  C   UNL A   1      29.550  30.204  22.346  1.00  0.00     0.021 C 
ATOM     88  C   UNL A   1      28.056  28.448  23.346  1.00  0.00     0.021 C 
ATOM     89  C   UNL A   1      28.185  29.529  22.278  1.00  0.00     0.004 C 
ENDBRANCH  80  84
ENDBRANCH  76  78
ENDBRANCH  73  76
ENDBRANCH  70  73
ENDBRANCH  66  68
ENDBRANCH  65  66
ENDBRANCH  64  65
ENDBRANCH   1  64
TORSDOF 18
ENDMDL
