MODEL 1
REMARK VINA RESULT:      -9.7      0.000      0.000
REMARK SMILES C[C@@H](Sc1nncn1C)[C@@H](C)C(=O)OCCOCCOC(=O)c1ccc(-c2c3nc(c(-c4c(F)cccc4F)c4ccc([nH]4)c(-c4c(F)cccc4F)c4nc(c(-c5c(F)cccc5F)c5ccc2[nH]5)C=C4)C=C3)cc1
REMARK SMILES IDX 16 1 15 2 14 3 12 4 13 5 10 6 11 7 2 8 1 9 3 10 4 11 5 12
REMARK SMILES IDX 8 13 6 14 7 15 9 16 17 17 18 18 19 19 20 20 21 21 22 22
REMARK SMILES IDX 23 23 24 24 76 25 25 26 75 27 26 28 27 29 28 30 69 31 29 32
REMARK SMILES IDX 74 33 68 34 70 35 30 36 73 37 67 38 66 39 31 41 57 42 40 43
REMARK SMILES IDX 56 44 41 45 44 46 55 47 71 48 42 49 43 50 54 52 72 53 45 54
REMARK SMILES IDX 32 55 33 56 38 57 34 58 35 59 37 60 39 61 36 62 58 63 59 64
REMARK SMILES IDX 64 65 60 66 61 67 63 68 65 69 62 70 46 71 47 72 52 73 48 74
REMARK SMILES IDX 49 75 51 76 53 77 50 78
REMARK H PARENT 70 40 44 51
REMARK Flexibility Score: inf
ROOT
ATOM      1  C   UNL A   1      32.782  27.399  25.819  1.00  0.00     0.202 C 
ENDROOT
BRANCH   1   2
ATOM      2  C   UNL A   1      31.769  26.939  26.873  1.00  0.00     0.261 C 
BRANCH   2   3
ATOM      3  O   UNL A   1      31.428  25.538  26.843  1.00  0.00    -0.463 OA
BRANCH   3   4
ATOM      4  C   UNL A   1      30.465  25.221  25.934  1.00  0.00     0.309 C 
ATOM      5  O   UNL A   1      29.580  25.985  25.565  1.00  0.00    -0.252 OA
BRANCH   4   6
ATOM      6  C   UNL A   1      30.459  23.756  25.540  1.00  0.00     0.109 C 
ATOM      7  C   UNL A   1      30.794  22.978  26.822  1.00  0.00     0.021 C 
BRANCH   6   8
ATOM      8  C   UNL A   1      31.334  23.308  24.336  1.00  0.00     0.065 C 
ATOM      9  C   UNL A   1      31.555  24.523  23.419  1.00  0.00     0.021 C 
BRANCH   8  10
ATOM     10  S   UNL A   1      32.982  22.769  24.864  1.00  0.00    -0.082 SA
BRANCH  10  11
ATOM     11  C   UNL A   1      33.126  21.041  24.790  1.00  0.00     0.191 A 
ATOM     12  N   UNL A   1      32.037  20.297  24.737  1.00  0.00    -0.124 NA
ATOM     13  N   UNL A   1      34.210  20.206  24.887  1.00  0.00    -0.312 N 
ATOM     14  N   UNL A   1      32.392  18.977  24.821  1.00  0.00    -0.138 NA
ATOM     15  C   UNL A   1      33.694  18.936  24.932  1.00  0.00     0.226 A 
ATOM     16  C   UNL A   1      35.622  20.445  24.960  1.00  0.00     0.153 C 
ENDBRANCH  10  11
ENDBRANCH   8  10
ENDBRANCH   6   8
ENDBRANCH   4   6
ENDBRANCH   3   4
ENDBRANCH   2   3
ENDBRANCH   1   2
BRANCH   1  17
ATOM     17  O   UNL A   1      32.318  28.227  24.761  1.00  0.00    -0.374 OA
BRANCH  17  18
ATOM     18  C   UNL A   1      32.611  29.622  24.836  1.00  0.00     0.202 C 
BRANCH  18  19
ATOM     19  C   UNL A   1      31.748  30.464  25.784  1.00  0.00     0.261 C 
BRANCH  19  20
ATOM     20  O   UNL A   1      32.342  30.587  27.091  1.00  0.00    -0.460 OA
BRANCH  20  21
ATOM     21  C   UNL A   1      33.040  31.728  27.288  1.00  0.00     0.338 C 
ATOM     22  O   UNL A   1      32.611  32.876  27.305  1.00  0.00    -0.246 OA
BRANCH  21  23
ATOM     23  C   UNL A   1      34.423  31.416  27.687  1.00  0.00     0.060 A 
ATOM     24  C   UNL A   1      34.736  30.073  27.945  1.00  0.00     0.016 A 
ATOM     25  C   UNL A   1      35.363  32.422  27.914  1.00  0.00     0.016 A 
ATOM     26  C   UNL A   1      35.973  29.735  28.489  1.00  0.00     0.010 A 
ATOM     27  C   UNL A   1      36.600  32.082  28.470  1.00  0.00     0.010 A 
ATOM     28  C   UNL A   1      36.893  30.744  28.797  1.00  0.00    -0.014 A 
BRANCH  28  29
ATOM     29  C   UNL A   1      38.080  30.433  29.629  1.00  0.00     0.031 A 
ATOM     30  C   UNL A   1      39.131  29.516  29.068  1.00  0.00     0.074 A 
ATOM     31  C   UNL A   1      38.226  30.961  30.857  1.00  0.00     0.049 A 
ATOM     32  N   UNL A   1      40.184  29.005  29.650  1.00  0.00    -0.248 NA
ATOM     33  C   UNL A   1      38.968  29.121  27.659  1.00  0.00     0.031 C 
ATOM     34  C   UNL A   1      37.313  31.915  31.482  1.00  0.00     0.029 A 
ATOM     35  N   UNL A   1      39.197  30.751  31.803  1.00  0.00    -0.354 N 
ATOM     36  C   UNL A   1      40.800  28.216  28.685  1.00  0.00     0.074 A 
ATOM     37  C   UNL A   1      39.994  28.300  27.488  1.00  0.00     0.031 C 
ATOM     38  C   UNL A   1      37.756  32.193  32.721  1.00  0.00     0.029 A 
ATOM     39  C   UNL A   1      38.958  31.405  32.988  1.00  0.00     0.049 A 
ATOM     40  H   UNL A   1      39.989  30.186  31.649  1.00  0.00     0.167 HD
ATOM     41  C   UNL A   1      41.938  27.489  28.790  1.00  0.00     0.037 A 
ATOM     42  C   UNL A   1      39.618  31.345  34.161  1.00  0.00     0.037 A 
ATOM     43  C   UNL A   1      42.738  27.413  29.982  1.00  0.00     0.049 A 
ATOM     44  C   UNL A   1      40.832  30.461  34.281  1.00  0.00     0.074 A 
ATOM     45  C   UNL A   1      43.907  26.703  30.193  1.00  0.00     0.029 A 
ATOM     46  N   UNL A   1      42.450  28.071  31.167  1.00  0.00    -0.354 N 
ATOM     47  N   UNL A   1      41.402  29.711  33.369  1.00  0.00    -0.248 NA
ATOM     48  C   UNL A   1      41.492  30.411  35.595  1.00  0.00     0.031 C 
ATOM     49  C   UNL A   1      44.304  26.898  31.519  1.00  0.00     0.029 A 
ATOM     50  C   UNL A   1      43.407  27.768  32.120  1.00  0.00     0.049 A 
ATOM     51  H   UNL A   1      41.678  28.666  31.310  1.00  0.00     0.167 HD
ATOM     52  C   UNL A   1      42.504  29.132  33.986  1.00  0.00     0.074 A 
ATOM     53  C   UNL A   1      42.523  29.613  35.350  1.00  0.00     0.031 C 
ATOM     54  C   UNL A   1      43.422  28.280  33.466  1.00  0.00     0.037 A 
BRANCH  41  55
ATOM     55  C   UNL A   1      42.364  26.694  27.592  1.00  0.00     0.057 A 
ATOM     56  C   UNL A   1      41.951  25.371  27.395  1.00  0.00     0.134 A 
ATOM     57  C   UNL A   1      43.177  27.271  26.607  1.00  0.00     0.134 A 
ATOM     58  F   UNL A   1      41.185  24.756  28.309  1.00  0.00    -0.206 F 
ATOM     59  C   UNL A   1      42.349  24.642  26.273  1.00  0.00     0.040 A 
ATOM     60  C   UNL A   1      43.560  26.561  25.469  1.00  0.00     0.040 A 
ATOM     61  F   UNL A   1      43.604  28.537  26.733  1.00  0.00    -0.206 F 
ATOM     62  C   UNL A   1      43.150  25.240  25.302  1.00  0.00     0.006 A 
ENDBRANCH  41  55
BRANCH  42  63
ATOM     63  C   UNL A   1      39.132  32.124  35.327  1.00  0.00     0.057 A 
ATOM     64  C   UNL A   1      39.481  33.468  35.498  1.00  0.00     0.134 A 
ATOM     65  C   UNL A   1      38.323  31.538  36.309  1.00  0.00     0.134 A 
ATOM     66  F   UNL A   1      40.272  34.078  34.603  1.00  0.00    -0.206 F 
ATOM     67  C   UNL A   1      39.055  34.199  36.608  1.00  0.00     0.040 A 
ATOM     68  C   UNL A   1      37.871  32.263  37.413  1.00  0.00     0.040 A 
ATOM     69  F   UNL A   1      37.953  30.252  36.205  1.00  0.00    -0.206 F 
ATOM     70  C   UNL A   1      38.243  33.596  37.568  1.00  0.00     0.006 A 
ENDBRANCH  42  63
BRANCH  54  71
ATOM     71  C   UNL A   1      44.557  27.858  34.349  1.00  0.00     0.057 A 
ATOM     72  C   UNL A   1      44.506  26.686  35.112  1.00  0.00     0.134 A 
ATOM     73  C   UNL A   1      45.749  28.596  34.371  1.00  0.00     0.134 A 
ATOM     74  F   UNL A   1      43.391  25.941  35.142  1.00  0.00    -0.206 F 
ATOM     75  C   UNL A   1      45.598  26.266  35.875  1.00  0.00     0.040 A 
ATOM     76  C   UNL A   1      46.854  28.175  35.111  1.00  0.00     0.040 A 
ATOM     77  F   UNL A   1      45.864  29.724  33.654  1.00  0.00    -0.206 F 
ATOM     78  C   UNL A   1      46.779  27.007  35.867  1.00  0.00     0.006 A 
ENDBRANCH  54  71
ENDBRANCH  28  29
ENDBRANCH  21  23
ENDBRANCH  20  21
ENDBRANCH  19  20
ENDBRANCH  18  19
ENDBRANCH  17  18
ENDBRANCH   1  17
TORSDOF 17
ENDMDL
MODEL 2
REMARK VINA RESULT:      -9.6      5.700     10.553
REMARK SMILES C[C@@H](Sc1nncn1C)[C@@H](C)C(=O)OCCOCCOC(=O)c1ccc(-c2c3nc(c(-c4c(F)cccc4F)c4ccc([nH]4)c(-c4c(F)cccc4F)c4nc(c(-c5c(F)cccc5F)c5ccc2[nH]5)C=C4)C=C3)cc1
REMARK SMILES IDX 16 1 15 2 14 3 12 4 13 5 10 6 11 7 2 8 1 9 3 10 4 11 5 12
REMARK SMILES IDX 8 13 6 14 7 15 9 16 17 17 18 18 19 19 20 20 21 21 22 22
REMARK SMILES IDX 23 23 24 24 76 25 25 26 75 27 26 28 27 29 28 30 69 31 29 32
REMARK SMILES IDX 74 33 68 34 70 35 30 36 73 37 67 38 66 39 31 41 57 42 40 43
REMARK SMILES IDX 56 44 41 45 44 46 55 47 71 48 42 49 43 50 54 52 72 53 45 54
REMARK SMILES IDX 32 55 33 56 38 57 34 58 35 59 37 60 39 61 36 62 58 63 59 64
REMARK SMILES IDX 64 65 60 66 61 67 63 68 65 69 62 70 46 71 47 72 52 73 48 74
REMARK SMILES IDX 49 75 51 76 53 77 50 78
REMARK H PARENT 70 40 44 51
REMARK Flexibility Score: inf
ROOT
ATOM      1  C   UNL A   1      46.197  24.149  27.554  1.00  0.00     0.202 C 
ENDROOT
BRANCH   1   2
ATOM      2  C   UNL A   1      45.911  25.636  27.319  1.00  0.00     0.261 C 
BRANCH   2   3
ATOM      3  O   UNL A   1      46.895  26.551  27.839  1.00  0.00    -0.463 OA
BRANCH   3   4
ATOM      4  C   UNL A   1      47.120  27.635  27.044  1.00  0.00     0.309 C 
ATOM      5  O   UNL A   1      47.696  27.594  25.962  1.00  0.00    -0.252 OA
BRANCH   4   6
ATOM      6  C   UNL A   1      46.760  28.955  27.698  1.00  0.00     0.109 C 
ATOM      7  C   UNL A   1      46.338  28.608  29.134  1.00  0.00     0.021 C 
BRANCH   6   8
ATOM      8  C   UNL A   1      45.729  29.877  26.990  1.00  0.00     0.065 C 
ATOM      9  C   UNL A   1      44.499  30.020  27.903  1.00  0.00     0.021 C 
BRANCH   8  10
ATOM     10  S   UNL A   1      46.377  31.554  26.752  1.00  0.00    -0.082 SA
BRANCH  10  11
ATOM     11  C   UNL A   1      45.123  32.639  26.239  1.00  0.00     0.191 A 
ATOM     12  N   UNL A   1      44.680  32.582  24.996  1.00  0.00    -0.124 NA
ATOM     13  N   UNL A   1      44.513  33.697  26.862  1.00  0.00    -0.312 N 
ATOM     14  N   UNL A   1      43.799  33.611  24.788  1.00  0.00    -0.138 NA
ATOM     15  C   UNL A   1      43.724  34.284  25.907  1.00  0.00     0.226 A 
ATOM     16  C   UNL A   1      44.592  34.221  28.195  1.00  0.00     0.153 C 
ENDBRANCH  10  11
ENDBRANCH   8  10
ENDBRANCH   6   8
ENDBRANCH   4   6
ENDBRANCH   3   4
ENDBRANCH   2   3
ENDBRANCH   1   2
BRANCH   1  17
ATOM     17  O   UNL A   1      46.820  23.414  26.508  1.00  0.00    -0.374 OA
BRANCH  17  18
ATOM     18  C   UNL A   1      46.685  23.914  25.177  1.00  0.00     0.202 C 
BRANCH  18  19
ATOM     19  C   UNL A   1      45.545  23.337  24.330  1.00  0.00     0.261 C 
BRANCH  19  20
ATOM     20  O   UNL A   1      44.396  24.207  24.304  1.00  0.00    -0.460 OA
BRANCH  20  21
ATOM     21  C   UNL A   1      43.283  23.690  24.871  1.00  0.00     0.338 C 
ATOM     22  O   UNL A   1      42.911  22.522  24.862  1.00  0.00    -0.246 OA
BRANCH  21  23
ATOM     23  C   UNL A   1      42.621  24.704  25.709  1.00  0.00     0.060 A 
ATOM     24  C   UNL A   1      43.130  26.010  25.670  1.00  0.00     0.016 A 
ATOM     25  C   UNL A   1      41.599  24.365  26.597  1.00  0.00     0.016 A 
ATOM     26  C   UNL A   1      42.660  26.971  26.562  1.00  0.00     0.010 A 
ATOM     27  C   UNL A   1      41.137  25.328  27.498  1.00  0.00     0.010 A 
ATOM     28  C   UNL A   1      41.694  26.621  27.512  1.00  0.00    -0.014 A 
BRANCH  28  29
ATOM     29  C   UNL A   1      41.397  27.538  28.637  1.00  0.00     0.031 A 
ATOM     30  C   UNL A   1      42.236  27.446  29.882  1.00  0.00     0.074 A 
ATOM     31  C   UNL A   1      40.406  28.443  28.554  1.00  0.00     0.049 A 
ATOM     32  N   UNL A   1      42.087  28.051  31.031  1.00  0.00    -0.248 NA
ATOM     33  C   UNL A   1      43.399  26.545  29.820  1.00  0.00     0.031 C 
ATOM     34  C   UNL A   1      39.571  28.677  27.379  1.00  0.00     0.029 A 
ATOM     35  N   UNL A   1      39.928  29.324  29.490  1.00  0.00    -0.354 N 
ATOM     36  C   UNL A   1      43.125  27.593  31.834  1.00  0.00     0.074 A 
ATOM     37  C   UNL A   1      43.885  26.646  31.049  1.00  0.00     0.031 C 
ATOM     38  C   UNL A   1      38.664  29.626  27.671  1.00  0.00     0.029 A 
ATOM     39  C   UNL A   1      38.831  30.034  29.065  1.00  0.00     0.049 A 
ATOM     40  H   UNL A   1      40.331  29.437  30.382  1.00  0.00     0.167 HD
ATOM     41  C   UNL A   1      43.419  27.934  33.111  1.00  0.00     0.037 A 
ATOM     42  C   UNL A   1      38.035  30.888  29.737  1.00  0.00     0.037 A 
ATOM     43  C   UNL A   1      42.663  28.880  33.886  1.00  0.00     0.049 A 
ATOM     44  C   UNL A   1      38.329  31.188  31.184  1.00  0.00     0.074 A 
ATOM     45  C   UNL A   1      42.875  29.294  35.189  1.00  0.00     0.029 A 
ATOM     46  N   UNL A   1      41.546  29.559  33.427  1.00  0.00    -0.354 N 
ATOM     47  N   UNL A   1      39.305  30.743  31.939  1.00  0.00    -0.248 NA
ATOM     48  C   UNL A   1      37.408  32.103  31.875  1.00  0.00     0.031 C 
ATOM     49  C   UNL A   1      41.861  30.193  35.533  1.00  0.00     0.029 A 
ATOM     50  C   UNL A   1      41.045  30.375  34.427  1.00  0.00     0.049 A 
ATOM     51  H   UNL A   1      41.164  29.474  32.523  1.00  0.00     0.167 HD
ATOM     52  C   UNL A   1      39.137  31.351  33.177  1.00  0.00     0.074 A 
ATOM     53  C   UNL A   1      37.965  32.193  33.075  1.00  0.00     0.031 C 
ATOM     54  C   UNL A   1      39.891  31.227  34.297  1.00  0.00     0.037 A 
BRANCH  41  55
ATOM     55  C   UNL A   1      44.590  27.255  33.757  1.00  0.00     0.057 A 
ATOM     56  C   UNL A   1      45.878  27.804  33.718  1.00  0.00     0.134 A 
ATOM     57  C   UNL A   1      44.420  26.051  34.451  1.00  0.00     0.134 A 
ATOM     58  F   UNL A   1      46.110  28.947  33.056  1.00  0.00    -0.206 F 
ATOM     59  C   UNL A   1      46.960  27.166  34.328  1.00  0.00     0.040 A 
ATOM     60  C   UNL A   1      45.489  25.418  35.087  1.00  0.00     0.040 A 
ATOM     61  F   UNL A   1      43.211  25.474  34.530  1.00  0.00    -0.206 F 
ATOM     62  C   UNL A   1      46.766  25.973  35.022  1.00  0.00     0.006 A 
ENDBRANCH  41  55
BRANCH  42  63
ATOM     63  C   UNL A   1      36.867  31.505  29.060  1.00  0.00     0.057 A 
ATOM     64  C   UNL A   1      36.911  32.824  28.595  1.00  0.00     0.134 A 
ATOM     65  C   UNL A   1      35.673  30.797  28.879  1.00  0.00     0.134 A 
ATOM     66  F   UNL A   1      38.019  33.560  28.761  1.00  0.00    -0.206 F 
ATOM     67  C   UNL A   1      35.807  33.422  27.987  1.00  0.00     0.040 A 
ATOM     68  C   UNL A   1      34.568  31.375  28.252  1.00  0.00     0.040 A 
ATOM     69  F   UNL A   1      35.565  29.529  29.302  1.00  0.00    -0.206 F 
ATOM     70  C   UNL A   1      34.631  32.694  27.809  1.00  0.00     0.006 A 
ENDBRANCH  42  63
BRANCH  54  71
ATOM     71  C   UNL A   1      39.513  32.059  35.485  1.00  0.00     0.057 A 
ATOM     72  C   UNL A   1      40.003  33.356  35.668  1.00  0.00     0.134 A 
ATOM     73  C   UNL A   1      38.582  31.578  36.417  1.00  0.00     0.134 A 
ATOM     74  F   UNL A   1      40.904  33.869  34.817  1.00  0.00    -0.206 F 
ATOM     75  C   UNL A   1      39.587  34.147  36.742  1.00  0.00     0.040 A 
ATOM     76  C   UNL A   1      38.142  32.366  37.480  1.00  0.00     0.040 A 
ATOM     77  F   UNL A   1      38.068  30.345  36.292  1.00  0.00    -0.206 F 
ATOM     78  C   UNL A   1      38.646  33.654  37.645  1.00  0.00     0.006 A 
ENDBRANCH  54  71
ENDBRANCH  28  29
ENDBRANCH  21  23
ENDBRANCH  20  21
ENDBRANCH  19  20
ENDBRANCH  18  19
ENDBRANCH  17  18
ENDBRANCH   1  17
TORSDOF 17
ENDMDL
MODEL 3
REMARK VINA RESULT:      -9.5      4.188      6.944
REMARK SMILES C[C@@H](Sc1nncn1C)[C@@H](C)C(=O)OCCOCCOC(=O)c1ccc(-c2c3nc(c(-c4c(F)cccc4F)c4ccc([nH]4)c(-c4c(F)cccc4F)c4nc(c(-c5c(F)cccc5F)c5ccc2[nH]5)C=C4)C=C3)cc1
REMARK SMILES IDX 16 1 15 2 14 3 12 4 13 5 10 6 11 7 2 8 1 9 3 10 4 11 5 12
REMARK SMILES IDX 8 13 6 14 7 15 9 16 17 17 18 18 19 19 20 20 21 21 22 22
REMARK SMILES IDX 23 23 24 24 76 25 25 26 75 27 26 28 27 29 28 30 69 31 29 32
REMARK SMILES IDX 74 33 68 34 70 35 30 36 73 37 67 38 66 39 31 41 57 42 40 43
REMARK SMILES IDX 56 44 41 45 44 46 55 47 71 48 42 49 43 50 54 52 72 53 45 54
REMARK SMILES IDX 32 55 33 56 38 57 34 58 35 59 37 60 39 61 36 62 58 63 59 64
REMARK SMILES IDX 64 65 60 66 61 67 63 68 65 69 62 70 46 71 47 72 52 73 48 74
REMARK SMILES IDX 49 75 51 76 53 77 50 78
REMARK H PARENT 70 40 44 51
REMARK Flexibility Score: inf
ROOT
ATOM      1  C   UNL A   1      33.406  31.199  27.275  1.00  0.00     0.202 C 
ENDROOT
BRANCH   1   2
ATOM      2  C   UNL A   1      33.383  29.734  26.826  1.00  0.00     0.261 C 
BRANCH   2   3
ATOM      3  O   UNL A   1      32.218  29.327  26.081  1.00  0.00    -0.463 OA
BRANCH   3   4
ATOM      4  C   UNL A   1      32.470  29.031  24.775  1.00  0.00     0.309 C 
ATOM      5  O   UNL A   1      33.491  29.351  24.175  1.00  0.00    -0.252 OA
BRANCH   4   6
ATOM      6  C   UNL A   1      31.285  28.422  24.049  1.00  0.00     0.109 C 
ATOM      7  C   UNL A   1      30.296  29.577  23.824  1.00  0.00     0.021 C 
BRANCH   6   8
ATOM      8  C   UNL A   1      30.598  27.173  24.668  1.00  0.00     0.065 C 
ATOM      9  C   UNL A   1      29.369  26.821  23.811  1.00  0.00     0.021 C 
BRANCH   8  10
ATOM     10  S   UNL A   1      31.678  25.717  24.619  1.00  0.00    -0.082 SA
BRANCH  10  11
ATOM     11  C   UNL A   1      30.995  24.405  25.527  1.00  0.00     0.191 A 
ATOM     12  N   UNL A   1      30.278  24.661  26.606  1.00  0.00    -0.124 NA
ATOM     13  N   UNL A   1      31.133  23.045  25.419  1.00  0.00    -0.312 N 
ATOM     14  N   UNL A   1      29.962  23.480  27.224  1.00  0.00    -0.138 NA
ATOM     15  C   UNL A   1      30.497  22.521  26.515  1.00  0.00     0.226 A 
ATOM     16  C   UNL A   1      31.783  22.204  24.456  1.00  0.00     0.153 C 
ENDBRANCH  10  11
ENDBRANCH   8  10
ENDBRANCH   6   8
ENDBRANCH   4   6
ENDBRANCH   3   4
ENDBRANCH   2   3
ENDBRANCH   1   2
BRANCH   1  17
ATOM     17  O   UNL A   1      34.650  31.756  27.679  1.00  0.00    -0.374 OA
BRANCH  17  18
ATOM     18  C   UNL A   1      34.653  32.603  28.829  1.00  0.00     0.202 C 
BRANCH  18  19
ATOM     19  C   UNL A   1      35.230  32.015  30.123  1.00  0.00     0.261 C 
BRANCH  19  20
ATOM     20  O   UNL A   1      35.605  30.632  29.969  1.00  0.00    -0.460 OA
BRANCH  20  21
ATOM     21  C   UNL A   1      36.452  30.169  30.915  1.00  0.00     0.338 C 
ATOM     22  O   UNL A   1      36.278  30.144  32.129  1.00  0.00    -0.246 OA
BRANCH  21  23
ATOM     23  C   UNL A   1      37.595  29.487  30.286  1.00  0.00     0.060 A 
ATOM     24  C   UNL A   1      38.541  28.892  31.132  1.00  0.00     0.016 A 
ATOM     25  C   UNL A   1      37.799  29.525  28.905  1.00  0.00     0.016 A 
ATOM     26  C   UNL A   1      39.727  28.383  30.608  1.00  0.00     0.010 A 
ATOM     27  C   UNL A   1      38.995  29.025  28.382  1.00  0.00     0.010 A 
ATOM     28  C   UNL A   1      39.980  28.490  29.235  1.00  0.00    -0.014 A 
BRANCH  28  29
ATOM     29  C   UNL A   1      41.339  28.219  28.710  1.00  0.00     0.031 A 
ATOM     30  C   UNL A   1      41.673  26.822  28.265  1.00  0.00     0.074 A 
ATOM     31  C   UNL A   1      42.258  29.196  28.623  1.00  0.00     0.049 A 
ATOM     32  N   UNL A   1      42.821  26.321  27.891  1.00  0.00    -0.248 NA
ATOM     33  C   UNL A   1      40.557  25.861  28.241  1.00  0.00     0.031 C 
ATOM     34  C   UNL A   1      42.035  30.601  28.956  1.00  0.00     0.029 A 
ATOM     35  N   UNL A   1      43.575  29.144  28.238  1.00  0.00    -0.354 N 
ATOM     36  C   UNL A   1      42.571  24.984  27.604  1.00  0.00     0.074 A 
ATOM     37  C   UNL A   1      41.169  24.747  27.865  1.00  0.00     0.031 C 
ATOM     38  C   UNL A   1      43.184  31.277  28.783  1.00  0.00     0.029 A 
ATOM     39  C   UNL A   1      44.231  30.345  28.367  1.00  0.00     0.049 A 
ATOM     40  H   UNL A   1      44.007  28.326  27.903  1.00  0.00     0.167 HD
ATOM     41  C   UNL A   1      43.435  24.040  27.161  1.00  0.00     0.037 A 
ATOM     42  C   UNL A   1      45.533  30.644  28.201  1.00  0.00     0.037 A 
ATOM     43  C   UNL A   1      44.827  24.282  26.898  1.00  0.00     0.049 A 
ATOM     44  C   UNL A   1      46.494  29.559  27.791  1.00  0.00     0.074 A 
ATOM     45  C   UNL A   1      45.789  23.394  26.449  1.00  0.00     0.029 A 
ATOM     46  N   UNL A   1      45.458  25.506  27.064  1.00  0.00    -0.354 N 
ATOM     47  N   UNL A   1      46.253  28.296  27.532  1.00  0.00    -0.248 NA
ATOM     48  C   UNL A   1      47.909  29.937  27.656  1.00  0.00     0.031 C 
ATOM     49  C   UNL A   1      47.011  24.069  26.383  1.00  0.00     0.029 A 
ATOM     50  C   UNL A   1      46.800  25.391  26.745  1.00  0.00     0.049 A 
ATOM     51  H   UNL A   1      45.017  26.333  27.364  1.00  0.00     0.167 HD
ATOM     52  C   UNL A   1      47.474  27.741  27.168  1.00  0.00     0.074 A 
ATOM     53  C   UNL A   1      48.456  28.802  27.242  1.00  0.00     0.031 C 
ATOM     54  C   UNL A   1      47.756  26.467  26.800  1.00  0.00     0.037 A 
BRANCH  41  55
ATOM     55  C   UNL A   1      42.902  22.652  26.962  1.00  0.00     0.057 A 
ATOM     56  C   UNL A   1      42.623  21.805  28.042  1.00  0.00     0.134 A 
ATOM     57  C   UNL A   1      42.639  22.168  25.675  1.00  0.00     0.134 A 
ATOM     58  F   UNL A   1      42.867  22.203  29.299  1.00  0.00    -0.206 F 
ATOM     59  C   UNL A   1      42.121  20.516  27.846  1.00  0.00     0.040 A 
ATOM     60  C   UNL A   1      42.113  20.892  25.468  1.00  0.00     0.040 A 
ATOM     61  F   UNL A   1      42.881  22.931  24.598  1.00  0.00    -0.206 F 
ATOM     62  C   UNL A   1      41.858  20.059  26.556  1.00  0.00     0.006 A 
ENDBRANCH  41  55
BRANCH  42  63
ATOM     63  C   UNL A   1      46.015  32.026  28.446  1.00  0.00     0.057 A 
ATOM     64  C   UNL A   1      46.002  32.990  27.431  1.00  0.00     0.134 A 
ATOM     65  C   UNL A   1      46.518  32.412  29.694  1.00  0.00     0.134 A 
ATOM     66  F   UNL A   1      45.555  32.674  26.207  1.00  0.00    -0.206 F 
ATOM     67  C   UNL A   1      46.484  34.282  27.644  1.00  0.00     0.040 A 
ATOM     68  C   UNL A   1      46.981  33.708  29.928  1.00  0.00     0.040 A 
ATOM     69  F   UNL A   1      46.558  31.536  30.710  1.00  0.00    -0.206 F 
ATOM     70  C   UNL A   1      46.971  34.646  28.898  1.00  0.00     0.006 A 
ENDBRANCH  42  63
BRANCH  54  71
ATOM     71  C   UNL A   1      49.165  26.156  26.393  1.00  0.00     0.057 A 
ATOM     72  C   UNL A   1      49.650  26.452  25.114  1.00  0.00     0.134 A 
ATOM     73  C   UNL A   1      50.069  25.627  27.323  1.00  0.00     0.134 A 
ATOM     74  F   UNL A   1      48.832  26.951  24.175  1.00  0.00    -0.206 F 
ATOM     75  C   UNL A   1      50.984  26.224  24.770  1.00  0.00     0.040 A 
ATOM     76  C   UNL A   1      51.409  25.415  27.000  1.00  0.00     0.040 A 
ATOM     77  F   UNL A   1      49.668  25.330  28.569  1.00  0.00    -0.206 F 
ATOM     78  C   UNL A   1      51.869  25.713  25.719  1.00  0.00     0.006 A 
ENDBRANCH  54  71
ENDBRANCH  28  29
ENDBRANCH  21  23
ENDBRANCH  20  21
ENDBRANCH  19  20
ENDBRANCH  18  19
ENDBRANCH  17  18
ENDBRANCH   1  17
TORSDOF 17
ENDMDL
