MODEL 1
REMARK VINA RESULT:      -9.6      0.000      0.000
REMARK SMILES O=C(OCCOCCOC(=O)c1cc([C@@H]2C=NN=C2c2ccc(F)cc2)c2c(ccc3ccccc32)n1)c1ccc(-c2c3nc(c(-c4c(F)cccc4F)c4ccc([nH]4)c(-c4c(F)cccc4F)c4nc(c(-c5c(F)cccc5F)c5ccc2[nH]5)C=C4)C=C3)cc1
REMARK SMILES IDX 6 1 5 2 4 3 3 4 2 5 1 6 38 7 39 8 91 9 40 10 90 11 41 12
REMARK SMILES IDX 42 13 43 14 84 15 44 16 89 17 83 18 85 19 45 20 88 21 82 22
REMARK SMILES IDX 81 23 46 25 72 26 55 27 71 28 56 29 59 30 70 31 86 32 57 33
REMARK SMILES IDX 58 34 69 36 87 37 60 38 47 39 48 40 53 41 49 42 50 43 52 44
REMARK SMILES IDX 54 45 51 46 73 47 74 48 79 49 75 50 76 51 78 52 80 53 77 54
REMARK SMILES IDX 61 55 62 56 67 57 63 58 64 59 66 60 68 61 65 62 7 63 8 64
REMARK SMILES IDX 9 65 10 66 11 67 12 68 13 69 37 70 14 71 28 72 27 73 29 74
REMARK SMILES IDX 36 75 30 76 31 77 35 78 32 79 34 80 33 81 15 82 16 83 19 84
REMARK SMILES IDX 17 85 18 86 20 87 21 88 26 89 22 90 25 91 23 92 24 93
REMARK H PARENT 85 24 59 35
REMARK Flexibility Score: inf
ROOT
ATOM      1  O   UNL A   1      33.338  34.409  29.742  1.00  0.00    -0.374 OA
ENDROOT
BRANCH   1   2
ATOM      2  C   UNL A   1      34.159  34.350  28.576  1.00  0.00     0.202 C 
BRANCH   2   3
ATOM      3  C   UNL A   1      34.944  33.065  28.325  1.00  0.00     0.261 C 
BRANCH   3   4
ATOM      4  O   UNL A   1      36.035  32.880  29.249  1.00  0.00    -0.460 OA
BRANCH   4   5
ATOM      5  C   UNL A   1      36.115  31.847  30.118  1.00  0.00     0.338 C 
ATOM      6  O   UNL A   1      35.237  31.652  30.955  1.00  0.00    -0.246 OA
BRANCH   5   7
ATOM      7  C   UNL A   1      37.099  30.782  29.817  1.00  0.00     0.060 A 
ATOM      8  C   UNL A   1      36.977  29.452  30.216  1.00  0.00     0.016 A 
ATOM      9  C   UNL A   1      38.280  31.211  29.195  1.00  0.00     0.016 A 
ATOM     10  C   UNL A   1      38.097  28.656  30.290  1.00  0.00     0.010 A 
ATOM     11  C   UNL A   1      39.386  30.388  29.184  1.00  0.00     0.010 A 
ATOM     12  C   UNL A   1      39.311  29.162  29.835  1.00  0.00    -0.014 A 
BRANCH  12  13
ATOM     13  C   UNL A   1      40.472  28.301  29.941  1.00  0.00     0.031 A 
ATOM     14  C   UNL A   1      41.033  28.239  31.317  1.00  0.00     0.074 A 
ATOM     15  C   UNL A   1      40.903  27.571  28.896  1.00  0.00     0.049 A 
ATOM     16  N   UNL A   1      42.217  28.569  31.713  1.00  0.00    -0.248 NA
ATOM     17  C   UNL A   1      40.098  27.931  32.416  1.00  0.00     0.031 C 
ATOM     18  C   UNL A   1      40.276  27.396  27.583  1.00  0.00     0.029 A 
ATOM     19  N   UNL A   1      41.972  26.735  28.830  1.00  0.00    -0.354 N 
ATOM     20  C   UNL A   1      42.239  28.317  33.081  1.00  0.00     0.074 A 
ATOM     21  C   UNL A   1      40.877  28.084  33.485  1.00  0.00     0.031 C 
ATOM     22  C   UNL A   1      40.830  26.332  26.959  1.00  0.00     0.029 A 
ATOM     23  C   UNL A   1      41.940  25.849  27.758  1.00  0.00     0.049 A 
ATOM     24  H   UNL A   1      42.706  26.754  29.485  1.00  0.00     0.167 HD
ATOM     25  C   UNL A   1      43.403  28.080  33.743  1.00  0.00     0.037 A 
ATOM     26  C   UNL A   1      42.728  24.754  27.619  1.00  0.00     0.037 A 
ATOM     27  C   UNL A   1      44.535  28.602  33.028  1.00  0.00     0.049 A 
ATOM     28  C   UNL A   1      43.902  24.946  28.511  1.00  0.00     0.074 A 
ATOM     29  C   UNL A   1      44.920  29.871  32.639  1.00  0.00     0.029 A 
ATOM     30  N   UNL A   1      45.264  27.735  32.253  1.00  0.00    -0.354 N 
ATOM     31  N   UNL A   1      44.810  25.865  28.324  1.00  0.00    -0.248 NA
ATOM     32  C   UNL A   1      43.796  24.438  29.872  1.00  0.00     0.031 C 
ATOM     33  C   UNL A   1      45.467  29.704  31.335  1.00  0.00     0.029 A 
ATOM     34  C   UNL A   1      45.459  28.341  31.037  1.00  0.00     0.049 A 
ATOM     35  H   UNL A   1      45.587  26.845  32.520  1.00  0.00     0.167 HD
ATOM     36  C   UNL A   1      45.090  26.350  29.593  1.00  0.00     0.074 A 
ATOM     37  C   UNL A   1      44.477  25.392  30.513  1.00  0.00     0.031 C 
ATOM     38  C   UNL A   1      45.533  27.626  29.783  1.00  0.00     0.037 A 
BRANCH  25  39
ATOM     39  C   UNL A   1      43.517  27.072  34.852  1.00  0.00     0.057 A 
ATOM     40  C   UNL A   1      43.381  27.404  36.217  1.00  0.00     0.134 A 
ATOM     41  C   UNL A   1      43.492  25.700  34.562  1.00  0.00     0.134 A 
ATOM     42  F   UNL A   1      43.256  28.670  36.637  1.00  0.00    -0.206 F 
ATOM     43  C   UNL A   1      43.261  26.445  37.224  1.00  0.00     0.040 A 
ATOM     44  C   UNL A   1      43.318  24.731  35.560  1.00  0.00     0.040 A 
ATOM     45  F   UNL A   1      43.564  25.263  33.297  1.00  0.00    -0.206 F 
ATOM     46  C   UNL A   1      43.205  25.102  36.895  1.00  0.00     0.006 A 
ENDBRANCH  25  39
BRANCH  26  47
ATOM     47  C   UNL A   1      42.338  23.414  27.117  1.00  0.00     0.057 A 
ATOM     48  C   UNL A   1      41.386  22.620  27.782  1.00  0.00     0.134 A 
ATOM     49  C   UNL A   1      43.109  22.760  26.144  1.00  0.00     0.134 A 
ATOM     50  F   UNL A   1      40.639  23.118  28.777  1.00  0.00    -0.206 F 
ATOM     51  C   UNL A   1      41.231  21.254  27.519  1.00  0.00     0.040 A 
ATOM     52  C   UNL A   1      42.967  21.391  25.874  1.00  0.00     0.040 A 
ATOM     53  F   UNL A   1      44.069  23.421  25.481  1.00  0.00    -0.206 F 
ATOM     54  C   UNL A   1      42.035  20.631  26.574  1.00  0.00     0.006 A 
ENDBRANCH  26  47
BRANCH  38  55
ATOM     55  C   UNL A   1      45.907  28.438  28.570  1.00  0.00     0.057 A 
ATOM     56  C   UNL A   1      47.254  28.502  28.197  1.00  0.00     0.134 A 
ATOM     57  C   UNL A   1      45.023  29.289  27.889  1.00  0.00     0.134 A 
ATOM     58  F   UNL A   1      48.168  27.757  28.839  1.00  0.00    -0.206 F 
ATOM     59  C   UNL A   1      47.705  29.375  27.204  1.00  0.00     0.040 A 
ATOM     60  C   UNL A   1      45.457  30.144  26.869  1.00  0.00     0.040 A 
ATOM     61  F   UNL A   1      43.732  29.370  28.234  1.00  0.00    -0.206 F 
ATOM     62  C   UNL A   1      46.805  30.196  26.532  1.00  0.00     0.006 A 
ENDBRANCH  38  55
ENDBRANCH  12  13
ENDBRANCH   5   7
ENDBRANCH   4   5
ENDBRANCH   3   4
ENDBRANCH   2   3
ENDBRANCH   1   2
BRANCH   1  63
ATOM     63  C   UNL A   1      33.711  35.380  30.734  1.00  0.00     0.202 C 
BRANCH  63  64
ATOM     64  C   UNL A   1      33.660  34.992  32.221  1.00  0.00     0.261 C 
BRANCH  64  65
ATOM     65  O   UNL A   1      34.620  33.973  32.543  1.00  0.00    -0.459 OA
BRANCH  65  66
ATOM     66  C   UNL A   1      35.400  34.237  33.629  1.00  0.00     0.357 C 
ATOM     67  O   UNL A   1      35.029  34.481  34.754  1.00  0.00    -0.244 OA
BRANCH  66  68
ATOM     68  C   UNL A   1      36.814  33.991  33.228  1.00  0.00     0.149 A 
ATOM     69  C   UNL A   1      37.585  33.132  33.959  1.00  0.00     0.041 A 
ATOM     70  N   UNL A   1      37.254  34.589  32.108  1.00  0.00    -0.241 NA
ATOM     71  C   UNL A   1      38.831  32.711  33.440  1.00  0.00    -0.021 A 
ATOM     72  C   UNL A   1      38.474  34.286  31.649  1.00  0.00     0.072 A 
ATOM     73  C   UNL A   1      39.340  33.294  32.200  1.00  0.00     0.012 A 
ATOM     74  C   UNL A   1      38.815  34.992  30.516  1.00  0.00     0.029 A 
ATOM     75  C   UNL A   1      40.542  32.980  31.395  1.00  0.00    -0.009 A 
ATOM     76  C   UNL A   1      39.978  34.736  29.807  1.00  0.00     0.011 A 
ATOM     77  C   UNL A   1      40.827  33.718  30.210  1.00  0.00    -0.018 A 
ATOM     78  C   UNL A   1      41.476  31.949  31.649  1.00  0.00     0.009 A 
ATOM     79  C   UNL A   1      41.938  33.433  29.393  1.00  0.00     0.009 A 
ATOM     80  C   UNL A   1      42.573  31.651  30.831  1.00  0.00     0.001 A 
ATOM     81  C   UNL A   1      42.807  32.397  29.696  1.00  0.00     0.001 A 
BRANCH  71  82
ATOM     82  C   UNL A   1      39.337  31.518  34.214  1.00  0.00     0.115 C 
ATOM     83  C   UNL A   1      38.393  30.634  34.931  1.00  0.00     0.123 C 
ATOM     84  C   UNL A   1      40.350  31.719  35.299  1.00  0.00     0.083 C 
ATOM     85  N   UNL A   1      38.857  30.250  36.078  1.00  0.00    -0.162 NA
ATOM     86  N   UNL A   1      40.106  30.935  36.314  1.00  0.00    -0.154 NA
BRANCH  84  87
ATOM     87  C   UNL A   1      41.560  32.573  35.180  1.00  0.00    -0.001 A 
ATOM     88  C   UNL A   1      42.783  31.942  34.931  1.00  0.00     0.013 A 
ATOM     89  C   UNL A   1      41.536  33.971  35.297  1.00  0.00     0.013 A 
ATOM     90  C   UNL A   1      43.946  32.700  34.755  1.00  0.00     0.040 A 
ATOM     91  C   UNL A   1      42.693  34.729  35.110  1.00  0.00     0.040 A 
ATOM     92  C   UNL A   1      43.888  34.087  34.835  1.00  0.00     0.123 A 
ATOM     93  F   UNL A   1      44.999  34.811  34.654  1.00  0.00    -0.207 F 
ENDBRANCH  84  87
ENDBRANCH  71  82
ENDBRANCH  66  68
ENDBRANCH  65  66
ENDBRANCH  64  65
ENDBRANCH  63  64
ENDBRANCH   1  63
TORSDOF 16
ENDMDL
MODEL 2
REMARK VINA RESULT:      -8.7      5.354      8.956
REMARK SMILES O=C(OCCOCCOC(=O)c1cc([C@@H]2C=NN=C2c2ccc(F)cc2)c2c(ccc3ccccc32)n1)c1ccc(-c2c3nc(c(-c4c(F)cccc4F)c4ccc([nH]4)c(-c4c(F)cccc4F)c4nc(c(-c5c(F)cccc5F)c5ccc2[nH]5)C=C4)C=C3)cc1
REMARK SMILES IDX 6 1 5 2 4 3 3 4 2 5 1 6 38 7 39 8 91 9 40 10 90 11 41 12
REMARK SMILES IDX 42 13 43 14 84 15 44 16 89 17 83 18 85 19 45 20 88 21 82 22
REMARK SMILES IDX 81 23 46 25 72 26 55 27 71 28 56 29 59 30 70 31 86 32 57 33
REMARK SMILES IDX 58 34 69 36 87 37 60 38 47 39 48 40 53 41 49 42 50 43 52 44
REMARK SMILES IDX 54 45 51 46 73 47 74 48 79 49 75 50 76 51 78 52 80 53 77 54
REMARK SMILES IDX 61 55 62 56 67 57 63 58 64 59 66 60 68 61 65 62 7 63 8 64
REMARK SMILES IDX 9 65 10 66 11 67 12 68 13 69 37 70 14 71 28 72 27 73 29 74
REMARK SMILES IDX 36 75 30 76 31 77 35 78 32 79 34 80 33 81 15 82 16 83 19 84
REMARK SMILES IDX 17 85 18 86 20 87 21 88 26 89 22 90 25 91 23 92 24 93
REMARK H PARENT 85 24 59 35
REMARK Flexibility Score: inf
ROOT
ATOM      1  O   UNL A   1      34.734  31.904  27.439  1.00  0.00    -0.374 OA
ENDROOT
BRANCH   1   2
ATOM      2  C   UNL A   1      33.837  32.645  28.265  1.00  0.00     0.202 C 
BRANCH   2   3
ATOM      3  C   UNL A   1      34.440  33.554  29.332  1.00  0.00     0.261 C 
BRANCH   3   4
ATOM      4  O   UNL A   1      35.776  33.168  29.713  1.00  0.00    -0.460 OA
BRANCH   4   5
ATOM      5  C   UNL A   1      36.050  32.149  30.558  1.00  0.00     0.338 C 
ATOM      6  O   UNL A   1      35.313  31.897  31.508  1.00  0.00    -0.246 OA
BRANCH   5   7
ATOM      7  C   UNL A   1      37.057  31.155  30.119  1.00  0.00     0.060 A 
ATOM      8  C   UNL A   1      36.849  29.777  30.085  1.00  0.00     0.016 A 
ATOM      9  C   UNL A   1      38.333  31.669  29.847  1.00  0.00     0.016 A 
ATOM     10  C   UNL A   1      37.929  28.924  30.100  1.00  0.00     0.010 A 
ATOM     11  C   UNL A   1      39.413  30.816  29.772  1.00  0.00     0.010 A 
ATOM     12  C   UNL A   1      39.210  29.462  30.013  1.00  0.00    -0.014 A 
BRANCH  12  13
ATOM     13  C   UNL A   1      40.323  28.535  30.046  1.00  0.00     0.031 A 
ATOM     14  C   UNL A   1      40.895  28.351  31.407  1.00  0.00     0.074 A 
ATOM     15  C   UNL A   1      40.704  27.854  28.949  1.00  0.00     0.049 A 
ATOM     16  N   UNL A   1      42.099  28.590  31.808  1.00  0.00    -0.248 NA
ATOM     17  C   UNL A   1      39.955  28.020  32.496  1.00  0.00     0.031 C 
ATOM     18  C   UNL A   1      40.055  27.802  27.636  1.00  0.00     0.029 A 
ATOM     19  N   UNL A   1      41.726  26.969  28.813  1.00  0.00    -0.354 N 
ATOM     20  C   UNL A   1      42.121  28.245  33.156  1.00  0.00     0.074 A 
ATOM     21  C   UNL A   1      40.753  28.060  33.562  1.00  0.00     0.031 C 
ATOM     22  C   UNL A   1      40.544  26.754  26.936  1.00  0.00     0.029 A 
ATOM     23  C   UNL A   1      41.634  26.160  27.686  1.00  0.00     0.049 A 
ATOM     24  H   UNL A   1      42.466  26.905  29.458  1.00  0.00     0.167 HD
ATOM     25  C   UNL A   1      43.277  27.903  33.785  1.00  0.00     0.037 A 
ATOM     26  C   UNL A   1      42.361  25.036  27.463  1.00  0.00     0.037 A 
ATOM     27  C   UNL A   1      44.428  28.411  33.090  1.00  0.00     0.049 A 
ATOM     28  C   UNL A   1      43.552  25.105  28.350  1.00  0.00     0.074 A 
ATOM     29  C   UNL A   1      44.877  29.680  32.782  1.00  0.00     0.029 A 
ATOM     30  N   UNL A   1      45.101  27.560  32.250  1.00  0.00    -0.354 N 
ATOM     31  N   UNL A   1      44.506  25.984  28.211  1.00  0.00    -0.248 NA
ATOM     32  C   UNL A   1      43.433  24.513  29.675  1.00  0.00     0.031 C 
ATOM     33  C   UNL A   1      45.401  29.572  31.461  1.00  0.00     0.029 A 
ATOM     34  C   UNL A   1      45.316  28.235  31.074  1.00  0.00     0.049 A 
ATOM     35  H   UNL A   1      45.379  26.638  32.453  1.00  0.00     0.167 HD
ATOM     36  C   UNL A   1      44.826  26.367  29.506  1.00  0.00     0.074 A 
ATOM     37  C   UNL A   1      44.171  25.385  30.368  1.00  0.00     0.031 C 
ATOM     38  C   UNL A   1      45.339  27.602  29.774  1.00  0.00     0.037 A 
BRANCH  25  39
ATOM     39  C   UNL A   1      43.347  26.819  34.822  1.00  0.00     0.057 A 
ATOM     40  C   UNL A   1      43.642  25.472  34.517  1.00  0.00     0.134 A 
ATOM     41  C   UNL A   1      43.392  27.149  36.185  1.00  0.00     0.134 A 
ATOM     42  F   UNL A   1      43.767  25.036  33.257  1.00  0.00    -0.206 F 
ATOM     43  C   UNL A   1      43.930  24.517  35.493  1.00  0.00     0.040 A 
ATOM     44  C   UNL A   1      43.731  26.209  37.169  1.00  0.00     0.040 A 
ATOM     45  F   UNL A   1      43.176  28.407  36.595  1.00  0.00    -0.206 F 
ATOM     46  C   UNL A   1      43.999  24.889  36.824  1.00  0.00     0.006 A 
ENDBRANCH  25  39
BRANCH  26  47
ATOM     47  C   UNL A   1      41.893  23.756  26.878  1.00  0.00     0.057 A 
ATOM     48  C   UNL A   1      40.698  23.141  27.296  1.00  0.00     0.134 A 
ATOM     49  C   UNL A   1      42.759  22.957  26.115  1.00  0.00     0.134 A 
ATOM     50  F   UNL A   1      39.827  23.782  28.086  1.00  0.00    -0.206 F 
ATOM     51  C   UNL A   1      40.397  21.807  26.999  1.00  0.00     0.040 A 
ATOM     52  C   UNL A   1      42.470  21.618  25.815  1.00  0.00     0.040 A 
ATOM     53  F   UNL A   1      43.939  23.440  25.701  1.00  0.00    -0.206 F 
ATOM     54  C   UNL A   1      41.292  21.035  26.271  1.00  0.00     0.006 A 
ENDBRANCH  26  47
BRANCH  38  55
ATOM     55  C   UNL A   1      45.744  28.473  28.613  1.00  0.00     0.057 A 
ATOM     56  C   UNL A   1      44.785  29.317  28.044  1.00  0.00     0.134 A 
ATOM     57  C   UNL A   1      46.969  28.365  27.937  1.00  0.00     0.134 A 
ATOM     58  F   UNL A   1      43.570  29.432  28.604  1.00  0.00    -0.206 F 
ATOM     59  C   UNL A   1      45.023  30.013  26.857  1.00  0.00     0.040 A 
ATOM     60  C   UNL A   1      47.234  29.082  26.764  1.00  0.00     0.040 A 
ATOM     61  F   UNL A   1      47.916  27.513  28.348  1.00  0.00    -0.206 F 
ATOM     62  C   UNL A   1      46.253  29.902  26.215  1.00  0.00     0.006 A 
ENDBRANCH  38  55
ENDBRANCH  12  13
ENDBRANCH   5   7
ENDBRANCH   4   5
ENDBRANCH   3   4
ENDBRANCH   2   3
ENDBRANCH   1   2
BRANCH   1  63
ATOM     63  C   UNL A   1      34.489  30.491  27.340  1.00  0.00     0.202 C 
BRANCH  63  64
ATOM     64  C   UNL A   1      33.043  29.986  27.209  1.00  0.00     0.261 C 
BRANCH  64  65
ATOM     65  O   UNL A   1      32.990  28.596  26.848  1.00  0.00    -0.459 OA
BRANCH  65  66
ATOM     66  C   UNL A   1      31.911  27.916  27.328  1.00  0.00     0.357 C 
ATOM     67  O   UNL A   1      31.137  28.281  28.182  1.00  0.00    -0.244 OA
BRANCH  66  68
ATOM     68  C   UNL A   1      31.739  26.705  26.476  1.00  0.00     0.149 A 
ATOM     69  C   UNL A   1      31.747  26.828  25.117  1.00  0.00     0.041 A 
ATOM     70  N   UNL A   1      31.643  25.518  27.100  1.00  0.00    -0.241 NA
ATOM     71  C   UNL A   1      31.834  25.662  24.319  1.00  0.00    -0.021 A 
ATOM     72  C   UNL A   1      31.619  24.401  26.363  1.00  0.00     0.072 A 
ATOM     73  C   UNL A   1      31.781  24.344  24.946  1.00  0.00     0.012 A 
ATOM     74  C   UNL A   1      31.486  23.258  27.121  1.00  0.00     0.029 A 
ATOM     75  C   UNL A   1      31.942  22.986  24.378  1.00  0.00    -0.009 A 
ATOM     76  C   UNL A   1      31.569  21.990  26.567  1.00  0.00     0.011 A 
ATOM     77  C   UNL A   1      31.831  21.838  25.215  1.00  0.00    -0.018 A 
ATOM     78  C   UNL A   1      32.251  22.670  23.035  1.00  0.00     0.009 A 
ATOM     79  C   UNL A   1      32.010  20.529  24.729  1.00  0.00     0.009 A 
ATOM     80  C   UNL A   1      32.447  21.370  22.549  1.00  0.00     0.001 A 
ATOM     81  C   UNL A   1      32.326  20.293  23.400  1.00  0.00     0.001 A 
BRANCH  71  82
ATOM     82  C   UNL A   1      32.187  26.033  22.899  1.00  0.00     0.115 C 
ATOM     83  C   UNL A   1      33.582  25.932  22.421  1.00  0.00     0.123 C 
ATOM     84  C   UNL A   1      31.858  27.404  22.392  1.00  0.00     0.083 C 
ATOM     85  N   UNL A   1      33.908  26.918  21.647  1.00  0.00    -0.162 NA
ATOM     86  N   UNL A   1      32.809  27.855  21.621  1.00  0.00    -0.154 NA
BRANCH  84  87
ATOM     87  C   UNL A   1      30.559  28.096  22.602  1.00  0.00    -0.001 A 
ATOM     88  C   UNL A   1      30.492  29.463  22.312  1.00  0.00     0.013 A 
ATOM     89  C   UNL A   1      29.404  27.449  23.064  1.00  0.00     0.013 A 
ATOM     90  C   UNL A   1      29.282  30.153  22.439  1.00  0.00     0.040 A 
ATOM     91  C   UNL A   1      28.192  28.134  23.179  1.00  0.00     0.040 A 
ATOM     92  C   UNL A   1      28.141  29.480  22.860  1.00  0.00     0.123 A 
ATOM     93  F   UNL A   1      26.980  30.139  22.968  1.00  0.00    -0.207 F 
ENDBRANCH  84  87
ENDBRANCH  71  82
ENDBRANCH  66  68
ENDBRANCH  65  66
ENDBRANCH  64  65
ENDBRANCH  63  64
ENDBRANCH   1  63
TORSDOF 16
ENDMDL
MODEL 3
REMARK VINA RESULT:      -8.7      8.734     14.672
REMARK SMILES O=C(OCCOCCOC(=O)c1cc([C@@H]2C=NN=C2c2ccc(F)cc2)c2c(ccc3ccccc32)n1)c1ccc(-c2c3nc(c(-c4c(F)cccc4F)c4ccc([nH]4)c(-c4c(F)cccc4F)c4nc(c(-c5c(F)cccc5F)c5ccc2[nH]5)C=C4)C=C3)cc1
REMARK SMILES IDX 6 1 5 2 4 3 3 4 2 5 1 6 38 7 39 8 91 9 40 10 90 11 41 12
REMARK SMILES IDX 42 13 43 14 84 15 44 16 89 17 83 18 85 19 45 20 88 21 82 22
REMARK SMILES IDX 81 23 46 25 72 26 55 27 71 28 56 29 59 30 70 31 86 32 57 33
REMARK SMILES IDX 58 34 69 36 87 37 60 38 47 39 48 40 53 41 49 42 50 43 52 44
REMARK SMILES IDX 54 45 51 46 73 47 74 48 79 49 75 50 76 51 78 52 80 53 77 54
REMARK SMILES IDX 61 55 62 56 67 57 63 58 64 59 66 60 68 61 65 62 7 63 8 64
REMARK SMILES IDX 9 65 10 66 11 67 12 68 13 69 37 70 14 71 28 72 27 73 29 74
REMARK SMILES IDX 36 75 30 76 31 77 35 78 32 79 34 80 33 81 15 82 16 83 19 84
REMARK SMILES IDX 17 85 18 86 20 87 21 88 26 89 22 90 25 91 23 92 24 93
REMARK H PARENT 85 24 59 35
REMARK Flexibility Score: inf
ROOT
ATOM      1  O   UNL A   1      47.936  20.630  37.908  1.00  0.00    -0.374 OA
ENDROOT
BRANCH   1   2
ATOM      2  C   UNL A   1      47.071  20.048  36.934  1.00  0.00     0.202 C 
BRANCH   2   3
ATOM      3  C   UNL A   1      46.372  20.986  35.954  1.00  0.00     0.261 C 
BRANCH   3   4
ATOM      4  O   UNL A   1      45.619  22.027  36.608  1.00  0.00    -0.460 OA
BRANCH   4   5
ATOM      5  C   UNL A   1      46.018  23.318  36.667  1.00  0.00     0.338 C 
ATOM      6  O   UNL A   1      46.990  23.651  37.340  1.00  0.00    -0.246 OA
BRANCH   5   7
ATOM      7  C   UNL A   1      45.468  24.245  35.652  1.00  0.00     0.060 A 
ATOM      8  C   UNL A   1      44.109  24.450  35.418  1.00  0.00     0.016 A 
ATOM      9  C   UNL A   1      46.413  24.842  34.806  1.00  0.00     0.016 A 
ATOM     10  C   UNL A   1      43.694  24.958  34.208  1.00  0.00     0.010 A 
ATOM     11  C   UNL A   1      46.002  25.434  33.630  1.00  0.00     0.010 A 
ATOM     12  C   UNL A   1      44.654  25.382  33.294  1.00  0.00    -0.014 A 
BRANCH  12  13
ATOM     13  C   UNL A   1      44.181  25.899  32.025  1.00  0.00     0.031 A 
ATOM     14  C   UNL A   1      44.387  24.955  30.894  1.00  0.00     0.074 A 
ATOM     15  C   UNL A   1      43.536  27.077  31.942  1.00  0.00     0.049 A 
ATOM     16  N   UNL A   1      45.077  25.136  29.817  1.00  0.00    -0.248 NA
ATOM     17  C   UNL A   1      43.898  23.574  31.068  1.00  0.00     0.031 C 
ATOM     18  C   UNL A   1      43.090  27.952  33.030  1.00  0.00     0.029 A 
ATOM     19  N   UNL A   1      43.047  27.700  30.839  1.00  0.00    -0.354 N 
ATOM     20  C   UNL A   1      44.942  23.961  29.084  1.00  0.00     0.074 A 
ATOM     21  C   UNL A   1      44.351  22.986  29.961  1.00  0.00     0.031 C 
ATOM     22  C   UNL A   1      42.193  28.842  32.551  1.00  0.00     0.029 A 
ATOM     23  C   UNL A   1      42.115  28.696  31.109  1.00  0.00     0.049 A 
ATOM     24  H   UNL A   1      43.328  27.466  29.925  1.00  0.00     0.167 HD
ATOM     25  C   UNL A   1      45.106  23.942  27.734  1.00  0.00     0.037 A 
ATOM     26  C   UNL A   1      41.293  29.273  30.198  1.00  0.00     0.037 A 
ATOM     27  C   UNL A   1      45.883  25.062  27.278  1.00  0.00     0.049 A 
ATOM     28  C   UNL A   1      41.885  29.022  28.857  1.00  0.00     0.074 A 
ATOM     29  C   UNL A   1      47.177  25.486  27.510  1.00  0.00     0.029 A 
ATOM     30  N   UNL A   1      45.214  26.152  26.781  1.00  0.00    -0.354 N 
ATOM     31  N   UNL A   1      43.013  29.541  28.457  1.00  0.00    -0.248 NA
ATOM     32  C   UNL A   1      41.468  27.814  28.159  1.00  0.00     0.031 C 
ATOM     33  C   UNL A   1      47.083  26.904  27.617  1.00  0.00     0.029 A 
ATOM     34  C   UNL A   1      45.760  27.267  27.366  1.00  0.00     0.049 A 
ATOM     35  H   UNL A   1      44.480  26.137  26.126  1.00  0.00     0.167 HD
ATOM     36  C   UNL A   1      43.649  28.519  27.769  1.00  0.00     0.074 A 
ATOM     37  C   UNL A   1      42.624  27.496  27.569  1.00  0.00     0.031 C 
ATOM     38  C   UNL A   1      45.010  28.460  27.683  1.00  0.00     0.037 A 
BRANCH  25  39
ATOM     39  C   UNL A   1      44.259  23.097  26.825  1.00  0.00     0.057 A 
ATOM     40  C   UNL A   1      44.759  21.989  26.108  1.00  0.00     0.134 A 
ATOM     41  C   UNL A   1      42.861  23.208  26.859  1.00  0.00     0.134 A 
ATOM     42  F   UNL A   1      46.062  21.675  26.094  1.00  0.00    -0.206 F 
ATOM     43  C   UNL A   1      43.935  21.075  25.449  1.00  0.00     0.040 A 
ATOM     44  C   UNL A   1      42.023  22.267  26.245  1.00  0.00     0.040 A 
ATOM     45  F   UNL A   1      42.266  24.193  27.547  1.00  0.00    -0.206 F 
ATOM     46  C   UNL A   1      42.560  21.198  25.535  1.00  0.00     0.006 A 
ENDBRANCH  25  39
BRANCH  26  47
ATOM     47  C   UNL A   1      39.864  29.635  30.368  1.00  0.00     0.057 A 
ATOM     48  C   UNL A   1      38.859  28.657  30.487  1.00  0.00     0.134 A 
ATOM     49  C   UNL A   1      39.421  30.942  30.115  1.00  0.00     0.134 A 
ATOM     50  F   UNL A   1      39.165  27.364  30.660  1.00  0.00    -0.206 F 
ATOM     51  C   UNL A   1      37.501  28.955  30.333  1.00  0.00     0.040 A 
ATOM     52  C   UNL A   1      38.063  31.252  29.955  1.00  0.00     0.040 A 
ATOM     53  F   UNL A   1      40.303  31.937  29.948  1.00  0.00    -0.206 F 
ATOM     54  C   UNL A   1      37.099  30.253  30.049  1.00  0.00     0.006 A 
ENDBRANCH  26  47
BRANCH  38  55
ATOM     55  C   UNL A   1      45.805  29.641  28.178  1.00  0.00     0.057 A 
ATOM     56  C   UNL A   1      46.311  30.547  27.240  1.00  0.00     0.134 A 
ATOM     57  C   UNL A   1      46.235  29.801  29.505  1.00  0.00     0.134 A 
ATOM     58  F   UNL A   1      45.988  30.426  25.943  1.00  0.00    -0.206 F 
ATOM     59  C   UNL A   1      47.208  31.557  27.596  1.00  0.00     0.040 A 
ATOM     60  C   UNL A   1      47.107  30.829  29.882  1.00  0.00     0.040 A 
ATOM     61  F   UNL A   1      45.882  28.931  30.459  1.00  0.00    -0.206 F 
ATOM     62  C   UNL A   1      47.605  31.705  28.922  1.00  0.00     0.006 A 
ENDBRANCH  38  55
ENDBRANCH  12  13
ENDBRANCH   5   7
ENDBRANCH   4   5
ENDBRANCH   3   4
ENDBRANCH   2   3
ENDBRANCH   1   2
BRANCH   1  63
ATOM     63  C   UNL A   1      47.620  20.359  39.284  1.00  0.00     0.202 C 
BRANCH  63  64
ATOM     64  C   UNL A   1      46.991  19.007  39.659  1.00  0.00     0.261 C 
BRANCH  64  65
ATOM     65  O   UNL A   1      45.656  19.159  40.168  1.00  0.00    -0.459 OA
BRANCH  65  66
ATOM     66  C   UNL A   1      45.544  19.083  41.524  1.00  0.00     0.357 C 
ATOM     67  O   UNL A   1      45.737  19.969  42.325  1.00  0.00    -0.244 OA
BRANCH  66  68
ATOM     68  C   UNL A   1      44.956  17.752  41.845  1.00  0.00     0.149 A 
ATOM     69  C   UNL A   1      45.039  17.265  43.118  1.00  0.00     0.041 A 
ATOM     70  N   UNL A   1      44.305  17.108  40.861  1.00  0.00    -0.241 NA
ATOM     71  C   UNL A   1      44.272  16.131  43.475  1.00  0.00    -0.021 A 
ATOM     72  C   UNL A   1      43.655  15.975  41.149  1.00  0.00     0.072 A 
ATOM     73  C   UNL A   1      43.507  15.417  42.455  1.00  0.00     0.012 A 
ATOM     74  C   UNL A   1      43.059  15.400  40.048  1.00  0.00     0.029 A 
ATOM     75  C   UNL A   1      42.562  14.282  42.560  1.00  0.00    -0.009 A 
ATOM     76  C   UNL A   1      42.231  14.294  40.149  1.00  0.00     0.011 A 
ATOM     77  C   UNL A   1      41.946  13.750  41.391  1.00  0.00    -0.018 A 
ATOM     78  C   UNL A   1      42.140  13.650  43.752  1.00  0.00     0.009 A 
ATOM     79  C   UNL A   1      41.014  12.695  41.443  1.00  0.00     0.009 A 
ATOM     80  C   UNL A   1      41.201  12.611  43.811  1.00  0.00     0.001 A 
ATOM     81  C   UNL A   1      40.635  12.130  42.651  1.00  0.00     0.001 A 
BRANCH  71  82
ATOM     82  C   UNL A   1      44.233  15.986  44.977  1.00  0.00     0.115 C 
ATOM     83  C   UNL A   1      44.432  17.162  45.850  1.00  0.00     0.123 C 
ATOM     84  C   UNL A   1      45.167  15.027  45.650  1.00  0.00     0.083 C 
ATOM     85  N   UNL A   1      45.145  16.883  46.894  1.00  0.00    -0.162 NA
ATOM     86  N   UNL A   1      45.611  15.521  46.772  1.00  0.00    -0.154 NA
BRANCH  84  87
ATOM     87  C   UNL A   1      45.431  13.638  45.190  1.00  0.00    -0.001 A 
ATOM     88  C   UNL A   1      46.577  13.410  44.423  1.00  0.00     0.013 A 
ATOM     89  C   UNL A   1      44.597  12.551  45.492  1.00  0.00     0.013 A 
ATOM     90  C   UNL A   1      46.904  12.115  44.009  1.00  0.00     0.040 A 
ATOM     91  C   UNL A   1      44.928  11.256  45.090  1.00  0.00     0.040 A 
ATOM     92  C   UNL A   1      46.083  11.048  44.356  1.00  0.00     0.123 A 
ATOM     93  F   UNL A   1      46.404   9.807  43.971  1.00  0.00    -0.207 F 
ENDBRANCH  84  87
ENDBRANCH  71  82
ENDBRANCH  66  68
ENDBRANCH  65  66
ENDBRANCH  64  65
ENDBRANCH  63  64
ENDBRANCH   1  63
TORSDOF 16
ENDMDL
