MODEL 1
REMARK VINA RESULT:      -9.9      0.000      0.000
REMARK SMILES O=C(OCCOCCOC(=O)c1cccc2nc(Cl)c(Cl)nc12)c1ccc(-c2c3nc(c(-c4c(F)cccc4F)c4ccc([nH]4)c(-c4c(F)cccc4F)c4nc(c(-c5c(F)cccc5F)c5ccc2[nH]5)C=C4)C=C3)cc1
REMARK SMILES IDX 5 1 4 2 3 3 2 4 1 5 24 6 25 7 77 8 26 9 76 10 27 11 28 12
REMARK SMILES IDX 29 13 70 14 30 15 75 16 69 17 71 18 31 19 74 20 68 21 67 22
REMARK SMILES IDX 32 24 58 25 41 26 57 27 42 28 45 29 56 30 72 31 43 32 44 33
REMARK SMILES IDX 55 35 73 36 46 37 33 38 34 39 39 40 35 41 36 42 38 43 40 44
REMARK SMILES IDX 37 45 59 46 60 47 65 48 61 49 62 50 64 51 66 52 63 53 47 54
REMARK SMILES IDX 48 55 53 56 49 57 50 58 52 59 54 60 51 61 6 62 7 63 8 64
REMARK SMILES IDX 9 65 10 66 11 67 12 68 13 69 23 70 14 71 16 72 22 73 15 74
REMARK SMILES IDX 17 75 20 76 18 77 21 78 19 79
REMARK H PARENT 71 23 45 34
REMARK Flexibility Score: inf
ROOT
ATOM      1  C   UNL A   1      33.344  34.127  28.324  1.00  0.00     0.202 C 
ENDROOT
BRANCH   1   2
ATOM      2  C   UNL A   1      34.061  32.821  28.676  1.00  0.00     0.261 C 
BRANCH   2   3
ATOM      3  O   UNL A   1      34.122  31.935  27.555  1.00  0.00    -0.460 OA
BRANCH   3   4
ATOM      4  C   UNL A   1      34.610  30.674  27.527  1.00  0.00     0.338 C 
ATOM      5  O   UNL A   1      33.979  29.839  26.876  1.00  0.00    -0.246 OA
BRANCH   4   6
ATOM      6  C   UNL A   1      35.866  30.209  28.215  1.00  0.00     0.060 A 
ATOM      7  C   UNL A   1      37.061  30.397  27.493  1.00  0.00     0.016 A 
ATOM      8  C   UNL A   1      35.960  29.549  29.446  1.00  0.00     0.016 A 
ATOM      9  C   UNL A   1      38.278  29.893  27.958  1.00  0.00     0.010 A 
ATOM     10  C   UNL A   1      37.162  29.031  29.911  1.00  0.00     0.010 A 
ATOM     11  C   UNL A   1      38.320  29.189  29.162  1.00  0.00    -0.014 A 
BRANCH  11  12
ATOM     12  C   UNL A   1      39.584  28.719  29.740  1.00  0.00     0.031 A 
ATOM     13  C   UNL A   1      40.209  29.428  30.897  1.00  0.00     0.074 A 
ATOM     14  C   UNL A   1      40.205  27.720  29.093  1.00  0.00     0.049 A 
ATOM     15  N   UNL A   1      41.284  29.111  31.568  1.00  0.00    -0.248 NA
ATOM     16  C   UNL A   1      39.561  30.672  31.345  1.00  0.00     0.031 C 
ATOM     17  C   UNL A   1      39.706  27.080  27.870  1.00  0.00     0.029 A 
ATOM     18  N   UNL A   1      41.383  27.085  29.350  1.00  0.00    -0.354 N 
ATOM     19  C   UNL A   1      41.431  30.098  32.533  1.00  0.00     0.074 A 
ATOM     20  C   UNL A   1      40.370  31.060  32.322  1.00  0.00     0.031 C 
ATOM     21  C   UNL A   1      40.571  26.128  27.492  1.00  0.00     0.029 A 
ATOM     22  C   UNL A   1      41.671  26.094  28.446  1.00  0.00     0.049 A 
ATOM     23  H   UNL A   1      41.970  27.314  30.107  1.00  0.00     0.167 HD
ATOM     24  C   UNL A   1      42.366  30.169  33.512  1.00  0.00     0.037 A 
ATOM     25  C   UNL A   1      42.703  25.237  28.418  1.00  0.00     0.037 A 
ATOM     26  C   UNL A   1      43.430  29.205  33.650  1.00  0.00     0.049 A 
ATOM     27  C   UNL A   1      43.694  25.302  29.540  1.00  0.00     0.074 A 
ATOM     28  C   UNL A   1      44.395  29.109  34.636  1.00  0.00     0.029 A 
ATOM     29  N   UNL A   1      43.676  28.175  32.749  1.00  0.00    -0.354 N 
ATOM     30  N   UNL A   1      43.748  26.146  30.544  1.00  0.00    -0.248 NA
ATOM     31  C   UNL A   1      44.747  24.283  29.545  1.00  0.00     0.031 C 
ATOM     32  C   UNL A   1      45.253  28.053  34.303  1.00  0.00     0.029 A 
ATOM     33  C   UNL A   1      44.792  27.454  33.139  1.00  0.00     0.049 A 
ATOM     34  H   UNL A   1      43.135  27.985  31.948  1.00  0.00     0.167 HD
ATOM     35  C   UNL A   1      44.830  25.751  31.315  1.00  0.00     0.074 A 
ATOM     36  C   UNL A   1      45.383  24.573  30.671  1.00  0.00     0.031 C 
ATOM     37  C   UNL A   1      45.326  26.306  32.450  1.00  0.00     0.037 A 
BRANCH  24  38
ATOM     38  C   UNL A   1      42.273  31.305  34.492  1.00  0.00     0.057 A 
ATOM     39  C   UNL A   1      41.455  31.219  35.625  1.00  0.00     0.134 A 
ATOM     40  C   UNL A   1      42.965  32.509  34.294  1.00  0.00     0.134 A 
ATOM     41  F   UNL A   1      40.757  30.102  35.880  1.00  0.00    -0.206 F 
ATOM     42  C   UNL A   1      41.328  32.285  36.522  1.00  0.00     0.040 A 
ATOM     43  C   UNL A   1      42.867  33.572  35.196  1.00  0.00     0.040 A 
ATOM     44  F   UNL A   1      43.772  32.664  33.233  1.00  0.00    -0.206 F 
ATOM     45  C   UNL A   1      42.040  33.464  36.311  1.00  0.00     0.006 A 
ENDBRANCH  24  38
BRANCH  25  46
ATOM     46  C   UNL A   1      42.768  24.207  27.357  1.00  0.00     0.057 A 
ATOM     47  C   UNL A   1      43.330  24.478  26.104  1.00  0.00     0.134 A 
ATOM     48  C   UNL A   1      42.199  22.943  27.549  1.00  0.00     0.134 A 
ATOM     49  F   UNL A   1      43.865  25.681  25.848  1.00  0.00    -0.206 F 
ATOM     50  C   UNL A   1      43.320  23.531  25.078  1.00  0.00     0.040 A 
ATOM     51  C   UNL A   1      42.202  21.978  26.541  1.00  0.00     0.040 A 
ATOM     52  F   UNL A   1      41.643  22.626  28.727  1.00  0.00    -0.206 F 
ATOM     53  C   UNL A   1      42.758  22.275  25.298  1.00  0.00     0.006 A 
ENDBRANCH  25  46
BRANCH  37  54
ATOM     54  C   UNL A   1      46.525  25.627  33.041  1.00  0.00     0.057 A 
ATOM     55  C   UNL A   1      46.372  24.595  33.975  1.00  0.00     0.134 A 
ATOM     56  C   UNL A   1      47.828  25.983  32.672  1.00  0.00     0.134 A 
ATOM     57  F   UNL A   1      45.151  24.214  34.377  1.00  0.00    -0.206 F 
ATOM     58  C   UNL A   1      47.475  23.934  34.513  1.00  0.00     0.040 A 
ATOM     59  C   UNL A   1      48.937  25.307  33.179  1.00  0.00     0.040 A 
ATOM     60  F   UNL A   1      48.039  26.952  31.767  1.00  0.00    -0.206 F 
ATOM     61  C   UNL A   1      48.762  24.280  34.104  1.00  0.00     0.006 A 
ENDBRANCH  37  54
ENDBRANCH  11  12
ENDBRANCH   4   6
ENDBRANCH   3   4
ENDBRANCH   2   3
ENDBRANCH   1   2
BRANCH   1  62
ATOM     62  O   UNL A   1      32.641  34.713  29.417  1.00  0.00    -0.374 OA
BRANCH  62  63
ATOM     63  C   UNL A   1      33.315  35.783  30.075  1.00  0.00     0.202 C 
BRANCH  63  64
ATOM     64  C   UNL A   1      33.163  35.666  31.591  1.00  0.00     0.261 C 
BRANCH  64  65
ATOM     65  O   UNL A   1      34.438  35.364  32.185  1.00  0.00    -0.460 OA
BRANCH  65  66
ATOM     66  C   UNL A   1      34.681  34.058  32.474  1.00  0.00     0.340 C 
ATOM     67  O   UNL A   1      34.106  33.082  32.033  1.00  0.00    -0.246 OA
BRANCH  66  68
ATOM     68  C   UNL A   1      35.833  34.028  33.400  1.00  0.00     0.088 A 
ATOM     69  C   UNL A   1      35.567  33.966  34.775  1.00  0.00     0.018 A 
ATOM     70  C   UNL A   1      37.141  34.119  32.896  1.00  0.00     0.105 A 
ATOM     71  C   UNL A   1      36.619  33.985  35.674  1.00  0.00     0.003 A 
ATOM     72  C   UNL A   1      38.203  34.143  33.838  1.00  0.00     0.091 A 
ATOM     73  N   UNL A   1      37.426  34.241  31.576  1.00  0.00    -0.230 NA
ATOM     74  C   UNL A   1      37.924  34.067  35.195  1.00  0.00     0.031 A 
ATOM     75  N   UNL A   1      39.492  34.273  33.468  1.00  0.00    -0.231 NA
ATOM     76  C   UNL A   1      38.722  34.391  31.213  1.00  0.00     0.167 A 
ATOM     77  C   UNL A   1      39.738  34.403  32.144  1.00  0.00     0.167 A 
ATOM     78  Cl  UNL A   1      38.945  34.657  29.532  1.00  0.00    -0.059 Cl
ATOM     79  Cl  UNL A   1      41.394  34.634  31.763  1.00  0.00    -0.059 Cl
ENDBRANCH  66  68
ENDBRANCH  65  66
ENDBRANCH  64  65
ENDBRANCH  63  64
ENDBRANCH  62  63
ENDBRANCH   1  62
TORSDOF 14
ENDMDL
MODEL 2
REMARK VINA RESULT:      -9.8      6.272     11.204
REMARK SMILES O=C(OCCOCCOC(=O)c1cccc2nc(Cl)c(Cl)nc12)c1ccc(-c2c3nc(c(-c4c(F)cccc4F)c4ccc([nH]4)c(-c4c(F)cccc4F)c4nc(c(-c5c(F)cccc5F)c5ccc2[nH]5)C=C4)C=C3)cc1
REMARK SMILES IDX 5 1 4 2 3 3 2 4 1 5 24 6 25 7 77 8 26 9 76 10 27 11 28 12
REMARK SMILES IDX 29 13 70 14 30 15 75 16 69 17 71 18 31 19 74 20 68 21 67 22
REMARK SMILES IDX 32 24 58 25 41 26 57 27 42 28 45 29 56 30 72 31 43 32 44 33
REMARK SMILES IDX 55 35 73 36 46 37 33 38 34 39 39 40 35 41 36 42 38 43 40 44
REMARK SMILES IDX 37 45 59 46 60 47 65 48 61 49 62 50 64 51 66 52 63 53 47 54
REMARK SMILES IDX 48 55 53 56 49 57 50 58 52 59 54 60 51 61 6 62 7 63 8 64
REMARK SMILES IDX 9 65 10 66 11 67 12 68 13 69 23 70 14 71 16 72 22 73 15 74
REMARK SMILES IDX 17 75 20 76 18 77 21 78 19 79
REMARK H PARENT 71 23 45 34
REMARK Flexibility Score: inf
ROOT
ATOM      1  C   UNL A   1      38.286  20.078  24.816  1.00  0.00     0.202 C 
ENDROOT
BRANCH   1   2
ATOM      2  C   UNL A   1      39.142  19.684  26.022  1.00  0.00     0.261 C 
BRANCH   2   3
ATOM      3  O   UNL A   1      40.330  18.995  25.623  1.00  0.00    -0.460 OA
BRANCH   3   4
ATOM      4  C   UNL A   1      41.609  19.315  25.925  1.00  0.00     0.338 C 
ATOM      5  O   UNL A   1      42.435  18.401  25.926  1.00  0.00    -0.246 OA
BRANCH   4   6
ATOM      6  C   UNL A   1      42.109  20.698  26.248  1.00  0.00     0.060 A 
ATOM      7  C   UNL A   1      42.190  21.013  27.619  1.00  0.00     0.016 A 
ATOM      8  C   UNL A   1      42.423  21.716  25.340  1.00  0.00     0.016 A 
ATOM      9  C   UNL A   1      42.511  22.301  28.051  1.00  0.00     0.010 A 
ATOM     10  C   UNL A   1      42.731  23.004  25.757  1.00  0.00     0.010 A 
ATOM     11  C   UNL A   1      42.761  23.304  27.112  1.00  0.00    -0.014 A 
BRANCH  11  12
ATOM     12  C   UNL A   1      43.192  24.648  27.512  1.00  0.00     0.031 A 
ATOM     13  C   UNL A   1      44.643  25.007  27.556  1.00  0.00     0.074 A 
ATOM     14  C   UNL A   1      42.236  25.476  27.961  1.00  0.00     0.049 A 
ATOM     15  N   UNL A   1      45.192  26.162  27.822  1.00  0.00    -0.248 NA
ATOM     16  C   UNL A   1      45.605  23.924  27.294  1.00  0.00     0.031 C 
ATOM     17  C   UNL A   1      40.815  25.128  28.074  1.00  0.00     0.029 A 
ATOM     18  N   UNL A   1      42.308  26.756  28.424  1.00  0.00    -0.354 N 
ATOM     19  C   UNL A   1      46.562  25.955  27.736  1.00  0.00     0.074 A 
ATOM     20  C   UNL A   1      46.764  24.550  27.454  1.00  0.00     0.031 C 
ATOM     21  C   UNL A   1      40.145  26.182  28.559  1.00  0.00     0.029 A 
ATOM     22  C   UNL A   1      41.088  27.268  28.786  1.00  0.00     0.049 A 
ATOM     23  H   UNL A   1      43.149  27.262  28.493  1.00  0.00     0.167 HD
ATOM     24  C   UNL A   1      47.550  26.875  27.868  1.00  0.00     0.037 A 
ATOM     25  C   UNL A   1      40.774  28.497  29.225  1.00  0.00     0.037 A 
ATOM     26  C   UNL A   1      47.295  28.257  28.193  1.00  0.00     0.049 A 
ATOM     27  C   UNL A   1      41.875  29.509  29.312  1.00  0.00     0.074 A 
ATOM     28  C   UNL A   1      48.188  29.309  28.281  1.00  0.00     0.029 A 
ATOM     29  N   UNL A   1      46.041  28.769  28.509  1.00  0.00    -0.354 N 
ATOM     30  N   UNL A   1      43.158  29.353  29.082  1.00  0.00    -0.248 NA
ATOM     31  C   UNL A   1      41.486  30.871  29.685  1.00  0.00     0.031 C 
ATOM     32  C   UNL A   1      47.481  30.444  28.697  1.00  0.00     0.029 A 
ATOM     33  C   UNL A   1      46.138  30.116  28.816  1.00  0.00     0.049 A 
ATOM     34  H   UNL A   1      45.204  28.249  28.513  1.00  0.00     0.167 HD
ATOM     35  C   UNL A   1      43.732  30.601  29.267  1.00  0.00     0.074 A 
ATOM     36  C   UNL A   1      42.646  31.506  29.599  1.00  0.00     0.031 C 
ATOM     37  C   UNL A   1      45.034  30.972  29.172  1.00  0.00     0.037 A 
BRANCH  24  38
ATOM     38  C   UNL A   1      48.967  26.420  27.657  1.00  0.00     0.057 A 
ATOM     39  C   UNL A   1      49.781  26.059  28.738  1.00  0.00     0.134 A 
ATOM     40  C   UNL A   1      49.546  26.377  26.380  1.00  0.00     0.134 A 
ATOM     41  F   UNL A   1      49.301  26.079  29.990  1.00  0.00    -0.206 F 
ATOM     42  C   UNL A   1      51.114  25.674  28.558  1.00  0.00     0.040 A 
ATOM     43  C   UNL A   1      50.868  25.971  26.183  1.00  0.00     0.040 A 
ATOM     44  F   UNL A   1      48.826  26.704  25.295  1.00  0.00    -0.206 F 
ATOM     45  C   UNL A   1      51.659  25.624  27.276  1.00  0.00     0.006 A 
ENDBRANCH  24  38
BRANCH  25  46
ATOM     46  C   UNL A   1      39.359  28.833  29.503  1.00  0.00     0.057 A 
ATOM     47  C   UNL A   1      38.788  28.622  30.763  1.00  0.00     0.134 A 
ATOM     48  C   UNL A   1      38.523  29.308  28.487  1.00  0.00     0.134 A 
ATOM     49  F   UNL A   1      39.531  28.141  31.771  1.00  0.00    -0.206 F 
ATOM     50  C   UNL A   1      37.435  28.865  31.003  1.00  0.00     0.040 A 
ATOM     51  C   UNL A   1      37.173  29.578  28.717  1.00  0.00     0.040 A 
ATOM     52  F   UNL A   1      39.012  29.527  27.257  1.00  0.00    -0.206 F 
ATOM     53  C   UNL A   1      36.625  29.350  29.977  1.00  0.00     0.006 A 
ENDBRANCH  25  46
BRANCH  37  54
ATOM     54  C   UNL A   1      45.324  32.418  29.438  1.00  0.00     0.057 A 
ATOM     55  C   UNL A   1      45.263  33.360  28.404  1.00  0.00     0.134 A 
ATOM     56  C   UNL A   1      45.647  32.879  30.721  1.00  0.00     0.134 A 
ATOM     57  F   UNL A   1      44.969  32.980  27.152  1.00  0.00    -0.206 F 
ATOM     58  C   UNL A   1      45.502  34.713  28.639  1.00  0.00     0.040 A 
ATOM     59  C   UNL A   1      45.856  34.235  30.974  1.00  0.00     0.040 A 
ATOM     60  F   UNL A   1      45.704  32.027  31.757  1.00  0.00    -0.206 F 
ATOM     61  C   UNL A   1      45.786  35.155  29.931  1.00  0.00     0.006 A 
ENDBRANCH  37  54
ENDBRANCH  11  12
ENDBRANCH   4   6
ENDBRANCH   3   4
ENDBRANCH   2   3
ENDBRANCH   1   2
BRANCH   1  62
ATOM     62  O   UNL A   1      38.041  21.478  24.714  1.00  0.00    -0.374 OA
BRANCH  62  63
ATOM     63  C   UNL A   1      38.261  22.227  25.906  1.00  0.00     0.202 C 
BRANCH  63  64
ATOM     64  C   UNL A   1      37.444  23.517  25.894  1.00  0.00     0.261 C 
BRANCH  64  65
ATOM     65  O   UNL A   1      36.040  23.204  25.933  1.00  0.00    -0.460 OA
BRANCH  65  66
ATOM     66  C   UNL A   1      35.340  23.398  24.784  1.00  0.00     0.340 C 
ATOM     67  O   UNL A   1      35.761  23.815  23.722  1.00  0.00    -0.246 OA
BRANCH  66  68
ATOM     68  C   UNL A   1      33.955  22.955  25.041  1.00  0.00     0.088 A 
ATOM     69  C   UNL A   1      33.013  23.925  25.412  1.00  0.00     0.018 A 
ATOM     70  C   UNL A   1      33.629  21.589  24.969  1.00  0.00     0.105 A 
ATOM     71  C   UNL A   1      31.717  23.540  25.708  1.00  0.00     0.003 A 
ATOM     72  C   UNL A   1      32.296  21.218  25.283  1.00  0.00     0.091 A 
ATOM     73  N   UNL A   1      34.533  20.622  24.672  1.00  0.00    -0.230 NA
ATOM     74  C   UNL A   1      31.373  22.192  25.634  1.00  0.00     0.031 A 
ATOM     75  N   UNL A   1      31.888  19.934  25.288  1.00  0.00    -0.231 NA
ATOM     76  C   UNL A   1      34.120  19.333  24.699  1.00  0.00     0.167 A 
ATOM     77  C   UNL A   1      32.817  18.995  24.998  1.00  0.00     0.167 A 
ATOM     78  Cl  UNL A   1      35.377  18.197  24.426  1.00  0.00    -0.059 Cl
ATOM     79  Cl  UNL A   1      32.235  17.385  25.096  1.00  0.00    -0.059 Cl
ENDBRANCH  66  68
ENDBRANCH  65  66
ENDBRANCH  64  65
ENDBRANCH  63  64
ENDBRANCH  62  63
ENDBRANCH   1  62
TORSDOF 14
ENDMDL
MODEL 3
REMARK VINA RESULT:      -9.8      3.979      7.069
REMARK SMILES O=C(OCCOCCOC(=O)c1cccc2nc(Cl)c(Cl)nc12)c1ccc(-c2c3nc(c(-c4c(F)cccc4F)c4ccc([nH]4)c(-c4c(F)cccc4F)c4nc(c(-c5c(F)cccc5F)c5ccc2[nH]5)C=C4)C=C3)cc1
REMARK SMILES IDX 5 1 4 2 3 3 2 4 1 5 24 6 25 7 77 8 26 9 76 10 27 11 28 12
REMARK SMILES IDX 29 13 70 14 30 15 75 16 69 17 71 18 31 19 74 20 68 21 67 22
REMARK SMILES IDX 32 24 58 25 41 26 57 27 42 28 45 29 56 30 72 31 43 32 44 33
REMARK SMILES IDX 55 35 73 36 46 37 33 38 34 39 39 40 35 41 36 42 38 43 40 44
REMARK SMILES IDX 37 45 59 46 60 47 65 48 61 49 62 50 64 51 66 52 63 53 47 54
REMARK SMILES IDX 48 55 53 56 49 57 50 58 52 59 54 60 51 61 6 62 7 63 8 64
REMARK SMILES IDX 9 65 10 66 11 67 12 68 13 69 23 70 14 71 16 72 22 73 15 74
REMARK SMILES IDX 17 75 20 76 18 77 21 78 19 79
REMARK H PARENT 71 23 45 34
REMARK Flexibility Score: inf
ROOT
ATOM      1  C   UNL A   1      31.367  32.101  26.690  1.00  0.00     0.202 C 
ENDROOT
BRANCH   1   2
ATOM      2  C   UNL A   1      32.525  33.079  26.899  1.00  0.00     0.261 C 
BRANCH   2   3
ATOM      3  O   UNL A   1      32.150  34.164  27.754  1.00  0.00    -0.460 OA
BRANCH   3   4
ATOM      4  C   UNL A   1      32.905  34.764  28.703  1.00  0.00     0.338 C 
ATOM      5  O   UNL A   1      32.599  35.913  29.024  1.00  0.00    -0.246 OA
BRANCH   4   6
ATOM      6  C   UNL A   1      34.078  34.137  29.409  1.00  0.00     0.060 A 
ATOM      7  C   UNL A   1      35.343  34.423  28.860  1.00  0.00     0.016 A 
ATOM      8  C   UNL A   1      34.036  33.251  30.492  1.00  0.00     0.016 A 
ATOM      9  C   UNL A   1      36.499  33.802  29.337  1.00  0.00     0.010 A 
ATOM     10  C   UNL A   1      35.177  32.616  30.966  1.00  0.00     0.010 A 
ATOM     11  C   UNL A   1      36.409  32.879  30.381  1.00  0.00    -0.014 A 
BRANCH  11  12
ATOM     12  C   UNL A   1      37.601  32.269  30.979  1.00  0.00     0.031 A 
ATOM     13  C   UNL A   1      38.215  32.838  32.218  1.00  0.00     0.074 A 
ATOM     14  C   UNL A   1      38.178  31.274  30.287  1.00  0.00     0.049 A 
ATOM     15  N   UNL A   1      39.225  32.387  32.912  1.00  0.00    -0.248 NA
ATOM     16  C   UNL A   1      37.639  34.092  32.730  1.00  0.00     0.031 C 
ATOM     17  C   UNL A   1      37.699  30.769  28.995  1.00  0.00     0.029 A 
ATOM     18  N   UNL A   1      39.289  30.530  30.549  1.00  0.00    -0.354 N 
ATOM     19  C   UNL A   1      39.394  33.285  33.957  1.00  0.00     0.074 A 
ATOM     20  C   UNL A   1      38.421  34.341  33.772  1.00  0.00     0.031 C 
ATOM     21  C   UNL A   1      38.508  29.782  28.586  1.00  0.00     0.029 A 
ATOM     22  C   UNL A   1      39.550  29.590  29.585  1.00  0.00     0.049 A 
ATOM     23  H   UNL A   1      39.850  30.655  31.349  1.00  0.00     0.167 HD
ATOM     24  C   UNL A   1      40.278  33.208  34.982  1.00  0.00     0.037 A 
ATOM     25  C   UNL A   1      40.514  28.657  29.540  1.00  0.00     0.037 A 
ATOM     26  C   UNL A   1      41.257  32.155  35.095  1.00  0.00     0.049 A 
ATOM     27  C   UNL A   1      41.445  28.560  30.709  1.00  0.00     0.074 A 
ATOM     28  C   UNL A   1      42.158  31.910  36.115  1.00  0.00     0.029 A 
ATOM     29  N   UNL A   1      41.472  31.178  34.129  1.00  0.00    -0.354 N 
ATOM     30  N   UNL A   1      41.509  29.320  31.778  1.00  0.00    -0.248 NA
ATOM     31  C   UNL A   1      42.416  27.463  30.685  1.00  0.00     0.031 C 
ATOM     32  C   UNL A   1      42.949  30.817  35.742  1.00  0.00     0.029 A 
ATOM     33  C   UNL A   1      42.507  30.344  34.514  1.00  0.00     0.049 A 
ATOM     34  H   UNL A   1      40.962  31.092  33.291  1.00  0.00     0.167 HD
ATOM     35  C   UNL A   1      42.515  28.784  32.566  1.00  0.00     0.074 A 
ATOM     36  C   UNL A   1      43.011  27.617  31.859  1.00  0.00     0.031 C 
ATOM     37  C   UNL A   1      42.990  29.211  33.763  1.00  0.00     0.037 A 
BRANCH  24  38
ATOM     38  C   UNL A   1      40.218  34.272  36.043  1.00  0.00     0.057 A 
ATOM     39  C   UNL A   1      39.375  34.142  37.153  1.00  0.00     0.134 A 
ATOM     40  C   UNL A   1      40.969  35.453  35.947  1.00  0.00     0.134 A 
ATOM     41  F   UNL A   1      38.621  33.044  37.313  1.00  0.00    -0.206 F 
ATOM     42  C   UNL A   1      39.279  35.143  38.125  1.00  0.00     0.040 A 
ATOM     43  C   UNL A   1      40.903  36.450  36.923  1.00  0.00     0.040 A 
ATOM     44  F   UNL A   1      41.804  35.647  34.913  1.00  0.00    -0.206 F 
ATOM     45  C   UNL A   1      40.050  36.300  38.014  1.00  0.00     0.006 A 
ENDBRANCH  24  38
BRANCH  25  46
ATOM     46  C   UNL A   1      40.557  27.707  28.405  1.00  0.00     0.057 A 
ATOM     47  C   UNL A   1      41.277  27.990  27.238  1.00  0.00     0.134 A 
ATOM     48  C   UNL A   1      39.816  26.521  28.435  1.00  0.00     0.134 A 
ATOM     49  F   UNL A   1      41.984  29.125  27.137  1.00  0.00    -0.206 F 
ATOM     50  C   UNL A   1      41.254  27.130  26.139  1.00  0.00     0.040 A 
ATOM     51  C   UNL A   1      39.802  25.640  27.353  1.00  0.00     0.040 A 
ATOM     52  F   UNL A   1      39.104  26.198  29.525  1.00  0.00    -0.206 F 
ATOM     53  C   UNL A   1      40.517  25.948  26.198  1.00  0.00     0.006 A 
ENDBRANCH  25  46
BRANCH  37  54
ATOM     54  C   UNL A   1      44.100  28.397  34.356  1.00  0.00     0.057 A 
ATOM     55  C   UNL A   1      45.438  28.729  34.112  1.00  0.00     0.134 A 
ATOM     56  C   UNL A   1      43.842  27.296  35.183  1.00  0.00     0.134 A 
ATOM     57  F   UNL A   1      45.750  29.766  33.322  1.00  0.00    -0.206 F 
ATOM     58  C   UNL A   1      46.482  28.000  34.679  1.00  0.00     0.040 A 
ATOM     59  C   UNL A   1      44.879  26.579  35.781  1.00  0.00     0.040 A 
ATOM     60  F   UNL A   1      42.581  26.939  35.469  1.00  0.00    -0.206 F 
ATOM     61  C   UNL A   1      46.203  26.930  35.527  1.00  0.00     0.006 A 
ENDBRANCH  37  54
ENDBRANCH  11  12
ENDBRANCH   4   6
ENDBRANCH   3   4
ENDBRANCH   2   3
ENDBRANCH   1   2
BRANCH   1  62
ATOM     62  O   UNL A   1      31.780  30.752  26.485  1.00  0.00    -0.374 OA
BRANCH  62  63
ATOM     63  C   UNL A   1      32.903  30.332  27.255  1.00  0.00     0.202 C 
BRANCH  63  64
ATOM     64  C   UNL A   1      33.125  28.828  27.112  1.00  0.00     0.261 C 
BRANCH  64  65
ATOM     65  O   UNL A   1      32.489  28.355  25.912  1.00  0.00    -0.460 OA
BRANCH  65  66
ATOM     66  C   UNL A   1      32.006  27.085  25.937  1.00  0.00     0.340 C 
ATOM     67  O   UNL A   1      31.481  26.511  26.871  1.00  0.00    -0.246 OA
BRANCH  66  68
ATOM     68  C   UNL A   1      32.187  26.525  24.582  1.00  0.00     0.088 A 
ATOM     69  C   UNL A   1      31.234  26.851  23.605  1.00  0.00     0.018 A 
ATOM     70  C   UNL A   1      33.255  25.650  24.320  1.00  0.00     0.105 A 
ATOM     71  C   UNL A   1      31.345  26.306  22.337  1.00  0.00     0.003 A 
ATOM     72  C   UNL A   1      33.343  25.100  23.014  1.00  0.00     0.091 A 
ATOM     73  N   UNL A   1      34.156  25.270  25.260  1.00  0.00    -0.230 NA
ATOM     74  C   UNL A   1      32.401  25.443  22.056  1.00  0.00     0.031 A 
ATOM     75  N   UNL A   1      34.300  24.216  22.668  1.00  0.00    -0.231 NA
ATOM     76  C   UNL A   1      35.102  24.367  24.909  1.00  0.00     0.167 A 
ATOM     77  C   UNL A   1      35.174  23.852  23.632  1.00  0.00     0.167 A 
ATOM     78  Cl  UNL A   1      36.106  23.875  26.211  1.00  0.00    -0.059 Cl
ATOM     79  Cl  UNL A   1      36.314  22.673  23.130  1.00  0.00    -0.059 Cl
ENDBRANCH  66  68
ENDBRANCH  65  66
ENDBRANCH  64  65
ENDBRANCH  63  64
ENDBRANCH  62  63
ENDBRANCH   1  62
TORSDOF 14
ENDMDL
