MODEL 1
REMARK VINA RESULT:     -11.5      0.000      0.000
REMARK SMILES Cc1ccc(F)cc1NS(=O)(=O)c1ccc(C(=O)OCCOCCOC(=O)c2ccc(-c3c4nc(c(-c5c(F)cccc5F)c5ccc([nH]5)c(-c5c(F)cccc5F)c5nc(c(-c6c(F)cccc6F)c6ccc3[nH]6)C=C5)C=C4)cc2)cc1
REMARK SMILES IDX 21 1 20 2 19 3 17 4 18 5 16 6 13 7 14 8 83 9 15 10 82 11
REMARK SMILES IDX 10 12 11 13 12 14 9 15 8 17 1 18 2 19 3 20 4 21 7 22 5 23
REMARK SMILES IDX 6 24 22 25 23 26 24 27 25 28 26 29 27 30 28 31 29 32 81 33
REMARK SMILES IDX 30 34 80 35 31 36 32 37 33 38 74 39 34 40 79 41 73 42 75 43
REMARK SMILES IDX 35 44 78 45 72 46 71 47 36 49 62 50 45 51 61 52 46 53 49 54
REMARK SMILES IDX 60 55 76 56 47 57 48 58 59 60 77 61 50 62 37 63 38 64 43 65
REMARK SMILES IDX 39 66 40 67 42 68 44 69 41 70 63 71 64 72 69 73 65 74 66 75
REMARK SMILES IDX 68 76 70 77 67 78 51 79 52 80 57 81 53 82 54 83 56 84 58 85
REMARK SMILES IDX 55 86
REMARK H PARENT 9 16 75 48 49 59
REMARK Flexibility Score: inf
ROOT
ATOM      1  C   UNL A   1      42.164  19.994  26.154  1.00  0.00     0.202 C 
ENDROOT
BRANCH   1   2
ATOM      2  C   UNL A   1      40.708  20.185  26.597  1.00  0.00     0.261 C 
BRANCH   2   3
ATOM      3  O   UNL A   1      39.959  21.043  25.726  1.00  0.00    -0.460 OA
BRANCH   3   4
ATOM      4  C   UNL A   1      39.366  22.103  26.335  1.00  0.00     0.338 C 
ATOM      5  O   UNL A   1      39.855  22.796  27.214  1.00  0.00    -0.246 OA
BRANCH   4   6
ATOM      6  C   UNL A   1      38.038  22.401  25.735  1.00  0.00     0.060 A 
ATOM      7  C   UNL A   1      35.593  23.155  24.585  1.00  0.00     0.087 A 
ATOM      8  C   UNL A   1      36.175  23.971  25.554  1.00  0.00     0.023 A 
ATOM      9  C   UNL A   1      36.198  21.935  24.236  1.00  0.00     0.023 A 
ATOM     10  C   UNL A   1      37.411  23.605  26.101  1.00  0.00     0.017 A 
ATOM     11  C   UNL A   1      37.413  21.553  24.817  1.00  0.00     0.017 A 
BRANCH   7  12
ATOM     12  S   UNL A   1      34.097  23.600  23.734  1.00  0.00     0.261 S 
ATOM     13  O   UNL A   1      34.342  23.313  22.334  1.00  0.00    -0.201 OA
ATOM     14  O   UNL A   1      33.747  24.938  24.159  1.00  0.00    -0.201 OA
BRANCH  12  15
ATOM     15  N   UNL A   1      32.800  22.610  24.138  1.00  0.00    -0.279 N 
ATOM     16  H   UNL A   1      31.953  23.071  24.340  1.00  0.00     0.180 HD
BRANCH  15  17
ATOM     17  C   UNL A   1      32.773  21.186  24.224  1.00  0.00     0.055 A 
ATOM     18  C   UNL A   1      33.555  21.302  26.689  1.00  0.00     0.046 C 
ATOM     19  C   UNL A   1      33.019  20.578  25.479  1.00  0.00    -0.027 A 
ATOM     20  C   UNL A   1      32.835  19.188  25.621  1.00  0.00     0.008 A 
ATOM     21  C   UNL A   1      32.486  18.406  24.527  1.00  0.00     0.039 A 
ATOM     22  C   UNL A   1      32.590  20.368  23.109  1.00  0.00     0.066 A 
ATOM     23  C   UNL A   1      32.404  18.998  23.276  1.00  0.00     0.125 A 
ATOM     24  F   UNL A   1      32.119  18.239  22.210  1.00  0.00    -0.207 F 
ENDBRANCH  15  17
ENDBRANCH  12  15
ENDBRANCH   7  12
ENDBRANCH   4   6
ENDBRANCH   3   4
ENDBRANCH   2   3
ENDBRANCH   1   2
BRANCH   1  25
ATOM     25  O   UNL A   1      42.990  21.152  26.095  1.00  0.00    -0.374 OA
BRANCH  25  26
ATOM     26  C   UNL A   1      44.160  21.096  25.275  1.00  0.00     0.202 C 
BRANCH  26  27
ATOM     27  C   UNL A   1      44.444  22.302  24.370  1.00  0.00     0.261 C 
BRANCH  27  28
ATOM     28  O   UNL A   1      43.661  23.457  24.733  1.00  0.00    -0.460 OA
BRANCH  28  29
ATOM     29  C   UNL A   1      44.378  24.546  25.092  1.00  0.00     0.338 C 
ATOM     30  O   UNL A   1      45.452  24.916  24.636  1.00  0.00    -0.246 OA
BRANCH  29  31
ATOM     31  C   UNL A   1      43.596  25.379  26.021  1.00  0.00     0.060 A 
ATOM     32  C   UNL A   1      43.882  26.749  26.074  1.00  0.00     0.016 A 
ATOM     33  C   UNL A   1      42.663  24.813  26.892  1.00  0.00     0.016 A 
ATOM     34  C   UNL A   1      43.258  27.556  27.024  1.00  0.00     0.010 A 
ATOM     35  C   UNL A   1      42.047  25.622  27.852  1.00  0.00     0.010 A 
ATOM     36  C   UNL A   1      42.364  26.990  27.942  1.00  0.00    -0.014 A 
BRANCH  36  37
ATOM     37  C   UNL A   1      41.864  27.803  29.077  1.00  0.00     0.031 A 
ATOM     38  C   UNL A   1      42.586  27.744  30.395  1.00  0.00     0.074 A 
ATOM     39  C   UNL A   1      40.790  28.599  28.930  1.00  0.00     0.049 A 
ATOM     40  N   UNL A   1      42.298  28.336  31.526  1.00  0.00    -0.248 NA
ATOM     41  C   UNL A   1      43.792  26.905  30.443  1.00  0.00     0.031 C 
ATOM     42  C   UNL A   1      40.029  28.770  27.694  1.00  0.00     0.029 A 
ATOM     43  N   UNL A   1      40.151  29.407  29.836  1.00  0.00    -0.354 N 
ATOM     44  C   UNL A   1      43.282  27.937  32.421  1.00  0.00     0.074 A 
ATOM     45  C   UNL A   1      44.157  27.029  31.711  1.00  0.00     0.031 C 
ATOM     46  C   UNL A   1      39.016  29.624  27.922  1.00  0.00     0.029 A 
ATOM     47  C   UNL A   1      39.041  30.032  29.326  1.00  0.00     0.049 A 
ATOM     48  H   UNL A   1      40.460  29.528  30.764  1.00  0.00     0.167 HD
ATOM     49  C   UNL A   1      43.447  28.300  33.715  1.00  0.00     0.037 A 
ATOM     50  C   UNL A   1      38.135  30.826  29.930  1.00  0.00     0.037 A 
ATOM     51  C   UNL A   1      42.575  29.203  34.421  1.00  0.00     0.049 A 
ATOM     52  C   UNL A   1      38.298  31.157  31.390  1.00  0.00     0.074 A 
ATOM     53  C   UNL A   1      42.671  29.649  35.728  1.00  0.00     0.029 A 
ATOM     54  N   UNL A   1      41.442  29.790  33.880  1.00  0.00    -0.354 N 
ATOM     55  N   UNL A   1      39.246  30.795  32.221  1.00  0.00    -0.248 NA
ATOM     56  C   UNL A   1      37.263  32.009  31.995  1.00  0.00     0.031 C 
ATOM     57  C   UNL A   1      41.567  30.469  35.992  1.00  0.00     0.029 A 
ATOM     58  C   UNL A   1      40.813  30.574  34.834  1.00  0.00     0.049 A 
ATOM     59  H   UNL A   1      41.130  29.668  32.953  1.00  0.00     0.167 HD
ATOM     60  C   UNL A   1      38.938  31.396  33.435  1.00  0.00     0.074 A 
ATOM     61  C   UNL A   1      37.722  32.156  33.230  1.00  0.00     0.031 C 
ATOM     62  C   UNL A   1      39.605  31.327  34.614  1.00  0.00     0.037 A 
BRANCH  49  63
ATOM     63  C   UNL A   1      44.602  27.697  34.460  1.00  0.00     0.057 A 
ATOM     64  C   UNL A   1      45.791  28.403  34.679  1.00  0.00     0.134 A 
ATOM     65  C   UNL A   1      44.512  26.402  34.987  1.00  0.00     0.134 A 
ATOM     66  F   UNL A   1      45.947  29.642  34.189  1.00  0.00    -0.206 F 
ATOM     67  C   UNL A   1      46.860  27.834  35.376  1.00  0.00     0.040 A 
ATOM     68  C   UNL A   1      45.564  25.833  35.708  1.00  0.00     0.040 A 
ATOM     69  F   UNL A   1      43.399  25.674  34.817  1.00  0.00    -0.206 F 
ATOM     70  C   UNL A   1      46.744  26.547  35.899  1.00  0.00     0.006 A 
ENDBRANCH  49  63
BRANCH  50  71
ATOM     71  C   UNL A   1      36.980  31.353  29.161  1.00  0.00     0.057 A 
ATOM     72  C   UNL A   1      36.961  32.673  28.694  1.00  0.00     0.134 A 
ATOM     73  C   UNL A   1      35.861  30.557  28.889  1.00  0.00     0.134 A 
ATOM     74  F   UNL A   1      37.994  33.491  28.944  1.00  0.00    -0.206 F 
ATOM     75  C   UNL A   1      35.865  33.187  27.999  1.00  0.00     0.040 A 
ATOM     76  C   UNL A   1      34.768  31.050  28.174  1.00  0.00     0.040 A 
ATOM     77  F   UNL A   1      35.817  29.284  29.309  1.00  0.00    -0.206 F 
ATOM     78  C   UNL A   1      34.766  32.371  27.732  1.00  0.00     0.006 A 
ENDBRANCH  50  71
BRANCH  62  79
ATOM     79  C   UNL A   1      39.053  32.118  35.765  1.00  0.00     0.057 A 
ATOM     80  C   UNL A   1      38.217  31.540  36.727  1.00  0.00     0.134 A 
ATOM     81  C   UNL A   1      39.397  33.466  35.932  1.00  0.00     0.134 A 
ATOM     82  F   UNL A   1      37.840  30.257  36.618  1.00  0.00    -0.206 F 
ATOM     83  C   UNL A   1      37.724  32.280  37.804  1.00  0.00     0.040 A 
ATOM     84  C   UNL A   1      38.931  34.209  37.018  1.00  0.00     0.040 A 
ATOM     85  F   UNL A   1      40.202  34.079  35.050  1.00  0.00    -0.206 F 
ATOM     86  C   UNL A   1      38.087  33.617  37.954  1.00  0.00     0.006 A 
ENDBRANCH  62  79
ENDBRANCH  36  37
ENDBRANCH  29  31
ENDBRANCH  28  29
ENDBRANCH  27  28
ENDBRANCH  26  27
ENDBRANCH  25  26
ENDBRANCH   1  25
TORSDOF 17
ENDMDL
MODEL 2
REMARK VINA RESULT:     -11.5      1.834      2.857
REMARK SMILES Cc1ccc(F)cc1NS(=O)(=O)c1ccc(C(=O)OCCOCCOC(=O)c2ccc(-c3c4nc(c(-c5c(F)cccc5F)c5ccc([nH]5)c(-c5c(F)cccc5F)c5nc(c(-c6c(F)cccc6F)c6ccc3[nH]6)C=C5)C=C4)cc2)cc1
REMARK SMILES IDX 21 1 20 2 19 3 17 4 18 5 16 6 13 7 14 8 83 9 15 10 82 11
REMARK SMILES IDX 10 12 11 13 12 14 9 15 8 17 1 18 2 19 3 20 4 21 7 22 5 23
REMARK SMILES IDX 6 24 22 25 23 26 24 27 25 28 26 29 27 30 28 31 29 32 81 33
REMARK SMILES IDX 30 34 80 35 31 36 32 37 33 38 74 39 34 40 79 41 73 42 75 43
REMARK SMILES IDX 35 44 78 45 72 46 71 47 36 49 62 50 45 51 61 52 46 53 49 54
REMARK SMILES IDX 60 55 76 56 47 57 48 58 59 60 77 61 50 62 37 63 38 64 43 65
REMARK SMILES IDX 39 66 40 67 42 68 44 69 41 70 63 71 64 72 69 73 65 74 66 75
REMARK SMILES IDX 68 76 70 77 67 78 51 79 52 80 57 81 53 82 54 83 56 84 58 85
REMARK SMILES IDX 55 86
REMARK H PARENT 9 16 75 48 49 59
REMARK Flexibility Score: inf
ROOT
ATOM      1  C   UNL A   1      42.084  19.566  25.756  1.00  0.00     0.202 C 
ENDROOT
BRANCH   1   2
ATOM      2  C   UNL A   1      41.271  20.546  26.611  1.00  0.00     0.261 C 
BRANCH   2   3
ATOM      3  O   UNL A   1      40.128  21.079  25.929  1.00  0.00    -0.460 OA
BRANCH   3   4
ATOM      4  C   UNL A   1      39.510  22.108  26.565  1.00  0.00     0.338 C 
ATOM      5  O   UNL A   1      39.959  22.754  27.499  1.00  0.00    -0.246 OA
BRANCH   4   6
ATOM      6  C   UNL A   1      38.211  22.442  25.920  1.00  0.00     0.060 A 
ATOM      7  C   UNL A   1      35.836  23.255  24.667  1.00  0.00     0.087 A 
ATOM      8  C   UNL A   1      36.480  24.125  25.546  1.00  0.00     0.023 A 
ATOM      9  C   UNL A   1      36.343  21.959  24.463  1.00  0.00     0.023 A 
ATOM     10  C   UNL A   1      37.681  23.725  26.144  1.00  0.00     0.017 A 
ATOM     11  C   UNL A   1      37.522  21.549  25.095  1.00  0.00     0.017 A 
BRANCH   7  12
ATOM     12  S   UNL A   1      34.383  23.719  23.756  1.00  0.00     0.261 S 
ATOM     13  O   UNL A   1      33.260  23.228  24.530  1.00  0.00    -0.201 OA
ATOM     14  O   UNL A   1      34.580  23.284  22.389  1.00  0.00    -0.201 OA
BRANCH  12  15
ATOM     15  N   UNL A   1      34.152  25.383  23.703  1.00  0.00    -0.279 N 
ATOM     16  H   UNL A   1      34.666  25.868  23.016  1.00  0.00     0.180 HD
BRANCH  15  17
ATOM     17  C   UNL A   1      33.305  26.181  24.531  1.00  0.00     0.055 A 
ATOM     18  C   UNL A   1      31.364  25.906  22.840  1.00  0.00     0.046 C 
ATOM     19  C   UNL A   1      31.944  26.324  24.169  1.00  0.00    -0.027 A 
ATOM     20  C   UNL A   1      31.058  26.966  25.056  1.00  0.00     0.008 A 
ATOM     21  C   UNL A   1      31.522  27.519  26.243  1.00  0.00     0.039 A 
ATOM     22  C   UNL A   1      33.781  26.884  25.637  1.00  0.00     0.066 A 
ATOM     23  C   UNL A   1      32.884  27.505  26.503  1.00  0.00     0.125 A 
ATOM     24  F   UNL A   1      33.344  28.083  27.621  1.00  0.00    -0.207 F 
ENDBRANCH  15  17
ENDBRANCH  12  15
ENDBRANCH   7  12
ENDBRANCH   4   6
ENDBRANCH   3   4
ENDBRANCH   2   3
ENDBRANCH   1   2
BRANCH   1  25
ATOM     25  O   UNL A   1      43.392  19.966  25.363  1.00  0.00    -0.374 OA
BRANCH  25  26
ATOM     26  C   UNL A   1      43.811  21.293  25.689  1.00  0.00     0.202 C 
BRANCH  26  27
ATOM     27  C   UNL A   1      44.133  22.236  24.521  1.00  0.00     0.261 C 
BRANCH  27  28
ATOM     28  O   UNL A   1      43.452  23.502  24.635  1.00  0.00    -0.460 OA
BRANCH  28  29
ATOM     29  C   UNL A   1      44.221  24.530  25.062  1.00  0.00     0.338 C 
ATOM     30  O   UNL A   1      45.333  24.848  24.661  1.00  0.00    -0.246 OA
BRANCH  29  31
ATOM     31  C   UNL A   1      43.456  25.376  25.994  1.00  0.00     0.060 A 
ATOM     32  C   UNL A   1      43.797  26.732  26.080  1.00  0.00     0.016 A 
ATOM     33  C   UNL A   1      42.485  24.832  26.836  1.00  0.00     0.016 A 
ATOM     34  C   UNL A   1      43.190  27.545  27.036  1.00  0.00     0.010 A 
ATOM     35  C   UNL A   1      41.885  25.647  27.801  1.00  0.00     0.010 A 
ATOM     36  C   UNL A   1      42.256  26.999  27.925  1.00  0.00    -0.014 A 
BRANCH  36  37
ATOM     37  C   UNL A   1      41.768  27.809  29.067  1.00  0.00     0.031 A 
ATOM     38  C   UNL A   1      42.493  27.732  30.383  1.00  0.00     0.074 A 
ATOM     39  C   UNL A   1      40.703  28.618  28.929  1.00  0.00     0.049 A 
ATOM     40  N   UNL A   1      42.215  28.319  31.519  1.00  0.00    -0.248 NA
ATOM     41  C   UNL A   1      43.690  26.879  30.421  1.00  0.00     0.031 C 
ATOM     42  C   UNL A   1      39.940  28.806  27.697  1.00  0.00     0.029 A 
ATOM     43  N   UNL A   1      40.075  29.426  29.843  1.00  0.00    -0.354 N 
ATOM     44  C   UNL A   1      43.198  27.903  32.408  1.00  0.00     0.074 A 
ATOM     45  C   UNL A   1      44.060  26.990  31.688  1.00  0.00     0.031 C 
ATOM     46  C   UNL A   1      38.937  29.669  27.934  1.00  0.00     0.029 A 
ATOM     47  C   UNL A   1      38.970  30.067  29.341  1.00  0.00     0.049 A 
ATOM     48  H   UNL A   1      40.388  29.536  30.771  1.00  0.00     0.167 HD
ATOM     49  C   UNL A   1      43.370  28.254  33.704  1.00  0.00     0.037 A 
ATOM     50  C   UNL A   1      38.075  30.866  29.953  1.00  0.00     0.037 A 
ATOM     51  C   UNL A   1      42.510  29.162  34.420  1.00  0.00     0.049 A 
ATOM     52  C   UNL A   1      38.246  31.185  31.415  1.00  0.00     0.074 A 
ATOM     53  C   UNL A   1      42.615  29.597  35.729  1.00  0.00     0.029 A 
ATOM     54  N   UNL A   1      41.382  29.765  33.886  1.00  0.00    -0.354 N 
ATOM     55  N   UNL A   1      39.192  30.807  32.240  1.00  0.00    -0.248 NA
ATOM     56  C   UNL A   1      37.223  32.045  32.029  1.00  0.00     0.031 C 
ATOM     57  C   UNL A   1      41.521  30.428  36.002  1.00  0.00     0.029 A 
ATOM     58  C   UNL A   1      40.765  30.549  34.847  1.00  0.00     0.049 A 
ATOM     59  H   UNL A   1      41.066  29.654  32.959  1.00  0.00     0.167 HD
ATOM     60  C   UNL A   1      38.895  31.402  33.460  1.00  0.00     0.074 A 
ATOM     61  C   UNL A   1      37.687  32.177  33.264  1.00  0.00     0.031 C 
ATOM     62  C   UNL A   1      39.565  31.317  34.637  1.00  0.00     0.037 A 
BRANCH  49  63
ATOM     63  C   UNL A   1      44.520  27.633  34.441  1.00  0.00     0.057 A 
ATOM     64  C   UNL A   1      45.741  28.299  34.605  1.00  0.00     0.134 A 
ATOM     65  C   UNL A   1      44.395  26.362  35.017  1.00  0.00     0.134 A 
ATOM     66  F   UNL A   1      45.931  29.514  34.067  1.00  0.00    -0.206 F 
ATOM     67  C   UNL A   1      46.805  27.714  35.296  1.00  0.00     0.040 A 
ATOM     68  C   UNL A   1      45.443  25.778  35.731  1.00  0.00     0.040 A 
ATOM     69  F   UNL A   1      43.251  25.672  34.900  1.00  0.00    -0.206 F 
ATOM     70  C   UNL A   1      46.654  26.452  35.866  1.00  0.00     0.006 A 
ENDBRANCH  49  63
BRANCH  50  71
ATOM     71  C   UNL A   1      36.925  31.412  29.191  1.00  0.00     0.057 A 
ATOM     72  C   UNL A   1      35.826  30.610  28.862  1.00  0.00     0.134 A 
ATOM     73  C   UNL A   1      36.904  32.743  28.757  1.00  0.00     0.134 A 
ATOM     74  F   UNL A   1      35.799  29.321  29.230  1.00  0.00    -0.206 F 
ATOM     75  C   UNL A   1      34.755  31.106  28.117  1.00  0.00     0.040 A 
ATOM     76  C   UNL A   1      35.829  33.260  28.032  1.00  0.00     0.040 A 
ATOM     77  F   UNL A   1      37.927  33.564  29.040  1.00  0.00    -0.206 F 
ATOM     78  C   UNL A   1      34.753  32.438  27.704  1.00  0.00     0.006 A 
ENDBRANCH  50  71
BRANCH  62  79
ATOM     79  C   UNL A   1      39.025  32.106  35.795  1.00  0.00     0.057 A 
ATOM     80  C   UNL A   1      39.288  33.473  35.945  1.00  0.00     0.134 A 
ATOM     81  C   UNL A   1      38.200  31.497  36.748  1.00  0.00     0.134 A 
ATOM     82  F   UNL A   1      40.081  34.113  35.073  1.00  0.00    -0.206 F 
ATOM     83  C   UNL A   1      38.767  34.202  37.016  1.00  0.00     0.040 A 
ATOM     84  C   UNL A   1      37.652  32.221  37.809  1.00  0.00     0.040 A 
ATOM     85  F   UNL A   1      37.901  30.192  36.658  1.00  0.00    -0.206 F 
ATOM     86  C   UNL A   1      37.940  33.576  37.947  1.00  0.00     0.006 A 
ENDBRANCH  62  79
ENDBRANCH  36  37
ENDBRANCH  29  31
ENDBRANCH  28  29
ENDBRANCH  27  28
ENDBRANCH  26  27
ENDBRANCH  25  26
ENDBRANCH   1  25
TORSDOF 17
ENDMDL
MODEL 3
REMARK VINA RESULT:     -11.5      2.221      3.356
REMARK SMILES Cc1ccc(F)cc1NS(=O)(=O)c1ccc(C(=O)OCCOCCOC(=O)c2ccc(-c3c4nc(c(-c5c(F)cccc5F)c5ccc([nH]5)c(-c5c(F)cccc5F)c5nc(c(-c6c(F)cccc6F)c6ccc3[nH]6)C=C5)C=C4)cc2)cc1
REMARK SMILES IDX 21 1 20 2 19 3 17 4 18 5 16 6 13 7 14 8 83 9 15 10 82 11
REMARK SMILES IDX 10 12 11 13 12 14 9 15 8 17 1 18 2 19 3 20 4 21 7 22 5 23
REMARK SMILES IDX 6 24 22 25 23 26 24 27 25 28 26 29 27 30 28 31 29 32 81 33
REMARK SMILES IDX 30 34 80 35 31 36 32 37 33 38 74 39 34 40 79 41 73 42 75 43
REMARK SMILES IDX 35 44 78 45 72 46 71 47 36 49 62 50 45 51 61 52 46 53 49 54
REMARK SMILES IDX 60 55 76 56 47 57 48 58 59 60 77 61 50 62 37 63 38 64 43 65
REMARK SMILES IDX 39 66 40 67 42 68 44 69 41 70 63 71 64 72 69 73 65 74 66 75
REMARK SMILES IDX 68 76 70 77 67 78 51 79 52 80 57 81 53 82 54 83 56 84 58 85
REMARK SMILES IDX 55 86
REMARK H PARENT 9 16 75 48 49 59
REMARK Flexibility Score: inf
ROOT
ATOM      1  C   UNL A   1      40.036  21.519  26.594  1.00  0.00     0.202 C 
ENDROOT
BRANCH   1   2
ATOM      2  C   UNL A   1      39.006  22.555  26.126  1.00  0.00     0.261 C 
BRANCH   2   3
ATOM      3  O   UNL A   1      37.669  22.038  26.066  1.00  0.00    -0.460 OA
BRANCH   3   4
ATOM      4  C   UNL A   1      36.989  22.339  24.929  1.00  0.00     0.338 C 
ATOM      5  O   UNL A   1      37.344  22.087  23.788  1.00  0.00    -0.246 OA
BRANCH   4   6
ATOM      6  C   UNL A   1      35.668  22.952  25.233  1.00  0.00     0.060 A 
ATOM      7  C   UNL A   1      33.114  24.043  25.626  1.00  0.00     0.087 A 
ATOM      8  C   UNL A   1      33.741  24.195  24.390  1.00  0.00     0.023 A 
ATOM      9  C   UNL A   1      33.785  23.402  26.682  1.00  0.00     0.023 A 
ATOM     10  C   UNL A   1      35.003  23.621  24.191  1.00  0.00     0.017 A 
ATOM     11  C   UNL A   1      35.063  22.866  26.490  1.00  0.00     0.017 A 
BRANCH   7  12
ATOM     12  S   UNL A   1      31.460  24.615  25.934  1.00  0.00     0.261 S 
ATOM     13  O   UNL A   1      31.139  24.182  27.280  1.00  0.00    -0.201 OA
ATOM     14  O   UNL A   1      30.647  24.194  24.813  1.00  0.00    -0.201 OA
BRANCH  12  15
ATOM     15  N   UNL A   1      31.354  26.292  26.004  1.00  0.00    -0.279 N 
ATOM     16  H   UNL A   1      30.954  26.665  26.823  1.00  0.00     0.180 HD
BRANCH  15  17
ATOM     17  C   UNL A   1      31.771  27.241  25.023  1.00  0.00     0.055 A 
ATOM     18  C   UNL A   1      33.971  27.647  26.325  1.00  0.00     0.046 C 
ATOM     19  C   UNL A   1      33.071  27.792  25.122  1.00  0.00    -0.027 A 
ATOM     20  C   UNL A   1      33.561  28.600  24.077  1.00  0.00     0.008 A 
ATOM     21  C   UNL A   1      32.754  28.917  22.991  1.00  0.00     0.039 A 
ATOM     22  C   UNL A   1      30.923  27.704  24.016  1.00  0.00     0.066 A 
ATOM     23  C   UNL A   1      31.432  28.496  22.990  1.00  0.00     0.125 A 
ATOM     24  F   UNL A   1      30.635  28.843  21.971  1.00  0.00    -0.207 F 
ENDBRANCH  15  17
ENDBRANCH  12  15
ENDBRANCH   7  12
ENDBRANCH   4   6
ENDBRANCH   3   4
ENDBRANCH   2   3
ENDBRANCH   1   2
BRANCH   1  25
ATOM     25  O   UNL A   1      41.026  21.108  25.658  1.00  0.00    -0.374 OA
BRANCH  25  26
ATOM     26  C   UNL A   1      42.369  20.963  26.128  1.00  0.00     0.202 C 
BRANCH  26  27
ATOM     27  C   UNL A   1      43.465  21.728  25.375  1.00  0.00     0.261 C 
BRANCH  27  28
ATOM     28  O   UNL A   1      42.976  22.949  24.785  1.00  0.00    -0.460 OA
BRANCH  28  29
ATOM     29  C   UNL A   1      43.744  24.041  25.005  1.00  0.00     0.338 C 
ATOM     30  O   UNL A   1      44.788  24.344  24.443  1.00  0.00    -0.246 OA
BRANCH  29  31
ATOM     31  C   UNL A   1      43.056  24.963  25.925  1.00  0.00     0.060 A 
ATOM     32  C   UNL A   1      43.535  26.275  26.018  1.00  0.00     0.016 A 
ATOM     33  C   UNL A   1      42.018  24.523  26.749  1.00  0.00     0.016 A 
ATOM     34  C   UNL A   1      42.999  27.148  26.964  1.00  0.00     0.010 A 
ATOM     35  C   UNL A   1      41.490  25.397  27.705  1.00  0.00     0.010 A 
ATOM     36  C   UNL A   1      41.998  26.703  27.837  1.00  0.00    -0.014 A 
BRANCH  36  37
ATOM     37  C   UNL A   1      41.578  27.561  28.971  1.00  0.00     0.031 A 
ATOM     38  C   UNL A   1      42.336  27.484  30.267  1.00  0.00     0.074 A 
ATOM     39  C   UNL A   1      40.544  28.411  28.842  1.00  0.00     0.049 A 
ATOM     40  N   UNL A   1      42.117  28.110  31.395  1.00  0.00    -0.248 NA
ATOM     41  C   UNL A   1      43.497  26.582  30.294  1.00  0.00     0.031 C 
ATOM     42  C   UNL A   1      39.755  28.602  27.627  1.00  0.00     0.029 A 
ATOM     43  N   UNL A   1      39.978  29.267  29.752  1.00  0.00    -0.354 N 
ATOM     44  C   UNL A   1      43.106  27.674  32.268  1.00  0.00     0.074 A 
ATOM     45  C   UNL A   1      43.908  26.708  31.547  1.00  0.00     0.031 C 
ATOM     46  C   UNL A   1      38.797  29.513  27.870  1.00  0.00     0.029 A 
ATOM     47  C   UNL A   1      38.887  29.942  29.265  1.00  0.00     0.049 A 
ATOM     48  H   UNL A   1      40.322  29.386  30.668  1.00  0.00     0.167 HD
ATOM     49  C   UNL A   1      43.330  28.048  33.549  1.00  0.00     0.037 A 
ATOM     50  C   UNL A   1      38.044  30.794  29.882  1.00  0.00     0.037 A 
ATOM     51  C   UNL A   1      42.530  29.009  34.265  1.00  0.00     0.049 A 
ATOM     52  C   UNL A   1      38.271  31.140  31.329  1.00  0.00     0.074 A 
ATOM     53  C   UNL A   1      42.691  29.471  35.559  1.00  0.00     0.029 A 
ATOM     54  N   UNL A   1      41.414  29.647  33.747  1.00  0.00    -0.354 N 
ATOM     55  N   UNL A   1      39.223  30.742  32.137  1.00  0.00    -0.248 NA
ATOM     56  C   UNL A   1      37.303  32.057  31.950  1.00  0.00     0.031 C 
ATOM     57  C   UNL A   1      41.641  30.354  35.842  1.00  0.00     0.029 A 
ATOM     58  C   UNL A   1      40.858  30.479  34.706  1.00  0.00     0.049 A 
ATOM     59  H   UNL A   1      41.067  29.527  32.833  1.00  0.00     0.167 HD
ATOM     60  C   UNL A   1      38.987  31.379  33.350  1.00  0.00     0.074 A 
ATOM     61  C   UNL A   1      37.807  32.199  33.168  1.00  0.00     0.031 C 
ATOM     62  C   UNL A   1      39.686  31.293  34.509  1.00  0.00     0.037 A 
BRANCH  49  63
ATOM     63  C   UNL A   1      44.474  27.396  34.269  1.00  0.00     0.057 A 
ATOM     64  C   UNL A   1      44.352  26.134  34.864  1.00  0.00     0.134 A 
ATOM     65  C   UNL A   1      45.721  28.029  34.346  1.00  0.00     0.134 A 
ATOM     66  F   UNL A   1      43.181  25.480  34.838  1.00  0.00    -0.206 F 
ATOM     67  C   UNL A   1      45.424  25.534  35.529  1.00  0.00     0.040 A 
ATOM     68  C   UNL A   1      46.807  27.428  34.985  1.00  0.00     0.040 A 
ATOM     69  F   UNL A   1      45.906  29.237  33.793  1.00  0.00    -0.206 F 
ATOM     70  C   UNL A   1      46.658  26.180  35.585  1.00  0.00     0.006 A 
ENDBRANCH  49  63
BRANCH  50  71
ATOM     71  C   UNL A   1      36.896  31.370  29.138  1.00  0.00     0.057 A 
ATOM     72  C   UNL A   1      35.760  30.605  28.850  1.00  0.00     0.134 A 
ATOM     73  C   UNL A   1      36.914  32.694  28.682  1.00  0.00     0.134 A 
ATOM     74  F   UNL A   1      35.694  29.323  29.241  1.00  0.00    -0.206 F 
ATOM     75  C   UNL A   1      34.691  31.128  28.122  1.00  0.00     0.040 A 
ATOM     76  C   UNL A   1      35.842  33.238  27.974  1.00  0.00     0.040 A 
ATOM     77  F   UNL A   1      37.974  33.480  28.925  1.00  0.00    -0.206 F 
ATOM     78  C   UNL A   1      34.728  32.452  27.687  1.00  0.00     0.006 A 
ENDBRANCH  50  71
BRANCH  62  79
ATOM     79  C   UNL A   1      39.213  32.132  35.661  1.00  0.00     0.057 A 
ATOM     80  C   UNL A   1      38.357  31.623  36.646  1.00  0.00     0.134 A 
ATOM     81  C   UNL A   1      39.654  33.454  35.807  1.00  0.00     0.134 A 
ATOM     82  F   UNL A   1      37.890  30.369  36.558  1.00  0.00    -0.206 F 
ATOM     83  C   UNL A   1      37.939  32.406  37.723  1.00  0.00     0.040 A 
ATOM     84  C   UNL A   1      39.262  34.238  36.893  1.00  0.00     0.040 A 
ATOM     85  F   UNL A   1      40.482  34.000  34.904  1.00  0.00    -0.206 F 
ATOM     86  C   UNL A   1      38.397  33.716  37.852  1.00  0.00     0.006 A 
ENDBRANCH  62  79
ENDBRANCH  36  37
ENDBRANCH  29  31
ENDBRANCH  28  29
ENDBRANCH  27  28
ENDBRANCH  26  27
ENDBRANCH  25  26
ENDBRANCH   1  25
TORSDOF 17
ENDMDL
