MODEL 1
REMARK VINA RESULT:     -11.8      0.000      0.000
REMARK SMILES Cc1ccc(S(=O)(=O)n2cc(C(=O)C(=O)N[C@@H](Cc3cnc[nH]3)C(=O)OCCOCCOC(=O)c3ccc(-c4c5nc(c(-c6c(F)cccc6F)c6ccc([nH]6)c(-c6c(F)cccc6F)c6nc(c(-c7c(F)cccc7F)c7ccc4[nH]7)C=C6)C=C5)cc3)c3ccccc32)cc1
REMARK SMILES IDX 27 1 26 2 24 3 25 4 17 5 16 6 14 7 15 8 12 10 13 11 11 12
REMARK SMILES IDX 9 13 10 14 94 15 89 16 93 17 90 18 92 19 91 20 6 21 7 22
REMARK SMILES IDX 8 23 5 24 1 25 2 26 3 27 96 28 4 29 95 30 18 31 19 32 20 33
REMARK SMILES IDX 23 34 21 35 22 36 28 38 29 39 30 40 31 41 32 42 33 43 34 44
REMARK SMILES IDX 35 45 36 46 88 47 37 48 87 49 38 50 39 51 40 52 81 53 41 54
REMARK SMILES IDX 86 55 80 56 82 57 42 58 85 59 79 60 78 61 43 63 69 64 52 65
REMARK SMILES IDX 68 66 53 67 56 68 67 69 83 70 54 71 55 72 66 74 84 75 57 76
REMARK SMILES IDX 44 77 45 78 50 79 46 80 47 81 49 82 51 83 48 84 70 85 71 86
REMARK SMILES IDX 76 87 72 88 73 89 75 90 77 91 74 92 58 93 59 94 64 95 60 96
REMARK SMILES IDX 61 97 63 98 65 99 62 100
REMARK H PARENT 16 9 23 37 82 62 56 73
REMARK Flexibility Score: inf
ROOT
ATOM      1  C   UNL A   1      32.048  27.811  25.838  1.00  0.00     0.261 C 
ENDROOT
BRANCH   1   2
ATOM      2  O   UNL A   1      32.065  26.442  26.213  1.00  0.00    -0.462 OA
BRANCH   2   3
ATOM      3  C   UNL A   1      30.918  25.754  25.899  1.00  0.00     0.329 C 
ATOM      4  O   UNL A   1      29.880  25.780  26.542  1.00  0.00    -0.250 OA
BRANCH   3   5
ATOM      5  C   UNL A   1      31.205  24.830  24.722  1.00  0.00     0.198 C 
BRANCH   5   6
ATOM      6  N   UNL A   1      30.532  23.545  25.001  1.00  0.00    -0.335 N 
ATOM      7  C   UNL A   1      30.766  22.678  26.033  1.00  0.00     0.293 C 
ATOM      8  O   UNL A   1      29.939  21.831  26.349  1.00  0.00    -0.265 OA
ATOM      9  H   UNL A   1      29.827  23.281  24.367  1.00  0.00     0.164 HD
BRANCH   7  10
ATOM     10  C   UNL A   1      32.080  22.788  26.797  1.00  0.00     0.252 C 
ATOM     11  O   UNL A   1      32.056  23.314  27.905  1.00  0.00    -0.283 OA
BRANCH  10  12
ATOM     12  C   UNL A   1      33.306  22.282  26.198  1.00  0.00     0.054 A 
ATOM     13  N   UNL A   1      35.342  22.181  25.307  1.00  0.00    -0.240 N 
ATOM     14  C   UNL A   1      34.458  23.005  25.951  1.00  0.00     0.117 A 
ATOM     15  C   UNL A   1      34.823  20.911  25.164  1.00  0.00     0.065 A 
ATOM     16  C   UNL A   1      33.540  20.953  25.723  1.00  0.00     0.012 A 
ATOM     17  C   UNL A   1      35.324  19.741  24.565  1.00  0.00     0.028 A 
ATOM     18  C   UNL A   1      32.749  19.785  25.712  1.00  0.00     0.011 A 
ATOM     19  C   UNL A   1      34.505  18.609  24.541  1.00  0.00     0.002 A 
ATOM     20  C   UNL A   1      33.239  18.624  25.115  1.00  0.00     0.001 A 
BRANCH  13  21
ATOM     21  S   UNL A   1      36.804  22.737  24.637  1.00  0.00     0.268 S 
ATOM     22  O   UNL A   1      36.863  24.150  24.987  1.00  0.00    -0.201 OA
ATOM     23  O   UNL A   1      36.811  22.285  23.265  1.00  0.00    -0.201 OA
BRANCH  21  24
ATOM     24  C   UNL A   1      38.130  21.915  25.477  1.00  0.00     0.088 A 
ATOM     25  C   UNL A   1      41.504  19.801  27.097  1.00  0.00     0.044 C 
ATOM     26  C   UNL A   1      40.307  20.533  26.567  1.00  0.00    -0.051 A 
ATOM     27  C   UNL A   1      39.413  19.879  25.711  1.00  0.00     0.005 A 
ATOM     28  C   UNL A   1      40.073  21.871  26.909  1.00  0.00     0.005 A 
ATOM     29  C   UNL A   1      38.331  20.567  25.162  1.00  0.00     0.022 A 
ATOM     30  C   UNL A   1      38.980  22.561  26.378  1.00  0.00     0.022 A 
ENDBRANCH  21  24
ENDBRANCH  13  21
ENDBRANCH  10  12
ENDBRANCH   7  10
ENDBRANCH   5   6
BRANCH   5  31
ATOM     31  C   UNL A   1      30.688  25.500  23.438  1.00  0.00     0.092 C 
BRANCH  31  32
ATOM     32  C   UNL A   1      31.651  25.397  22.300  1.00  0.00     0.037 A 
ATOM     33  C   UNL A   1      32.764  24.599  22.133  1.00  0.00     0.134 A 
ATOM     34  N   UNL A   1      31.527  26.076  21.114  1.00  0.00    -0.348 N 
ATOM     35  N   UNL A   1      33.311  24.778  20.895  1.00  0.00    -0.245 NA
ATOM     36  C   UNL A   1      32.573  25.697  20.324  1.00  0.00     0.196 A 
ATOM     37  H   UNL A   1      30.817  26.715  20.878  1.00  0.00     0.167 HD
ENDBRANCH  31  32
ENDBRANCH   5  31
ENDBRANCH   3   5
ENDBRANCH   2   3
ENDBRANCH   1   2
BRANCH   1  38
ATOM     38  C   UNL A   1      33.358  28.238  25.279  1.00  0.00     0.202 C 
BRANCH  38  39
ATOM     39  O   UNL A   1      33.912  29.172  26.185  1.00  0.00    -0.374 OA
BRANCH  39  40
ATOM     40  C   UNL A   1      32.956  29.712  27.086  1.00  0.00     0.202 C 
BRANCH  40  41
ATOM     41  C   UNL A   1      33.184  31.194  27.456  1.00  0.00     0.261 C 
BRANCH  41  42
ATOM     42  O   UNL A   1      34.598  31.492  27.406  1.00  0.00    -0.460 OA
BRANCH  42  43
ATOM     43  C   UNL A   1      35.278  31.506  28.588  1.00  0.00     0.338 C 
ATOM     44  O   UNL A   1      35.379  32.458  29.344  1.00  0.00    -0.246 OA
BRANCH  43  45
ATOM     45  C   UNL A   1      36.174  30.310  28.650  1.00  0.00     0.060 A 
ATOM     46  C   UNL A   1      36.506  29.742  29.894  1.00  0.00     0.016 A 
ATOM     47  C   UNL A   1      36.968  30.045  27.541  1.00  0.00     0.016 A 
ATOM     48  C   UNL A   1      37.746  29.106  30.068  1.00  0.00     0.010 A 
ATOM     49  C   UNL A   1      38.229  29.536  27.752  1.00  0.00     0.010 A 
ATOM     50  C   UNL A   1      38.659  29.123  29.023  1.00  0.00    -0.014 A 
BRANCH  50  51
ATOM     51  C   UNL A   1      40.088  28.789  29.117  1.00  0.00     0.031 A 
ATOM     52  C   UNL A   1      40.467  27.419  28.718  1.00  0.00     0.074 A 
ATOM     53  C   UNL A   1      41.059  29.714  29.350  1.00  0.00     0.049 A 
ATOM     54  N   UNL A   1      41.544  26.835  29.102  1.00  0.00    -0.248 NA
ATOM     55  C   UNL A   1      39.631  26.557  27.885  1.00  0.00     0.031 C 
ATOM     56  C   UNL A   1      42.500  29.624  29.100  1.00  0.00     0.029 A 
ATOM     57  N   UNL A   1      40.951  30.995  29.911  1.00  0.00    -0.354 N 
ATOM     58  C   UNL A   1      41.713  25.724  28.308  1.00  0.00     0.074 A 
ATOM     59  C   UNL A   1      40.434  25.513  27.687  1.00  0.00     0.031 C 
ATOM     60  C   UNL A   1      43.136  30.600  29.783  1.00  0.00     0.029 A 
ATOM     61  C   UNL A   1      42.135  31.273  30.602  1.00  0.00     0.049 A 
ATOM     62  H   UNL A   1      40.176  31.596  29.830  1.00  0.00     0.167 HD
ATOM     63  C   UNL A   1      42.971  25.227  28.139  1.00  0.00     0.037 A 
ATOM     64  C   UNL A   1      42.095  31.482  31.946  1.00  0.00     0.037 A 
ATOM     65  C   UNL A   1      43.948  26.058  28.874  1.00  0.00     0.049 A 
ATOM     66  C   UNL A   1      42.845  30.366  32.607  1.00  0.00     0.074 A 
ATOM     67  C   UNL A   1      44.914  26.978  28.498  1.00  0.00     0.029 A 
ATOM     68  N   UNL A   1      43.769  26.262  30.239  1.00  0.00    -0.354 N 
ATOM     69  N   UNL A   1      43.251  29.321  31.938  1.00  0.00    -0.248 NA
ATOM     70  C   UNL A   1      43.208  30.295  34.010  1.00  0.00     0.031 C 
ATOM     71  C   UNL A   1      45.335  27.695  29.665  1.00  0.00     0.029 A 
ATOM     72  C   UNL A   1      44.631  27.209  30.755  1.00  0.00     0.049 A 
ATOM     73  H   UNL A   1      43.100  25.781  30.779  1.00  0.00     0.167 HD
ATOM     74  C   UNL A   1      43.987  28.506  32.723  1.00  0.00     0.074 A 
ATOM     75  C   UNL A   1      43.846  29.108  34.046  1.00  0.00     0.031 C 
ATOM     76  C   UNL A   1      44.651  27.431  32.200  1.00  0.00     0.037 A 
BRANCH  63  77
ATOM     77  C   UNL A   1      43.347  24.163  27.116  1.00  0.00     0.057 A 
ATOM     78  C   UNL A   1      42.944  24.290  25.774  1.00  0.00     0.134 A 
ATOM     79  C   UNL A   1      44.101  22.995  27.363  1.00  0.00     0.134 A 
ATOM     80  F   UNL A   1      42.308  25.382  25.331  1.00  0.00    -0.206 F 
ATOM     81  C   UNL A   1      43.192  23.312  24.796  1.00  0.00     0.040 A 
ATOM     82  C   UNL A   1      44.310  21.983  26.412  1.00  0.00     0.040 A 
ATOM     83  F   UNL A   1      44.759  22.793  28.507  1.00  0.00    -0.206 F 
ATOM     84  C   UNL A   1      43.853  22.138  25.118  1.00  0.00     0.006 A 
ENDBRANCH  63  77
BRANCH  64  85
ATOM     85  C   UNL A   1      40.820  32.163  32.358  1.00  0.00     0.057 A 
ATOM     86  C   UNL A   1      39.856  31.367  33.012  1.00  0.00     0.134 A 
ATOM     87  C   UNL A   1      40.779  33.525  32.650  1.00  0.00     0.134 A 
ATOM     88  F   UNL A   1      39.753  30.073  32.696  1.00  0.00    -0.206 F 
ATOM     89  C   UNL A   1      39.083  31.835  34.083  1.00  0.00     0.040 A 
ATOM     90  C   UNL A   1      39.961  34.023  33.678  1.00  0.00     0.040 A 
ATOM     91  F   UNL A   1      41.636  34.371  32.061  1.00  0.00    -0.206 F 
ATOM     92  C   UNL A   1      39.179  33.168  34.455  1.00  0.00     0.006 A 
ENDBRANCH  64  85
BRANCH  76  93
ATOM     93  C   UNL A   1      45.326  26.426  33.075  1.00  0.00     0.057 A 
ATOM     94  C   UNL A   1      46.704  26.216  33.073  1.00  0.00     0.134 A 
ATOM     95  C   UNL A   1      44.590  25.650  33.993  1.00  0.00     0.134 A 
ATOM     96  F   UNL A   1      47.482  26.720  32.102  1.00  0.00    -0.206 F 
ATOM     97  C   UNL A   1      47.333  25.471  34.068  1.00  0.00     0.040 A 
ATOM     98  C   UNL A   1      45.199  24.852  34.953  1.00  0.00     0.040 A 
ATOM     99  F   UNL A   1      43.252  25.642  34.032  1.00  0.00    -0.206 F 
ATOM    100  C   UNL A   1      46.580  24.809  35.031  1.00  0.00     0.006 A 
ENDBRANCH  76  93
ENDBRANCH  50  51
ENDBRANCH  43  45
ENDBRANCH  42  43
ENDBRANCH  41  42
ENDBRANCH  40  41
ENDBRANCH  39  40
ENDBRANCH  38  39
ENDBRANCH   1  38
TORSDOF 21
ENDMDL
MODEL 2
REMARK VINA RESULT:     -11.7      1.608      2.299
REMARK SMILES Cc1ccc(S(=O)(=O)n2cc(C(=O)C(=O)N[C@@H](Cc3cnc[nH]3)C(=O)OCCOCCOC(=O)c3ccc(-c4c5nc(c(-c6c(F)cccc6F)c6ccc([nH]6)c(-c6c(F)cccc6F)c6nc(c(-c7c(F)cccc7F)c7ccc4[nH]7)C=C6)C=C5)cc3)c3ccccc32)cc1
REMARK SMILES IDX 27 1 26 2 24 3 25 4 17 5 16 6 14 7 15 8 12 10 13 11 11 12
REMARK SMILES IDX 9 13 10 14 94 15 89 16 93 17 90 18 92 19 91 20 6 21 7 22
REMARK SMILES IDX 8 23 5 24 1 25 2 26 3 27 96 28 4 29 95 30 18 31 19 32 20 33
REMARK SMILES IDX 23 34 21 35 22 36 28 38 29 39 30 40 31 41 32 42 33 43 34 44
REMARK SMILES IDX 35 45 36 46 88 47 37 48 87 49 38 50 39 51 40 52 81 53 41 54
REMARK SMILES IDX 86 55 80 56 82 57 42 58 85 59 79 60 78 61 43 63 69 64 52 65
REMARK SMILES IDX 68 66 53 67 56 68 67 69 83 70 54 71 55 72 66 74 84 75 57 76
REMARK SMILES IDX 44 77 45 78 50 79 46 80 47 81 49 82 51 83 48 84 70 85 71 86
REMARK SMILES IDX 76 87 72 88 73 89 75 90 77 91 74 92 58 93 59 94 64 95 60 96
REMARK SMILES IDX 61 97 63 98 65 99 62 100
REMARK H PARENT 16 9 23 37 82 62 56 73
REMARK Flexibility Score: inf
ROOT
ATOM      1  C   UNL A   1      32.015  27.027  26.856  1.00  0.00     0.261 C 
ENDROOT
BRANCH   1   2
ATOM      2  O   UNL A   1      30.803  26.301  26.708  1.00  0.00    -0.462 OA
BRANCH   2   3
ATOM      3  C   UNL A   1      30.456  26.038  25.406  1.00  0.00     0.329 C 
ATOM      4  O   UNL A   1      29.485  26.499  24.826  1.00  0.00    -0.250 OA
BRANCH   3   5
ATOM      5  C   UNL A   1      31.376  24.953  24.861  1.00  0.00     0.198 C 
BRANCH   5   6
ATOM      6  N   UNL A   1      30.663  23.666  24.996  1.00  0.00    -0.335 N 
ATOM      7  C   UNL A   1      30.833  22.705  25.954  1.00  0.00     0.293 C 
ATOM      8  O   UNL A   1      29.973  21.856  26.159  1.00  0.00    -0.265 OA
ATOM      9  H   UNL A   1      29.980  23.477  24.312  1.00  0.00     0.164 HD
BRANCH   7  10
ATOM     10  C   UNL A   1      32.114  22.712  26.779  1.00  0.00     0.252 C 
ATOM     11  O   UNL A   1      32.057  23.152  27.923  1.00  0.00    -0.283 OA
BRANCH  10  12
ATOM     12  C   UNL A   1      33.350  22.213  26.193  1.00  0.00     0.054 A 
ATOM     13  N   UNL A   1      35.394  22.122  25.320  1.00  0.00    -0.240 N 
ATOM     14  C   UNL A   1      34.497  22.944  25.950  1.00  0.00     0.117 A 
ATOM     15  C   UNL A   1      34.887  20.847  25.182  1.00  0.00     0.065 A 
ATOM     16  C   UNL A   1      33.599  20.882  25.731  1.00  0.00     0.012 A 
ATOM     17  C   UNL A   1      35.403  19.678  24.596  1.00  0.00     0.028 A 
ATOM     18  C   UNL A   1      32.819  19.707  25.722  1.00  0.00     0.011 A 
ATOM     19  C   UNL A   1      34.594  18.537  24.575  1.00  0.00     0.002 A 
ATOM     20  C   UNL A   1      33.324  18.545  25.137  1.00  0.00     0.001 A 
BRANCH  13  21
ATOM     21  S   UNL A   1      36.856  22.687  24.658  1.00  0.00     0.268 S 
ATOM     22  O   UNL A   1      36.890  24.107  24.979  1.00  0.00    -0.201 OA
ATOM     23  O   UNL A   1      36.888  22.207  23.295  1.00  0.00    -0.201 OA
BRANCH  21  24
ATOM     24  C   UNL A   1      38.182  21.902  25.531  1.00  0.00     0.088 A 
ATOM     25  C   UNL A   1      41.578  19.892  27.237  1.00  0.00     0.044 C 
ATOM     26  C   UNL A   1      40.372  20.586  26.676  1.00  0.00    -0.051 A 
ATOM     27  C   UNL A   1      39.537  19.914  25.776  1.00  0.00     0.005 A 
ATOM     28  C   UNL A   1      40.072  21.907  27.033  1.00  0.00     0.005 A 
ATOM     29  C   UNL A   1      38.448  20.569  25.200  1.00  0.00     0.022 A 
ATOM     30  C   UNL A   1      38.973  22.563  26.475  1.00  0.00     0.022 A 
ENDBRANCH  21  24
ENDBRANCH  13  21
ENDBRANCH  10  12
ENDBRANCH   7  10
ENDBRANCH   5   6
BRANCH   5  31
ATOM     31  C   UNL A   1      31.715  25.289  23.400  1.00  0.00     0.092 C 
BRANCH  31  32
ATOM     32  C   UNL A   1      32.339  26.637  23.242  1.00  0.00     0.037 A 
ATOM     33  C   UNL A   1      33.624  27.070  23.503  1.00  0.00     0.134 A 
ATOM     34  N   UNL A   1      31.708  27.727  22.697  1.00  0.00    -0.348 N 
ATOM     35  N   UNL A   1      33.783  28.375  23.137  1.00  0.00    -0.245 NA
ATOM     36  C   UNL A   1      32.608  28.753  22.697  1.00  0.00     0.196 A 
ATOM     37  H   UNL A   1      30.782  27.762  22.368  1.00  0.00     0.167 HD
ENDBRANCH  31  32
ENDBRANCH   5  31
ENDBRANCH   3   5
ENDBRANCH   2   3
ENDBRANCH   1   2
BRANCH   1  38
ATOM     38  C   UNL A   1      31.760  28.431  27.277  1.00  0.00     0.202 C 
BRANCH  38  39
ATOM     39  O   UNL A   1      31.877  29.238  26.122  1.00  0.00    -0.374 OA
BRANCH  39  40
ATOM     40  C   UNL A   1      32.844  30.270  26.255  1.00  0.00     0.202 C 
BRANCH  40  41
ATOM     41  C   UNL A   1      33.898  30.028  27.358  1.00  0.00     0.261 C 
BRANCH  41  42
ATOM     42  O   UNL A   1      34.807  31.150  27.412  1.00  0.00    -0.460 OA
BRANCH  42  43
ATOM     43  C   UNL A   1      34.566  32.107  28.354  1.00  0.00     0.338 C 
ATOM     44  O   UNL A   1      33.656  32.919  28.331  1.00  0.00    -0.246 OA
BRANCH  43  45
ATOM     45  C   UNL A   1      35.774  32.251  29.224  1.00  0.00     0.060 A 
ATOM     46  C   UNL A   1      36.877  33.002  28.779  1.00  0.00     0.016 A 
ATOM     47  C   UNL A   1      35.942  31.326  30.247  1.00  0.00     0.016 A 
ATOM     48  C   UNL A   1      38.174  32.664  29.198  1.00  0.00     0.010 A 
ATOM     49  C   UNL A   1      37.221  30.920  30.552  1.00  0.00     0.010 A 
ATOM     50  C   UNL A   1      38.349  31.534  29.984  1.00  0.00    -0.014 A 
BRANCH  50  51
ATOM     51  C   UNL A   1      39.627  30.861  30.259  1.00  0.00     0.031 A 
ATOM     52  C   UNL A   1      39.869  29.596  29.537  1.00  0.00     0.074 A 
ATOM     53  C   UNL A   1      40.639  31.435  30.966  1.00  0.00     0.049 A 
ATOM     54  N   UNL A   1      40.694  28.694  29.932  1.00  0.00    -0.248 NA
ATOM     55  C   UNL A   1      39.156  29.207  28.323  1.00  0.00     0.031 C 
ATOM     56  C   UNL A   1      42.060  31.078  31.002  1.00  0.00     0.029 A 
ATOM     57  N   UNL A   1      40.597  32.510  31.865  1.00  0.00    -0.354 N 
ATOM     58  C   UNL A   1      40.885  27.826  28.881  1.00  0.00     0.074 A 
ATOM     59  C   UNL A   1      39.800  28.094  27.977  1.00  0.00     0.031 C 
ATOM     60  C   UNL A   1      42.641  31.661  32.072  1.00  0.00     0.029 A 
ATOM     61  C   UNL A   1      41.583  32.309  32.837  1.00  0.00     0.049 A 
ATOM     62  H   UNL A   1      39.980  33.276  31.820  1.00  0.00     0.167 HD
ATOM     63  C   UNL A   1      42.042  27.110  28.827  1.00  0.00     0.037 A 
ATOM     64  C   UNL A   1      41.222  32.158  34.140  1.00  0.00     0.037 A 
ATOM     65  C   UNL A   1      42.911  27.462  29.970  1.00  0.00     0.049 A 
ATOM     66  C   UNL A   1      41.575  30.762  34.556  1.00  0.00     0.074 A 
ATOM     67  C   UNL A   1      44.080  28.195  30.109  1.00  0.00     0.029 A 
ATOM     68  N   UNL A   1      42.411  27.334  31.262  1.00  0.00    -0.354 N 
ATOM     69  N   UNL A   1      41.968  29.867  33.691  1.00  0.00    -0.248 NA
ATOM     70  C   UNL A   1      41.535  30.240  35.909  1.00  0.00     0.031 C 
ATOM     71  C   UNL A   1      44.286  28.458  31.503  1.00  0.00     0.029 A 
ATOM     72  C   UNL A   1      43.248  27.881  32.215  1.00  0.00     0.049 A 
ATOM     73  H   UNL A   1      41.554  26.899  31.474  1.00  0.00     0.167 HD
ATOM     74  C   UNL A   1      42.325  28.724  34.315  1.00  0.00     0.074 A 
ATOM     75  C   UNL A   1      41.937  28.970  35.701  1.00  0.00     0.031 C 
ATOM     76  C   UNL A   1      42.919  27.701  33.629  1.00  0.00     0.037 A 
BRANCH  63  77
ATOM     77  C   UNL A   1      42.498  26.296  27.622  1.00  0.00     0.057 A 
ATOM     78  C   UNL A   1      43.042  26.938  26.493  1.00  0.00     0.134 A 
ATOM     79  C   UNL A   1      42.442  24.892  27.492  1.00  0.00     0.134 A 
ATOM     80  F   UNL A   1      43.267  28.258  26.475  1.00  0.00    -0.206 F 
ATOM     81  C   UNL A   1      43.413  26.258  25.322  1.00  0.00     0.040 A 
ATOM     82  C   UNL A   1      42.757  24.203  26.309  1.00  0.00     0.040 A 
ATOM     83  F   UNL A   1      42.167  24.085  28.519  1.00  0.00    -0.206 F 
ATOM     84  C   UNL A   1      43.245  24.887  25.213  1.00  0.00     0.006 A 
ENDBRANCH  63  77
BRANCH  64  85
ATOM     85  C   UNL A   1      40.012  32.985  34.473  1.00  0.00     0.057 A 
ATOM     86  C   UNL A   1      38.788  32.298  34.608  1.00  0.00     0.134 A 
ATOM     87  C   UNL A   1      40.116  34.181  35.183  1.00  0.00     0.134 A 
ATOM     88  F   UNL A   1      38.565  31.208  33.868  1.00  0.00    -0.206 F 
ATOM     89  C   UNL A   1      37.836  32.623  35.583  1.00  0.00     0.040 A 
ATOM     90  C   UNL A   1      39.138  34.556  36.120  1.00  0.00     0.040 A 
ATOM     91  F   UNL A   1      41.229  34.922  35.102  1.00  0.00    -0.206 F 
ATOM     92  C   UNL A   1      38.042  33.735  36.386  1.00  0.00     0.006 A 
ENDBRANCH  64  85
BRANCH  76  93
ATOM     93  C   UNL A   1      43.162  26.371  34.263  1.00  0.00     0.057 A 
ATOM     94  C   UNL A   1      42.145  25.590  34.811  1.00  0.00     0.134 A 
ATOM     95  C   UNL A   1      44.454  25.810  34.306  1.00  0.00     0.134 A 
ATOM     96  F   UNL A   1      40.923  26.098  35.034  1.00  0.00    -0.206 F 
ATOM     97  C   UNL A   1      42.351  24.256  35.158  1.00  0.00     0.040 A 
ATOM     98  C   UNL A   1      44.688  24.501  34.708  1.00  0.00     0.040 A 
ATOM     99  F   UNL A   1      45.552  26.482  33.938  1.00  0.00    -0.206 F 
ATOM    100  C   UNL A   1      43.622  23.699  35.079  1.00  0.00     0.006 A 
ENDBRANCH  76  93
ENDBRANCH  50  51
ENDBRANCH  43  45
ENDBRANCH  42  43
ENDBRANCH  41  42
ENDBRANCH  40  41
ENDBRANCH  39  40
ENDBRANCH  38  39
ENDBRANCH   1  38
TORSDOF 21
ENDMDL
MODEL 3
REMARK VINA RESULT:     -11.1      1.920      3.043
REMARK SMILES Cc1ccc(S(=O)(=O)n2cc(C(=O)C(=O)N[C@@H](Cc3cnc[nH]3)C(=O)OCCOCCOC(=O)c3ccc(-c4c5nc(c(-c6c(F)cccc6F)c6ccc([nH]6)c(-c6c(F)cccc6F)c6nc(c(-c7c(F)cccc7F)c7ccc4[nH]7)C=C6)C=C5)cc3)c3ccccc32)cc1
REMARK SMILES IDX 27 1 26 2 24 3 25 4 17 5 16 6 14 7 15 8 12 10 13 11 11 12
REMARK SMILES IDX 9 13 10 14 94 15 89 16 93 17 90 18 92 19 91 20 6 21 7 22
REMARK SMILES IDX 8 23 5 24 1 25 2 26 3 27 96 28 4 29 95 30 18 31 19 32 20 33
REMARK SMILES IDX 23 34 21 35 22 36 28 38 29 39 30 40 31 41 32 42 33 43 34 44
REMARK SMILES IDX 35 45 36 46 88 47 37 48 87 49 38 50 39 51 40 52 81 53 41 54
REMARK SMILES IDX 86 55 80 56 82 57 42 58 85 59 79 60 78 61 43 63 69 64 52 65
REMARK SMILES IDX 68 66 53 67 56 68 67 69 83 70 54 71 55 72 66 74 84 75 57 76
REMARK SMILES IDX 44 77 45 78 50 79 46 80 47 81 49 82 51 83 48 84 70 85 71 86
REMARK SMILES IDX 76 87 72 88 73 89 75 90 77 91 74 92 58 93 59 94 64 95 60 96
REMARK SMILES IDX 61 97 63 98 65 99 62 100
REMARK H PARENT 16 9 23 37 82 62 56 73
REMARK Flexibility Score: inf
ROOT
ATOM      1  C   UNL A   1      32.156  28.678  26.720  1.00  0.00     0.261 C 
ENDROOT
BRANCH   1   2
ATOM      2  O   UNL A   1      32.412  27.548  25.899  1.00  0.00    -0.462 OA
BRANCH   2   3
ATOM      3  C   UNL A   1      31.737  26.412  26.272  1.00  0.00     0.329 C 
ATOM      4  O   UNL A   1      30.675  26.387  26.874  1.00  0.00    -0.250 OA
BRANCH   3   5
ATOM      5  C   UNL A   1      32.607  25.199  25.966  1.00  0.00     0.198 C 
BRANCH   5   6
ATOM      6  N   UNL A   1      31.708  24.122  25.503  1.00  0.00    -0.335 N 
ATOM      7  C   UNL A   1      31.589  22.852  25.998  1.00  0.00     0.293 C 
ATOM      8  O   UNL A   1      30.598  22.171  25.764  1.00  0.00    -0.265 OA
ATOM      9  H   UNL A   1      31.122  24.346  24.745  1.00  0.00     0.164 HD
BRANCH   7  10
ATOM     10  C   UNL A   1      32.714  22.296  26.862  1.00  0.00     0.252 C 
ATOM     11  O   UNL A   1      32.669  22.510  28.070  1.00  0.00    -0.283 OA
BRANCH  10  12
ATOM     12  C   UNL A   1      33.796  21.546  26.241  1.00  0.00     0.054 A 
ATOM     13  N   UNL A   1      35.769  21.007  25.368  1.00  0.00    -0.240 N 
ATOM     14  C   UNL A   1      35.096  21.978  26.060  1.00  0.00     0.117 A 
ATOM     15  C   UNL A   1      34.959  19.917  25.126  1.00  0.00     0.065 A 
ATOM     16  C   UNL A   1      33.710  20.236  25.673  1.00  0.00     0.012 A 
ATOM     17  C   UNL A   1      35.175  18.704  24.449  1.00  0.00     0.028 A 
ATOM     18  C   UNL A   1      32.658  19.302  25.568  1.00  0.00     0.011 A 
ATOM     19  C   UNL A   1      34.104  17.812  24.333  1.00  0.00     0.002 A 
ATOM     20  C   UNL A   1      32.865  18.100  24.892  1.00  0.00     0.001 A 
BRANCH  13  21
ATOM     21  S   UNL A   1      37.342  21.230  24.757  1.00  0.00     0.268 S 
ATOM     22  O   UNL A   1      37.152  21.810  23.434  1.00  0.00    -0.201 OA
ATOM     23  O   UNL A   1      38.028  19.973  24.953  1.00  0.00    -0.201 OA
BRANCH  21  24
ATOM     24  C   UNL A   1      38.147  22.441  25.769  1.00  0.00     0.088 A 
ATOM     25  C   UNL A   1      39.701  25.419  28.451  1.00  0.00     0.044 C 
ATOM     26  C   UNL A   1      39.187  24.390  27.488  1.00  0.00    -0.051 A 
ATOM     27  C   UNL A   1      38.042  24.658  26.729  1.00  0.00     0.005 A 
ATOM     28  C   UNL A   1      39.832  23.156  27.343  1.00  0.00     0.005 A 
ATOM     29  C   UNL A   1      37.519  23.686  25.875  1.00  0.00     0.022 A 
ATOM     30  C   UNL A   1      39.324  22.185  26.476  1.00  0.00     0.022 A 
ENDBRANCH  21  24
ENDBRANCH  13  21
ENDBRANCH  10  12
ENDBRANCH   7  10
ENDBRANCH   5   6
BRANCH   5  31
ATOM     31  C   UNL A   1      33.645  25.598  24.904  1.00  0.00     0.092 C 
BRANCH  31  32
ATOM     32  C   UNL A   1      33.461  24.875  23.609  1.00  0.00     0.037 A 
ATOM     33  C   UNL A   1      32.932  25.302  22.408  1.00  0.00     0.134 A 
ATOM     34  N   UNL A   1      33.894  23.596  23.365  1.00  0.00    -0.348 N 
ATOM     35  N   UNL A   1      33.030  24.327  21.459  1.00  0.00    -0.245 NA
ATOM     36  C   UNL A   1      33.572  23.304  22.071  1.00  0.00     0.196 A 
ATOM     37  H   UNL A   1      34.350  23.002  24.003  1.00  0.00     0.167 HD
ENDBRANCH  31  32
ENDBRANCH   5  31
ENDBRANCH   3   5
ENDBRANCH   2   3
ENDBRANCH   1   2
BRANCH   1  38
ATOM     38  C   UNL A   1      33.254  28.900  27.698  1.00  0.00     0.202 C 
BRANCH  38  39
ATOM     39  O   UNL A   1      34.033  29.975  27.210  1.00  0.00    -0.374 OA
BRANCH  39  40
ATOM     40  C   UNL A   1      33.410  31.240  27.379  1.00  0.00     0.202 C 
BRANCH  40  41
ATOM     41  C   UNL A   1      34.334  32.343  27.943  1.00  0.00     0.261 C 
BRANCH  41  42
ATOM     42  O   UNL A   1      34.814  31.949  29.248  1.00  0.00    -0.460 OA
BRANCH  42  43
ATOM     43  C   UNL A   1      34.775  32.886  30.239  1.00  0.00     0.338 C 
ATOM     44  O   UNL A   1      33.860  33.663  30.452  1.00  0.00    -0.246 OA
BRANCH  43  45
ATOM     45  C   UNL A   1      36.153  33.068  30.792  1.00  0.00     0.060 A 
ATOM     46  C   UNL A   1      37.153  33.671  30.008  1.00  0.00     0.016 A 
ATOM     47  C   UNL A   1      36.514  32.289  31.883  1.00  0.00     0.016 A 
ATOM     48  C   UNL A   1      38.498  33.307  30.181  1.00  0.00     0.010 A 
ATOM     49  C   UNL A   1      37.814  31.843  31.961  1.00  0.00     0.010 A 
ATOM     50  C   UNL A   1      38.806  32.291  31.074  1.00  0.00    -0.014 A 
BRANCH  50  51
ATOM     51  C   UNL A   1      40.088  31.577  31.165  1.00  0.00     0.031 A 
ATOM     52  C   UNL A   1      40.250  30.407  30.278  1.00  0.00     0.074 A 
ATOM     53  C   UNL A   1      41.162  32.051  31.854  1.00  0.00     0.049 A 
ATOM     54  N   UNL A   1      41.086  29.457  30.494  1.00  0.00    -0.248 NA
ATOM     55  C   UNL A   1      39.438  30.176  29.085  1.00  0.00     0.031 C 
ATOM     56  C   UNL A   1      42.574  31.679  31.734  1.00  0.00     0.029 A 
ATOM     57  N   UNL A   1      41.209  33.009  32.877  1.00  0.00    -0.354 N 
ATOM     58  C   UNL A   1      41.179  28.722  29.335  1.00  0.00     0.074 A 
ATOM     59  C   UNL A   1      40.033  29.109  28.557  1.00  0.00     0.031 C 
ATOM     60  C   UNL A   1      43.248  32.121  32.818  1.00  0.00     0.029 A 
ATOM     61  C   UNL A   1      42.264  32.681  33.737  1.00  0.00     0.049 A 
ATOM     62  H   UNL A   1      40.606  33.781  32.974  1.00  0.00     0.167 HD
ATOM     63  C   UNL A   1      42.315  28.007  29.103  1.00  0.00     0.037 A 
ATOM     64  C   UNL A   1      42.000  32.376  35.036  1.00  0.00     0.037 A 
ATOM     65  C   UNL A   1      43.276  28.209  30.209  1.00  0.00     0.049 A 
ATOM     66  C   UNL A   1      42.358  30.937  35.251  1.00  0.00     0.074 A 
ATOM     67  C   UNL A   1      44.465  28.908  30.344  1.00  0.00     0.029 A 
ATOM     68  N   UNL A   1      42.874  27.928  31.511  1.00  0.00    -0.354 N 
ATOM     69  N   UNL A   1      42.667  30.150  34.256  1.00  0.00    -0.248 NA
ATOM     70  C   UNL A   1      42.413  30.253  36.531  1.00  0.00     0.031 C 
ATOM     71  C   UNL A   1      44.783  28.997  31.738  1.00  0.00     0.029 A 
ATOM     72  C   UNL A   1      43.792  28.347  32.455  1.00  0.00     0.049 A 
ATOM     73  H   UNL A   1      42.028  27.479  31.736  1.00  0.00     0.167 HD
ATOM     74  C   UNL A   1      43.049  28.936  34.707  1.00  0.00     0.074 A 
ATOM     75  C   UNL A   1      42.774  29.015  36.139  1.00  0.00     0.031 C 
ATOM     76  C   UNL A   1      43.569  27.999  33.858  1.00  0.00     0.037 A 
BRANCH  63  77
ATOM     77  C   UNL A   1      42.661  27.342  27.777  1.00  0.00     0.057 A 
ATOM     78  C   UNL A   1      42.987  25.974  27.729  1.00  0.00     0.134 A 
ATOM     79  C   UNL A   1      42.693  27.967  26.511  1.00  0.00     0.134 A 
ATOM     80  F   UNL A   1      42.911  25.194  28.815  1.00  0.00    -0.206 F 
ATOM     81  C   UNL A   1      43.387  25.315  26.555  1.00  0.00     0.040 A 
ATOM     82  C   UNL A   1      43.143  27.338  25.340  1.00  0.00     0.040 A 
ATOM     83  F   UNL A   1      42.211  29.194  26.304  1.00  0.00    -0.206 F 
ATOM     84  C   UNL A   1      43.494  26.002  25.357  1.00  0.00     0.006 A 
ENDBRANCH  63  77
BRANCH  64  85
ATOM     85  C   UNL A   1      40.836  33.168  35.561  1.00  0.00     0.057 A 
ATOM     86  C   UNL A   1      39.630  32.465  35.768  1.00  0.00     0.134 A 
ATOM     87  C   UNL A   1      41.018  34.302  36.350  1.00  0.00     0.134 A 
ATOM     88  F   UNL A   1      39.327  31.438  34.970  1.00  0.00    -0.206 F 
ATOM     89  C   UNL A   1      38.788  32.706  36.862  1.00  0.00     0.040 A 
ATOM     90  C   UNL A   1      40.147  34.596  37.413  1.00  0.00     0.040 A 
ATOM     91  F   UNL A   1      42.120  35.054  36.213  1.00  0.00    -0.206 F 
ATOM     92  C   UNL A   1      39.082  33.751  37.726  1.00  0.00     0.006 A 
ENDBRANCH  64  85
BRANCH  76  93
ATOM     93  C   UNL A   1      43.835  26.599  34.305  1.00  0.00     0.057 A 
ATOM     94  C   UNL A   1      42.824  25.706  34.655  1.00  0.00     0.134 A 
ATOM     95  C   UNL A   1      45.148  26.090  34.362  1.00  0.00     0.134 A 
ATOM     96  F   UNL A   1      41.566  26.125  34.859  1.00  0.00    -0.206 F 
ATOM     97  C   UNL A   1      43.072  24.344  34.816  1.00  0.00     0.040 A 
ATOM     98  C   UNL A   1      45.419  24.745  34.583  1.00  0.00     0.040 A 
ATOM     99  F   UNL A   1      46.233  26.852  34.179  1.00  0.00    -0.206 F 
ATOM    100  C   UNL A   1      44.372  23.855  34.750  1.00  0.00     0.006 A 
ENDBRANCH  76  93
ENDBRANCH  50  51
ENDBRANCH  43  45
ENDBRANCH  42  43
ENDBRANCH  41  42
ENDBRANCH  40  41
ENDBRANCH  39  40
ENDBRANCH  38  39
ENDBRANCH   1  38
TORSDOF 21
ENDMDL
