MODEL 1
REMARK VINA RESULT:     -11.0      0.000      0.000
REMARK SMILES COc1cc(C)cc2c1O[C@H](C(F)(F)F)C(C(=O)OCCOCCOC(=O)c1ccc(-c3c4nc(c(-c5c(F)cccc5F)c5ccc([nH]5)c(-c5c(F)cccc5F)c5nc(c(-c6c(F)cccc6F)c6ccc3[nH]6)C=C5)C=C4)cc1)=C2
REMARK SMILES IDX 23 1 22 2 21 3 20 4 19 5 17 6 18 7 16 8 3 9 4 10 9 11 5 12
REMARK SMILES IDX 8 13 10 14 6 15 7 16 82 17 11 18 2 19 1 20 12 21 13 22 14 23
REMARK SMILES IDX 15 24 24 25 25 26 26 27 27 28 28 29 29 30 81 31 30 32 80 33
REMARK SMILES IDX 31 34 32 35 33 36 74 37 34 38 79 39 73 40 75 41 35 42 78 43
REMARK SMILES IDX 72 44 71 45 36 47 62 48 45 49 61 50 46 51 49 52 60 53 76 54
REMARK SMILES IDX 47 55 48 56 59 58 77 59 50 60 37 61 38 62 43 63 39 64 40 65
REMARK SMILES IDX 42 66 44 67 41 68 63 69 64 70 69 71 65 72 66 73 68 74 70 75
REMARK SMILES IDX 67 76 51 77 52 78 57 79 53 80 54 81 56 82 58 83 55 84
REMARK H PARENT 75 46 49 57
REMARK Flexibility Score: inf
ROOT
ATOM      1  C   UNL A   1      31.048  31.554  25.928  1.00  0.00     0.202 C 
ENDROOT
BRANCH   1   2
ATOM      2  O   UNL A   1      31.576  30.267  25.610  1.00  0.00    -0.374 OA
BRANCH   2   3
ATOM      3  C   UNL A   1      32.927  29.978  25.957  1.00  0.00     0.202 C 
BRANCH   3   4
ATOM      4  C   UNL A   1      33.262  28.559  26.426  1.00  0.00     0.261 C 
BRANCH   4   5
ATOM      5  O   UNL A   1      32.706  27.555  25.566  1.00  0.00    -0.460 OA
BRANCH   5   6
ATOM      6  C   UNL A   1      31.907  26.662  26.199  1.00  0.00     0.338 C 
ATOM      7  O   UNL A   1      30.923  26.913  26.874  1.00  0.00    -0.246 OA
BRANCH   6   8
ATOM      8  C   UNL A   1      32.319  25.289  25.857  1.00  0.00     0.087 C 
ATOM      9  C   UNL A   1      33.741  21.624  24.464  1.00  0.00     0.161 A 
ATOM     10  C   UNL A   1      35.120  21.375  24.499  1.00  0.00     0.054 A 
ATOM     11  C   UNL A   1      33.235  22.812  25.014  1.00  0.00     0.169 A 
ATOM     12  C   UNL A   1      35.993  22.281  25.115  1.00  0.00    -0.047 A 
ATOM     13  C   UNL A   1      34.107  23.727  25.608  1.00  0.00     0.021 A 
ATOM     14  O   UNL A   1      31.881  23.007  24.959  1.00  0.00    -0.471 OA
ATOM     15  C   UNL A   1      37.475  22.044  25.142  1.00  0.00     0.044 C 
ATOM     16  C   UNL A   1      35.475  23.449  25.683  1.00  0.00     0.015 A 
ATOM     17  C   UNL A   1      33.609  25.008  26.070  1.00  0.00     0.027 C 
ATOM     18  C   UNL A   1      31.335  24.315  25.272  1.00  0.00     0.316 C 
BRANCH   9  19
ATOM     19  O   UNL A   1      32.839  20.812  23.824  1.00  0.00    -0.493 OA
ATOM     20  C   UNL A   1      32.538  19.586  24.477  1.00  0.00     0.278 C 
ENDBRANCH   9  19
BRANCH  18  21
ATOM     21  C   UNL A   1      30.632  24.864  24.022  1.00  0.00     0.430 C 
ATOM     22  F   UNL A   1      29.557  25.621  24.349  1.00  0.00    -0.167 F 
ATOM     23  F   UNL A   1      31.454  25.661  23.297  1.00  0.00    -0.167 F 
ATOM     24  F   UNL A   1      30.205  23.877  23.202  1.00  0.00    -0.167 F 
ENDBRANCH  18  21
ENDBRANCH   6   8
ENDBRANCH   5   6
ENDBRANCH   4   5
ENDBRANCH   3   4
ENDBRANCH   2   3
ENDBRANCH   1   2
BRANCH   1  25
ATOM     25  C   UNL A   1      31.571  32.276  27.176  1.00  0.00     0.261 C 
BRANCH  25  26
ATOM     26  O   UNL A   1      32.588  33.247  26.880  1.00  0.00    -0.460 OA
BRANCH  26  27
ATOM     27  C   UNL A   1      33.091  33.895  27.959  1.00  0.00     0.338 C 
ATOM     28  O   UNL A   1      32.563  34.790  28.601  1.00  0.00    -0.246 OA
BRANCH  27  29
ATOM     29  C   UNL A   1      34.328  33.222  28.394  1.00  0.00     0.060 A 
ATOM     30  C   UNL A   1      35.553  33.889  28.378  1.00  0.00     0.016 A 
ATOM     31  C   UNL A   1      34.237  31.906  28.868  1.00  0.00     0.016 A 
ATOM     32  C   UNL A   1      36.687  33.240  28.867  1.00  0.00     0.010 A 
ATOM     33  C   UNL A   1      35.372  31.261  29.357  1.00  0.00     0.010 A 
ATOM     34  C   UNL A   1      36.602  31.932  29.380  1.00  0.00    -0.014 A 
BRANCH  34  35
ATOM     35  C   UNL A   1      37.772  31.331  30.064  1.00  0.00     0.031 A 
ATOM     36  C   UNL A   1      38.108  31.656  31.487  1.00  0.00     0.074 A 
ATOM     37  C   UNL A   1      38.545  30.474  29.367  1.00  0.00     0.049 A 
ATOM     38  N   UNL A   1      39.036  31.138  32.252  1.00  0.00    -0.248 NA
ATOM     39  C   UNL A   1      37.305  32.702  32.134  1.00  0.00     0.031 C 
ATOM     40  C   UNL A   1      38.347  30.120  27.960  1.00  0.00     0.029 A 
ATOM     41  N   UNL A   1      39.639  29.742  29.747  1.00  0.00    -0.354 N 
ATOM     42  C   UNL A   1      38.916  31.775  33.479  1.00  0.00     0.074 A 
ATOM     43  C   UNL A   1      37.862  32.760  33.337  1.00  0.00     0.031 C 
ATOM     44  C   UNL A   1      39.264  29.205  27.608  1.00  0.00     0.029 A 
ATOM     45  C   UNL A   1      40.130  28.936  28.750  1.00  0.00     0.049 A 
ATOM     46  H   UNL A   1      40.034  29.788  30.648  1.00  0.00     0.167 HD
ATOM     47  C   UNL A   1      39.606  31.544  34.623  1.00  0.00     0.037 A 
ATOM     48  C   UNL A   1      41.164  28.074  28.756  1.00  0.00     0.037 A 
ATOM     49  C   UNL A   1      40.680  30.587  34.748  1.00  0.00     0.049 A 
ATOM     50  C   UNL A   1      41.951  27.882  30.023  1.00  0.00     0.074 A 
ATOM     51  C   UNL A   1      41.418  30.258  35.872  1.00  0.00     0.029 A 
ATOM     52  N   UNL A   1      41.183  29.820  33.705  1.00  0.00    -0.354 N 
ATOM     53  N   UNL A   1      41.767  28.421  31.203  1.00  0.00    -0.248 NA
ATOM     54  C   UNL A   1      43.088  26.955  29.955  1.00  0.00     0.031 C 
ATOM     55  C   UNL A   1      42.406  29.339  35.496  1.00  0.00     0.029 A 
ATOM     56  C   UNL A   1      42.245  29.048  34.152  1.00  0.00     0.049 A 
ATOM     57  H   UNL A   1      40.838  29.825  32.784  1.00  0.00     0.167 HD
ATOM     58  C   UNL A   1      42.747  27.881  32.024  1.00  0.00     0.074 A 
ATOM     59  C   UNL A   1      43.505  26.951  31.212  1.00  0.00     0.031 C 
ATOM     60  C   UNL A   1      43.001  28.134  33.332  1.00  0.00     0.037 A 
BRANCH  47  61
ATOM     61  C   UNL A   1      39.227  32.352  35.832  1.00  0.00     0.057 A 
ATOM     62  C   UNL A   1      38.317  31.858  36.774  1.00  0.00     0.134 A 
ATOM     63  C   UNL A   1      39.744  33.638  36.049  1.00  0.00     0.134 A 
ATOM     64  F   UNL A   1      37.773  30.642  36.624  1.00  0.00    -0.206 F 
ATOM     65  C   UNL A   1      37.938  32.609  37.890  1.00  0.00     0.040 A 
ATOM     66  C   UNL A   1      39.396  34.386  37.176  1.00  0.00     0.040 A 
ATOM     67  F   UNL A   1      40.624  34.172  35.188  1.00  0.00    -0.206 F 
ATOM     68  C   UNL A   1      38.486  33.873  38.098  1.00  0.00     0.006 A 
ENDBRANCH  47  61
BRANCH  48  69
ATOM     69  C   UNL A   1      41.508  27.310  27.531  1.00  0.00     0.057 A 
ATOM     70  C   UNL A   1      42.345  27.848  26.548  1.00  0.00     0.134 A 
ATOM     71  C   UNL A   1      41.033  26.008  27.333  1.00  0.00     0.134 A 
ATOM     72  F   UNL A   1      42.826  29.093  26.674  1.00  0.00    -0.206 F 
ATOM     73  C   UNL A   1      42.701  27.119  25.412  1.00  0.00     0.040 A 
ATOM     74  C   UNL A   1      41.406  25.256  26.217  1.00  0.00     0.040 A 
ATOM     75  F   UNL A   1      40.239  25.431  28.247  1.00  0.00    -0.206 F 
ATOM     76  C   UNL A   1      42.240  25.814  25.251  1.00  0.00     0.006 A 
ENDBRANCH  48  69
BRANCH  60  77
ATOM     77  C   UNL A   1      44.132  27.370  33.964  1.00  0.00     0.057 A 
ATOM     78  C   UNL A   1      45.433  27.891  33.966  1.00  0.00     0.134 A 
ATOM     79  C   UNL A   1      43.937  26.124  34.575  1.00  0.00     0.134 A 
ATOM     80  F   UNL A   1      45.695  29.075  33.393  1.00  0.00    -0.206 F 
ATOM     81  C   UNL A   1      46.495  27.204  34.558  1.00  0.00     0.040 A 
ATOM     82  C   UNL A   1      44.984  25.443  35.199  1.00  0.00     0.040 A 
ATOM     83  F   UNL A   1      42.714  25.573  34.623  1.00  0.00    -0.206 F 
ATOM     84  C   UNL A   1      46.270  25.982  35.188  1.00  0.00     0.006 A 
ENDBRANCH  60  77
ENDBRANCH  34  35
ENDBRANCH  27  29
ENDBRANCH  26  27
ENDBRANCH  25  26
ENDBRANCH   1  25
TORSDOF 16
ENDMDL
MODEL 2
REMARK VINA RESULT:     -11.0      3.852      9.028
REMARK SMILES COc1cc(C)cc2c1O[C@H](C(F)(F)F)C(C(=O)OCCOCCOC(=O)c1ccc(-c3c4nc(c(-c5c(F)cccc5F)c5ccc([nH]5)c(-c5c(F)cccc5F)c5nc(c(-c6c(F)cccc6F)c6ccc3[nH]6)C=C5)C=C4)cc1)=C2
REMARK SMILES IDX 23 1 22 2 21 3 20 4 19 5 17 6 18 7 16 8 3 9 4 10 9 11 5 12
REMARK SMILES IDX 8 13 10 14 6 15 7 16 82 17 11 18 2 19 1 20 12 21 13 22 14 23
REMARK SMILES IDX 15 24 24 25 25 26 26 27 27 28 28 29 29 30 81 31 30 32 80 33
REMARK SMILES IDX 31 34 32 35 33 36 74 37 34 38 79 39 73 40 75 41 35 42 78 43
REMARK SMILES IDX 72 44 71 45 36 47 62 48 45 49 61 50 46 51 49 52 60 53 76 54
REMARK SMILES IDX 47 55 48 56 59 58 77 59 50 60 37 61 38 62 43 63 39 64 40 65
REMARK SMILES IDX 42 66 44 67 41 68 63 69 64 70 69 71 65 72 66 73 68 74 70 75
REMARK SMILES IDX 67 76 51 77 52 78 57 79 53 80 54 81 56 82 58 83 55 84
REMARK H PARENT 75 46 49 57
REMARK Flexibility Score: inf
ROOT
ATOM      1  C   UNL A   1      38.540  21.371  25.741  1.00  0.00     0.202 C 
ENDROOT
BRANCH   1   2
ATOM      2  O   UNL A   1      37.189  21.505  25.303  1.00  0.00    -0.374 OA
BRANCH   2   3
ATOM      3  C   UNL A   1      36.934  22.148  24.057  1.00  0.00     0.202 C 
BRANCH   3   4
ATOM      4  C   UNL A   1      36.037  23.389  24.058  1.00  0.00     0.261 C 
BRANCH   4   5
ATOM      5  O   UNL A   1      34.653  23.062  24.245  1.00  0.00    -0.460 OA
BRANCH   5   6
ATOM      6  C   UNL A   1      34.092  23.628  25.340  1.00  0.00     0.338 C 
ATOM      7  O   UNL A   1      34.170  23.226  26.490  1.00  0.00    -0.246 OA
BRANCH   6   8
ATOM      8  C   UNL A   1      33.456  24.906  24.975  1.00  0.00     0.087 C 
ATOM      9  C   UNL A   1      31.387  28.483  24.414  1.00  0.00     0.161 A 
ATOM     10  C   UNL A   1      31.664  29.565  25.261  1.00  0.00     0.054 A 
ATOM     11  C   UNL A   1      32.139  27.303  24.526  1.00  0.00     0.169 A 
ATOM     12  C   UNL A   1      32.709  29.495  26.191  1.00  0.00    -0.047 A 
ATOM     13  C   UNL A   1      33.167  27.223  25.468  1.00  0.00     0.021 A 
ATOM     14  O   UNL A   1      31.833  26.276  23.673  1.00  0.00    -0.471 OA
ATOM     15  C   UNL A   1      33.005  30.634  27.122  1.00  0.00     0.044 C 
ATOM     16  C   UNL A   1      33.467  28.323  26.276  1.00  0.00     0.015 A 
ATOM     17  C   UNL A   1      33.866  25.970  25.673  1.00  0.00     0.027 C 
ATOM     18  C   UNL A   1      32.393  24.959  23.914  1.00  0.00     0.316 C 
BRANCH   9  19
ATOM     19  O   UNL A   1      30.342  28.462  23.526  1.00  0.00    -0.493 OA
ATOM     20  C   UNL A   1      30.496  29.272  22.369  1.00  0.00     0.278 C 
ENDBRANCH   9  19
BRANCH  18  21
ATOM     21  C   UNL A   1      31.240  23.980  24.182  1.00  0.00     0.430 C 
ATOM     22  F   UNL A   1      30.843  24.023  25.477  1.00  0.00    -0.167 F 
ATOM     23  F   UNL A   1      30.148  24.279  23.437  1.00  0.00    -0.167 F 
ATOM     24  F   UNL A   1      31.580  22.702  23.899  1.00  0.00    -0.167 F 
ENDBRANCH  18  21
ENDBRANCH   6   8
ENDBRANCH   5   6
ENDBRANCH   4   5
ENDBRANCH   3   4
ENDBRANCH   2   3
ENDBRANCH   1   2
BRANCH   1  25
ATOM     25  C   UNL A   1      39.298  20.081  25.404  1.00  0.00     0.261 C 
BRANCH  25  26
ATOM     26  O   UNL A   1      40.270  19.723  26.400  1.00  0.00    -0.460 OA
BRANCH  26  27
ATOM     27  C   UNL A   1      41.562  19.897  26.027  1.00  0.00     0.338 C 
ATOM     28  O   UNL A   1      42.204  19.222  25.237  1.00  0.00    -0.246 OA
BRANCH  27  29
ATOM     29  C   UNL A   1      42.056  21.172  26.574  1.00  0.00     0.060 A 
ATOM     30  C   UNL A   1      42.485  22.198  25.732  1.00  0.00     0.016 A 
ATOM     31  C   UNL A   1      42.041  21.347  27.965  1.00  0.00     0.016 A 
ATOM     32  C   UNL A   1      42.877  23.416  26.289  1.00  0.00     0.010 A 
ATOM     33  C   UNL A   1      42.431  22.567  28.518  1.00  0.00     0.010 A 
ATOM     34  C   UNL A   1      42.831  23.618  27.682  1.00  0.00    -0.014 A 
BRANCH  34  35
ATOM     35  C   UNL A   1      43.069  24.971  28.239  1.00  0.00     0.031 A 
ATOM     36  C   UNL A   1      44.442  25.440  28.614  1.00  0.00     0.074 A 
ATOM     37  C   UNL A   1      42.009  25.785  28.409  1.00  0.00     0.049 A 
ATOM     38  N   UNL A   1      44.824  26.625  29.018  1.00  0.00    -0.248 NA
ATOM     39  C   UNL A   1      45.524  24.451  28.533  1.00  0.00     0.031 C 
ATOM     40  C   UNL A   1      40.618  25.421  28.127  1.00  0.00     0.029 A 
ATOM     41  N   UNL A   1      41.934  27.081  28.845  1.00  0.00    -0.354 N 
ATOM     42  C   UNL A   1      46.194  26.535  29.218  1.00  0.00     0.074 A 
ATOM     43  C   UNL A   1      46.566  25.161  28.946  1.00  0.00     0.031 C 
ATOM     44  C   UNL A   1      39.834  26.485  28.358  1.00  0.00     0.029 A 
ATOM     45  C   UNL A   1      40.659  27.589  28.835  1.00  0.00     0.049 A 
ATOM     46  H   UNL A   1      42.720  27.599  29.138  1.00  0.00     0.167 HD
ATOM     47  C   UNL A   1      47.063  27.514  29.574  1.00  0.00     0.037 A 
ATOM     48  C   UNL A   1      40.205  28.811  29.170  1.00  0.00     0.037 A 
ATOM     49  C   UNL A   1      46.681  28.872  29.879  1.00  0.00     0.049 A 
ATOM     50  C   UNL A   1      41.184  29.859  29.619  1.00  0.00     0.074 A 
ATOM     51  C   UNL A   1      47.491  29.942  30.217  1.00  0.00     0.029 A 
ATOM     52  N   UNL A   1      45.374  29.341  29.903  1.00  0.00    -0.354 N 
ATOM     53  N   UNL A   1      42.489  29.789  29.712  1.00  0.00    -0.248 NA
ATOM     54  C   UNL A   1      40.622  31.160  30.004  1.00  0.00     0.031 C 
ATOM     55  C   UNL A   1      46.671  31.041  30.506  1.00  0.00     0.029 A 
ATOM     56  C   UNL A   1      45.354  30.673  30.287  1.00  0.00     0.049 A 
ATOM     57  H   UNL A   1      44.579  28.805  29.682  1.00  0.00     0.167 HD
ATOM     58  C   UNL A   1      42.907  31.041  30.143  1.00  0.00     0.074 A 
ATOM     59  C   UNL A   1      41.717  31.858  30.264  1.00  0.00     0.031 C 
ATOM     60  C   UNL A   1      44.163  31.476  30.417  1.00  0.00     0.037 A 
BRANCH  47  61
ATOM     61  C   UNL A   1      48.517  27.145  29.664  1.00  0.00     0.057 A 
ATOM     62  C   UNL A   1      49.356  27.237  28.547  1.00  0.00     0.134 A 
ATOM     63  C   UNL A   1      49.083  26.668  30.856  1.00  0.00     0.134 A 
ATOM     64  F   UNL A   1      48.881  27.673  27.371  1.00  0.00    -0.206 F 
ATOM     65  C   UNL A   1      50.704  26.874  28.612  1.00  0.00     0.040 A 
ATOM     66  C   UNL A   1      50.435  26.330  30.941  1.00  0.00     0.040 A 
ATOM     67  F   UNL A   1      48.337  26.557  31.966  1.00  0.00    -0.206 F 
ATOM     68  C   UNL A   1      51.249  26.429  29.814  1.00  0.00     0.006 A 
ENDBRANCH  47  61
BRANCH  48  69
ATOM     69  C   UNL A   1      38.756  29.122  29.077  1.00  0.00     0.057 A 
ATOM     70  C   UNL A   1      37.920  29.037  30.196  1.00  0.00     0.134 A 
ATOM     71  C   UNL A   1      38.182  29.545  27.873  1.00  0.00     0.134 A 
ATOM     72  F   UNL A   1      38.407  28.629  31.377  1.00  0.00    -0.206 F 
ATOM     73  C   UNL A   1      36.565  29.364  30.122  1.00  0.00     0.040 A 
ATOM     74  C   UNL A   1      36.835  29.905  27.792  1.00  0.00     0.040 A 
ATOM     75  F   UNL A   1      38.935  29.662  26.769  1.00  0.00    -0.206 F 
ATOM     76  C   UNL A   1      36.023  29.811  28.920  1.00  0.00     0.006 A 
ENDBRANCH  48  69
BRANCH  60  77
ATOM     77  C   UNL A   1      44.305  32.908  30.851  1.00  0.00     0.057 A 
ATOM     78  C   UNL A   1      44.513  33.924  29.907  1.00  0.00     0.134 A 
ATOM     79  C   UNL A   1      44.232  33.287  32.198  1.00  0.00     0.134 A 
ATOM     80  F   UNL A   1      44.601  33.634  28.601  1.00  0.00    -0.206 F 
ATOM     81  C   UNL A   1      44.635  35.262  30.289  1.00  0.00     0.040 A 
ATOM     82  C   UNL A   1      44.319  34.625  32.588  1.00  0.00     0.040 A 
ATOM     83  F   UNL A   1      44.018  32.368  33.153  1.00  0.00    -0.206 F 
ATOM     84  C   UNL A   1      44.527  35.617  31.631  1.00  0.00     0.006 A 
ENDBRANCH  60  77
ENDBRANCH  34  35
ENDBRANCH  27  29
ENDBRANCH  26  27
ENDBRANCH  25  26
ENDBRANCH   1  25
TORSDOF 16
ENDMDL
MODEL 3
REMARK VINA RESULT:     -11.0      2.825      8.078
REMARK SMILES COc1cc(C)cc2c1O[C@H](C(F)(F)F)C(C(=O)OCCOCCOC(=O)c1ccc(-c3c4nc(c(-c5c(F)cccc5F)c5ccc([nH]5)c(-c5c(F)cccc5F)c5nc(c(-c6c(F)cccc6F)c6ccc3[nH]6)C=C5)C=C4)cc1)=C2
REMARK SMILES IDX 23 1 22 2 21 3 20 4 19 5 17 6 18 7 16 8 3 9 4 10 9 11 5 12
REMARK SMILES IDX 8 13 10 14 6 15 7 16 82 17 11 18 2 19 1 20 12 21 13 22 14 23
REMARK SMILES IDX 15 24 24 25 25 26 26 27 27 28 28 29 29 30 81 31 30 32 80 33
REMARK SMILES IDX 31 34 32 35 33 36 74 37 34 38 79 39 73 40 75 41 35 42 78 43
REMARK SMILES IDX 72 44 71 45 36 47 62 48 45 49 61 50 46 51 49 52 60 53 76 54
REMARK SMILES IDX 47 55 48 56 59 58 77 59 50 60 37 61 38 62 43 63 39 64 40 65
REMARK SMILES IDX 42 66 44 67 41 68 63 69 64 70 69 71 65 72 66 73 68 74 70 75
REMARK SMILES IDX 67 76 51 77 52 78 57 79 53 80 54 81 56 82 58 83 55 84
REMARK H PARENT 75 46 49 57
REMARK Flexibility Score: inf
ROOT
ATOM      1  C   UNL A   1      41.389  20.761  26.187  1.00  0.00     0.202 C 
ENDROOT
BRANCH   1   2
ATOM      2  O   UNL A   1      40.322  21.439  26.849  1.00  0.00    -0.374 OA
BRANCH   2   3
ATOM      3  C   UNL A   1      39.141  21.741  26.112  1.00  0.00     0.202 C 
BRANCH   3   4
ATOM      4  C   UNL A   1      38.677  23.199  26.061  1.00  0.00     0.261 C 
BRANCH   4   5
ATOM      5  O   UNL A   1      37.249  23.319  26.127  1.00  0.00    -0.460 OA
BRANCH   5   6
ATOM      6  C   UNL A   1      36.614  23.043  24.963  1.00  0.00     0.338 C 
ATOM      7  O   UNL A   1      37.073  22.440  24.006  1.00  0.00    -0.246 OA
BRANCH   6   8
ATOM      8  C   UNL A   1      35.206  23.470  25.045  1.00  0.00     0.087 C 
ATOM      9  C   UNL A   1      31.292  24.686  25.816  1.00  0.00     0.161 A 
ATOM     10  C   UNL A   1      31.073  25.964  26.349  1.00  0.00     0.054 A 
ATOM     11  C   UNL A   1      32.592  24.295  25.462  1.00  0.00     0.169 A 
ATOM     12  C   UNL A   1      32.133  26.868  26.493  1.00  0.00    -0.047 A 
ATOM     13  C   UNL A   1      33.654  25.187  25.627  1.00  0.00     0.021 A 
ATOM     14  O   UNL A   1      32.754  23.038  24.942  1.00  0.00    -0.471 OA
ATOM     15  C   UNL A   1      31.922  28.232  27.084  1.00  0.00     0.044 C 
ATOM     16  C   UNL A   1      33.420  26.476  26.114  1.00  0.00     0.015 A 
ATOM     17  C   UNL A   1      35.014  24.750  25.378  1.00  0.00     0.027 C 
ATOM     18  C   UNL A   1      34.091  22.490  24.804  1.00  0.00     0.316 C 
BRANCH   9  19
ATOM     19  O   UNL A   1      30.313  23.732  25.705  1.00  0.00    -0.493 OA
ATOM     20  C   UNL A   1      30.061  22.965  26.875  1.00  0.00     0.278 C 
ENDBRANCH   9  19
BRANCH  18  21
ATOM     21  C   UNL A   1      34.201  21.240  25.689  1.00  0.00     0.430 C 
ATOM     22  F   UNL A   1      34.762  21.527  26.888  1.00  0.00    -0.167 F 
ATOM     23  F   UNL A   1      32.983  20.708  25.954  1.00  0.00    -0.167 F 
ATOM     24  F   UNL A   1      34.945  20.270  25.110  1.00  0.00    -0.167 F 
ENDBRANCH  18  21
ENDBRANCH   6   8
ENDBRANCH   5   6
ENDBRANCH   4   5
ENDBRANCH   3   4
ENDBRANCH   2   3
ENDBRANCH   1   2
BRANCH   1  25
ATOM     25  C   UNL A   1      42.625  21.568  25.768  1.00  0.00     0.261 C 
BRANCH  25  26
ATOM     26  O   UNL A   1      42.311  22.911  25.367  1.00  0.00    -0.460 OA
BRANCH  26  27
ATOM     27  C   UNL A   1      43.264  23.831  25.657  1.00  0.00     0.338 C 
ATOM     28  O   UNL A   1      44.363  23.951  25.139  1.00  0.00    -0.246 OA
BRANCH  27  29
ATOM     29  C   UNL A   1      42.705  24.829  26.586  1.00  0.00     0.060 A 
ATOM     30  C   UNL A   1      41.669  24.497  27.459  1.00  0.00     0.016 A 
ATOM     31  C   UNL A   1      43.272  26.111  26.603  1.00  0.00     0.016 A 
ATOM     32  C   UNL A   1      41.219  25.451  28.373  1.00  0.00     0.010 A 
ATOM     33  C   UNL A   1      42.820  27.061  27.518  1.00  0.00     0.010 A 
ATOM     34  C   UNL A   1      41.805  26.730  28.426  1.00  0.00    -0.014 A 
BRANCH  34  35
ATOM     35  C   UNL A   1      41.444  27.662  29.522  1.00  0.00     0.031 A 
ATOM     36  C   UNL A   1      40.299  28.619  29.399  1.00  0.00     0.074 A 
ATOM     37  C   UNL A   1      42.182  27.633  30.649  1.00  0.00     0.049 A 
ATOM     38  N   UNL A   1      39.799  29.424  30.303  1.00  0.00    -0.248 NA
ATOM     39  C   UNL A   1      39.633  28.690  28.092  1.00  0.00     0.031 C 
ATOM     40  C   UNL A   1      43.352  26.779  30.865  1.00  0.00     0.029 A 
ATOM     41  N   UNL A   1      42.053  28.328  31.823  1.00  0.00    -0.354 N 
ATOM     42  C   UNL A   1      38.744  30.081  29.686  1.00  0.00     0.074 A 
ATOM     43  C   UNL A   1      38.714  29.622  28.311  1.00  0.00     0.031 C 
ATOM     44  C   UNL A   1      43.807  26.971  32.112  1.00  0.00     0.029 A 
ATOM     45  C   UNL A   1      42.986  27.982  32.768  1.00  0.00     0.049 A 
ATOM     46  H   UNL A   1      41.357  29.010  31.973  1.00  0.00     0.167 HD
ATOM     47  C   UNL A   1      37.870  30.967  30.222  1.00  0.00     0.037 A 
ATOM     48  C   UNL A   1      43.157  28.428  34.027  1.00  0.00     0.037 A 
ATOM     49  C   UNL A   1      37.928  31.447  31.582  1.00  0.00     0.049 A 
ATOM     50  C   UNL A   1      42.208  29.456  34.576  1.00  0.00     0.074 A 
ATOM     51  C   UNL A   1      37.069  32.320  32.228  1.00  0.00     0.029 A 
ATOM     52  N   UNL A   1      38.913  31.111  32.500  1.00  0.00    -0.354 N 
ATOM     53  N   UNL A   1      41.157  29.999  34.013  1.00  0.00    -0.248 NA
ATOM     54  C   UNL A   1      42.471  29.928  35.942  1.00  0.00     0.031 C 
ATOM     55  C   UNL A   1      37.569  32.559  33.514  1.00  0.00     0.029 A 
ATOM     56  C   UNL A   1      38.704  31.788  33.693  1.00  0.00     0.049 A 
ATOM     57  H   UNL A   1      39.653  30.485  32.329  1.00  0.00     0.167 HD
ATOM     58  C   UNL A   1      40.619  30.858  34.963  1.00  0.00     0.074 A 
ATOM     59  C   UNL A   1      41.445  30.739  36.147  1.00  0.00     0.031 C 
ATOM     60  C   UNL A   1      39.540  31.673  34.863  1.00  0.00     0.037 A 
BRANCH  47  61
ATOM     61  C   UNL A   1      36.778  31.486  29.328  1.00  0.00     0.057 A 
ATOM     62  C   UNL A   1      35.691  30.678  28.973  1.00  0.00     0.134 A 
ATOM     63  C   UNL A   1      36.819  32.782  28.794  1.00  0.00     0.134 A 
ATOM     64  F   UNL A   1      35.594  29.423  29.436  1.00  0.00    -0.206 F 
ATOM     65  C   UNL A   1      34.683  31.140  28.124  1.00  0.00     0.040 A 
ATOM     66  C   UNL A   1      35.801  33.266  27.968  1.00  0.00     0.040 A 
ATOM     67  F   UNL A   1      37.829  33.612  29.096  1.00  0.00    -0.206 F 
ATOM     68  C   UNL A   1      34.731  32.441  27.627  1.00  0.00     0.006 A 
ENDBRANCH  47  61
BRANCH  48  69
ATOM     69  C   UNL A   1      44.261  27.894  34.865  1.00  0.00     0.057 A 
ATOM     70  C   UNL A   1      45.520  28.504  34.886  1.00  0.00     0.134 A 
ATOM     71  C   UNL A   1      44.069  26.782  35.692  1.00  0.00     0.134 A 
ATOM     72  F   UNL A   1      45.771  29.569  34.110  1.00  0.00    -0.206 F 
ATOM     73  C   UNL A   1      46.548  28.028  35.700  1.00  0.00     0.040 A 
ATOM     74  C   UNL A   1      45.078  26.314  36.534  1.00  0.00     0.040 A 
ATOM     75  F   UNL A   1      42.878  26.164  35.728  1.00  0.00    -0.206 F 
ATOM     76  C   UNL A   1      46.324  26.937  36.537  1.00  0.00     0.006 A 
ENDBRANCH  48  69
BRANCH  60  77
ATOM     77  C   UNL A   1      39.184  32.480  36.081  1.00  0.00     0.057 A 
ATOM     78  C   UNL A   1      38.314  31.964  37.051  1.00  0.00     0.134 A 
ATOM     79  C   UNL A   1      39.704  33.763  36.301  1.00  0.00     0.134 A 
ATOM     80  F   UNL A   1      37.772  30.746  36.903  1.00  0.00    -0.206 F 
ATOM     81  C   UNL A   1      37.981  32.692  38.195  1.00  0.00     0.040 A 
ATOM     82  C   UNL A   1      39.405  34.485  37.457  1.00  0.00     0.040 A 
ATOM     83  F   UNL A   1      40.557  34.311  35.420  1.00  0.00    -0.206 F 
ATOM     84  C   UNL A   1      38.536  33.951  38.407  1.00  0.00     0.006 A 
ENDBRANCH  60  77
ENDBRANCH  34  35
ENDBRANCH  27  29
ENDBRANCH  26  27
ENDBRANCH  25  26
ENDBRANCH   1  25
TORSDOF 16
ENDMDL
