MODEL 1
REMARK VINA RESULT:     -12.2      0.000      0.000
REMARK SMILES C[C@H]1c2ccc(O)cc2OC(=O)[C@@H]1CC(=O)N[C@@H](CC1=c2ccccc2=NC1)C(=O)OCCOCCOC(=O)c1ccc(-c2c3nc(c(-c4c(F)cccc4F)c4ccc([nH]4)c(-c4c(F)cccc4F)c4nc(c(-c5c(F)cccc5F)c5ccc2[nH]5)C=C4)C=C3)cc1
REMARK SMILES IDX 33 1 32 2 31 3 29 4 30 5 18 6 17 7 15 8 16 9 14 11 13 12
REMARK SMILES IDX 1 13 2 14 3 15 4 16 9 17 11 18 5 19 8 20 10 21 12 22 6 23
REMARK SMILES IDX 7 24 19 26 20 27 21 28 28 29 22 30 26 31 27 32 23 33 25 34
REMARK SMILES IDX 24 35 34 36 35 37 36 38 37 39 38 40 39 41 40 42 41 43 93 44
REMARK SMILES IDX 42 45 92 46 43 47 44 48 45 49 86 50 46 51 91 52 85 53 87 54
REMARK SMILES IDX 47 55 90 56 84 57 83 58 48 60 74 61 57 62 73 63 58 64 61 65
REMARK SMILES IDX 72 66 88 67 59 68 60 69 71 71 89 72 62 73 49 74 50 75 55 76
REMARK SMILES IDX 51 77 52 78 54 79 56 80 53 81 75 82 76 83 81 84 77 85 78 86
REMARK SMILES IDX 80 87 82 88 79 89 63 90 64 91 69 92 65 93 66 94 68 95 70 96
REMARK SMILES IDX 67 97
REMARK H PARENT 17 10 7 25 87 59 61 70
REMARK Flexibility Score: inf
ROOT
ATOM      1  C   UNL A   1      40.076  20.873  26.472  1.00  0.00     0.202 C 
ENDROOT
BRANCH   1   2
ATOM      2  C   UNL A   1      39.334  22.207  26.398  1.00  0.00     0.261 C 
BRANCH   2   3
ATOM      3  O   UNL A   1      38.152  22.093  25.599  1.00  0.00    -0.462 OA
BRANCH   3   4
ATOM      4  C   UNL A   1      37.314  23.156  25.648  1.00  0.00     0.329 C 
ATOM      5  O   UNL A   1      37.610  24.257  26.099  1.00  0.00    -0.250 OA
BRANCH   4   6
ATOM      6  C   UNL A   1      35.902  22.816  25.167  1.00  0.00     0.196 C 
BRANCH   6   7
ATOM      7  N   UNL A   1      35.557  22.957  23.746  1.00  0.00    -0.342 N 
ATOM      8  C   UNL A   1      34.583  23.696  23.139  1.00  0.00     0.221 C 
ATOM      9  O   UNL A   1      34.216  23.359  22.010  1.00  0.00    -0.275 OA
ATOM     10  H   UNL A   1      36.120  22.432  23.132  1.00  0.00     0.164 HD
BRANCH   8  11
ATOM     11  C   UNL A   1      34.093  25.013  23.740  1.00  0.00     0.116 C 
BRANCH  11  12
ATOM     12  C   UNL A   1      33.649  26.175  22.821  1.00  0.00     0.116 C 
ATOM     13  C   UNL A   1      33.680  28.710  22.409  1.00  0.00     0.014 C 
ATOM     14  C   UNL A   1      34.034  27.574  23.380  1.00  0.00     0.034 C 
ATOM     15  C   UNL A   1      33.315  27.781  24.694  1.00  0.00    -0.001 A 
ATOM     16  C   UNL A   1      33.852  28.538  25.738  1.00  0.00     0.011 A 
ATOM     17  C   UNL A   1      32.086  27.145  24.891  1.00  0.00     0.138 A 
ATOM     18  C   UNL A   1      32.154  26.224  22.655  1.00  0.00     0.315 C 
ATOM     19  C   UNL A   1      33.200  28.580  26.976  1.00  0.00     0.047 A 
ATOM     20  C   UNL A   1      31.453  27.135  26.128  1.00  0.00     0.093 A 
ATOM     21  O   UNL A   1      31.440  26.508  23.817  1.00  0.00    -0.426 OA
ATOM     22  O   UNL A   1      31.592  25.936  21.603  1.00  0.00    -0.251 OA
ATOM     23  C   UNL A   1      32.027  27.851  27.169  1.00  0.00     0.119 A 
BRANCH  23  24
ATOM     24  O   UNL A   1      31.396  27.827  28.377  1.00  0.00    -0.508 OA
ATOM     25  H   UNL A   1      30.465  27.914  28.421  1.00  0.00     0.293 HD
ENDBRANCH  23  24
ENDBRANCH  11  12
ENDBRANCH   8  11
ENDBRANCH   6   7
BRANCH   6  26
ATOM     26  C   UNL A   1      35.416  21.447  25.749  1.00  0.00     0.070 C 
BRANCH  26  27
ATOM     27  C   UNL A   1      34.025  21.353  26.401  1.00  0.00    -0.037 C 
ATOM     28  C   UNL A   1      33.163  22.382  26.287  1.00  0.00     0.001 A 
ATOM     29  C   UNL A   1      33.246  20.099  26.140  1.00  0.00     0.174 C 
ATOM     30  C   UNL A   1      32.231  22.874  27.300  1.00  0.00     0.010 A 
ATOM     31  C   UNL A   1      32.330  21.777  25.192  1.00  0.00     0.065 A 
ATOM     32  N   UNL A   1      32.388  20.492  25.003  1.00  0.00    -0.280 NA
ATOM     33  C   UNL A   1      31.069  23.414  26.874  1.00  0.00     0.001 A 
ATOM     34  C   UNL A   1      31.429  22.749  24.552  1.00  0.00     0.028 A 
ATOM     35  C   UNL A   1      30.805  23.543  25.441  1.00  0.00     0.002 A 
ENDBRANCH  26  27
ENDBRANCH   6  26
ENDBRANCH   4   6
ENDBRANCH   3   4
ENDBRANCH   2   3
ENDBRANCH   1   2
BRANCH   1  36
ATOM     36  O   UNL A   1      41.188  20.718  25.594  1.00  0.00    -0.374 OA
BRANCH  36  37
ATOM     37  C   UNL A   1      42.500  20.857  26.143  1.00  0.00     0.202 C 
BRANCH  37  38
ATOM     38  C   UNL A   1      43.466  21.837  25.455  1.00  0.00     0.261 C 
BRANCH  38  39
ATOM     39  O   UNL A   1      42.855  23.061  25.002  1.00  0.00    -0.460 OA
BRANCH  39  40
ATOM     40  C   UNL A   1      43.617  24.176  25.143  1.00  0.00     0.338 C 
ATOM     41  O   UNL A   1      44.615  24.473  24.511  1.00  0.00    -0.246 OA
BRANCH  40  42
ATOM     42  C   UNL A   1      43.007  25.102  26.113  1.00  0.00     0.060 A 
ATOM     43  C   UNL A   1      41.937  24.687  26.906  1.00  0.00     0.016 A 
ATOM     44  C   UNL A   1      43.607  26.347  26.329  1.00  0.00     0.016 A 
ATOM     45  C   UNL A   1      41.454  25.534  27.909  1.00  0.00     0.010 A 
ATOM     46  C   UNL A   1      43.134  27.185  27.341  1.00  0.00     0.010 A 
ATOM     47  C   UNL A   1      42.060  26.780  28.146  1.00  0.00    -0.014 A 
BRANCH  47  48
ATOM     48  C   UNL A   1      41.639  27.609  29.304  1.00  0.00     0.031 A 
ATOM     49  C   UNL A   1      42.341  27.514  30.627  1.00  0.00     0.074 A 
ATOM     50  C   UNL A   1      40.588  28.439  29.161  1.00  0.00     0.049 A 
ATOM     51  N   UNL A   1      42.130  28.201  31.723  1.00  0.00    -0.248 NA
ATOM     52  C   UNL A   1      43.409  26.512  30.738  1.00  0.00     0.031 C 
ATOM     53  C   UNL A   1      39.796  28.588  27.939  1.00  0.00     0.029 A 
ATOM     54  N   UNL A   1      40.005  29.312  30.044  1.00  0.00    -0.354 N 
ATOM     55  C   UNL A   1      43.049  27.729  32.650  1.00  0.00     0.074 A 
ATOM     56  C   UNL A   1      43.782  26.659  32.003  1.00  0.00     0.031 C 
ATOM     57  C   UNL A   1      38.847  29.516  28.142  1.00  0.00     0.029 A 
ATOM     58  C   UNL A   1      38.946  30.006  29.512  1.00  0.00     0.049 A 
ATOM     59  H   UNL A   1      40.317  29.429  30.971  1.00  0.00     0.167 HD
ATOM     60  C   UNL A   1      43.273  28.164  33.914  1.00  0.00     0.037 A 
ATOM     61  C   UNL A   1      38.142  30.933  30.068  1.00  0.00     0.037 A 
ATOM     62  C   UNL A   1      42.524  29.213  34.563  1.00  0.00     0.049 A 
ATOM     63  C   UNL A   1      38.375  31.350  31.494  1.00  0.00     0.074 A 
ATOM     64  C   UNL A   1      42.709  29.754  35.825  1.00  0.00     0.029 A 
ATOM     65  N   UNL A   1      41.431  29.865  34.010  1.00  0.00    -0.354 N 
ATOM     66  N   UNL A   1      39.311  30.966  32.328  1.00  0.00    -0.248 NA
ATOM     67  C   UNL A   1      37.439  32.336  32.053  1.00  0.00     0.031 C 
ATOM     68  C   UNL A   1      41.694  30.690  36.056  1.00  0.00     0.029 A 
ATOM     69  C   UNL A   1      40.909  30.775  34.919  1.00  0.00     0.049 A 
ATOM     70  H   UNL A   1      41.078  29.706  33.104  1.00  0.00     0.167 HD
ATOM     71  C   UNL A   1      39.087  31.674  33.502  1.00  0.00     0.074 A 
ATOM     72  C   UNL A   1      37.947  32.533  33.261  1.00  0.00     0.031 C 
ATOM     73  C   UNL A   1      39.763  31.615  34.675  1.00  0.00     0.037 A 
BRANCH  60  74
ATOM     74  C   UNL A   1      44.378  27.498  34.686  1.00  0.00     0.057 A 
ATOM     75  C   UNL A   1      44.154  26.302  35.379  1.00  0.00     0.134 A 
ATOM     76  C   UNL A   1      45.658  28.063  34.775  1.00  0.00     0.134 A 
ATOM     77  F   UNL A   1      42.950  25.711  35.348  1.00  0.00    -0.206 F 
ATOM     78  C   UNL A   1      45.162  25.690  36.128  1.00  0.00     0.040 A 
ATOM     79  C   UNL A   1      46.681  27.448  35.499  1.00  0.00     0.040 A 
ATOM     80  F   UNL A   1      45.944  29.206  34.133  1.00  0.00    -0.206 F 
ATOM     81  C   UNL A   1      46.433  26.259  36.183  1.00  0.00     0.006 A 
ENDBRANCH  60  74
BRANCH  61  82
ATOM     82  C   UNL A   1      37.045  31.544  29.276  1.00  0.00     0.057 A 
ATOM     83  C   UNL A   1      35.848  30.857  29.034  1.00  0.00     0.134 A 
ATOM     84  C   UNL A   1      37.154  32.845  28.773  1.00  0.00     0.134 A 
ATOM     85  F   UNL A   1      35.681  29.606  29.487  1.00  0.00    -0.206 F 
ATOM     86  C   UNL A   1      34.803  31.442  28.318  1.00  0.00     0.040 A 
ATOM     87  C   UNL A   1      36.106  33.452  28.080  1.00  0.00     0.040 A 
ATOM     88  F   UNL A   1      38.268  33.561  28.991  1.00  0.00    -0.206 F 
ATOM     89  C   UNL A   1      34.927  32.748  27.849  1.00  0.00     0.006 A 
ENDBRANCH  61  82
BRANCH  73  90
ATOM     90  C   UNL A   1      39.288  32.515  35.781  1.00  0.00     0.057 A 
ATOM     91  C   UNL A   1      38.315  32.083  36.692  1.00  0.00     0.134 A 
ATOM     92  C   UNL A   1      39.791  33.814  35.943  1.00  0.00     0.134 A 
ATOM     93  F   UNL A   1      37.786  30.855  36.592  1.00  0.00    -0.206 F 
ATOM     94  C   UNL A   1      37.863  32.907  37.724  1.00  0.00     0.040 A 
ATOM     95  C   UNL A   1      39.368  34.636  36.990  1.00  0.00     0.040 A 
ATOM     96  F   UNL A   1      40.736  34.285  35.117  1.00  0.00    -0.206 F 
ATOM     97  C   UNL A   1      38.398  34.184  37.881  1.00  0.00     0.006 A 
ENDBRANCH  73  90
ENDBRANCH  47  48
ENDBRANCH  40  42
ENDBRANCH  39  40
ENDBRANCH  38  39
ENDBRANCH  37  38
ENDBRANCH  36  37
ENDBRANCH   1  36
TORSDOF 20
ENDMDL
MODEL 2
REMARK VINA RESULT:     -12.2      0.300      5.817
REMARK SMILES C[C@H]1c2ccc(O)cc2OC(=O)[C@@H]1CC(=O)N[C@@H](CC1=c2ccccc2=NC1)C(=O)OCCOCCOC(=O)c1ccc(-c2c3nc(c(-c4c(F)cccc4F)c4ccc([nH]4)c(-c4c(F)cccc4F)c4nc(c(-c5c(F)cccc5F)c5ccc2[nH]5)C=C4)C=C3)cc1
REMARK SMILES IDX 33 1 32 2 31 3 29 4 30 5 18 6 17 7 15 8 16 9 14 11 13 12
REMARK SMILES IDX 1 13 2 14 3 15 4 16 9 17 11 18 5 19 8 20 10 21 12 22 6 23
REMARK SMILES IDX 7 24 19 26 20 27 21 28 28 29 22 30 26 31 27 32 23 33 25 34
REMARK SMILES IDX 24 35 34 36 35 37 36 38 37 39 38 40 39 41 40 42 41 43 93 44
REMARK SMILES IDX 42 45 92 46 43 47 44 48 45 49 86 50 46 51 91 52 85 53 87 54
REMARK SMILES IDX 47 55 90 56 84 57 83 58 48 60 74 61 57 62 73 63 58 64 61 65
REMARK SMILES IDX 72 66 88 67 59 68 60 69 71 71 89 72 62 73 49 74 50 75 55 76
REMARK SMILES IDX 51 77 52 78 54 79 56 80 53 81 75 82 76 83 81 84 77 85 78 86
REMARK SMILES IDX 80 87 82 88 79 89 63 90 64 91 69 92 65 93 66 94 68 95 70 96
REMARK SMILES IDX 67 97
REMARK H PARENT 17 10 7 25 87 59 61 70
REMARK Flexibility Score: inf
ROOT
ATOM      1  C   UNL A   1      40.025  20.879  26.482  1.00  0.00     0.202 C 
ENDROOT
BRANCH   1   2
ATOM      2  C   UNL A   1      39.310  22.182  26.124  1.00  0.00     0.261 C 
BRANCH   2   3
ATOM      3  O   UNL A   1      37.950  21.936  25.752  1.00  0.00    -0.462 OA
BRANCH   3   4
ATOM      4  C   UNL A   1      37.162  23.035  25.674  1.00  0.00     0.329 C 
ATOM      5  O   UNL A   1      37.498  24.160  26.026  1.00  0.00    -0.250 OA
BRANCH   4   6
ATOM      6  C   UNL A   1      35.749  22.714  25.183  1.00  0.00     0.196 C 
BRANCH   6   7
ATOM      7  N   UNL A   1      35.413  22.870  23.762  1.00  0.00    -0.342 N 
ATOM      8  C   UNL A   1      34.467  23.645  23.154  1.00  0.00     0.221 C 
ATOM      9  O   UNL A   1      34.091  23.324  22.024  1.00  0.00    -0.275 OA
ATOM     10  H   UNL A   1      35.958  22.326  23.148  1.00  0.00     0.164 HD
BRANCH   8  11
ATOM     11  C   UNL A   1      34.023  24.978  23.758  1.00  0.00     0.116 C 
BRANCH  11  12
ATOM     12  C   UNL A   1      33.618  26.154  22.840  1.00  0.00     0.116 C 
ATOM     13  C   UNL A   1      33.710  28.690  22.445  1.00  0.00     0.014 C 
ATOM     14  C   UNL A   1      34.026  27.541  23.414  1.00  0.00     0.034 C 
ATOM     15  C   UNL A   1      33.296  27.756  24.719  1.00  0.00    -0.001 A 
ATOM     16  C   UNL A   1      33.835  28.495  25.774  1.00  0.00     0.011 A 
ATOM     17  C   UNL A   1      32.050  27.147  24.896  1.00  0.00     0.138 A 
ATOM     18  C   UNL A   1      32.126  26.238  22.655  1.00  0.00     0.315 C 
ATOM     19  C   UNL A   1      33.169  28.544  27.005  1.00  0.00     0.047 A 
ATOM     20  C   UNL A   1      31.401  27.144  26.125  1.00  0.00     0.093 A 
ATOM     21  O   UNL A   1      31.404  26.532  23.810  1.00  0.00    -0.426 OA
ATOM     22  O   UNL A   1      31.572  25.969  21.595  1.00  0.00    -0.251 OA
ATOM     23  C   UNL A   1      31.977  27.841  27.178  1.00  0.00     0.119 A 
BRANCH  23  24
ATOM     24  O   UNL A   1      31.331  27.823  28.378  1.00  0.00    -0.508 OA
ATOM     25  H   UNL A   1      31.011  27.014  28.726  1.00  0.00     0.293 HD
ENDBRANCH  23  24
ENDBRANCH  11  12
ENDBRANCH   8  11
ENDBRANCH   6   7
BRANCH   6  26
ATOM     26  C   UNL A   1      35.247  21.345  25.751  1.00  0.00     0.070 C 
BRANCH  26  27
ATOM     27  C   UNL A   1      33.848  21.257  26.386  1.00  0.00    -0.037 C 
ATOM     28  C   UNL A   1      33.002  22.301  26.286  1.00  0.00     0.001 A 
ATOM     29  C   UNL A   1      33.053  20.021  26.087  1.00  0.00     0.174 C 
ATOM     30  C   UNL A   1      32.066  22.784  27.299  1.00  0.00     0.010 A 
ATOM     31  C   UNL A   1      32.173  21.734  25.168  1.00  0.00     0.065 A 
ATOM     32  N   UNL A   1      32.214  20.452  24.951  1.00  0.00    -0.280 NA
ATOM     33  C   UNL A   1      30.917  23.351  26.872  1.00  0.00     0.001 A 
ATOM     34  C   UNL A   1      31.293  22.732  24.540  1.00  0.00     0.028 A 
ATOM     35  C   UNL A   1      30.671  23.516  25.440  1.00  0.00     0.002 A 
ENDBRANCH  26  27
ENDBRANCH   6  26
ENDBRANCH   4   6
ENDBRANCH   3   4
ENDBRANCH   2   3
ENDBRANCH   1   2
BRANCH   1  36
ATOM     36  O   UNL A   1      41.194  20.572  25.726  1.00  0.00    -0.374 OA
BRANCH  36  37
ATOM     37  C   UNL A   1      42.466  20.831  26.324  1.00  0.00     0.202 C 
BRANCH  37  38
ATOM     38  C   UNL A   1      43.361  21.899  25.672  1.00  0.00     0.261 C 
BRANCH  38  39
ATOM     39  O   UNL A   1      42.667  23.094  25.263  1.00  0.00    -0.460 OA
BRANCH  39  40
ATOM     40  C   UNL A   1      43.394  24.238  25.333  1.00  0.00     0.338 C 
ATOM     41  O   UNL A   1      44.351  24.549  24.646  1.00  0.00    -0.246 OA
BRANCH  40  42
ATOM     42  C   UNL A   1      42.796  25.175  26.301  1.00  0.00     0.060 A 
ATOM     43  C   UNL A   1      41.799  24.744  27.175  1.00  0.00     0.016 A 
ATOM     44  C   UNL A   1      43.343  26.457  26.428  1.00  0.00     0.016 A 
ATOM     45  C   UNL A   1      41.333  25.609  28.170  1.00  0.00     0.010 A 
ATOM     46  C   UNL A   1      42.889  27.313  27.433  1.00  0.00     0.010 A 
ATOM     47  C   UNL A   1      41.887  26.892  28.318  1.00  0.00    -0.014 A 
BRANCH  47  48
ATOM     48  C   UNL A   1      41.494  27.749  29.466  1.00  0.00     0.031 A 
ATOM     49  C   UNL A   1      40.349  28.713  29.365  1.00  0.00     0.074 A 
ATOM     50  C   UNL A   1      42.205  27.670  30.608  1.00  0.00     0.049 A 
ATOM     51  N   UNL A   1      39.848  29.497  30.287  1.00  0.00    -0.248 NA
ATOM     52  C   UNL A   1      39.689  28.819  28.057  1.00  0.00     0.031 C 
ATOM     53  C   UNL A   1      43.367  26.803  30.815  1.00  0.00     0.029 A 
ATOM     54  N   UNL A   1      42.057  28.322  31.806  1.00  0.00    -0.354 N 
ATOM     55  C   UNL A   1      38.801  30.178  29.680  1.00  0.00     0.074 A 
ATOM     56  C   UNL A   1      38.778  29.754  28.294  1.00  0.00     0.031 C 
ATOM     57  C   UNL A   1      43.810  26.959  32.074  1.00  0.00     0.029 A 
ATOM     58  C   UNL A   1      42.984  27.953  32.750  1.00  0.00     0.049 A 
ATOM     59  H   UNL A   1      41.353  28.990  31.972  1.00  0.00     0.167 HD
ATOM     60  C   UNL A   1      37.931  31.057  30.233  1.00  0.00     0.037 A 
ATOM     61  C   UNL A   1      43.150  28.372  34.020  1.00  0.00     0.037 A 
ATOM     62  C   UNL A   1      37.975  31.495  31.608  1.00  0.00     0.049 A 
ATOM     63  C   UNL A   1      42.207  29.396  34.587  1.00  0.00     0.074 A 
ATOM     64  C   UNL A   1      37.108  32.349  32.271  1.00  0.00     0.029 A 
ATOM     65  N   UNL A   1      38.952  31.135  32.524  1.00  0.00    -0.354 N 
ATOM     66  N   UNL A   1      41.162  29.959  34.031  1.00  0.00    -0.248 NA
ATOM     67  C   UNL A   1      42.468  29.839  35.964  1.00  0.00     0.031 C 
ATOM     68  C   UNL A   1      37.592  32.547  33.569  1.00  0.00     0.029 A 
ATOM     69  C   UNL A   1      38.730  31.776  33.735  1.00  0.00     0.049 A 
ATOM     70  H   UNL A   1      39.694  30.513  32.342  1.00  0.00     0.167 HD
ATOM     71  C   UNL A   1      40.631  30.808  34.994  1.00  0.00     0.074 A 
ATOM     72  C   UNL A   1      41.451  30.662  36.178  1.00  0.00     0.031 C 
ATOM     73  C   UNL A   1      39.562  31.636  34.904  1.00  0.00     0.037 A 
BRANCH  60  74
ATOM     74  C   UNL A   1      36.853  31.611  29.345  1.00  0.00     0.057 A 
ATOM     75  C   UNL A   1      35.755  30.827  28.968  1.00  0.00     0.134 A 
ATOM     76  C   UNL A   1      36.921  32.914  28.829  1.00  0.00     0.134 A 
ATOM     77  F   UNL A   1      35.632  29.568  29.414  1.00  0.00    -0.206 F 
ATOM     78  C   UNL A   1      34.764  31.317  28.115  1.00  0.00     0.040 A 
ATOM     79  C   UNL A   1      35.922  33.424  27.997  1.00  0.00     0.040 A 
ATOM     80  F   UNL A   1      37.942  33.721  29.152  1.00  0.00    -0.206 F 
ATOM     81  C   UNL A   1      34.841  32.623  27.634  1.00  0.00     0.006 A 
ENDBRANCH  60  74
BRANCH  61  82
ATOM     82  C   UNL A   1      44.248  27.817  34.852  1.00  0.00     0.057 A 
ATOM     83  C   UNL A   1      45.511  28.421  34.893  1.00  0.00     0.134 A 
ATOM     84  C   UNL A   1      44.046  26.689  35.655  1.00  0.00     0.134 A 
ATOM     85  F   UNL A   1      45.769  29.503  34.145  1.00  0.00    -0.206 F 
ATOM     86  C   UNL A   1      46.533  27.920  35.700  1.00  0.00     0.040 A 
ATOM     87  C   UNL A   1      45.051  26.195  36.488  1.00  0.00     0.040 A 
ATOM     88  F   UNL A   1      42.851  26.080  35.675  1.00  0.00    -0.206 F 
ATOM     89  C   UNL A   1      46.301  26.811  36.509  1.00  0.00     0.006 A 
ENDBRANCH  61  82
BRANCH  73  90
ATOM     90  C   UNL A   1      39.218  32.439  36.128  1.00  0.00     0.057 A 
ATOM     91  C   UNL A   1      39.770  33.710  36.333  1.00  0.00     0.134 A 
ATOM     92  C   UNL A   1      38.341  31.952  37.106  1.00  0.00     0.134 A 
ATOM     93  F   UNL A   1      40.622  34.235  35.439  1.00  0.00    -0.206 F 
ATOM     94  C   UNL A   1      39.461  34.468  37.463  1.00  0.00     0.040 A 
ATOM     95  C   UNL A   1      38.000  32.714  38.227  1.00  0.00     0.040 A 
ATOM     96  F   UNL A   1      37.763  30.750  36.965  1.00  0.00    -0.206 F 
ATOM     97  C   UNL A   1      38.565  33.974  38.409  1.00  0.00     0.006 A 
ENDBRANCH  73  90
ENDBRANCH  47  48
ENDBRANCH  40  42
ENDBRANCH  39  40
ENDBRANCH  38  39
ENDBRANCH  37  38
ENDBRANCH  36  37
ENDBRANCH   1  36
TORSDOF 20
ENDMDL
MODEL 3
REMARK VINA RESULT:     -12.0      4.159      9.524
REMARK SMILES C[C@H]1c2ccc(O)cc2OC(=O)[C@@H]1CC(=O)N[C@@H](CC1=c2ccccc2=NC1)C(=O)OCCOCCOC(=O)c1ccc(-c2c3nc(c(-c4c(F)cccc4F)c4ccc([nH]4)c(-c4c(F)cccc4F)c4nc(c(-c5c(F)cccc5F)c5ccc2[nH]5)C=C4)C=C3)cc1
REMARK SMILES IDX 33 1 32 2 31 3 29 4 30 5 18 6 17 7 15 8 16 9 14 11 13 12
REMARK SMILES IDX 1 13 2 14 3 15 4 16 9 17 11 18 5 19 8 20 10 21 12 22 6 23
REMARK SMILES IDX 7 24 19 26 20 27 21 28 28 29 22 30 26 31 27 32 23 33 25 34
REMARK SMILES IDX 24 35 34 36 35 37 36 38 37 39 38 40 39 41 40 42 41 43 93 44
REMARK SMILES IDX 42 45 92 46 43 47 44 48 45 49 86 50 46 51 91 52 85 53 87 54
REMARK SMILES IDX 47 55 90 56 84 57 83 58 48 60 74 61 57 62 73 63 58 64 61 65
REMARK SMILES IDX 72 66 88 67 59 68 60 69 71 71 89 72 62 73 49 74 50 75 55 76
REMARK SMILES IDX 51 77 52 78 54 79 56 80 53 81 75 82 76 83 81 84 77 85 78 86
REMARK SMILES IDX 80 87 82 88 79 89 63 90 64 91 69 92 65 93 66 94 68 95 70 96
REMARK SMILES IDX 67 97
REMARK H PARENT 17 10 7 25 87 59 61 70
REMARK Flexibility Score: inf
ROOT
ATOM      1  C   UNL A   1      35.027  32.111  27.780  1.00  0.00     0.202 C 
ENDROOT
BRANCH   1   2
ATOM      2  C   UNL A   1      33.771  31.244  27.830  1.00  0.00     0.261 C 
BRANCH   2   3
ATOM      3  O   UNL A   1      33.595  30.523  26.605  1.00  0.00    -0.462 OA
BRANCH   3   4
ATOM      4  C   UNL A   1      33.827  29.190  26.678  1.00  0.00     0.329 C 
ATOM      5  O   UNL A   1      34.765  28.677  27.279  1.00  0.00    -0.250 OA
BRANCH   4   6
ATOM      6  C   UNL A   1      32.841  28.373  25.841  1.00  0.00     0.196 C 
BRANCH   6   7
ATOM      7  N   UNL A   1      31.813  27.560  26.504  1.00  0.00    -0.342 N 
ATOM      8  C   UNL A   1      31.533  26.228  26.399  1.00  0.00     0.221 C 
ATOM      9  O   UNL A   1      30.405  25.844  26.718  1.00  0.00    -0.275 OA
ATOM     10  H   UNL A   1      31.231  28.057  27.124  1.00  0.00     0.164 HD
BRANCH   8  11
ATOM     11  C   UNL A   1      32.628  25.207  26.088  1.00  0.00     0.116 C 
BRANCH  11  12
ATOM     12  C   UNL A   1      32.546  23.773  26.662  1.00  0.00     0.116 C 
ATOM     13  C   UNL A   1      33.816  21.834  27.766  1.00  0.00     0.014 C 
ATOM     14  C   UNL A   1      33.928  23.215  27.104  1.00  0.00     0.034 C 
ATOM     15  C   UNL A   1      34.823  23.129  25.889  1.00  0.00    -0.001 A 
ATOM     16  C   UNL A   1      36.208  23.299  25.957  1.00  0.00     0.011 A 
ATOM     17  C   UNL A   1      34.234  22.923  24.638  1.00  0.00     0.138 A 
ATOM     18  C   UNL A   1      32.038  22.786  25.645  1.00  0.00     0.315 C 
ATOM     19  C   UNL A   1      36.965  23.343  24.780  1.00  0.00     0.047 A 
ATOM     20  C   UNL A   1      34.963  23.015  23.459  1.00  0.00     0.093 A 
ATOM     21  O   UNL A   1      32.871  22.592  24.545  1.00  0.00    -0.426 OA
ATOM     22  O   UNL A   1      30.931  22.265  25.719  1.00  0.00    -0.251 OA
ATOM     23  C   UNL A   1      36.331  23.235  23.542  1.00  0.00     0.119 A 
BRANCH  23  24
ATOM     24  O   UNL A   1      37.030  23.327  22.376  1.00  0.00    -0.508 OA
ATOM     25  H   UNL A   1      37.323  24.163  22.070  1.00  0.00     0.293 HD
ENDBRANCH  23  24
ENDBRANCH  11  12
ENDBRANCH   8  11
ENDBRANCH   6   7
BRANCH   6  26
ATOM     26  C   UNL A   1      32.241  29.228  24.675  1.00  0.00     0.070 C 
BRANCH  26  27
ATOM     27  C   UNL A   1      32.252  28.665  23.242  1.00  0.00    -0.037 C 
ATOM     28  C   UNL A   1      32.513  27.359  23.039  1.00  0.00     0.001 A 
ATOM     29  C   UNL A   1      31.081  29.017  22.375  1.00  0.00     0.174 C 
ATOM     30  C   UNL A   1      33.278  26.767  21.944  1.00  0.00     0.010 A 
ATOM     31  C   UNL A   1      31.084  26.935  22.845  1.00  0.00     0.065 A 
ATOM     32  N   UNL A   1      30.202  27.841  22.540  1.00  0.00    -0.280 NA
ATOM     33  C   UNL A   1      32.925  25.532  21.528  1.00  0.00     0.001 A 
ATOM     34  C   UNL A   1      30.904  25.476  22.897  1.00  0.00     0.028 A 
ATOM     35  C   UNL A   1      31.849  24.811  22.206  1.00  0.00     0.002 A 
ENDBRANCH  26  27
ENDBRANCH   6  26
ENDBRANCH   4   6
ENDBRANCH   3   4
ENDBRANCH   2   3
ENDBRANCH   1   2
BRANCH   1  36
ATOM     36  O   UNL A   1      34.963  33.357  28.470  1.00  0.00    -0.374 OA
BRANCH  36  37
ATOM     37  C   UNL A   1      34.119  33.444  29.620  1.00  0.00     0.202 C 
BRANCH  37  38
ATOM     38  C   UNL A   1      34.775  33.311  31.004  1.00  0.00     0.261 C 
BRANCH  38  39
ATOM     39  O   UNL A   1      35.020  31.954  31.423  1.00  0.00    -0.460 OA
BRANCH  39  40
ATOM     40  C   UNL A   1      36.080  31.788  32.256  1.00  0.00     0.338 C 
ATOM     41  O   UNL A   1      36.135  32.052  33.444  1.00  0.00    -0.246 OA
BRANCH  40  42
ATOM     42  C   UNL A   1      37.183  31.102  31.561  1.00  0.00     0.060 A 
ATOM     43  C   UNL A   1      37.219  31.057  30.168  1.00  0.00     0.016 A 
ATOM     44  C   UNL A   1      38.263  30.625  32.313  1.00  0.00     0.016 A 
ATOM     45  C   UNL A   1      38.336  30.514  29.524  1.00  0.00     0.010 A 
ATOM     46  C   UNL A   1      39.384  30.098  31.668  1.00  0.00     0.010 A 
ATOM     47  C   UNL A   1      39.433  30.047  30.268  1.00  0.00    -0.014 A 
BRANCH  47  48
ATOM     48  C   UNL A   1      40.673  29.610  29.578  1.00  0.00     0.031 A 
ATOM     49  C   UNL A   1      40.845  28.198  29.101  1.00  0.00     0.074 A 
ATOM     50  C   UNL A   1      41.669  30.501  29.406  1.00  0.00     0.049 A 
ATOM     51  N   UNL A   1      41.843  27.667  28.439  1.00  0.00    -0.248 NA
ATOM     52  C   UNL A   1      39.760  27.258  29.417  1.00  0.00     0.031 C 
ATOM     53  C   UNL A   1      41.640  31.891  29.864  1.00  0.00     0.029 A 
ATOM     54  N   UNL A   1      42.894  30.375  28.802  1.00  0.00    -0.354 N 
ATOM     55  C   UNL A   1      41.503  26.335  28.242  1.00  0.00     0.074 A 
ATOM     56  C   UNL A   1      40.230  26.128  28.904  1.00  0.00     0.031 C 
ATOM     57  C   UNL A   1      42.784  32.495  29.502  1.00  0.00     0.029 A 
ATOM     58  C   UNL A   1      43.635  31.531  28.813  1.00  0.00     0.049 A 
ATOM     59  H   UNL A   1      43.212  29.534  28.399  1.00  0.00     0.167 HD
ATOM     60  C   UNL A   1      42.181  25.383  27.556  1.00  0.00     0.037 A 
ATOM     61  C   UNL A   1      44.864  31.786  28.324  1.00  0.00     0.037 A 
ATOM     62  C   UNL A   1      43.460  25.587  26.920  1.00  0.00     0.049 A 
ATOM     63  C   UNL A   1      45.618  30.691  27.622  1.00  0.00     0.074 A 
ATOM     64  C   UNL A   1      44.202  24.695  26.163  1.00  0.00     0.029 A 
ATOM     65  N   UNL A   1      44.200  26.759  26.988  1.00  0.00    -0.354 N 
ATOM     66  N   UNL A   1      45.243  29.463  27.358  1.00  0.00    -0.248 NA
ATOM     67  C   UNL A   1      46.969  31.023  27.147  1.00  0.00     0.031 C 
ATOM     68  C   UNL A   1      45.413  25.308  25.822  1.00  0.00     0.029 A 
ATOM     69  C   UNL A   1      45.406  26.600  26.318  1.00  0.00     0.049 A 
ATOM     70  H   UNL A   1      43.912  27.583  27.444  1.00  0.00     0.167 HD
ATOM     71  C   UNL A   1      46.302  28.882  26.671  1.00  0.00     0.074 A 
ATOM     72  C   UNL A   1      47.321  29.902  26.535  1.00  0.00     0.031 C 
ATOM     73  C   UNL A   1      46.421  27.617  26.201  1.00  0.00     0.037 A 
BRANCH  60  74
ATOM     74  C   UNL A   1      41.549  24.022  27.460  1.00  0.00     0.057 A 
ATOM     75  C   UNL A   1      42.039  22.944  28.207  1.00  0.00     0.134 A 
ATOM     76  C   UNL A   1      40.475  23.769  26.594  1.00  0.00     0.134 A 
ATOM     77  F   UNL A   1      43.072  23.112  29.047  1.00  0.00    -0.206 F 
ATOM     78  C   UNL A   1      41.484  21.667  28.102  1.00  0.00     0.040 A 
ATOM     79  C   UNL A   1      39.894  22.503  26.500  1.00  0.00     0.040 A 
ATOM     80  F   UNL A   1      39.952  24.757  25.851  1.00  0.00    -0.206 F 
ATOM     81  C   UNL A   1      40.402  21.446  27.252  1.00  0.00     0.006 A 
ENDBRANCH  60  74
BRANCH  61  82
ATOM     82  C   UNL A   1      45.460  33.138  28.467  1.00  0.00     0.057 A 
ATOM     83  C   UNL A   1      45.208  34.151  27.534  1.00  0.00     0.134 A 
ATOM     84  C   UNL A   1      46.270  33.458  29.563  1.00  0.00     0.134 A 
ATOM     85  F   UNL A   1      44.442  33.908  26.461  1.00  0.00    -0.206 F 
ATOM     86  C   UNL A   1      45.741  35.432  27.685  1.00  0.00     0.040 A 
ATOM     87  C   UNL A   1      46.786  34.742  29.741  1.00  0.00     0.040 A 
ATOM     88  F   UNL A   1      46.530  32.535  30.502  1.00  0.00    -0.206 F 
ATOM     89  C   UNL A   1      46.523  35.733  28.797  1.00  0.00     0.006 A 
ENDBRANCH  61  82
BRANCH  73  90
ATOM     90  C   UNL A   1      47.698  27.274  25.484  1.00  0.00     0.057 A 
ATOM     91  C   UNL A   1      47.816  27.456  24.100  1.00  0.00     0.134 A 
ATOM     92  C   UNL A   1      48.811  26.762  26.165  1.00  0.00     0.134 A 
ATOM     93  F   UNL A   1      46.788  27.936  23.385  1.00  0.00    -0.206 F 
ATOM     94  C   UNL A   1      48.995  27.143  23.421  1.00  0.00     0.040 A 
ATOM     95  C   UNL A   1      50.005  26.474  25.500  1.00  0.00     0.040 A 
ATOM     96  F   UNL A   1      48.772  26.580  27.493  1.00  0.00    -0.206 F 
ATOM     97  C   UNL A   1      50.097  26.660  24.123  1.00  0.00     0.006 A 
ENDBRANCH  73  90
ENDBRANCH  47  48
ENDBRANCH  40  42
ENDBRANCH  39  40
ENDBRANCH  38  39
ENDBRANCH  37  38
ENDBRANCH  36  37
ENDBRANCH   1  36
TORSDOF 20
ENDMDL
