MODEL 1
REMARK VINA RESULT:     -10.5      0.000      0.000
REMARK SMILES O=C(OCCOCCOC(=O)c1ccc(CNc2ccccc2)nc1)c1ccc(-c2c3nc(c(-c4c(F)cccc4F)c4ccc([nH]4)c(-c4c(F)cccc4F)c4nc(c(-c5c(F)cccc5F)c5ccc2[nH]5)C=C4)C=C3)cc1
REMARK SMILES IDX 7 1 6 2 5 3 4 4 3 5 2 6 1 7 26 8 27 9 79 10 28 11 78 12
REMARK SMILES IDX 29 13 30 14 31 15 72 16 32 17 77 18 71 19 73 20 33 21 76 22
REMARK SMILES IDX 70 23 69 24 34 26 60 27 43 28 59 29 44 30 47 31 58 32 74 33
REMARK SMILES IDX 45 34 46 35 57 37 75 38 48 39 35 40 36 41 41 42 37 43 38 44
REMARK SMILES IDX 40 45 42 46 39 47 61 48 62 49 67 50 63 51 64 52 66 53 68 54
REMARK SMILES IDX 65 55 49 56 50 57 55 58 51 59 52 60 54 61 56 62 53 63 8 64
REMARK SMILES IDX 9 65 10 66 11 67 12 68 13 69 25 70 14 71 24 72 15 73 16 74
REMARK SMILES IDX 17 75 18 77 19 78 23 79 20 80 22 81 21 82
REMARK H PARENT 73 25 47 36 17 76
REMARK Flexibility Score: inf
ROOT
ATOM      1  C   UNL A   1      35.792  21.481  25.445  1.00  0.00     0.202 C 
ENDROOT
BRANCH   1   2
ATOM      2  O   UNL A   1      36.985  21.435  24.650  1.00  0.00    -0.374 OA
BRANCH   2   3
ATOM      3  C   UNL A   1      38.168  21.016  25.338  1.00  0.00     0.202 C 
BRANCH   3   4
ATOM      4  C   UNL A   1      38.706  19.642  24.918  1.00  0.00     0.261 C 
BRANCH   4   5
ATOM      5  O   UNL A   1      39.691  19.174  25.858  1.00  0.00    -0.460 OA
BRANCH   5   6
ATOM      6  C   UNL A   1      40.981  19.563  25.994  1.00  0.00     0.338 C 
ATOM      7  O   UNL A   1      41.870  18.793  25.638  1.00  0.00    -0.246 OA
BRANCH   6   8
ATOM      8  C   UNL A   1      41.389  20.883  26.564  1.00  0.00     0.060 A 
ATOM      9  C   UNL A   1      41.427  21.176  27.925  1.00  0.00     0.016 A 
ATOM     10  C   UNL A   1      41.856  21.860  25.667  1.00  0.00     0.016 A 
ATOM     11  C   UNL A   1      41.825  22.419  28.388  1.00  0.00     0.010 A 
ATOM     12  C   UNL A   1      42.321  23.097  26.129  1.00  0.00     0.010 A 
ATOM     13  C   UNL A   1      42.287  23.384  27.497  1.00  0.00    -0.014 A 
BRANCH  13  14
ATOM     14  C   UNL A   1      42.655  24.696  28.056  1.00  0.00     0.031 A 
ATOM     15  C   UNL A   1      44.103  25.058  28.153  1.00  0.00     0.074 A 
ATOM     16  C   UNL A   1      41.685  25.597  28.296  1.00  0.00     0.049 A 
ATOM     17  N   UNL A   1      44.652  26.169  28.563  1.00  0.00    -0.248 NA
ATOM     18  C   UNL A   1      45.067  24.036  27.705  1.00  0.00     0.031 C 
ATOM     19  C   UNL A   1      40.249  25.356  28.115  1.00  0.00     0.029 A 
ATOM     20  N   UNL A   1      41.753  26.906  28.688  1.00  0.00    -0.354 N 
ATOM     21  C   UNL A   1      46.021  25.981  28.431  1.00  0.00     0.074 A 
ATOM     22  C   UNL A   1      46.224  24.643  27.920  1.00  0.00     0.031 C 
ATOM     23  C   UNL A   1      39.577  26.491  28.361  1.00  0.00     0.029 A 
ATOM     24  C   UNL A   1      40.524  27.516  28.780  1.00  0.00     0.049 A 
ATOM     25  H   UNL A   1      42.600  27.366  28.886  1.00  0.00     0.167 HD
ATOM     26  C   UNL A   1      47.015  26.855  28.709  1.00  0.00     0.037 A 
ATOM     27  C   UNL A   1      40.209  28.761  29.184  1.00  0.00     0.037 A 
ATOM     28  C   UNL A   1      46.782  28.175  29.229  1.00  0.00     0.049 A 
ATOM     29  C   UNL A   1      41.333  29.676  29.581  1.00  0.00     0.074 A 
ATOM     30  C   UNL A   1      47.701  29.117  29.651  1.00  0.00     0.029 A 
ATOM     31  N   UNL A   1      45.523  28.738  29.392  1.00  0.00    -0.354 N 
ATOM     32  N   UNL A   1      42.628  29.464  29.533  1.00  0.00    -0.248 NA
ATOM     33  C   UNL A   1      40.959  30.997  30.101  1.00  0.00     0.031 C 
ATOM     34  C   UNL A   1      46.995  30.239  30.100  1.00  0.00     0.029 A 
ATOM     35  C   UNL A   1      45.639  30.013  29.915  1.00  0.00     0.049 A 
ATOM     36  H   UNL A   1      44.672  28.294  29.168  1.00  0.00     0.167 HD
ATOM     37  C   UNL A   1      43.223  30.623  30.008  1.00  0.00     0.074 A 
ATOM     38  C   UNL A   1      42.146  31.547  30.308  1.00  0.00     0.031 C 
ATOM     39  C   UNL A   1      44.537  30.901  30.194  1.00  0.00     0.037 A 
BRANCH  26  40
ATOM     40  C   UNL A   1      48.419  26.372  28.508  1.00  0.00     0.057 A 
ATOM     41  C   UNL A   1      49.128  25.712  29.520  1.00  0.00     0.134 A 
ATOM     42  C   UNL A   1      49.086  26.608  27.300  1.00  0.00     0.134 A 
ATOM     43  F   UNL A   1      48.557  25.483  30.712  1.00  0.00    -0.206 F 
ATOM     44  C   UNL A   1      50.459  25.325  29.345  1.00  0.00     0.040 A 
ATOM     45  C   UNL A   1      50.409  26.207  27.106  1.00  0.00     0.040 A 
ATOM     46  F   UNL A   1      48.468  27.243  26.293  1.00  0.00    -0.206 F 
ATOM     47  C   UNL A   1      51.103  25.571  28.134  1.00  0.00     0.006 A 
ENDBRANCH  26  40
BRANCH  27  48
ATOM     48  C   UNL A   1      38.787  29.183  29.291  1.00  0.00     0.057 A 
ATOM     49  C   UNL A   1      38.069  29.059  30.485  1.00  0.00     0.134 A 
ATOM     50  C   UNL A   1      38.100  29.696  28.183  1.00  0.00     0.134 A 
ATOM     51  F   UNL A   1      38.657  28.557  31.580  1.00  0.00    -0.206 F 
ATOM     52  C   UNL A   1      36.716  29.406  30.568  1.00  0.00     0.040 A 
ATOM     53  C   UNL A   1      36.759  30.077  28.258  1.00  0.00     0.040 A 
ATOM     54  F   UNL A   1      38.726  29.844  27.005  1.00  0.00    -0.206 F 
ATOM     55  C   UNL A   1      36.060  29.922  29.452  1.00  0.00     0.006 A 
ENDBRANCH  27  48
BRANCH  39  56
ATOM     56  C   UNL A   1      44.865  32.263  30.723  1.00  0.00     0.057 A 
ATOM     57  C   UNL A   1      45.038  32.497  32.093  1.00  0.00     0.134 A 
ATOM     58  C   UNL A   1      45.036  33.343  29.849  1.00  0.00     0.134 A 
ATOM     59  F   UNL A   1      44.873  31.504  32.980  1.00  0.00    -0.206 F 
ATOM     60  C   UNL A   1      45.347  33.768  32.577  1.00  0.00     0.040 A 
ATOM     61  C   UNL A   1      45.371  34.611  30.319  1.00  0.00     0.040 A 
ATOM     62  F   UNL A   1      44.890  33.178  28.525  1.00  0.00    -0.206 F 
ATOM     63  C   UNL A   1      45.520  34.827  31.689  1.00  0.00     0.006 A 
ENDBRANCH  39  56
ENDBRANCH  13  14
ENDBRANCH   6   8
ENDBRANCH   5   6
ENDBRANCH   4   5
ENDBRANCH   3   4
ENDBRANCH   2   3
ENDBRANCH   1   2
BRANCH   1  64
ATOM     64  C   UNL A   1      34.800  20.424  24.952  1.00  0.00     0.261 C 
BRANCH  64  65
ATOM     65  O   UNL A   1      33.767  21.092  24.210  1.00  0.00    -0.460 OA
BRANCH  65  66
ATOM     66  C   UNL A   1      32.513  20.856  24.668  1.00  0.00     0.339 C 
ATOM     67  O   UNL A   1      32.047  19.795  25.048  1.00  0.00    -0.246 OA
BRANCH  66  68
ATOM     68  C   UNL A   1      31.856  22.155  24.866  1.00  0.00     0.078 A 
ATOM     69  C   UNL A   1      31.445  22.983  23.822  1.00  0.00     0.019 A 
ATOM     70  C   UNL A   1      31.734  22.615  26.164  1.00  0.00     0.127 A 
ATOM     71  C   UNL A   1      30.924  24.243  24.113  1.00  0.00     0.026 A 
ATOM     72  N   UNL A   1      31.242  23.834  26.473  1.00  0.00    -0.259 NA
ATOM     73  C   UNL A   1      30.833  24.635  25.446  1.00  0.00     0.059 A 
BRANCH  73  74
ATOM     74  C   UNL A   1      30.252  25.986  25.838  1.00  0.00     0.169 C 
BRANCH  74  75
ATOM     75  N   UNL A   1      31.020  26.494  26.968  1.00  0.00    -0.379 N 
ATOM     76  H   UNL A   1      30.881  26.093  27.857  1.00  0.00     0.160 HD
BRANCH  75  77
ATOM     77  C   UNL A   1      31.937  27.520  26.833  1.00  0.00     0.034 A 
ATOM     78  C   UNL A   1      31.559  28.811  27.227  1.00  0.00     0.025 A 
ATOM     79  C   UNL A   1      33.220  27.336  26.312  1.00  0.00     0.025 A 
ATOM     80  C   UNL A   1      32.447  29.884  27.142  1.00  0.00     0.002 A 
ATOM     81  C   UNL A   1      34.111  28.411  26.215  1.00  0.00     0.002 A 
ATOM     82  C   UNL A   1      33.727  29.681  26.638  1.00  0.00     0.000 A 
ENDBRANCH  75  77
ENDBRANCH  74  75
ENDBRANCH  73  74
ENDBRANCH  66  68
ENDBRANCH  65  66
ENDBRANCH  64  65
ENDBRANCH   1  64
TORSDOF 17
ENDMDL
MODEL 2
REMARK VINA RESULT:     -10.4      4.398      8.983
REMARK SMILES O=C(OCCOCCOC(=O)c1ccc(CNc2ccccc2)nc1)c1ccc(-c2c3nc(c(-c4c(F)cccc4F)c4ccc([nH]4)c(-c4c(F)cccc4F)c4nc(c(-c5c(F)cccc5F)c5ccc2[nH]5)C=C4)C=C3)cc1
REMARK SMILES IDX 7 1 6 2 5 3 4 4 3 5 2 6 1 7 26 8 27 9 79 10 28 11 78 12
REMARK SMILES IDX 29 13 30 14 31 15 72 16 32 17 77 18 71 19 73 20 33 21 76 22
REMARK SMILES IDX 70 23 69 24 34 26 60 27 43 28 59 29 44 30 47 31 58 32 74 33
REMARK SMILES IDX 45 34 46 35 57 37 75 38 48 39 35 40 36 41 41 42 37 43 38 44
REMARK SMILES IDX 40 45 42 46 39 47 61 48 62 49 67 50 63 51 64 52 66 53 68 54
REMARK SMILES IDX 65 55 49 56 50 57 55 58 51 59 52 60 54 61 56 62 53 63 8 64
REMARK SMILES IDX 9 65 10 66 11 67 12 68 13 69 25 70 14 71 24 72 15 73 16 74
REMARK SMILES IDX 17 75 18 77 19 78 23 79 20 80 22 81 21 82
REMARK H PARENT 73 25 47 36 17 76
REMARK Flexibility Score: inf
ROOT
ATOM      1  C   UNL A   1      33.084  35.461  29.956  1.00  0.00     0.202 C 
ENDROOT
BRANCH   1   2
ATOM      2  O   UNL A   1      32.864  34.909  31.261  1.00  0.00    -0.374 OA
BRANCH   2   3
ATOM      3  C   UNL A   1      33.913  35.128  32.209  1.00  0.00     0.202 C 
BRANCH   3   4
ATOM      4  C   UNL A   1      34.400  33.867  32.935  1.00  0.00     0.261 C 
BRANCH   4   5
ATOM      5  O   UNL A   1      35.606  33.366  32.328  1.00  0.00    -0.460 OA
BRANCH   5   6
ATOM      6  C   UNL A   1      36.449  32.410  32.787  1.00  0.00     0.338 C 
ATOM      7  O   UNL A   1      36.277  31.966  33.920  1.00  0.00    -0.246 OA
BRANCH   6   8
ATOM      8  C   UNL A   1      37.589  31.865  31.990  1.00  0.00     0.060 A 
ATOM      9  C   UNL A   1      38.672  31.176  32.532  1.00  0.00     0.016 A 
ATOM     10  C   UNL A   1      37.511  31.973  30.590  1.00  0.00     0.016 A 
ATOM     11  C   UNL A   1      39.692  30.687  31.734  1.00  0.00     0.010 A 
ATOM     12  C   UNL A   1      38.506  31.426  29.770  1.00  0.00     0.010 A 
ATOM     13  C   UNL A   1      39.612  30.796  30.348  1.00  0.00    -0.014 A 
BRANCH  13  14
ATOM     14  C   UNL A   1      40.753  30.289  29.565  1.00  0.00     0.031 A 
ATOM     15  C   UNL A   1      41.952  31.167  29.388  1.00  0.00     0.074 A 
ATOM     16  C   UNL A   1      40.761  28.998  29.187  1.00  0.00     0.049 A 
ATOM     17  N   UNL A   1      43.081  30.912  28.785  1.00  0.00    -0.248 NA
ATOM     18  C   UNL A   1      41.879  32.509  29.992  1.00  0.00     0.031 C 
ATOM     19  C   UNL A   1      39.672  28.045  29.426  1.00  0.00     0.029 A 
ATOM     20  N   UNL A   1      41.728  28.249  28.574  1.00  0.00    -0.354 N 
ATOM     21  C   UNL A   1      43.849  32.058  28.930  1.00  0.00     0.074 A 
ATOM     22  C   UNL A   1      43.054  33.020  29.660  1.00  0.00     0.031 C 
ATOM     23  C   UNL A   1      40.049  26.830  28.997  1.00  0.00     0.029 A 
ATOM     24  C   UNL A   1      41.372  26.933  28.395  1.00  0.00     0.049 A 
ATOM     25  H   UNL A   1      42.595  28.617  28.288  1.00  0.00     0.167 HD
ATOM     26  C   UNL A   1      45.110  32.280  28.492  1.00  0.00     0.037 A 
ATOM     27  C   UNL A   1      42.039  25.936  27.786  1.00  0.00     0.037 A 
ATOM     28  C   UNL A   1      45.871  31.308  27.754  1.00  0.00     0.049 A 
ATOM     29  C   UNL A   1      43.398  26.241  27.222  1.00  0.00     0.074 A 
ATOM     30  C   UNL A   1      47.113  31.444  27.165  1.00  0.00     0.029 A 
ATOM     31  N   UNL A   1      45.450  30.007  27.514  1.00  0.00    -0.354 N 
ATOM     32  N   UNL A   1      44.088  27.356  27.289  1.00  0.00    -0.248 NA
ATOM     33  C   UNL A   1      44.068  25.162  26.487  1.00  0.00     0.031 C 
ATOM     34  C   UNL A   1      47.429  30.232  26.539  1.00  0.00     0.029 A 
ATOM     35  C   UNL A   1      46.404  29.329  26.777  1.00  0.00     0.049 A 
ATOM     36  H   UNL A   1      44.597  29.623  27.823  1.00  0.00     0.167 HD
ATOM     37  C   UNL A   1      45.275  27.112  26.613  1.00  0.00     0.074 A 
ATOM     38  C   UNL A   1      45.222  25.731  26.173  1.00  0.00     0.031 C 
ATOM     39  C   UNL A   1      46.311  27.950  26.365  1.00  0.00     0.037 A 
BRANCH  26  40
ATOM     40  C   UNL A   1      45.691  33.636  28.754  1.00  0.00     0.057 A 
ATOM     41  C   UNL A   1      45.489  34.711  27.879  1.00  0.00     0.134 A 
ATOM     42  C   UNL A   1      46.499  33.859  29.876  1.00  0.00     0.134 A 
ATOM     43  F   UNL A   1      44.751  34.555  26.769  1.00  0.00    -0.206 F 
ATOM     44  C   UNL A   1      46.090  35.953  28.098  1.00  0.00     0.040 A 
ATOM     45  C   UNL A   1      47.087  35.102  30.117  1.00  0.00     0.040 A 
ATOM     46  F   UNL A   1      46.740  32.869  30.749  1.00  0.00    -0.206 F 
ATOM     47  C   UNL A   1      46.890  36.151  29.221  1.00  0.00     0.006 A 
ENDBRANCH  26  40
BRANCH  27  48
ATOM     48  C   UNL A   1      41.414  24.595  27.627  1.00  0.00     0.057 A 
ATOM     49  C   UNL A   1      41.835  23.492  28.377  1.00  0.00     0.134 A 
ATOM     50  C   UNL A   1      40.395  24.379  26.690  1.00  0.00     0.134 A 
ATOM     51  F   UNL A   1      42.820  23.621  29.277  1.00  0.00    -0.206 F 
ATOM     52  C   UNL A   1      41.282  22.221  28.186  1.00  0.00     0.040 A 
ATOM     53  C   UNL A   1      39.812  23.124  26.511  1.00  0.00     0.040 A 
ATOM     54  F   UNL A   1      39.941  25.393  25.937  1.00  0.00    -0.206 F 
ATOM     55  C   UNL A   1      40.264  22.038  27.253  1.00  0.00     0.006 A 
ENDBRANCH  27  48
BRANCH  39  56
ATOM     56  C   UNL A   1      47.467  27.378  25.604  1.00  0.00     0.057 A 
ATOM     57  C   UNL A   1      47.545  27.466  24.209  1.00  0.00     0.134 A 
ATOM     58  C   UNL A   1      48.526  26.758  26.280  1.00  0.00     0.134 A 
ATOM     59  F   UNL A   1      46.554  28.036  23.506  1.00  0.00    -0.206 F 
ATOM     60  C   UNL A   1      48.627  26.934  23.508  1.00  0.00     0.040 A 
ATOM     61  C   UNL A   1      49.624  26.246  25.592  1.00  0.00     0.040 A 
ATOM     62  F   UNL A   1      48.511  26.651  27.617  1.00  0.00    -0.206 F 
ATOM     63  C   UNL A   1      49.673  26.327  24.201  1.00  0.00     0.006 A 
ENDBRANCH  39  56
ENDBRANCH  13  14
ENDBRANCH   6   8
ENDBRANCH   5   6
ENDBRANCH   4   5
ENDBRANCH   3   4
ENDBRANCH   2   3
ENDBRANCH   1   2
BRANCH   1  64
ATOM     64  C   UNL A   1      34.367  34.878  29.357  1.00  0.00     0.261 C 
BRANCH  64  65
ATOM     65  O   UNL A   1      34.146  33.482  29.101  1.00  0.00    -0.460 OA
BRANCH  65  66
ATOM     66  C   UNL A   1      34.918  32.971  28.111  1.00  0.00     0.339 C 
ATOM     67  O   UNL A   1      35.927  33.456  27.627  1.00  0.00    -0.246 OA
BRANCH  66  68
ATOM     68  C   UNL A   1      34.478  31.591  27.867  1.00  0.00     0.078 A 
ATOM     69  C   UNL A   1      35.327  30.485  27.920  1.00  0.00     0.019 A 
ATOM     70  C   UNL A   1      33.167  31.401  27.468  1.00  0.00     0.127 A 
ATOM     71  C   UNL A   1      34.834  29.227  27.572  1.00  0.00     0.026 A 
ATOM     72  N   UNL A   1      32.669  30.196  27.117  1.00  0.00    -0.259 NA
ATOM     73  C   UNL A   1      33.503  29.118  27.180  1.00  0.00     0.059 A 
BRANCH  73  74
ATOM     74  C   UNL A   1      32.892  27.774  26.811  1.00  0.00     0.169 C 
BRANCH  74  75
ATOM     75  N   UNL A   1      33.861  27.048  25.999  1.00  0.00    -0.379 N 
ATOM     76  H   UNL A   1      34.692  26.729  26.420  1.00  0.00     0.160 HD
BRANCH  75  77
ATOM     77  C   UNL A   1      33.650  26.793  24.656  1.00  0.00     0.034 A 
ATOM     78  C   UNL A   1      33.753  27.857  23.749  1.00  0.00     0.025 A 
ATOM     79  C   UNL A   1      33.330  25.528  24.158  1.00  0.00     0.025 A 
ATOM     80  C   UNL A   1      33.580  27.660  22.378  1.00  0.00     0.002 A 
ATOM     81  C   UNL A   1      33.145  25.328  22.786  1.00  0.00     0.002 A 
ATOM     82  C   UNL A   1      33.278  26.392  21.897  1.00  0.00     0.000 A 
ENDBRANCH  75  77
ENDBRANCH  74  75
ENDBRANCH  73  74
ENDBRANCH  66  68
ENDBRANCH  65  66
ENDBRANCH  64  65
ENDBRANCH   1  64
TORSDOF 17
ENDMDL
MODEL 3
REMARK VINA RESULT:     -10.3      4.012      8.719
REMARK SMILES O=C(OCCOCCOC(=O)c1ccc(CNc2ccccc2)nc1)c1ccc(-c2c3nc(c(-c4c(F)cccc4F)c4ccc([nH]4)c(-c4c(F)cccc4F)c4nc(c(-c5c(F)cccc5F)c5ccc2[nH]5)C=C4)C=C3)cc1
REMARK SMILES IDX 7 1 6 2 5 3 4 4 3 5 2 6 1 7 26 8 27 9 79 10 28 11 78 12
REMARK SMILES IDX 29 13 30 14 31 15 72 16 32 17 77 18 71 19 73 20 33 21 76 22
REMARK SMILES IDX 70 23 69 24 34 26 60 27 43 28 59 29 44 30 47 31 58 32 74 33
REMARK SMILES IDX 45 34 46 35 57 37 75 38 48 39 35 40 36 41 41 42 37 43 38 44
REMARK SMILES IDX 40 45 42 46 39 47 61 48 62 49 67 50 63 51 64 52 66 53 68 54
REMARK SMILES IDX 65 55 49 56 50 57 55 58 51 59 52 60 54 61 56 62 53 63 8 64
REMARK SMILES IDX 9 65 10 66 11 67 12 68 13 69 25 70 14 71 24 72 15 73 16 74
REMARK SMILES IDX 17 75 18 77 19 78 23 79 20 80 22 81 21 82
REMARK H PARENT 73 25 47 36 17 76
REMARK Flexibility Score: inf
ROOT
ATOM      1  C   UNL A   1      34.243  33.106  28.947  1.00  0.00     0.202 C 
ENDROOT
BRANCH   1   2
ATOM      2  O   UNL A   1      35.180  33.732  29.835  1.00  0.00    -0.374 OA
BRANCH   2   3
ATOM      3  C   UNL A   1      34.624  34.272  31.037  1.00  0.00     0.202 C 
BRANCH   3   4
ATOM      4  C   UNL A   1      34.287  33.235  32.116  1.00  0.00     0.261 C 
BRANCH   4   5
ATOM      5  O   UNL A   1      35.154  32.091  32.008  1.00  0.00    -0.460 OA
BRANCH   5   6
ATOM      6  C   UNL A   1      36.315  31.845  32.661  1.00  0.00     0.338 C 
ATOM      7  O   UNL A   1      36.362  32.037  33.874  1.00  0.00    -0.246 OA
BRANCH   6   8
ATOM      8  C   UNL A   1      37.554  31.357  31.984  1.00  0.00     0.060 A 
ATOM      9  C   UNL A   1      38.627  30.758  32.640  1.00  0.00     0.016 A 
ATOM     10  C   UNL A   1      37.594  31.421  30.579  1.00  0.00     0.016 A 
ATOM     11  C   UNL A   1      39.745  30.317  31.950  1.00  0.00     0.010 A 
ATOM     12  C   UNL A   1      38.691  30.920  29.867  1.00  0.00     0.010 A 
ATOM     13  C   UNL A   1      39.780  30.382  30.559  1.00  0.00    -0.014 A 
BRANCH  13  14
ATOM     14  C   UNL A   1      41.017  29.933  29.896  1.00  0.00     0.031 A 
ATOM     15  C   UNL A   1      41.076  28.542  29.348  1.00  0.00     0.074 A 
ATOM     16  C   UNL A   1      41.984  30.833  29.643  1.00  0.00     0.049 A 
ATOM     17  N   UNL A   1      42.035  27.955  28.686  1.00  0.00    -0.248 NA
ATOM     18  C   UNL A   1      39.881  27.704  29.552  1.00  0.00     0.031 C 
ATOM     19  C   UNL A   1      41.948  32.243  30.047  1.00  0.00     0.029 A 
ATOM     20  N   UNL A   1      43.155  30.720  28.945  1.00  0.00    -0.354 N 
ATOM     21  C   UNL A   1      41.567  26.680  28.402  1.00  0.00     0.074 A 
ATOM     22  C   UNL A   1      40.245  26.569  28.976  1.00  0.00     0.031 C 
ATOM     23  C   UNL A   1      43.030  32.869  29.558  1.00  0.00     0.029 A 
ATOM     24  C   UNL A   1      43.864  31.895  28.867  1.00  0.00     0.049 A 
ATOM     25  H   UNL A   1      43.461  29.877  28.539  1.00  0.00     0.167 HD
ATOM     26  C   UNL A   1      42.191  25.695  27.715  1.00  0.00     0.037 A 
ATOM     27  C   UNL A   1      45.068  32.140  28.317  1.00  0.00     0.037 A 
ATOM     28  C   UNL A   1      43.513  25.830  27.167  1.00  0.00     0.049 A 
ATOM     29  C   UNL A   1      45.780  30.998  27.647  1.00  0.00     0.074 A 
ATOM     30  C   UNL A   1      44.296  24.878  26.544  1.00  0.00     0.029 A 
ATOM     31  N   UNL A   1      44.244  27.011  27.176  1.00  0.00    -0.354 N 
ATOM     32  N   UNL A   1      45.366  29.767  27.453  1.00  0.00    -0.248 NA
ATOM     33  C   UNL A   1      47.127  31.268  27.133  1.00  0.00     0.031 C 
ATOM     34  C   UNL A   1      45.516  25.476  26.206  1.00  0.00     0.029 A 
ATOM     35  C   UNL A   1      45.474  26.811  26.577  1.00  0.00     0.049 A 
ATOM     36  H   UNL A   1      43.932  27.866  27.554  1.00  0.00     0.167 HD
ATOM     37  C   UNL A   1      46.396  29.118  26.789  1.00  0.00     0.074 A 
ATOM     38  C   UNL A   1      47.441  30.103  26.585  1.00  0.00     0.031 C 
ATOM     39  C   UNL A   1      46.483  27.825  26.391  1.00  0.00     0.037 A 
BRANCH  26  40
ATOM     40  C   UNL A   1      41.463  24.391  27.588  1.00  0.00     0.057 A 
ATOM     41  C   UNL A   1      41.811  23.270  28.353  1.00  0.00     0.134 A 
ATOM     42  C   UNL A   1      40.427  24.242  26.657  1.00  0.00     0.134 A 
ATOM     43  F   UNL A   1      42.815  23.337  29.240  1.00  0.00    -0.206 F 
ATOM     44  C   UNL A   1      41.170  22.041  28.179  1.00  0.00     0.040 A 
ATOM     45  C   UNL A   1      39.765  23.025  26.490  1.00  0.00     0.040 A 
ATOM     46  F   UNL A   1      40.051  25.273  25.886  1.00  0.00    -0.206 F 
ATOM     47  C   UNL A   1      40.142  21.916  27.246  1.00  0.00     0.006 A 
ENDBRANCH  26  40
BRANCH  27  48
ATOM     48  C   UNL A   1      45.691  33.485  28.430  1.00  0.00     0.057 A 
ATOM     49  C   UNL A   1      45.494  34.474  27.460  1.00  0.00     0.134 A 
ATOM     50  C   UNL A   1      46.531  33.804  29.506  1.00  0.00     0.134 A 
ATOM     51  F   UNL A   1      44.720  34.230  26.393  1.00  0.00    -0.206 F 
ATOM     52  C   UNL A   1      46.126  35.719  27.543  1.00  0.00     0.040 A 
ATOM     53  C   UNL A   1      47.142  35.054  29.618  1.00  0.00     0.040 A 
ATOM     54  F   UNL A   1      46.764  32.905  30.474  1.00  0.00    -0.206 F 
ATOM     55  C   UNL A   1      46.949  36.012  28.628  1.00  0.00     0.006 A 
ENDBRANCH  27  48
BRANCH  39  56
ATOM     56  C   UNL A   1      47.740  27.425  25.682  1.00  0.00     0.057 A 
ATOM     57  C   UNL A   1      48.872  26.990  26.382  1.00  0.00     0.134 A 
ATOM     58  C   UNL A   1      47.805  27.450  24.284  1.00  0.00     0.134 A 
ATOM     59  F   UNL A   1      48.873  26.958  27.723  1.00  0.00    -0.206 F 
ATOM     60  C   UNL A   1      50.038  26.616  25.714  1.00  0.00     0.040 A 
ATOM     61  C   UNL A   1      48.956  27.054  23.604  1.00  0.00     0.040 A 
ATOM     62  F   UNL A   1      46.750  27.851  23.559  1.00  0.00    -0.206 F 
ATOM     63  C   UNL A   1      50.079  26.642  24.321  1.00  0.00     0.006 A 
ENDBRANCH  39  56
ENDBRANCH  13  14
ENDBRANCH   6   8
ENDBRANCH   5   6
ENDBRANCH   4   5
ENDBRANCH   3   4
ENDBRANCH   2   3
ENDBRANCH   1   2
BRANCH   1  64
ATOM     64  C   UNL A   1      34.976  32.124  28.029  1.00  0.00     0.261 C 
BRANCH  64  65
ATOM     65  O   UNL A   1      34.012  31.194  27.510  1.00  0.00    -0.460 OA
BRANCH  65  66
ATOM     66  C   UNL A   1      34.458  29.916  27.438  1.00  0.00     0.339 C 
ATOM     67  O   UNL A   1      35.423  29.431  28.003  1.00  0.00    -0.246 OA
BRANCH  66  68
ATOM     68  C   UNL A   1      33.433  29.123  26.745  1.00  0.00     0.078 A 
ATOM     69  C   UNL A   1      32.281  28.637  27.363  1.00  0.00     0.019 A 
ATOM     70  C   UNL A   1      33.685  28.762  25.435  1.00  0.00     0.127 A 
ATOM     71  C   UNL A   1      31.419  27.807  26.645  1.00  0.00     0.026 A 
ATOM     72  N   UNL A   1      32.873  27.953  24.722  1.00  0.00    -0.259 NA
ATOM     73  C   UNL A   1      31.742  27.488  25.329  1.00  0.00     0.059 A 
BRANCH  73  74
ATOM     74  C   UNL A   1      30.836  26.608  24.480  1.00  0.00     0.169 C 
BRANCH  74  75
ATOM     75  N   UNL A   1      30.511  27.341  23.263  1.00  0.00    -0.379 N 
ATOM     76  H   UNL A   1      30.958  27.089  22.422  1.00  0.00     0.160 HD
BRANCH  75  77
ATOM     77  C   UNL A   1      29.596  28.377  23.251  1.00  0.00     0.034 A 
ATOM     78  C   UNL A   1      28.233  28.064  23.155  1.00  0.00     0.025 A 
ATOM     79  C   UNL A   1      29.962  29.723  23.319  1.00  0.00     0.025 A 
ATOM     80  C   UNL A   1      27.257  29.062  23.166  1.00  0.00     0.002 A 
ATOM     81  C   UNL A   1      28.989  30.728  23.320  1.00  0.00     0.002 A 
ATOM     82  C   UNL A   1      27.638  30.397  23.252  1.00  0.00     0.000 A 
ENDBRANCH  75  77
ENDBRANCH  74  75
ENDBRANCH  73  74
ENDBRANCH  66  68
ENDBRANCH  65  66
ENDBRANCH  64  65
ENDBRANCH   1  64
TORSDOF 17
ENDMDL
