MODEL 1
REMARK VINA RESULT:     -11.5      0.000      0.000
REMARK SMILES Cc1n[nH]c(C(=O)Nc2cc(C(=O)OCCOCCOC(=O)c3ccc(-c4c5nc(c(-c6c(F)cccc6F)c6ccc([nH]6)c(-c6c(F)cccc6F)c6nc(c(-c7c(F)cccc7F)c7ccc4[nH]7)C=C6)C=C5)cc3)[nH]n2)n1
REMARK SMILES IDX 17 1 16 2 15 3 14 4 12 5 13 6 11 7 9 8 10 9 78 10 77 11 8 13
REMARK SMILES IDX 6 14 7 15 5 17 1 18 2 19 3 20 79 21 4 22 18 24 19 25 20 26
REMARK SMILES IDX 21 27 22 28 23 29 24 30 76 31 25 32 75 33 26 34 27 35 28 36
REMARK SMILES IDX 69 37 29 38 74 39 68 40 70 41 30 42 73 43 67 44 66 45 31 47
REMARK SMILES IDX 57 48 40 49 56 50 41 51 44 52 55 53 71 54 42 55 43 56 54 58
REMARK SMILES IDX 72 59 45 60 32 61 33 62 38 63 34 64 35 65 37 66 39 67 36 68
REMARK SMILES IDX 58 69 59 70 64 71 60 72 61 73 63 74 65 75 62 76 46 77 47 78
REMARK SMILES IDX 52 79 48 80 49 81 51 82 53 83 50 84
REMARK H PARENT 77 12 8 16 4 23 70 46 44 57
REMARK Flexibility Score: inf
ROOT
ATOM      1  O   UNL A   1      41.477  19.343  25.411  1.00  0.00    -0.374 OA
ENDROOT
BRANCH   1   2
ATOM      2  C   UNL A   1      40.291  19.666  26.138  1.00  0.00     0.202 C 
BRANCH   2   3
ATOM      3  C   UNL A   1      39.943  21.140  26.346  1.00  0.00     0.261 C 
BRANCH   3   4
ATOM      4  O   UNL A   1      38.967  21.598  25.401  1.00  0.00    -0.459 OA
BRANCH   4   5
ATOM      5  C   UNL A   1      38.093  22.516  25.891  1.00  0.00     0.356 C 
ATOM      6  O   UNL A   1      38.371  23.530  26.497  1.00  0.00    -0.244 OA
BRANCH   5   7
ATOM      7  C   UNL A   1      36.766  22.186  25.465  1.00  0.00     0.145 A 
ATOM      8  C   UNL A   1      34.601  21.877  25.242  1.00  0.00     0.155 A 
ATOM      9  C   UNL A   1      35.679  21.657  26.124  1.00  0.00     0.084 A 
ATOM     10  N   UNL A   1      35.028  22.170  24.015  1.00  0.00    -0.157 NA
ATOM     11  N   UNL A   1      36.342  22.393  24.182  1.00  0.00    -0.269 N 
ATOM     12  H   UNL A   1      36.941  22.677  23.453  1.00  0.00     0.190 HD
BRANCH   8  13
ATOM     13  N   UNL A   1      33.262  21.914  25.520  1.00  0.00    -0.302 N 
ATOM     14  C   UNL A   1      32.336  20.902  25.360  1.00  0.00     0.294 C 
ATOM     15  O   UNL A   1      31.145  21.208  25.446  1.00  0.00    -0.265 OA
ATOM     16  H   UNL A   1      32.917  22.764  25.877  1.00  0.00     0.172 HD
BRANCH  14  17
ATOM     17  C   UNL A   1      32.791  19.525  25.220  1.00  0.00     0.214 A 
ATOM     18  C   UNL A   1      33.833  16.621  23.477  1.00  0.00     0.092 C 
ATOM     19  C   UNL A   1      33.449  17.660  24.452  1.00  0.00     0.148 A 
ATOM     20  N   UNL A   1      33.311  17.404  25.756  1.00  0.00    -0.159 NA
ATOM     21  N   UNL A   1      33.152  18.948  24.086  1.00  0.00    -0.207 NA
ATOM     22  N   UNL A   1      32.823  18.569  26.202  1.00  0.00    -0.255 N 
ATOM     23  H   UNL A   1      32.522  18.721  27.126  1.00  0.00     0.192 HD
ENDBRANCH  14  17
ENDBRANCH   8  13
ENDBRANCH   5   7
ENDBRANCH   4   5
ENDBRANCH   3   4
ENDBRANCH   2   3
ENDBRANCH   1   2
BRANCH   1  24
ATOM     24  C   UNL A   1      42.744  19.292  26.051  1.00  0.00     0.202 C 
BRANCH  24  25
ATOM     25  C   UNL A   1      43.875  18.495  25.423  1.00  0.00     0.261 C 
BRANCH  25  26
ATOM     26  O   UNL A   1      44.987  19.299  25.071  1.00  0.00    -0.460 OA
BRANCH  26  27
ATOM     27  C   UNL A   1      44.754  20.068  23.982  1.00  0.00     0.338 C 
ATOM     28  O   UNL A   1      44.511  19.691  22.848  1.00  0.00    -0.246 OA
BRANCH  27  29
ATOM     29  C   UNL A   1      45.027  21.462  24.330  1.00  0.00     0.060 A 
ATOM     30  C   UNL A   1      45.927  21.663  25.379  1.00  0.00     0.016 A 
ATOM     31  C   UNL A   1      44.163  22.470  23.876  1.00  0.00     0.016 A 
ATOM     32  C   UNL A   1      45.785  22.799  26.139  1.00  0.00     0.010 A 
ATOM     33  C   UNL A   1      44.012  23.595  24.646  1.00  0.00     0.010 A 
ATOM     34  C   UNL A   1      44.759  23.694  25.815  1.00  0.00    -0.014 A 
BRANCH  34  35
ATOM     35  C   UNL A   1      44.571  24.841  26.671  1.00  0.00     0.031 A 
ATOM     36  C   UNL A   1      45.708  25.779  26.571  1.00  0.00     0.074 A 
ATOM     37  C   UNL A   1      43.439  25.042  27.371  1.00  0.00     0.049 A 
ATOM     38  N   UNL A   1      46.605  26.017  27.467  1.00  0.00    -0.248 NA
ATOM     39  C   UNL A   1      46.016  26.341  25.244  1.00  0.00     0.031 C 
ATOM     40  C   UNL A   1      42.184  24.289  27.310  1.00  0.00     0.029 A 
ATOM     41  N   UNL A   1      43.147  26.050  28.234  1.00  0.00    -0.354 N 
ATOM     42  C   UNL A   1      47.453  26.954  26.889  1.00  0.00     0.074 A 
ATOM     43  C   UNL A   1      47.190  26.928  25.477  1.00  0.00     0.031 C 
ATOM     44  C   UNL A   1      41.205  25.002  27.920  1.00  0.00     0.029 A 
ATOM     45  C   UNL A   1      41.791  26.187  28.521  1.00  0.00     0.049 A 
ATOM     46  H   UNL A   1      43.836  26.635  28.624  1.00  0.00     0.167 HD
ATOM     47  C   UNL A   1      48.061  27.895  27.658  1.00  0.00     0.037 A 
ATOM     48  C   UNL A   1      41.223  27.257  29.136  1.00  0.00     0.037 A 
ATOM     49  C   UNL A   1      48.092  27.489  29.042  1.00  0.00     0.049 A 
ATOM     50  C   UNL A   1      42.311  27.990  29.838  1.00  0.00     0.074 A 
ATOM     51  C   UNL A   1      48.614  26.404  29.721  1.00  0.00     0.029 A 
ATOM     52  N   UNL A   1      47.170  28.054  29.890  1.00  0.00    -0.354 N 
ATOM     53  N   UNL A   1      42.944  27.518  30.876  1.00  0.00    -0.248 NA
ATOM     54  C   UNL A   1      43.025  29.010  29.081  1.00  0.00     0.031 C 
ATOM     55  C   UNL A   1      47.647  26.094  30.723  1.00  0.00     0.029 A 
ATOM     56  C   UNL A   1      46.633  27.049  30.654  1.00  0.00     0.049 A 
ATOM     57  H   UNL A   1      46.936  29.008  29.940  1.00  0.00     0.167 HD
ATOM     58  C   UNL A   1      44.275  27.839  30.652  1.00  0.00     0.074 A 
ATOM     59  C   UNL A   1      44.256  28.811  29.561  1.00  0.00     0.031 C 
ATOM     60  C   UNL A   1      45.281  27.067  31.160  1.00  0.00     0.037 A 
BRANCH  47  61
ATOM     61  C   UNL A   1      48.210  29.334  27.230  1.00  0.00     0.057 A 
ATOM     62  C   UNL A   1      49.462  29.954  27.375  1.00  0.00     0.134 A 
ATOM     63  C   UNL A   1      47.135  30.214  26.972  1.00  0.00     0.134 A 
ATOM     64  F   UNL A   1      50.560  29.230  27.637  1.00  0.00    -0.206 F 
ATOM     65  C   UNL A   1      49.617  31.345  27.351  1.00  0.00     0.040 A 
ATOM     66  C   UNL A   1      47.287  31.598  26.892  1.00  0.00     0.040 A 
ATOM     67  F   UNL A   1      45.864  29.807  26.886  1.00  0.00    -0.206 F 
ATOM     68  C   UNL A   1      48.525  32.173  27.117  1.00  0.00     0.006 A 
ENDBRANCH  47  61
BRANCH  48  69
ATOM     69  C   UNL A   1      39.903  27.884  28.879  1.00  0.00     0.057 A 
ATOM     70  C   UNL A   1      38.951  28.016  29.901  1.00  0.00     0.134 A 
ATOM     71  C   UNL A   1      39.656  28.625  27.711  1.00  0.00     0.134 A 
ATOM     72  F   UNL A   1      39.119  27.384  31.073  1.00  0.00    -0.206 F 
ATOM     73  C   UNL A   1      37.835  28.855  29.780  1.00  0.00     0.040 A 
ATOM     74  C   UNL A   1      38.543  29.463  27.574  1.00  0.00     0.040 A 
ATOM     75  F   UNL A   1      40.534  28.636  26.696  1.00  0.00    -0.206 F 
ATOM     76  C   UNL A   1      37.635  29.592  28.617  1.00  0.00     0.006 A 
ENDBRANCH  48  69
BRANCH  60  77
ATOM     77  C   UNL A   1      44.918  26.005  32.162  1.00  0.00     0.057 A 
ATOM     78  C   UNL A   1      44.558  24.690  31.829  1.00  0.00     0.134 A 
ATOM     79  C   UNL A   1      45.089  26.287  33.521  1.00  0.00     0.134 A 
ATOM     80  F   UNL A   1      44.467  24.297  30.552  1.00  0.00    -0.206 F 
ATOM     81  C   UNL A   1      44.337  23.715  32.809  1.00  0.00     0.040 A 
ATOM     82  C   UNL A   1      44.906  25.315  34.507  1.00  0.00     0.040 A 
ATOM     83  F   UNL A   1      45.487  27.509  33.912  1.00  0.00    -0.206 F 
ATOM     84  C   UNL A   1      44.519  24.026  34.152  1.00  0.00     0.006 A 
ENDBRANCH  60  77
ENDBRANCH  34  35
ENDBRANCH  27  29
ENDBRANCH  26  27
ENDBRANCH  25  26
ENDBRANCH  24  25
ENDBRANCH   1  24
TORSDOF 16
ENDMDL
MODEL 2
REMARK VINA RESULT:     -11.3      6.086     11.392
REMARK SMILES Cc1n[nH]c(C(=O)Nc2cc(C(=O)OCCOCCOC(=O)c3ccc(-c4c5nc(c(-c6c(F)cccc6F)c6ccc([nH]6)c(-c6c(F)cccc6F)c6nc(c(-c7c(F)cccc7F)c7ccc4[nH]7)C=C6)C=C5)cc3)[nH]n2)n1
REMARK SMILES IDX 17 1 16 2 15 3 14 4 12 5 13 6 11 7 9 8 10 9 78 10 77 11 8 13
REMARK SMILES IDX 6 14 7 15 5 17 1 18 2 19 3 20 79 21 4 22 18 24 19 25 20 26
REMARK SMILES IDX 21 27 22 28 23 29 24 30 76 31 25 32 75 33 26 34 27 35 28 36
REMARK SMILES IDX 69 37 29 38 74 39 68 40 70 41 30 42 73 43 67 44 66 45 31 47
REMARK SMILES IDX 57 48 40 49 56 50 41 51 44 52 55 53 71 54 42 55 43 56 54 58
REMARK SMILES IDX 72 59 45 60 32 61 33 62 38 63 34 64 35 65 37 66 39 67 36 68
REMARK SMILES IDX 58 69 59 70 64 71 60 72 61 73 63 74 65 75 62 76 46 77 47 78
REMARK SMILES IDX 52 79 48 80 49 81 51 82 53 83 50 84
REMARK H PARENT 77 12 8 16 4 23 70 46 44 57
REMARK Flexibility Score: inf
ROOT
ATOM      1  O   UNL A   1      33.011  34.615  29.925  1.00  0.00    -0.374 OA
ENDROOT
BRANCH   1   2
ATOM      2  C   UNL A   1      32.852  36.016  29.701  1.00  0.00     0.202 C 
BRANCH   2   3
ATOM      3  C   UNL A   1      33.220  36.980  30.829  1.00  0.00     0.261 C 
BRANCH   3   4
ATOM      4  O   UNL A   1      32.861  36.458  32.116  1.00  0.00    -0.459 OA
BRANCH   4   5
ATOM      5  C   UNL A   1      33.849  36.523  33.048  1.00  0.00     0.356 C 
ATOM      6  O   UNL A   1      33.997  37.386  33.887  1.00  0.00    -0.244 OA
BRANCH   5   7
ATOM      7  C   UNL A   1      34.637  35.328  32.990  1.00  0.00     0.145 A 
ATOM      8  C   UNL A   1      35.419  33.284  32.786  1.00  0.00     0.155 A 
ATOM      9  C   UNL A   1      34.411  34.041  33.420  1.00  0.00     0.084 A 
ATOM     10  N   UNL A   1      36.390  34.064  32.316  1.00  0.00    -0.157 NA
ATOM     11  N   UNL A   1      35.877  35.302  32.413  1.00  0.00    -0.269 N 
ATOM     12  H   UNL A   1      36.345  36.110  32.099  1.00  0.00     0.190 HD
BRANCH   8  13
ATOM     13  N   UNL A   1      35.451  31.939  32.538  1.00  0.00    -0.302 N 
ATOM     14  C   UNL A   1      36.543  31.095  32.588  1.00  0.00     0.294 C 
ATOM     15  O   UNL A   1      36.408  29.969  32.104  1.00  0.00    -0.265 OA
ATOM     16  H   UNL A   1      34.593  31.524  32.294  1.00  0.00     0.172 HD
BRANCH  14  17
ATOM     17  C   UNL A   1      37.744  31.511  33.301  1.00  0.00     0.214 A 
ATOM     18  C   UNL A   1      39.798  32.066  36.134  1.00  0.00     0.092 C 
ATOM     19  C   UNL A   1      39.184  31.939  34.798  1.00  0.00     0.148 A 
ATOM     20  N   UNL A   1      39.758  32.428  33.695  1.00  0.00    -0.159 NA
ATOM     21  N   UNL A   1      37.957  31.360  34.597  1.00  0.00    -0.207 NA
ATOM     22  N   UNL A   1      38.800  32.216  32.784  1.00  0.00    -0.255 N 
ATOM     23  H   UNL A   1      38.848  32.529  31.853  1.00  0.00     0.192 HD
ENDBRANCH  14  17
ENDBRANCH   8  13
ENDBRANCH   5   7
ENDBRANCH   4   5
ENDBRANCH   3   4
ENDBRANCH   2   3
ENDBRANCH   1   2
BRANCH   1  24
ATOM     24  C   UNL A   1      34.168  33.922  29.477  1.00  0.00     0.202 C 
BRANCH  24  25
ATOM     25  C   UNL A   1      34.520  33.920  27.998  1.00  0.00     0.261 C 
BRANCH  25  26
ATOM     26  O   UNL A   1      35.615  33.074  27.694  1.00  0.00    -0.460 OA
BRANCH  26  27
ATOM     27  C   UNL A   1      35.295  31.760  27.750  1.00  0.00     0.338 C 
ATOM     28  O   UNL A   1      34.285  31.227  27.324  1.00  0.00    -0.246 OA
BRANCH  27  29
ATOM     29  C   UNL A   1      36.280  31.076  28.587  1.00  0.00     0.060 A 
ATOM     30  C   UNL A   1      37.312  31.873  29.087  1.00  0.00     0.016 A 
ATOM     31  C   UNL A   1      36.355  29.675  28.562  1.00  0.00     0.016 A 
ATOM     32  C   UNL A   1      38.524  31.275  29.333  1.00  0.00     0.010 A 
ATOM     33  C   UNL A   1      37.570  29.083  28.791  1.00  0.00     0.010 A 
ATOM     34  C   UNL A   1      38.655  29.904  29.080  1.00  0.00    -0.014 A 
BRANCH  34  35
ATOM     35  C   UNL A   1      39.956  29.306  29.265  1.00  0.00     0.031 A 
ATOM     36  C   UNL A   1      40.288  29.171  30.698  1.00  0.00     0.074 A 
ATOM     37  C   UNL A   1      40.692  28.846  28.237  1.00  0.00     0.049 A 
ATOM     38  N   UNL A   1      41.169  29.839  31.362  1.00  0.00    -0.248 NA
ATOM     39  C   UNL A   1      39.378  28.372  31.538  1.00  0.00     0.031 C 
ATOM     40  C   UNL A   1      40.310  28.714  26.828  1.00  0.00     0.029 A 
ATOM     41  N   UNL A   1      41.936  28.299  28.266  1.00  0.00    -0.354 N 
ATOM     42  C   UNL A   1      41.086  29.355  32.662  1.00  0.00     0.074 A 
ATOM     43  C   UNL A   1      39.835  28.654  32.758  1.00  0.00     0.031 C 
ATOM     44  C   UNL A   1      41.205  27.919  26.195  1.00  0.00     0.029 A 
ATOM     45  C   UNL A   1      42.282  27.597  27.114  1.00  0.00     0.049 A 
ATOM     46  H   UNL A   1      42.541  28.391  29.036  1.00  0.00     0.167 HD
ATOM     47  C   UNL A   1      42.195  29.296  33.444  1.00  0.00     0.037 A 
ATOM     48  C   UNL A   1      43.343  26.756  26.996  1.00  0.00     0.037 A 
ATOM     49  C   UNL A   1      43.221  30.183  32.953  1.00  0.00     0.049 A 
ATOM     50  C   UNL A   1      44.284  27.078  28.103  1.00  0.00     0.074 A 
ATOM     51  C   UNL A   1      43.294  31.544  32.721  1.00  0.00     0.029 A 
ATOM     52  N   UNL A   1      44.255  29.625  32.241  1.00  0.00    -0.354 N 
ATOM     53  N   UNL A   1      44.961  28.191  28.172  1.00  0.00    -0.248 NA
ATOM     54  C   UNL A   1      44.085  26.388  29.371  1.00  0.00     0.031 C 
ATOM     55  C   UNL A   1      44.051  31.675  31.519  1.00  0.00     0.029 A 
ATOM     56  C   UNL A   1      44.463  30.401  31.129  1.00  0.00     0.049 A 
ATOM     57  H   UNL A   1      44.756  28.815  32.485  1.00  0.00     0.167 HD
ATOM     58  C   UNL A   1      44.887  28.566  29.506  1.00  0.00     0.074 A 
ATOM     59  C   UNL A   1      44.387  27.385  30.208  1.00  0.00     0.031 C 
ATOM     60  C   UNL A   1      44.947  29.879  29.872  1.00  0.00     0.037 A 
BRANCH  47  61
ATOM     61  C   UNL A   1      42.496  28.132  34.356  1.00  0.00     0.057 A 
ATOM     62  C   UNL A   1      42.556  28.358  35.740  1.00  0.00     0.134 A 
ATOM     63  C   UNL A   1      43.018  26.890  33.930  1.00  0.00     0.134 A 
ATOM     64  F   UNL A   1      42.105  29.505  36.269  1.00  0.00    -0.206 F 
ATOM     65  C   UNL A   1      43.165  27.456  36.621  1.00  0.00     0.040 A 
ATOM     66  C   UNL A   1      43.579  25.960  34.806  1.00  0.00     0.040 A 
ATOM     67  F   UNL A   1      43.115  26.542  32.642  1.00  0.00    -0.206 F 
ATOM     68  C   UNL A   1      43.688  26.256  36.153  1.00  0.00     0.006 A 
ENDBRANCH  47  61
BRANCH  48  69
ATOM     69  C   UNL A   1      43.442  25.486  26.236  1.00  0.00     0.057 A 
ATOM     70  C   UNL A   1      44.453  25.288  25.284  1.00  0.00     0.134 A 
ATOM     71  C   UNL A   1      42.734  24.337  26.627  1.00  0.00     0.134 A 
ATOM     72  F   UNL A   1      45.216  26.314  24.878  1.00  0.00    -0.206 F 
ATOM     73  C   UNL A   1      44.760  24.019  24.771  1.00  0.00     0.040 A 
ATOM     74  C   UNL A   1      43.026  23.065  26.120  1.00  0.00     0.040 A 
ATOM     75  F   UNL A   1      41.795  24.392  27.584  1.00  0.00    -0.206 F 
ATOM     76  C   UNL A   1      44.053  22.901  25.200  1.00  0.00     0.006 A 
ENDBRANCH  48  69
BRANCH  60  77
ATOM     77  C   UNL A   1      45.335  30.888  28.825  1.00  0.00     0.057 A 
ATOM     78  C   UNL A   1      46.659  31.203  28.480  1.00  0.00     0.134 A 
ATOM     79  C   UNL A   1      44.327  31.447  28.034  1.00  0.00     0.134 A 
ATOM     80  F   UNL A   1      47.695  30.640  29.115  1.00  0.00    -0.206 F 
ATOM     81  C   UNL A   1      46.959  32.069  27.422  1.00  0.00     0.040 A 
ATOM     82  C   UNL A   1      44.613  32.285  26.954  1.00  0.00     0.040 A 
ATOM     83  F   UNL A   1      43.040  31.147  28.270  1.00  0.00    -0.206 F 
ATOM     84  C   UNL A   1      45.933  32.606  26.651  1.00  0.00     0.006 A 
ENDBRANCH  60  77
ENDBRANCH  34  35
ENDBRANCH  27  29
ENDBRANCH  26  27
ENDBRANCH  25  26
ENDBRANCH  24  25
ENDBRANCH   1  24
TORSDOF 16
ENDMDL
MODEL 3
REMARK VINA RESULT:     -11.2      6.445     11.379
REMARK SMILES Cc1n[nH]c(C(=O)Nc2cc(C(=O)OCCOCCOC(=O)c3ccc(-c4c5nc(c(-c6c(F)cccc6F)c6ccc([nH]6)c(-c6c(F)cccc6F)c6nc(c(-c7c(F)cccc7F)c7ccc4[nH]7)C=C6)C=C5)cc3)[nH]n2)n1
REMARK SMILES IDX 17 1 16 2 15 3 14 4 12 5 13 6 11 7 9 8 10 9 78 10 77 11 8 13
REMARK SMILES IDX 6 14 7 15 5 17 1 18 2 19 3 20 79 21 4 22 18 24 19 25 20 26
REMARK SMILES IDX 21 27 22 28 23 29 24 30 76 31 25 32 75 33 26 34 27 35 28 36
REMARK SMILES IDX 69 37 29 38 74 39 68 40 70 41 30 42 73 43 67 44 66 45 31 47
REMARK SMILES IDX 57 48 40 49 56 50 41 51 44 52 55 53 71 54 42 55 43 56 54 58
REMARK SMILES IDX 72 59 45 60 32 61 33 62 38 63 34 64 35 65 37 66 39 67 36 68
REMARK SMILES IDX 58 69 59 70 64 71 60 72 61 73 63 74 65 75 62 76 46 77 47 78
REMARK SMILES IDX 52 79 48 80 49 81 51 82 53 83 50 84
REMARK H PARENT 77 12 8 16 4 23 70 46 44 57
REMARK Flexibility Score: inf
ROOT
ATOM      1  O   UNL A   1      34.292  33.771  29.201  1.00  0.00    -0.374 OA
ENDROOT
BRANCH   1   2
ATOM      2  C   UNL A   1      33.544  32.952  28.301  1.00  0.00     0.202 C 
BRANCH   2   3
ATOM      3  C   UNL A   1      34.249  31.772  27.632  1.00  0.00     0.261 C 
BRANCH   3   4
ATOM      4  O   UNL A   1      33.444  30.586  27.654  1.00  0.00    -0.459 OA
BRANCH   4   5
ATOM      5  C   UNL A   1      32.516  30.514  26.664  1.00  0.00     0.356 C 
ATOM      6  O   UNL A   1      31.594  31.280  26.479  1.00  0.00    -0.244 OA
BRANCH   5   7
ATOM      7  C   UNL A   1      32.865  29.460  25.759  1.00  0.00     0.145 A 
ATOM      8  C   UNL A   1      32.958  27.665  24.493  1.00  0.00     0.155 A 
ATOM      9  C   UNL A   1      32.704  28.094  25.813  1.00  0.00     0.084 A 
ATOM     10  N   UNL A   1      33.574  28.609  23.785  1.00  0.00    -0.157 NA
ATOM     11  N   UNL A   1      33.470  29.703  24.557  1.00  0.00    -0.269 N 
ATOM     12  H   UNL A   1      33.797  30.592  24.286  1.00  0.00     0.190 HD
BRANCH   8  13
ATOM     13  N   UNL A   1      32.578  26.501  23.884  1.00  0.00    -0.302 N 
ATOM     14  C   UNL A   1      31.360  26.209  23.301  1.00  0.00     0.294 C 
ATOM     15  O   UNL A   1      31.137  25.031  23.017  1.00  0.00    -0.265 OA
ATOM     16  H   UNL A   1      33.253  25.785  23.859  1.00  0.00     0.172 HD
BRANCH  14  17
ATOM     17  C   UNL A   1      30.456  27.294  22.941  1.00  0.00     0.214 A 
ATOM     18  C   UNL A   1      27.395  29.079  22.902  1.00  0.00     0.092 C 
ATOM     19  C   UNL A   1      28.770  28.568  22.747  1.00  0.00     0.148 A 
ATOM     20  N   UNL A   1      29.654  29.127  21.916  1.00  0.00    -0.159 NA
ATOM     21  N   UNL A   1      29.226  27.452  23.402  1.00  0.00    -0.207 NA
ATOM     22  N   UNL A   1      30.675  28.264  21.998  1.00  0.00    -0.255 N 
ATOM     23  H   UNL A   1      31.487  28.319  21.445  1.00  0.00     0.192 HD
ENDBRANCH  14  17
ENDBRANCH   8  13
ENDBRANCH   5   7
ENDBRANCH   4   5
ENDBRANCH   3   4
ENDBRANCH   2   3
ENDBRANCH   1   2
BRANCH   1  24
ATOM     24  C   UNL A   1      34.159  35.186  29.194  1.00  0.00     0.202 C 
BRANCH  24  25
ATOM     25  C   UNL A   1      33.034  35.841  29.978  1.00  0.00     0.261 C 
BRANCH  25  26
ATOM     26  O   UNL A   1      32.551  35.027  31.033  1.00  0.00    -0.460 OA
BRANCH  26  27
ATOM     27  C   UNL A   1      32.869  35.510  32.256  1.00  0.00     0.338 C 
ATOM     28  O   UNL A   1      32.387  36.482  32.815  1.00  0.00    -0.246 OA
BRANCH  27  29
ATOM     29  C   UNL A   1      34.041  34.790  32.752  1.00  0.00     0.060 A 
ATOM     30  C   UNL A   1      35.202  35.550  32.907  1.00  0.00     0.016 A 
ATOM     31  C   UNL A   1      34.059  33.388  32.711  1.00  0.00     0.016 A 
ATOM     32  C   UNL A   1      36.411  34.912  32.770  1.00  0.00     0.010 A 
ATOM     33  C   UNL A   1      35.266  32.756  32.558  1.00  0.00     0.010 A 
ATOM     34  C   UNL A   1      36.414  33.540  32.495  1.00  0.00    -0.014 A 
BRANCH  34  35
ATOM     35  C   UNL A   1      37.688  32.899  32.273  1.00  0.00     0.031 A 
ATOM     36  C   UNL A   1      38.512  32.901  33.499  1.00  0.00     0.074 A 
ATOM     37  C   UNL A   1      38.000  32.296  31.112  1.00  0.00     0.049 A 
ATOM     38  N   UNL A   1      39.579  33.590  33.722  1.00  0.00    -0.248 NA
ATOM     39  C   UNL A   1      37.958  32.243  34.696  1.00  0.00     0.031 C 
ATOM     40  C   UNL A   1      37.136  32.035  29.958  1.00  0.00     0.029 A 
ATOM     41  N   UNL A   1      39.166  31.692  30.760  1.00  0.00    -0.354 N 
ATOM     42  C   UNL A   1      39.965  33.252  35.013  1.00  0.00     0.074 A 
ATOM     43  C   UNL A   1      38.826  32.629  35.630  1.00  0.00     0.031 C 
ATOM     44  C   UNL A   1      37.735  31.132  29.145  1.00  0.00     0.029 A 
ATOM     45  C   UNL A   1      39.068  30.856  29.651  1.00  0.00     0.049 A 
ATOM     46  H   UNL A   1      40.009  31.835  31.247  1.00  0.00     0.167 HD
ATOM     47  C   UNL A   1      41.281  33.220  35.350  1.00  0.00     0.037 A 
ATOM     48  C   UNL A   1      40.007  29.954  29.263  1.00  0.00     0.037 A 
ATOM     49  C   UNL A   1      42.069  33.997  34.425  1.00  0.00     0.049 A 
ATOM     50  C   UNL A   1      41.287  30.343  29.915  1.00  0.00     0.074 A 
ATOM     51  C   UNL A   1      42.067  35.320  34.024  1.00  0.00     0.029 A 
ATOM     52  N   UNL A   1      42.773  33.314  33.461  1.00  0.00    -0.354 N 
ATOM     53  N   UNL A   1      41.953  31.421  29.607  1.00  0.00    -0.248 NA
ATOM     54  C   UNL A   1      41.551  29.803  31.242  1.00  0.00     0.031 C 
ATOM     55  C   UNL A   1      42.341  35.283  32.625  1.00  0.00     0.029 A 
ATOM     56  C   UNL A   1      42.574  33.956  32.266  1.00  0.00     0.049 A 
ATOM     57  H   UNL A   1      43.320  32.510  33.605  1.00  0.00     0.167 HD
ATOM     58  C   UNL A   1      42.368  31.939  30.826  1.00  0.00     0.074 A 
ATOM     59  C   UNL A   1      42.143  30.866  31.794  1.00  0.00     0.031 C 
ATOM     60  C   UNL A   1      42.568  33.279  30.990  1.00  0.00     0.037 A 
BRANCH  47  61
ATOM     61  C   UNL A   1      41.879  32.145  36.224  1.00  0.00     0.057 A 
ATOM     62  C   UNL A   1      42.716  32.528  37.284  1.00  0.00     0.134 A 
ATOM     63  C   UNL A   1      41.916  30.771  35.900  1.00  0.00     0.134 A 
ATOM     64  F   UNL A   1      42.782  33.808  37.681  1.00  0.00    -0.206 F 
ATOM     65  C   UNL A   1      43.587  31.629  37.913  1.00  0.00     0.040 A 
ATOM     66  C   UNL A   1      42.741  29.856  36.556  1.00  0.00     0.040 A 
ATOM     67  F   UNL A   1      41.246  30.246  34.868  1.00  0.00    -0.206 F 
ATOM     68  C   UNL A   1      43.607  30.290  37.543  1.00  0.00     0.006 A 
ENDBRANCH  47  61
BRANCH  48  69
ATOM     69  C   UNL A   1      39.814  28.607  28.672  1.00  0.00     0.057 A 
ATOM     70  C   UNL A   1      40.370  28.275  27.427  1.00  0.00     0.134 A 
ATOM     71  C   UNL A   1      39.334  27.530  29.436  1.00  0.00     0.134 A 
ATOM     72  F   UNL A   1      40.897  29.226  26.641  1.00  0.00    -0.206 F 
ATOM     73  C   UNL A   1      40.466  26.949  26.980  1.00  0.00     0.040 A 
ATOM     74  C   UNL A   1      39.418  26.202  29.001  1.00  0.00     0.040 A 
ATOM     75  F   UNL A   1      38.849  27.718  30.673  1.00  0.00    -0.206 F 
ATOM     76  C   UNL A   1      40.000  25.907  27.775  1.00  0.00     0.006 A 
ENDBRANCH  48  69
BRANCH  60  77
ATOM     77  C   UNL A   1      42.563  34.150  29.762  1.00  0.00     0.057 A 
ATOM     78  C   UNL A   1      41.432  34.822  29.271  1.00  0.00     0.134 A 
ATOM     79  C   UNL A   1      43.784  34.436  29.145  1.00  0.00     0.134 A 
ATOM     80  F   UNL A   1      40.236  34.688  29.859  1.00  0.00    -0.206 F 
ATOM     81  C   UNL A   1      41.511  35.704  28.189  1.00  0.00     0.040 A 
ATOM     82  C   UNL A   1      43.883  35.341  28.086  1.00  0.00     0.040 A 
ATOM     83  F   UNL A   1      44.917  33.874  29.596  1.00  0.00    -0.206 F 
ATOM     84  C   UNL A   1      42.741  35.972  27.598  1.00  0.00     0.006 A 
ENDBRANCH  60  77
ENDBRANCH  34  35
ENDBRANCH  27  29
ENDBRANCH  26  27
ENDBRANCH  25  26
ENDBRANCH  24  25
ENDBRANCH   1  24
TORSDOF 16
ENDMDL
