MODEL 1
REMARK VINA RESULT:     -10.0      0.000      0.000
REMARK SMILES O=C(N/N=C/c1ccc(C(=O)OCCOCCOC(=O)c2ccc(-c3c4nc(c(-c5c(F)cccc5F)c5ccc([nH]5)c(-c5c(F)cccc5F)c5nc(c(-c6c(F)cccc6F)c6ccc3[nH]6)C=C5)C=C4)cc2)cc1)C(=O)Nc1ccc2c(c1)OCO2
REMARK SMILES IDX 14 1 13 2 12 3 10 4 11 5 9 6 6 7 7 8 76 9 8 10 75 11 5 12
REMARK SMILES IDX 4 13 3 14 1 15 2 16 77 18 78 19 79 20 80 22 81 23 85 24
REMARK SMILES IDX 82 25 84 26 83 27 86 28 88 29 87 30 15 31 16 32 17 33 18 34
REMARK SMILES IDX 19 35 20 36 21 37 22 38 74 39 23 40 73 41 24 42 25 43 26 44
REMARK SMILES IDX 67 45 27 46 72 47 66 48 68 49 28 50 71 51 65 52 64 53 29 55
REMARK SMILES IDX 55 56 38 57 54 58 39 59 42 60 53 61 69 62 40 63 41 64 52 66
REMARK SMILES IDX 70 67 43 68 30 69 31 70 36 71 32 72 33 73 35 74 37 75 34 76
REMARK SMILES IDX 56 77 57 78 62 79 58 80 59 81 61 82 63 83 60 84 44 85 45 86
REMARK SMILES IDX 50 87 46 88 47 89 49 90 51 91 48 92
REMARK H PARENT 3 17 79 21 68 54 42 65
REMARK Flexibility Score: inf
ROOT
ATOM      1  C   UNL A   1      33.920  34.948  29.860  1.00  0.00     0.202 C 
ENDROOT
BRANCH   1   2
ATOM      2  C   UNL A   1      33.862  33.856  28.790  1.00  0.00     0.261 C 
BRANCH   2   3
ATOM      3  O   UNL A   1      34.322  32.606  29.327  1.00  0.00    -0.460 OA
BRANCH   3   4
ATOM      4  C   UNL A   1      34.549  31.646  28.400  1.00  0.00     0.338 C 
ATOM      5  O   UNL A   1      33.862  31.389  27.426  1.00  0.00    -0.246 OA
BRANCH   4   6
ATOM      6  C   UNL A   1      35.866  31.014  28.624  1.00  0.00     0.060 A 
ATOM      7  C   UNL A   1      38.717  29.866  28.508  1.00  0.00    -0.005 A 
ATOM      8  C   UNL A   1      38.276  31.289  28.772  1.00  0.00     0.010 A 
ATOM      9  C   UNL A   1      37.393  29.139  28.718  1.00  0.00     0.010 A 
ATOM     10  C   UNL A   1      36.966  31.829  28.765  1.00  0.00     0.016 A 
ATOM     11  C   UNL A   1      36.068  29.661  28.739  1.00  0.00     0.016 A 
BRANCH   7  12
ATOM     12  C   UNL A   1      40.615  29.154  27.845  1.00  0.00     0.141 C 
ATOM     13  N   UNL A   1      41.393  28.025  28.011  1.00  0.00    -0.180 NA
BRANCH  13  14
ATOM     14  N   UNL A   1      42.719  28.272  27.886  1.00  0.00    -0.239 N 
ATOM     15  O   UNL A   1      44.679  28.048  26.760  1.00  0.00    -0.262 OA
ATOM     16  C   UNL A   1      43.459  27.898  26.771  1.00  0.00     0.329 C 
ATOM     17  H   UNL A   1      43.180  28.739  28.620  1.00  0.00     0.194 HD
BRANCH  16  18
ATOM     18  C   UNL A   1      42.759  27.394  25.479  1.00  0.00     0.315 C 
ATOM     19  O   UNL A   1      42.397  28.231  24.651  1.00  0.00    -0.263 OA
ATOM     20  N   UNL A   1      42.635  26.040  25.153  1.00  0.00    -0.318 N 
ATOM     21  H   UNL A   1      42.801  25.759  24.226  1.00  0.00     0.170 HD
BRANCH  20  22
ATOM     22  C   UNL A   1      42.284  25.066  26.102  1.00  0.00     0.045 A 
ATOM     23  C   UNL A   1      40.501  24.986  26.578  1.00  0.00     0.030 A 
ATOM     24  C   UNL A   1      43.327  23.561  26.147  1.00  0.00     0.076 A 
ATOM     25  C   UNL A   1      39.760  23.363  27.014  1.00  0.00     0.053 A 
ATOM     26  C   UNL A   1      42.513  21.968  26.432  1.00  0.00     0.167 A 
ATOM     27  C   UNL A   1      40.763  21.881  26.834  1.00  0.00     0.165 A 
ATOM     28  O   UNL A   1      42.911  20.692  26.195  1.00  0.00    -0.454 OA
ATOM     29  O   UNL A   1      40.431  20.569  26.811  1.00  0.00    -0.454 OA
ATOM     30  C   UNL A   1      41.617  19.977  26.151  1.00  0.00     0.468 C 
ENDBRANCH  20  22
ENDBRANCH  16  18
ENDBRANCH  13  14
ENDBRANCH   7  12
ENDBRANCH   4   6
ENDBRANCH   3   4
ENDBRANCH   2   3
ENDBRANCH   1   2
BRANCH   1  31
ATOM     31  O   UNL A   1      33.453  34.597  31.162  1.00  0.00    -0.374 OA
BRANCH  31  32
ATOM     32  C   UNL A   1      34.401  34.581  32.229  1.00  0.00     0.202 C 
BRANCH  32  33
ATOM     33  C   UNL A   1      35.833  34.152  31.891  1.00  0.00     0.261 C 
BRANCH  33  34
ATOM     34  O   UNL A   1      36.049  32.751  32.129  1.00  0.00    -0.460 OA
BRANCH  34  35
ATOM     35  C   UNL A   1      36.590  32.463  33.337  1.00  0.00     0.338 C 
ATOM     36  O   UNL A   1      36.106  32.669  34.436  1.00  0.00    -0.246 OA
BRANCH  35  37
ATOM     37  C   UNL A   1      37.818  31.668  33.153  1.00  0.00     0.060 A 
ATOM     38  C   UNL A   1      38.984  32.123  33.783  1.00  0.00     0.016 A 
ATOM     39  C   UNL A   1      37.847  30.554  32.315  1.00  0.00     0.016 A 
ATOM     40  C   UNL A   1      40.199  31.493  33.537  1.00  0.00     0.010 A 
ATOM     41  C   UNL A   1      39.071  29.930  32.056  1.00  0.00     0.010 A 
ATOM     42  C   UNL A   1      40.255  30.422  32.636  1.00  0.00    -0.014 A 
BRANCH  42  43
ATOM     43  C   UNL A   1      41.572  29.929  32.169  1.00  0.00     0.031 A 
ATOM     44  C   UNL A   1      42.265  30.664  31.056  1.00  0.00     0.074 A 
ATOM     45  C   UNL A   1      42.153  28.863  32.745  1.00  0.00     0.049 A 
ATOM     46  N   UNL A   1      43.387  30.383  30.446  1.00  0.00    -0.248 NA
ATOM     47  C   UNL A   1      41.599  31.881  30.563  1.00  0.00     0.031 C 
ATOM     48  C   UNL A   1      41.605  28.103  33.866  1.00  0.00     0.029 A 
ATOM     49  N   UNL A   1      43.336  28.232  32.454  1.00  0.00    -0.354 N 
ATOM     50  C   UNL A   1      43.557  31.381  29.494  1.00  0.00     0.074 A 
ATOM     51  C   UNL A   1      42.409  32.256  29.585  1.00  0.00     0.031 C 
ATOM     52  C   UNL A   1      42.446  27.098  34.162  1.00  0.00     0.029 A 
ATOM     53  C   UNL A   1      43.570  27.123  33.229  1.00  0.00     0.049 A 
ATOM     54  H   UNL A   1      43.957  28.544  31.757  1.00  0.00     0.167 HD
ATOM     55  C   UNL A   1      44.583  31.555  28.627  1.00  0.00     0.037 A 
ATOM     56  C   UNL A   1      44.570  26.222  33.172  1.00  0.00     0.037 A 
ATOM     57  C   UNL A   1      45.723  30.680  28.541  1.00  0.00     0.049 A 
ATOM     58  C   UNL A   1      45.656  26.389  32.143  1.00  0.00     0.074 A 
ATOM     59  C   UNL A   1      46.819  30.771  27.700  1.00  0.00     0.029 A 
ATOM     60  N   UNL A   1      45.908  29.547  29.319  1.00  0.00    -0.354 N 
ATOM     61  N   UNL A   1      45.815  27.339  31.253  1.00  0.00    -0.248 NA
ATOM     62  C   UNL A   1      46.701  25.356  32.110  1.00  0.00     0.031 C 
ATOM     63  C   UNL A   1      47.644  29.667  27.938  1.00  0.00     0.029 A 
ATOM     64  C   UNL A   1      47.089  28.918  28.964  1.00  0.00     0.049 A 
ATOM     65  H   UNL A   1      45.291  29.237  30.021  1.00  0.00     0.167 HD
ATOM     66  C   UNL A   1      46.995  27.040  30.581  1.00  0.00     0.074 A 
ATOM     67  C   UNL A   1      47.512  25.822  31.170  1.00  0.00     0.031 C 
ATOM     68  C   UNL A   1      47.597  27.714  29.571  1.00  0.00     0.037 A 
BRANCH  55  69
ATOM     69  C   UNL A   1      44.502  32.721  27.687  1.00  0.00     0.057 A 
ATOM     70  C   UNL A   1      44.944  34.000  28.051  1.00  0.00     0.134 A 
ATOM     71  C   UNL A   1      43.991  32.559  26.392  1.00  0.00     0.134 A 
ATOM     72  F   UNL A   1      45.429  34.227  29.280  1.00  0.00    -0.206 F 
ATOM     73  C   UNL A   1      44.858  35.080  27.170  1.00  0.00     0.040 A 
ATOM     74  C   UNL A   1      43.924  33.625  25.495  1.00  0.00     0.040 A 
ATOM     75  F   UNL A   1      43.553  31.360  25.979  1.00  0.00    -0.206 F 
ATOM     76  C   UNL A   1      44.352  34.891  25.885  1.00  0.00     0.006 A 
ENDBRANCH  55  69
BRANCH  56  77
ATOM     77  C   UNL A   1      44.587  25.070  34.109  1.00  0.00     0.057 A 
ATOM     78  C   UNL A   1      44.161  23.801  33.705  1.00  0.00     0.134 A 
ATOM     79  C   UNL A   1      45.010  25.217  35.436  1.00  0.00     0.134 A 
ATOM     80  F   UNL A   1      43.722  23.603  32.453  1.00  0.00    -0.206 F 
ATOM     81  C   UNL A   1      44.136  22.721  34.589  1.00  0.00     0.040 A 
ATOM     82  C   UNL A   1      45.016  24.140  36.325  1.00  0.00     0.040 A 
ATOM     83  F   UNL A   1      45.433  26.406  35.886  1.00  0.00    -0.206 F 
ATOM     84  C   UNL A   1      44.570  22.889  35.904  1.00  0.00     0.006 A 
ENDBRANCH  56  77
BRANCH  68  85
ATOM     85  C   UNL A   1      48.910  27.183  29.072  1.00  0.00     0.057 A 
ATOM     86  C   UNL A   1      50.130  27.553  29.651  1.00  0.00     0.134 A 
ATOM     87  C   UNL A   1      48.946  26.248  28.028  1.00  0.00     0.134 A 
ATOM     88  F   UNL A   1      50.166  28.453  30.646  1.00  0.00    -0.206 F 
ATOM     89  C   UNL A   1      51.341  27.028  29.197  1.00  0.00     0.040 A 
ATOM     90  C   UNL A   1      50.148  25.696  27.585  1.00  0.00     0.040 A 
ATOM     91  F   UNL A   1      47.813  25.843  27.437  1.00  0.00    -0.206 F 
ATOM     92  C   UNL A   1      51.351  26.089  28.166  1.00  0.00     0.006 A 
ENDBRANCH  68  85
ENDBRANCH  42  43
ENDBRANCH  35  37
ENDBRANCH  34  35
ENDBRANCH  33  34
ENDBRANCH  32  33
ENDBRANCH  31  32
ENDBRANCH   1  31
TORSDOF 18
ENDMDL
MODEL 2
REMARK VINA RESULT:      -9.5      4.006      7.428
REMARK SMILES O=C(N/N=C/c1ccc(C(=O)OCCOCCOC(=O)c2ccc(-c3c4nc(c(-c5c(F)cccc5F)c5ccc([nH]5)c(-c5c(F)cccc5F)c5nc(c(-c6c(F)cccc6F)c6ccc3[nH]6)C=C5)C=C4)cc2)cc1)C(=O)Nc1ccc2c(c1)OCO2
REMARK SMILES IDX 14 1 13 2 12 3 10 4 11 5 9 6 6 7 7 8 76 9 8 10 75 11 5 12
REMARK SMILES IDX 4 13 3 14 1 15 2 16 77 18 78 19 79 20 80 22 81 23 85 24
REMARK SMILES IDX 82 25 84 26 83 27 86 28 88 29 87 30 15 31 16 32 17 33 18 34
REMARK SMILES IDX 19 35 20 36 21 37 22 38 74 39 23 40 73 41 24 42 25 43 26 44
REMARK SMILES IDX 67 45 27 46 72 47 66 48 68 49 28 50 71 51 65 52 64 53 29 55
REMARK SMILES IDX 55 56 38 57 54 58 39 59 42 60 53 61 69 62 40 63 41 64 52 66
REMARK SMILES IDX 70 67 43 68 30 69 31 70 36 71 32 72 33 73 35 74 37 75 34 76
REMARK SMILES IDX 56 77 57 78 62 79 58 80 59 81 61 82 63 83 60 84 44 85 45 86
REMARK SMILES IDX 50 87 46 88 47 89 49 90 51 91 48 92
REMARK H PARENT 3 17 79 21 68 54 42 65
REMARK Flexibility Score: inf
ROOT
ATOM      1  C   UNL A   1      31.840  28.642  22.567  1.00  0.00     0.202 C 
ENDROOT
BRANCH   1   2
ATOM      2  C   UNL A   1      30.674  27.670  22.370  1.00  0.00     0.261 C 
BRANCH   2   3
ATOM      3  O   UNL A   1      31.164  26.370  22.005  1.00  0.00    -0.460 OA
BRANCH   3   4
ATOM      4  C   UNL A   1      31.160  25.466  23.011  1.00  0.00     0.338 C 
ATOM      5  O   UNL A   1      30.185  24.997  23.574  1.00  0.00    -0.246 OA
BRANCH   4   6
ATOM      6  C   UNL A   1      32.528  24.968  23.263  1.00  0.00     0.060 A 
ATOM      7  C   UNL A   1      35.088  23.444  24.023  1.00  0.00    -0.005 A 
ATOM      8  C   UNL A   1      34.219  23.285  22.796  1.00  0.00     0.010 A 
ATOM      9  C   UNL A   1      34.580  24.788  24.533  1.00  0.00     0.010 A 
ATOM     10  C   UNL A   1      33.006  23.945  22.476  1.00  0.00     0.016 A 
ATOM     11  C   UNL A   1      33.379  25.482  24.210  1.00  0.00     0.016 A 
BRANCH   7  12
ATOM     12  C   UNL A   1      36.479  22.062  24.867  1.00  0.00     0.141 C 
ATOM     13  N   UNL A   1      37.850  21.916  24.941  1.00  0.00    -0.180 NA
BRANCH  13  14
ATOM     14  N   UNL A   1      38.239  20.624  25.057  1.00  0.00    -0.239 N 
ATOM     15  O   UNL A   1      39.759  19.062  25.700  1.00  0.00    -0.262 OA
ATOM     16  C   UNL A   1      39.397  20.237  25.722  1.00  0.00     0.329 C 
ATOM     17  H   UNL A   1      37.676  19.926  24.650  1.00  0.00     0.194 HD
BRANCH  16  18
ATOM     18  C   UNL A   1      40.190  21.244  26.598  1.00  0.00     0.315 C 
ATOM     19  O   UNL A   1      39.558  22.112  27.203  1.00  0.00    -0.263 OA
ATOM     20  N   UNL A   1      41.564  21.137  26.835  1.00  0.00    -0.318 N 
ATOM     21  H   UNL A   1      41.901  21.295  27.745  1.00  0.00     0.170 HD
BRANCH  20  22
ATOM     22  C   UNL A   1      42.480  20.812  25.821  1.00  0.00     0.045 A 
ATOM     23  C   UNL A   1      43.532  22.192  25.189  1.00  0.00     0.030 A 
ATOM     24  C   UNL A   1      43.100  19.089  25.807  1.00  0.00     0.076 A 
ATOM     25  C   UNL A   1      45.242  21.832  24.625  1.00  0.00     0.053 A 
ATOM     26  C   UNL A   1      44.841  18.813  25.389  1.00  0.00     0.167 A 
ATOM     27  C   UNL A   1      45.886  20.166  24.833  1.00  0.00     0.165 A 
ATOM     28  O   UNL A   1      45.670  17.760  25.609  1.00  0.00    -0.454 OA
ATOM     29  O   UNL A   1      47.146  19.675  24.775  1.00  0.00    -0.454 OA
ATOM     30  C   UNL A   1      46.999  18.400  25.511  1.00  0.00     0.468 C 
ENDBRANCH  20  22
ENDBRANCH  16  18
ENDBRANCH  13  14
ENDBRANCH   7  12
ENDBRANCH   4   6
ENDBRANCH   3   4
ENDBRANCH   2   3
ENDBRANCH   1   2
BRANCH   1  31
ATOM     31  O   UNL A   1      31.863  29.377  23.790  1.00  0.00    -0.374 OA
BRANCH  31  32
ATOM     32  C   UNL A   1      31.178  28.825  24.913  1.00  0.00     0.202 C 
BRANCH  32  33
ATOM     33  C   UNL A   1      31.839  28.980  26.287  1.00  0.00     0.261 C 
BRANCH  33  34
ATOM     34  O   UNL A   1      33.167  29.523  26.190  1.00  0.00    -0.460 OA
BRANCH  34  35
ATOM     35  C   UNL A   1      33.380  30.624  26.949  1.00  0.00     0.338 C 
ATOM     36  O   UNL A   1      32.556  31.440  27.324  1.00  0.00    -0.246 OA
BRANCH  35  37
ATOM     37  C   UNL A   1      34.768  30.624  27.444  1.00  0.00     0.060 A 
ATOM     38  C   UNL A   1      35.400  29.383  27.601  1.00  0.00     0.016 A 
ATOM     39  C   UNL A   1      35.407  31.803  27.829  1.00  0.00     0.016 A 
ATOM     40  C   UNL A   1      36.657  29.310  28.192  1.00  0.00     0.010 A 
ATOM     41  C   UNL A   1      36.664  31.728  28.435  1.00  0.00     0.010 A 
ATOM     42  C   UNL A   1      37.274  30.480  28.653  1.00  0.00    -0.014 A 
BRANCH  42  43
ATOM     43  C   UNL A   1      38.475  30.378  29.516  1.00  0.00     0.031 A 
ATOM     44  C   UNL A   1      39.687  29.665  28.985  1.00  0.00     0.074 A 
ATOM     45  C   UNL A   1      38.495  30.935  30.739  1.00  0.00     0.049 A 
ATOM     46  N   UNL A   1      40.822  29.401  29.578  1.00  0.00    -0.248 NA
ATOM     47  C   UNL A   1      39.606  29.182  27.597  1.00  0.00     0.031 C 
ATOM     48  C   UNL A   1      37.402  31.697  31.339  1.00  0.00     0.029 A 
ATOM     49  N   UNL A   1      39.475  30.935  31.698  1.00  0.00    -0.354 N 
ATOM     50  C   UNL A   1      41.586  28.716  28.641  1.00  0.00     0.074 A 
ATOM     51  C   UNL A   1      40.774  28.577  27.452  1.00  0.00     0.031 C 
ATOM     52  C   UNL A   1      37.768  32.083  32.573  1.00  0.00     0.029 A 
ATOM     53  C   UNL A   1      39.104  31.564  32.860  1.00  0.00     0.049 A 
ATOM     54  H   UNL A   1      40.360  30.524  31.566  1.00  0.00     0.167 HD
ATOM     55  C   UNL A   1      42.852  28.251  28.760  1.00  0.00     0.037 A 
ATOM     56  C   UNL A   1      39.763  31.684  34.029  1.00  0.00     0.037 A 
ATOM     57  C   UNL A   1      43.654  28.392  29.946  1.00  0.00     0.049 A 
ATOM     58  C   UNL A   1      41.137  31.085  34.166  1.00  0.00     0.074 A 
ATOM     59  C   UNL A   1      44.951  27.961  30.167  1.00  0.00     0.029 A 
ATOM     60  N   UNL A   1      43.231  29.004  31.116  1.00  0.00    -0.354 N 
ATOM     61  N   UNL A   1      41.856  30.447  33.273  1.00  0.00    -0.248 NA
ATOM     62  C   UNL A   1      41.792  31.222  35.475  1.00  0.00     0.031 C 
ATOM     63  C   UNL A   1      45.295  28.271  31.486  1.00  0.00     0.029 A 
ATOM     64  C   UNL A   1      44.233  28.944  32.070  1.00  0.00     0.049 A 
ATOM     65  H   UNL A   1      42.349  29.422  31.248  1.00  0.00     0.167 HD
ATOM     66  C   UNL A   1      43.059  30.140  33.899  1.00  0.00     0.074 A 
ATOM     67  C   UNL A   1      42.974  30.666  35.245  1.00  0.00     0.031 C 
ATOM     68  C   UNL A   1      44.137  29.486  33.402  1.00  0.00     0.037 A 
BRANCH  55  69
ATOM     69  C   UNL A   1      43.434  27.524  27.583  1.00  0.00     0.057 A 
ATOM     70  C   UNL A   1      44.075  28.200  26.536  1.00  0.00     0.134 A 
ATOM     71  C   UNL A   1      43.368  26.127  27.504  1.00  0.00     0.134 A 
ATOM     72  F   UNL A   1      44.159  29.539  26.542  1.00  0.00    -0.206 F 
ATOM     73  C   UNL A   1      44.607  27.514  25.443  1.00  0.00     0.040 A 
ATOM     74  C   UNL A   1      43.919  25.429  26.430  1.00  0.00     0.040 A 
ATOM     75  F   UNL A   1      42.770  25.419  28.474  1.00  0.00    -0.206 F 
ATOM     76  C   UNL A   1      44.535  26.123  25.391  1.00  0.00     0.006 A 
ENDBRANCH  55  69
BRANCH  56  77
ATOM     77  C   UNL A   1      39.129  32.390  35.171  1.00  0.00     0.057 A 
ATOM     78  C   UNL A   1      39.310  33.764  35.364  1.00  0.00     0.134 A 
ATOM     79  C   UNL A   1      38.344  31.705  36.108  1.00  0.00     0.134 A 
ATOM     80  F   UNL A   1      40.070  34.469  34.514  1.00  0.00    -0.206 F 
ATOM     81  C   UNL A   1      38.751  34.430  36.455  1.00  0.00     0.040 A 
ATOM     82  C   UNL A   1      37.757  32.363  37.190  1.00  0.00     0.040 A 
ATOM     83  F   UNL A   1      38.130  30.389  35.980  1.00  0.00    -0.206 F 
ATOM     84  C   UNL A   1      37.966  33.729  37.370  1.00  0.00     0.006 A 
ENDBRANCH  56  77
BRANCH  68  85
ATOM     85  C   UNL A   1      45.334  29.348  34.298  1.00  0.00     0.057 A 
ATOM     86  C   UNL A   1      46.380  30.278  34.290  1.00  0.00     0.134 A 
ATOM     87  C   UNL A   1      45.413  28.292  35.217  1.00  0.00     0.134 A 
ATOM     88  F   UNL A   1      46.372  31.303  33.425  1.00  0.00    -0.206 F 
ATOM     89  C   UNL A   1      47.473  30.153  35.149  1.00  0.00     0.040 A 
ATOM     90  C   UNL A   1      46.486  28.173  36.101  1.00  0.00     0.040 A 
ATOM     91  F   UNL A   1      44.439  27.373  35.284  1.00  0.00    -0.206 F 
ATOM     92  C   UNL A   1      47.523  29.102  36.065  1.00  0.00     0.006 A 
ENDBRANCH  68  85
ENDBRANCH  42  43
ENDBRANCH  35  37
ENDBRANCH  34  35
ENDBRANCH  33  34
ENDBRANCH  32  33
ENDBRANCH  31  32
ENDBRANCH   1  31
TORSDOF 18
ENDMDL
MODEL 3
REMARK VINA RESULT:      -9.3      4.445     10.340
REMARK SMILES O=C(N/N=C/c1ccc(C(=O)OCCOCCOC(=O)c2ccc(-c3c4nc(c(-c5c(F)cccc5F)c5ccc([nH]5)c(-c5c(F)cccc5F)c5nc(c(-c6c(F)cccc6F)c6ccc3[nH]6)C=C5)C=C4)cc2)cc1)C(=O)Nc1ccc2c(c1)OCO2
REMARK SMILES IDX 14 1 13 2 12 3 10 4 11 5 9 6 6 7 7 8 76 9 8 10 75 11 5 12
REMARK SMILES IDX 4 13 3 14 1 15 2 16 77 18 78 19 79 20 80 22 81 23 85 24
REMARK SMILES IDX 82 25 84 26 83 27 86 28 88 29 87 30 15 31 16 32 17 33 18 34
REMARK SMILES IDX 19 35 20 36 21 37 22 38 74 39 23 40 73 41 24 42 25 43 26 44
REMARK SMILES IDX 67 45 27 46 72 47 66 48 68 49 28 50 71 51 65 52 64 53 29 55
REMARK SMILES IDX 55 56 38 57 54 58 39 59 42 60 53 61 69 62 40 63 41 64 52 66
REMARK SMILES IDX 70 67 43 68 30 69 31 70 36 71 32 72 33 73 35 74 37 75 34 76
REMARK SMILES IDX 56 77 57 78 62 79 58 80 59 81 61 82 63 83 60 84 44 85 45 86
REMARK SMILES IDX 50 87 46 88 47 89 49 90 51 91 48 92
REMARK H PARENT 3 17 79 21 68 54 42 65
REMARK Flexibility Score: inf
ROOT
ATOM      1  C   UNL A   1      42.693  22.173  25.505  1.00  0.00     0.202 C 
ENDROOT
BRANCH   1   2
ATOM      2  C   UNL A   1      42.071  21.170  26.480  1.00  0.00     0.261 C 
BRANCH   2   3
ATOM      3  O   UNL A   1      40.644  21.136  26.319  1.00  0.00    -0.460 OA
BRANCH   3   4
ATOM      4  C   UNL A   1      39.998  22.221  26.804  1.00  0.00     0.338 C 
ATOM      5  O   UNL A   1      40.443  23.058  27.572  1.00  0.00    -0.246 OA
BRANCH   4   6
ATOM      6  C   UNL A   1      38.681  22.373  26.151  1.00  0.00     0.060 A 
ATOM      7  C   UNL A   1      35.723  22.666  25.366  1.00  0.00    -0.005 A 
ATOM      8  C   UNL A   1      36.688  23.728  25.841  1.00  0.00     0.010 A 
ATOM      9  C   UNL A   1      36.707  21.555  25.015  1.00  0.00     0.010 A 
ATOM     10  C   UNL A   1      38.033  23.582  26.262  1.00  0.00     0.016 A 
ATOM     11  C   UNL A   1      38.068  21.398  25.404  1.00  0.00     0.016 A 
BRANCH   7  12
ATOM     12  C   UNL A   1      33.589  22.690  25.382  1.00  0.00     0.141 C 
ATOM     13  N   UNL A   1      32.558  21.951  24.836  1.00  0.00    -0.180 NA
BRANCH  13  14
ATOM     14  N   UNL A   1      31.430  22.675  24.648  1.00  0.00    -0.239 N 
ATOM     15  O   UNL A   1      30.281  24.308  23.562  1.00  0.00    -0.262 OA
ATOM     16  C   UNL A   1      31.284  23.599  23.619  1.00  0.00     0.329 C 
ATOM     17  H   UNL A   1      30.678  22.542  25.269  1.00  0.00     0.194 HD
BRANCH  16  18
ATOM     18  C   UNL A   1      32.317  23.676  22.462  1.00  0.00     0.315 C 
ATOM     19  O   UNL A   1      32.858  22.631  22.096  1.00  0.00    -0.263 OA
ATOM     20  N   UNL A   1      32.565  24.843  21.733  1.00  0.00    -0.318 N 
ATOM     21  H   UNL A   1      32.660  24.780  20.756  1.00  0.00     0.170 HD
BRANCH  20  22
ATOM     22  C   UNL A   1      32.684  26.102  22.345  1.00  0.00     0.045 A 
ATOM     23  C   UNL A   1      31.233  27.233  22.187  1.00  0.00     0.030 A 
ATOM     24  C   UNL A   1      33.780  26.194  23.809  1.00  0.00     0.076 A 
ATOM     25  C   UNL A   1      30.849  28.396  23.555  1.00  0.00     0.053 A 
ATOM     26  C   UNL A   1      33.268  27.244  25.192  1.00  0.00     0.167 A 
ATOM     27  C   UNL A   1      31.819  28.302  25.066  1.00  0.00     0.165 A 
ATOM     28  O   UNL A   1      33.645  27.273  26.496  1.00  0.00    -0.454 OA
ATOM     29  O   UNL A   1      31.610  28.811  26.302  1.00  0.00    -0.454 OA
ATOM     30  C   UNL A   1      32.495  27.957  27.126  1.00  0.00     0.468 C 
ENDBRANCH  20  22
ENDBRANCH  16  18
ENDBRANCH  13  14
ENDBRANCH   7  12
ENDBRANCH   4   6
ENDBRANCH   3   4
ENDBRANCH   2   3
ENDBRANCH   1   2
BRANCH   1  31
ATOM     31  O   UNL A   1      43.727  21.682  24.654  1.00  0.00    -0.374 OA
BRANCH  31  32
ATOM     32  C   UNL A   1      45.065  22.105  24.917  1.00  0.00     0.202 C 
BRANCH  32  33
ATOM     33  C   UNL A   1      45.474  23.494  24.416  1.00  0.00     0.261 C 
BRANCH  33  34
ATOM     34  O   UNL A   1      44.505  24.500  24.755  1.00  0.00    -0.460 OA
BRANCH  34  35
ATOM     35  C   UNL A   1      45.035  25.678  25.162  1.00  0.00     0.338 C 
ATOM     36  O   UNL A   1      46.014  26.247  24.711  1.00  0.00    -0.246 OA
BRANCH  35  37
ATOM     37  C   UNL A   1      44.140  26.311  26.146  1.00  0.00     0.060 A 
ATOM     38  C   UNL A   1      44.218  27.702  26.291  1.00  0.00     0.016 A 
ATOM     39  C   UNL A   1      43.306  25.553  26.968  1.00  0.00     0.016 A 
ATOM     40  C   UNL A   1      43.498  28.340  27.297  1.00  0.00     0.010 A 
ATOM     41  C   UNL A   1      42.594  26.192  27.988  1.00  0.00     0.010 A 
ATOM     42  C   UNL A   1      42.718  27.580  28.179  1.00  0.00    -0.014 A 
BRANCH  42  43
ATOM     43  C   UNL A   1      42.173  28.215  29.401  1.00  0.00     0.031 A 
ATOM     44  C   UNL A   1      40.866  28.951  29.312  1.00  0.00     0.074 A 
ATOM     45  C   UNL A   1      42.818  28.116  30.577  1.00  0.00     0.049 A 
ATOM     46  N   UNL A   1      40.230  29.632  30.230  1.00  0.00    -0.248 NA
ATOM     47  C   UNL A   1      40.184  28.914  28.008  1.00  0.00     0.031 C 
ATOM     48  C   UNL A   1      44.063  27.384  30.799  1.00  0.00     0.029 A 
ATOM     49  N   UNL A   1      42.511  28.643  31.805  1.00  0.00    -0.354 N 
ATOM     50  C   UNL A   1      39.081  30.111  29.614  1.00  0.00     0.074 A 
ATOM     51  C   UNL A   1      39.121  29.670  28.237  1.00  0.00     0.031 C 
ATOM     52  C   UNL A   1      44.422  27.518  32.086  1.00  0.00     0.029 A 
ATOM     53  C   UNL A   1      43.452  28.374  32.767  1.00  0.00     0.049 A 
ATOM     54  H   UNL A   1      41.695  29.164  31.979  1.00  0.00     0.167 HD
ATOM     55  C   UNL A   1      38.078  30.846  30.151  1.00  0.00     0.037 A 
ATOM     56  C   UNL A   1      43.529  28.793  34.045  1.00  0.00     0.037 A 
ATOM     57  C   UNL A   1      38.044  31.282  31.522  1.00  0.00     0.049 A 
ATOM     58  C   UNL A   1      42.446  29.681  34.597  1.00  0.00     0.074 A 
ATOM     59  C   UNL A   1      37.071  32.027  32.167  1.00  0.00     0.029 A 
ATOM     60  N   UNL A   1      39.033  31.020  32.458  1.00  0.00    -0.354 N 
ATOM     61  N   UNL A   1      41.357  30.121  34.012  1.00  0.00    -0.248 NA
ATOM     62  C   UNL A   1      42.601  30.130  35.988  1.00  0.00     0.031 C 
ATOM     63  C   UNL A   1      37.494  32.254  33.480  1.00  0.00     0.029 A 
ATOM     64  C   UNL A   1      38.705  31.606  33.669  1.00  0.00     0.049 A 
ATOM     65  H   UNL A   1      39.847  30.493  32.287  1.00  0.00     0.167 HD
ATOM     66  C   UNL A   1      40.682  30.867  34.971  1.00  0.00     0.074 A 
ATOM     67  C   UNL A   1      41.482  30.815  36.177  1.00  0.00     0.031 C 
ATOM     68  C   UNL A   1      39.505  31.531  34.865  1.00  0.00     0.037 A 
BRANCH  55  69
ATOM     69  C   UNL A   1      36.952  31.245  29.243  1.00  0.00     0.057 A 
ATOM     70  C   UNL A   1      35.919  30.359  28.908  1.00  0.00     0.134 A 
ATOM     71  C   UNL A   1      36.889  32.540  28.712  1.00  0.00     0.134 A 
ATOM     72  F   UNL A   1      35.927  29.100  29.370  1.00  0.00    -0.206 F 
ATOM     73  C   UNL A   1      34.880  30.738  28.057  1.00  0.00     0.040 A 
ATOM     74  C   UNL A   1      35.841  32.939  27.882  1.00  0.00     0.040 A 
ATOM     75  F   UNL A   1      37.844  33.438  28.995  1.00  0.00    -0.206 F 
ATOM     76  C   UNL A   1      34.836  32.035  27.546  1.00  0.00     0.006 A 
ENDBRANCH  55  69
BRANCH  56  77
ATOM     77  C   UNL A   1      44.681  28.390  34.892  1.00  0.00     0.057 A 
ATOM     78  C   UNL A   1      45.868  29.129  34.899  1.00  0.00     0.134 A 
ATOM     79  C   UNL A   1      44.628  27.246  35.698  1.00  0.00     0.134 A 
ATOM     80  F   UNL A   1      45.987  30.222  34.130  1.00  0.00    -0.206 F 
ATOM     81  C   UNL A   1      46.970  28.737  35.661  1.00  0.00     0.040 A 
ATOM     82  C   UNL A   1      45.713  26.856  36.486  1.00  0.00     0.040 A 
ATOM     83  F   UNL A   1      43.518  26.495  35.738  1.00  0.00    -0.206 F 
ATOM     84  C   UNL A   1      46.891  27.599  36.463  1.00  0.00     0.006 A 
ENDBRANCH  56  77
BRANCH  68  85
ATOM     85  C   UNL A   1      38.981  32.211  36.097  1.00  0.00     0.057 A 
ATOM     86  C   UNL A   1      38.167  31.548  37.022  1.00  0.00     0.134 A 
ATOM     87  C   UNL A   1      39.341  33.535  36.383  1.00  0.00     0.134 A 
ATOM     88  F   UNL A   1      37.776  30.284  36.801  1.00  0.00    -0.206 F 
ATOM     89  C   UNL A   1      37.712  32.183  38.179  1.00  0.00     0.040 A 
ATOM     90  C   UNL A   1      38.916  34.171  37.550  1.00  0.00     0.040 A 
ATOM     91  F   UNL A   1      40.129  34.224  35.544  1.00  0.00    -0.206 F 
ATOM     92  C   UNL A   1      38.094  33.497  38.449  1.00  0.00     0.006 A 
ENDBRANCH  68  85
ENDBRANCH  42  43
ENDBRANCH  35  37
ENDBRANCH  34  35
ENDBRANCH  33  34
ENDBRANCH  32  33
ENDBRANCH  31  32
ENDBRANCH   1  31
TORSDOF 18
ENDMDL
