MODEL 1
REMARK VINA RESULT:     -11.5      0.000      0.000
REMARK SMILES Cc1ccc([C@H](C)Nc2ccc(C(=O)OCCOCCOC(=O)c3ccc(-c4c5nc(c(-c6c(F)cccc6F)c6ccc([nH]6)c(-c6c(F)cccc6F)c6nc(c(-c7c(F)cccc7F)c7ccc4[nH]7)C=C6)C=C5)cc3)cc2Cl)cc1F
REMARK SMILES IDX 17 1 16 2 15 3 13 4 14 5 12 6 9 7 10 8 79 9 11 10 78 11
REMARK SMILES IDX 80 12 8 13 6 15 7 16 5 17 1 18 2 19 3 20 82 21 4 22 81 23
REMARK SMILES IDX 83 24 18 25 19 26 20 27 21 28 22 29 23 30 24 31 25 32 77 33
REMARK SMILES IDX 26 34 76 35 27 36 28 37 29 38 70 39 30 40 75 41 69 42 71 43
REMARK SMILES IDX 31 44 74 45 68 46 67 47 32 49 58 50 41 51 57 52 42 53 45 54
REMARK SMILES IDX 56 55 72 56 43 57 44 58 55 60 73 61 46 62 33 63 34 64 39 65
REMARK SMILES IDX 35 66 36 67 38 68 40 69 37 70 59 71 60 72 65 73 61 74 62 75
REMARK SMILES IDX 64 76 66 77 63 78 47 79 48 80 53 81 49 82 50 83 52 84 54 85
REMARK SMILES IDX 51 86
REMARK H PARENT 8 14 71 48 45 59
REMARK Flexibility Score: inf
ROOT
ATOM      1  C   UNL A   1      41.782  19.179  26.100  1.00  0.00     0.202 C 
ENDROOT
BRANCH   1   2
ATOM      2  C   UNL A   1      40.986  20.388  26.630  1.00  0.00     0.261 C 
BRANCH   2   3
ATOM      3  O   UNL A   1      39.762  20.690  25.949  1.00  0.00    -0.460 OA
BRANCH   3   4
ATOM      4  C   UNL A   1      39.302  21.942  26.148  1.00  0.00     0.338 C 
ATOM      5  O   UNL A   1      39.943  22.904  26.568  1.00  0.00    -0.246 OA
BRANCH   4   6
ATOM      6  C   UNL A   1      37.917  22.065  25.656  1.00  0.00     0.061 A 
ATOM      7  C   UNL A   1      35.358  22.282  24.483  1.00  0.00     0.053 A 
ATOM      8  C   UNL A   1      36.074  21.074  24.444  1.00  0.00     0.028 A 
ATOM      9  C   UNL A   1      35.942  23.364  25.183  1.00  0.00     0.065 A 
ATOM     10  C   UNL A   1      37.347  20.970  25.003  1.00  0.00     0.018 A 
ATOM     11  C   UNL A   1      37.198  23.247  25.791  1.00  0.00     0.038 A 
ATOM     12  Cl  UNL A   1      35.154  24.889  25.404  1.00  0.00    -0.082 Cl
BRANCH   7  13
ATOM     13  N   UNL A   1      34.171  22.325  23.763  1.00  0.00    -0.377 N 
ATOM     14  H   UNL A   1      34.211  22.550  22.806  1.00  0.00     0.161 HD
BRANCH  13  15
ATOM     15  C   UNL A   1      32.863  22.051  24.366  1.00  0.00     0.106 C 
ATOM     16  C   UNL A   1      31.796  22.781  23.530  1.00  0.00     0.036 C 
BRANCH  15  17
ATOM     17  C   UNL A   1      32.719  20.540  24.530  1.00  0.00    -0.023 A 
ATOM     18  C   UNL A   1      32.821  16.203  24.625  1.00  0.00     0.047 C 
ATOM     19  C   UNL A   1      32.746  17.697  24.621  1.00  0.00    -0.015 A 
ATOM     20  C   UNL A   1      32.904  18.452  25.788  1.00  0.00     0.007 A 
ATOM     21  C   UNL A   1      32.555  18.371  23.421  1.00  0.00     0.126 A 
ATOM     22  C   UNL A   1      32.895  19.855  25.742  1.00  0.00     0.006 A 
ATOM     23  C   UNL A   1      32.528  19.757  23.375  1.00  0.00     0.045 A 
ATOM     24  F   UNL A   1      32.416  17.683  22.278  1.00  0.00    -0.207 F 
ENDBRANCH  15  17
ENDBRANCH  13  15
ENDBRANCH   7  13
ENDBRANCH   4   6
ENDBRANCH   3   4
ENDBRANCH   2   3
ENDBRANCH   1   2
BRANCH   1  25
ATOM     25  O   UNL A   1      42.658  19.329  25.000  1.00  0.00    -0.374 OA
BRANCH  25  26
ATOM     26  C   UNL A   1      44.046  19.076  25.131  1.00  0.00     0.202 C 
BRANCH  26  27
ATOM     27  C   UNL A   1      45.080  19.957  24.455  1.00  0.00     0.261 C 
BRANCH  27  28
ATOM     28  O   UNL A   1      45.347  21.233  25.054  1.00  0.00    -0.460 OA
BRANCH  28  29
ATOM     29  C   UNL A   1      44.789  22.296  24.424  1.00  0.00     0.338 C 
ATOM     30  O   UNL A   1      45.281  22.927  23.500  1.00  0.00    -0.246 OA
BRANCH  29  31
ATOM     31  C   UNL A   1      43.671  22.882  25.190  1.00  0.00     0.060 A 
ATOM     32  C   UNL A   1      43.296  24.158  24.736  1.00  0.00     0.016 A 
ATOM     33  C   UNL A   1      43.520  22.507  26.526  1.00  0.00     0.016 A 
ATOM     34  C   UNL A   1      43.146  25.163  25.668  1.00  0.00     0.010 A 
ATOM     35  C   UNL A   1      43.339  23.508  27.455  1.00  0.00     0.010 A 
ATOM     36  C   UNL A   1      43.275  24.833  27.019  1.00  0.00    -0.014 A 
BRANCH  36  37
ATOM     37  C   UNL A   1      43.300  25.872  28.028  1.00  0.00     0.031 A 
ATOM     38  C   UNL A   1      42.062  26.645  28.159  1.00  0.00     0.074 A 
ATOM     39  C   UNL A   1      44.435  26.175  28.697  1.00  0.00     0.049 A 
ATOM     40  N   UNL A   1      42.011  27.922  28.283  1.00  0.00    -0.248 NA
ATOM     41  C   UNL A   1      40.749  26.017  28.021  1.00  0.00     0.031 C 
ATOM     42  C   UNL A   1      44.613  27.141  29.770  1.00  0.00     0.029 A 
ATOM     43  N   UNL A   1      45.738  25.765  28.396  1.00  0.00    -0.354 N 
ATOM     44  C   UNL A   1      40.708  28.228  28.603  1.00  0.00     0.074 A 
ATOM     45  C   UNL A   1      39.943  27.052  28.268  1.00  0.00     0.031 C 
ATOM     46  C   UNL A   1      45.918  27.456  29.864  1.00  0.00     0.029 A 
ATOM     47  C   UNL A   1      46.627  26.787  28.785  1.00  0.00     0.049 A 
ATOM     48  H   UNL A   1      45.991  24.909  27.982  1.00  0.00     0.167 HD
ATOM     49  C   UNL A   1      40.464  29.360  29.321  1.00  0.00     0.037 A 
ATOM     50  C   UNL A   1      47.461  27.409  27.892  1.00  0.00     0.037 A 
ATOM     51  C   UNL A   1      41.716  30.078  29.563  1.00  0.00     0.049 A 
ATOM     52  C   UNL A   1      47.038  28.823  27.625  1.00  0.00     0.074 A 
ATOM     53  C   UNL A   1      42.609  30.025  30.623  1.00  0.00     0.029 A 
ATOM     54  N   UNL A   1      42.418  30.626  28.491  1.00  0.00    -0.354 N 
ATOM     55  N   UNL A   1      45.864  29.291  27.941  1.00  0.00    -0.248 NA
ATOM     56  C   UNL A   1      47.894  29.813  26.985  1.00  0.00     0.031 C 
ATOM     57  C   UNL A   1      43.873  30.463  30.158  1.00  0.00     0.029 A 
ATOM     58  C   UNL A   1      43.749  30.812  28.824  1.00  0.00     0.049 A 
ATOM     59  H   UNL A   1      42.021  30.849  27.618  1.00  0.00     0.167 HD
ATOM     60  C   UNL A   1      45.802  30.611  27.609  1.00  0.00     0.074 A 
ATOM     61  C   UNL A   1      47.099  30.895  27.021  1.00  0.00     0.031 C 
ATOM     62  C   UNL A   1      44.695  31.368  27.867  1.00  0.00     0.037 A 
BRANCH  49  63
ATOM     63  C   UNL A   1      39.191  29.553  30.110  1.00  0.00     0.057 A 
ATOM     64  C   UNL A   1      38.992  28.889  31.336  1.00  0.00     0.134 A 
ATOM     65  C   UNL A   1      38.104  30.341  29.691  1.00  0.00     0.134 A 
ATOM     66  F   UNL A   1      39.958  28.159  31.908  1.00  0.00    -0.206 F 
ATOM     67  C   UNL A   1      37.783  28.929  32.040  1.00  0.00     0.040 A 
ATOM     68  C   UNL A   1      36.870  30.355  30.362  1.00  0.00     0.040 A 
ATOM     69  F   UNL A   1      38.203  31.156  28.632  1.00  0.00    -0.206 F 
ATOM     70  C   UNL A   1      36.704  29.640  31.539  1.00  0.00     0.006 A 
ENDBRANCH  49  63
BRANCH  50  71
ATOM     71  C   UNL A   1      48.074  26.518  26.853  1.00  0.00     0.057 A 
ATOM     72  C   UNL A   1      47.480  26.647  25.585  1.00  0.00     0.134 A 
ATOM     73  C   UNL A   1      49.461  26.409  26.904  1.00  0.00     0.134 A 
ATOM     74  F   UNL A   1      46.153  26.530  25.445  1.00  0.00    -0.206 F 
ATOM     75  C   UNL A   1      48.207  27.182  24.531  1.00  0.00     0.040 A 
ATOM     76  C   UNL A   1      50.202  26.928  25.856  1.00  0.00     0.040 A 
ATOM     77  F   UNL A   1      50.090  26.100  28.046  1.00  0.00    -0.206 F 
ATOM     78  C   UNL A   1      49.551  27.447  24.736  1.00  0.00     0.006 A 
ENDBRANCH  50  71
BRANCH  62  79
ATOM     79  C   UNL A   1      44.481  32.762  27.355  1.00  0.00     0.057 A 
ATOM     80  C   UNL A   1      44.062  33.065  26.053  1.00  0.00     0.134 A 
ATOM     81  C   UNL A   1      44.585  33.865  28.230  1.00  0.00     0.134 A 
ATOM     82  F   UNL A   1      43.778  32.106  25.161  1.00  0.00    -0.206 F 
ATOM     83  C   UNL A   1      43.862  34.379  25.622  1.00  0.00     0.040 A 
ATOM     84  C   UNL A   1      44.313  35.173  27.830  1.00  0.00     0.040 A 
ATOM     85  F   UNL A   1      44.936  33.722  29.516  1.00  0.00    -0.206 F 
ATOM     86  C   UNL A   1      43.978  35.438  26.514  1.00  0.00     0.006 A 
ENDBRANCH  62  79
ENDBRANCH  36  37
ENDBRANCH  29  31
ENDBRANCH  28  29
ENDBRANCH  27  28
ENDBRANCH  26  27
ENDBRANCH  25  26
ENDBRANCH   1  25
TORSDOF 17
ENDMDL
MODEL 2
REMARK VINA RESULT:     -11.4      4.450      9.065
REMARK SMILES Cc1ccc([C@H](C)Nc2ccc(C(=O)OCCOCCOC(=O)c3ccc(-c4c5nc(c(-c6c(F)cccc6F)c6ccc([nH]6)c(-c6c(F)cccc6F)c6nc(c(-c7c(F)cccc7F)c7ccc4[nH]7)C=C6)C=C5)cc3)cc2Cl)cc1F
REMARK SMILES IDX 17 1 16 2 15 3 13 4 14 5 12 6 9 7 10 8 79 9 11 10 78 11
REMARK SMILES IDX 80 12 8 13 6 15 7 16 5 17 1 18 2 19 3 20 82 21 4 22 81 23
REMARK SMILES IDX 83 24 18 25 19 26 20 27 21 28 22 29 23 30 24 31 25 32 77 33
REMARK SMILES IDX 26 34 76 35 27 36 28 37 29 38 70 39 30 40 75 41 69 42 71 43
REMARK SMILES IDX 31 44 74 45 68 46 67 47 32 49 58 50 41 51 57 52 42 53 45 54
REMARK SMILES IDX 56 55 72 56 43 57 44 58 55 60 73 61 46 62 33 63 34 64 39 65
REMARK SMILES IDX 35 66 36 67 38 68 40 69 37 70 59 71 60 72 65 73 61 74 62 75
REMARK SMILES IDX 64 76 66 77 63 78 47 79 48 80 53 81 49 82 50 83 52 84 54 85
REMARK SMILES IDX 51 86
REMARK H PARENT 8 14 71 48 45 59
REMARK Flexibility Score: inf
ROOT
ATOM      1  C   UNL A   1      34.360  30.898  27.537  1.00  0.00     0.202 C 
ENDROOT
BRANCH   1   2
ATOM      2  C   UNL A   1      32.853  30.879  27.216  1.00  0.00     0.261 C 
BRANCH   2   3
ATOM      3  O   UNL A   1      32.225  29.591  27.192  1.00  0.00    -0.460 OA
BRANCH   3   4
ATOM      4  C   UNL A   1      31.771  29.210  25.980  1.00  0.00     0.338 C 
ATOM      5  O   UNL A   1      31.275  29.935  25.119  1.00  0.00    -0.246 OA
BRANCH   4   6
ATOM      6  C   UNL A   1      32.073  27.787  25.742  1.00  0.00     0.061 A 
ATOM      7  C   UNL A   1      32.636  25.110  25.043  1.00  0.00     0.053 A 
ATOM      8  C   UNL A   1      33.558  26.137  24.783  1.00  0.00     0.028 A 
ATOM      9  C   UNL A   1      31.444  25.461  25.721  1.00  0.00     0.065 A 
ATOM     10  C   UNL A   1      33.274  27.462  25.107  1.00  0.00     0.018 A 
ATOM     11  C   UNL A   1      31.179  26.783  26.095  1.00  0.00     0.038 A 
ATOM     12  Cl  UNL A   1      30.247  24.304  26.198  1.00  0.00    -0.082 Cl
BRANCH   7  13
ATOM     13  N   UNL A   1      32.947  23.853  24.542  1.00  0.00    -0.377 N 
ATOM     14  H   UNL A   1      33.080  23.754  23.571  1.00  0.00     0.161 HD
BRANCH  13  15
ATOM     15  C   UNL A   1      33.084  22.668  25.393  1.00  0.00     0.106 C 
ATOM     16  C   UNL A   1      32.227  21.545  24.781  1.00  0.00     0.036 C 
BRANCH  15  17
ATOM     17  C   UNL A   1      34.573  22.391  25.590  1.00  0.00    -0.023 A 
ATOM     18  C   UNL A   1      38.813  21.473  25.530  1.00  0.00     0.047 C 
ATOM     19  C   UNL A   1      37.355  21.799  25.599  1.00  0.00    -0.015 A 
ATOM     20  C   UNL A   1      36.894  23.073  25.943  1.00  0.00     0.007 A 
ATOM     21  C   UNL A   1      36.419  20.825  25.274  1.00  0.00     0.126 A 
ATOM     22  C   UNL A   1      35.521  23.367  25.934  1.00  0.00     0.006 A 
ATOM     23  C   UNL A   1      35.061  21.106  25.281  1.00  0.00     0.045 A 
ATOM     24  F   UNL A   1      36.823  19.595  24.922  1.00  0.00    -0.207 F 
ENDBRANCH  15  17
ENDBRANCH  13  15
ENDBRANCH   7  13
ENDBRANCH   4   6
ENDBRANCH   3   4
ENDBRANCH   2   3
ENDBRANCH   1   2
BRANCH   1  25
ATOM     25  O   UNL A   1      34.959  32.057  28.084  1.00  0.00    -0.374 OA
BRANCH  25  26
ATOM     26  C   UNL A   1      34.669  32.473  29.407  1.00  0.00     0.202 C 
BRANCH  26  27
ATOM     27  C   UNL A   1      35.546  32.064  30.576  1.00  0.00     0.261 C 
BRANCH  27  28
ATOM     28  O   UNL A   1      36.212  30.796  30.484  1.00  0.00    -0.460 OA
BRANCH  28  29
ATOM     29  C   UNL A   1      37.417  30.819  29.863  1.00  0.00     0.338 C 
ATOM     30  O   UNL A   1      38.063  31.818  29.582  1.00  0.00    -0.246 OA
BRANCH  29  31
ATOM     31  C   UNL A   1      37.738  29.537  29.205  1.00  0.00     0.060 A 
ATOM     32  C   UNL A   1      38.004  28.499  30.114  1.00  0.00     0.016 A 
ATOM     33  C   UNL A   1      38.332  29.576  27.943  1.00  0.00     0.016 A 
ATOM     34  C   UNL A   1      39.135  27.735  29.917  1.00  0.00     0.010 A 
ATOM     35  C   UNL A   1      39.444  28.790  27.735  1.00  0.00     0.010 A 
ATOM     36  C   UNL A   1      39.897  27.970  28.771  1.00  0.00    -0.014 A 
BRANCH  36  37
ATOM     37  C   UNL A   1      41.182  27.323  28.600  1.00  0.00     0.031 A 
ATOM     38  C   UNL A   1      41.127  25.876  28.376  1.00  0.00     0.074 A 
ATOM     39  C   UNL A   1      42.339  28.001  28.770  1.00  0.00     0.049 A 
ATOM     40  N   UNL A   1      41.901  25.022  28.942  1.00  0.00    -0.248 NA
ATOM     41  C   UNL A   1      40.071  25.265  27.572  1.00  0.00     0.031 C 
ATOM     42  C   UNL A   1      43.697  27.519  28.580  1.00  0.00     0.029 A 
ATOM     43  N   UNL A   1      42.510  29.268  29.338  1.00  0.00    -0.354 N 
ATOM     44  C   UNL A   1      41.685  23.821  28.305  1.00  0.00     0.074 A 
ATOM     45  C   UNL A   1      40.442  23.983  27.591  1.00  0.00     0.031 C 
ATOM     46  C   UNL A   1      44.546  28.323  29.247  1.00  0.00     0.029 A 
ATOM     47  C   UNL A   1      43.762  29.300  29.985  1.00  0.00     0.049 A 
ATOM     48  H   UNL A   1      41.865  30.010  29.294  1.00  0.00     0.167 HD
ATOM     49  C   UNL A   1      42.697  22.909  28.278  1.00  0.00     0.037 A 
ATOM     50  C   UNL A   1      43.884  29.550  31.327  1.00  0.00     0.037 A 
ATOM     51  C   UNL A   1      43.847  23.415  29.029  1.00  0.00     0.049 A 
ATOM     52  C   UNL A   1      44.293  28.323  32.089  1.00  0.00     0.074 A 
ATOM     53  C   UNL A   1      44.961  24.133  28.618  1.00  0.00     0.029 A 
ATOM     54  N   UNL A   1      43.743  23.611  30.404  1.00  0.00    -0.354 N 
ATOM     55  N   UNL A   1      44.224  27.119  31.595  1.00  0.00    -0.248 NA
ATOM     56  C   UNL A   1      44.804  28.354  33.452  1.00  0.00     0.031 C 
ATOM     57  C   UNL A   1      45.474  24.829  29.739  1.00  0.00     0.029 A 
ATOM     58  C   UNL A   1      44.695  24.516  30.840  1.00  0.00     0.049 A 
ATOM     59  H   UNL A   1      43.083  23.167  30.985  1.00  0.00     0.167 HD
ATOM     60  C   UNL A   1      44.705  26.231  32.511  1.00  0.00     0.074 A 
ATOM     61  C   UNL A   1      45.063  27.052  33.655  1.00  0.00     0.031 C 
ATOM     62  C   UNL A   1      44.789  24.896  32.244  1.00  0.00     0.037 A 
BRANCH  49  63
ATOM     63  C   UNL A   1      42.754  21.802  27.252  1.00  0.00     0.057 A 
ATOM     64  C   UNL A   1      41.925  20.670  27.363  1.00  0.00     0.134 A 
ATOM     65  C   UNL A   1      43.642  21.770  26.162  1.00  0.00     0.134 A 
ATOM     66  F   UNL A   1      40.975  20.579  28.303  1.00  0.00    -0.206 F 
ATOM     67  C   UNL A   1      42.030  19.559  26.517  1.00  0.00     0.040 A 
ATOM     68  C   UNL A   1      43.791  20.646  25.334  1.00  0.00     0.040 A 
ATOM     69  F   UNL A   1      44.379  22.840  25.832  1.00  0.00    -0.206 F 
ATOM     70  C   UNL A   1      42.986  19.530  25.515  1.00  0.00     0.006 A 
ENDBRANCH  49  63
BRANCH  50  71
ATOM     71  C   UNL A   1      42.958  30.594  31.876  1.00  0.00     0.057 A 
ATOM     72  C   UNL A   1      41.901  30.061  32.636  1.00  0.00     0.134 A 
ATOM     73  C   UNL A   1      43.576  31.746  32.357  1.00  0.00     0.134 A 
ATOM     74  F   UNL A   1      41.121  29.098  32.126  1.00  0.00    -0.206 F 
ATOM     75  C   UNL A   1      41.836  30.306  34.000  1.00  0.00     0.040 A 
ATOM     76  C   UNL A   1      43.513  32.010  33.714  1.00  0.00     0.040 A 
ATOM     77  F   UNL A   1      44.461  32.419  31.610  1.00  0.00    -0.206 F 
ATOM     78  C   UNL A   1      42.752  31.188  34.546  1.00  0.00     0.006 A 
ENDBRANCH  50  71
BRANCH  62  79
ATOM     79  C   UNL A   1      45.116  23.844  33.263  1.00  0.00     0.057 A 
ATOM     80  C   UNL A   1      46.377  23.687  33.853  1.00  0.00     0.134 A 
ATOM     81  C   UNL A   1      44.099  23.009  33.776  1.00  0.00     0.134 A 
ATOM     82  F   UNL A   1      47.396  24.510  33.571  1.00  0.00    -0.206 F 
ATOM     83  C   UNL A   1      46.634  22.701  34.810  1.00  0.00     0.040 A 
ATOM     84  C   UNL A   1      44.328  22.075  34.785  1.00  0.00     0.040 A 
ATOM     85  F   UNL A   1      42.835  23.076  33.336  1.00  0.00    -0.206 F 
ATOM     86  C   UNL A   1      45.606  21.897  35.285  1.00  0.00     0.006 A 
ENDBRANCH  62  79
ENDBRANCH  36  37
ENDBRANCH  29  31
ENDBRANCH  28  29
ENDBRANCH  27  28
ENDBRANCH  26  27
ENDBRANCH  25  26
ENDBRANCH   1  25
TORSDOF 17
ENDMDL
MODEL 3
REMARK VINA RESULT:     -11.4      1.924      3.171
REMARK SMILES Cc1ccc([C@H](C)Nc2ccc(C(=O)OCCOCCOC(=O)c3ccc(-c4c5nc(c(-c6c(F)cccc6F)c6ccc([nH]6)c(-c6c(F)cccc6F)c6nc(c(-c7c(F)cccc7F)c7ccc4[nH]7)C=C6)C=C5)cc3)cc2Cl)cc1F
REMARK SMILES IDX 17 1 16 2 15 3 13 4 14 5 12 6 9 7 10 8 79 9 11 10 78 11
REMARK SMILES IDX 80 12 8 13 6 15 7 16 5 17 1 18 2 19 3 20 82 21 4 22 81 23
REMARK SMILES IDX 83 24 18 25 19 26 20 27 21 28 22 29 23 30 24 31 25 32 77 33
REMARK SMILES IDX 26 34 76 35 27 36 28 37 29 38 70 39 30 40 75 41 69 42 71 43
REMARK SMILES IDX 31 44 74 45 68 46 67 47 32 49 58 50 41 51 57 52 42 53 45 54
REMARK SMILES IDX 56 55 72 56 43 57 44 58 55 60 73 61 46 62 33 63 34 64 39 65
REMARK SMILES IDX 35 66 36 67 38 68 40 69 37 70 59 71 60 72 65 73 61 74 62 75
REMARK SMILES IDX 64 76 66 77 63 78 47 79 48 80 53 81 49 82 50 83 52 84 54 85
REMARK SMILES IDX 51 86
REMARK H PARENT 8 14 71 48 45 59
REMARK Flexibility Score: inf
ROOT
ATOM      1  C   UNL A   1      42.159  19.337  26.299  1.00  0.00     0.202 C 
ENDROOT
BRANCH   1   2
ATOM      2  C   UNL A   1      40.683  19.755  26.447  1.00  0.00     0.261 C 
BRANCH   2   3
ATOM      3  O   UNL A   1      40.293  20.956  25.769  1.00  0.00    -0.460 OA
BRANCH   3   4
ATOM      4  C   UNL A   1      39.720  21.887  26.561  1.00  0.00     0.338 C 
ATOM      5  O   UNL A   1      40.245  22.474  27.505  1.00  0.00    -0.246 OA
BRANCH   4   6
ATOM      6  C   UNL A   1      38.379  22.234  26.057  1.00  0.00     0.061 A 
ATOM      7  C   UNL A   1      35.753  22.970  25.323  1.00  0.00     0.053 A 
ATOM      8  C   UNL A   1      36.707  23.939  25.675  1.00  0.00     0.028 A 
ATOM      9  C   UNL A   1      36.176  21.620  25.292  1.00  0.00     0.065 A 
ATOM     10  C   UNL A   1      37.997  23.577  26.059  1.00  0.00     0.018 A 
ATOM     11  C   UNL A   1      37.486  21.258  25.627  1.00  0.00     0.038 A 
ATOM     12  Cl  UNL A   1      35.155  20.315  24.792  1.00  0.00    -0.082 Cl
BRANCH   7  13
ATOM     13  N   UNL A   1      34.457  23.421  25.109  1.00  0.00    -0.377 N 
ATOM     14  H   UNL A   1      33.722  22.985  25.597  1.00  0.00     0.161 HD
BRANCH  13  15
ATOM     15  C   UNL A   1      34.136  24.515  24.188  1.00  0.00     0.106 C 
ATOM     16  C   UNL A   1      33.352  23.921  23.003  1.00  0.00     0.036 C 
BRANCH  15  17
ATOM     17  C   UNL A   1      33.468  25.632  24.987  1.00  0.00    -0.023 A 
ATOM     18  C   UNL A   1      31.413  28.351  27.672  1.00  0.00     0.047 C 
ATOM     19  C   UNL A   1      32.132  27.452  26.717  1.00  0.00    -0.015 A 
ATOM     20  C   UNL A   1      33.497  27.590  26.450  1.00  0.00     0.007 A 
ATOM     21  C   UNL A   1      31.441  26.417  26.099  1.00  0.00     0.126 A 
ATOM     22  C   UNL A   1      34.158  26.689  25.600  1.00  0.00     0.006 A 
ATOM     23  C   UNL A   1      32.087  25.535  25.244  1.00  0.00     0.045 A 
ATOM     24  F   UNL A   1      30.134  26.241  26.342  1.00  0.00    -0.207 F 
ENDBRANCH  15  17
ENDBRANCH  13  15
ENDBRANCH   7  13
ENDBRANCH   4   6
ENDBRANCH   3   4
ENDBRANCH   2   3
ENDBRANCH   1   2
BRANCH   1  25
ATOM     25  O   UNL A   1      42.758  19.277  25.019  1.00  0.00    -0.374 OA
BRANCH  25  26
ATOM     26  C   UNL A   1      44.143  19.013  24.872  1.00  0.00     0.202 C 
BRANCH  26  27
ATOM     27  C   UNL A   1      45.082  20.032  24.254  1.00  0.00     0.261 C 
BRANCH  27  28
ATOM     28  O   UNL A   1      45.342  21.226  25.005  1.00  0.00    -0.460 OA
BRANCH  28  29
ATOM     29  C   UNL A   1      44.801  22.360  24.494  1.00  0.00     0.338 C 
ATOM     30  O   UNL A   1      45.309  23.083  23.649  1.00  0.00    -0.246 OA
BRANCH  29  31
ATOM     31  C   UNL A   1      43.685  22.872  25.314  1.00  0.00     0.060 A 
ATOM     32  C   UNL A   1      43.249  24.149  24.922  1.00  0.00     0.016 A 
ATOM     33  C   UNL A   1      43.589  22.439  26.638  1.00  0.00     0.016 A 
ATOM     34  C   UNL A   1      43.088  25.110  25.898  1.00  0.00     0.010 A 
ATOM     35  C   UNL A   1      43.397  23.395  27.611  1.00  0.00     0.010 A 
ATOM     36  C   UNL A   1      43.270  24.733  27.230  1.00  0.00    -0.014 A 
BRANCH  36  37
ATOM     37  C   UNL A   1      43.285  25.732  28.279  1.00  0.00     0.031 A 
ATOM     38  C   UNL A   1      42.034  26.475  28.452  1.00  0.00     0.074 A 
ATOM     39  C   UNL A   1      44.421  26.031  28.948  1.00  0.00     0.049 A 
ATOM     40  N   UNL A   1      41.960  27.745  28.625  1.00  0.00    -0.248 NA
ATOM     41  C   UNL A   1      40.732  25.828  28.301  1.00  0.00     0.031 C 
ATOM     42  C   UNL A   1      44.591  26.957  30.057  1.00  0.00     0.029 A 
ATOM     43  N   UNL A   1      45.728  25.659  28.620  1.00  0.00    -0.354 N 
ATOM     44  C   UNL A   1      40.655  28.014  28.969  1.00  0.00     0.074 A 
ATOM     45  C   UNL A   1      39.908  26.837  28.595  1.00  0.00     0.031 C 
ATOM     46  C   UNL A   1      45.891  27.294  30.151  1.00  0.00     0.029 A 
ATOM     47  C   UNL A   1      46.601  26.681  29.041  1.00  0.00     0.049 A 
ATOM     48  H   UNL A   1      45.993  24.824  28.170  1.00  0.00     0.167 HD
ATOM     49  C   UNL A   1      40.396  29.112  29.733  1.00  0.00     0.037 A 
ATOM     50  C   UNL A   1      47.415  27.354  28.165  1.00  0.00     0.037 A 
ATOM     51  C   UNL A   1      41.637  29.844  29.991  1.00  0.00     0.049 A 
ATOM     52  C   UNL A   1      46.962  28.769  27.957  1.00  0.00     0.074 A 
ATOM     53  C   UNL A   1      42.541  29.767  31.041  1.00  0.00     0.029 A 
ATOM     54  N   UNL A   1      42.317  30.447  28.935  1.00  0.00    -0.354 N 
ATOM     55  N   UNL A   1      45.783  29.201  28.302  1.00  0.00    -0.248 NA
ATOM     56  C   UNL A   1      47.793  29.799  27.348  1.00  0.00     0.031 C 
ATOM     57  C   UNL A   1      43.792  30.247  30.582  1.00  0.00     0.029 A 
ATOM     58  C   UNL A   1      43.648  30.645  29.263  1.00  0.00     0.049 A 
ATOM     59  H   UNL A   1      41.908  30.696  28.075  1.00  0.00     0.167 HD
ATOM     60  C   UNL A   1      45.692  30.532  28.023  1.00  0.00     0.074 A 
ATOM     61  C   UNL A   1      46.978  30.864  27.434  1.00  0.00     0.031 C 
ATOM     62  C   UNL A   1      44.574  31.256  28.320  1.00  0.00     0.037 A 
BRANCH  49  63
ATOM     63  C   UNL A   1      39.128  29.250  30.541  1.00  0.00     0.057 A 
ATOM     64  C   UNL A   1      38.075  30.073  30.100  1.00  0.00     0.134 A 
ATOM     65  C   UNL A   1      38.906  28.636  31.787  1.00  0.00     0.134 A 
ATOM     66  F   UNL A   1      38.099  30.670  28.902  1.00  0.00    -0.206 F 
ATOM     67  C   UNL A   1      36.937  30.338  30.871  1.00  0.00     0.040 A 
ATOM     68  C   UNL A   1      37.792  28.927  32.592  1.00  0.00     0.040 A 
ATOM     69  F   UNL A   1      39.742  27.703  32.263  1.00  0.00    -0.206 F 
ATOM     70  C   UNL A   1      36.804  29.788  32.136  1.00  0.00     0.006 A 
ENDBRANCH  49  63
BRANCH  50  71
ATOM     71  C   UNL A   1      48.034  26.516  27.086  1.00  0.00     0.057 A 
ATOM     72  C   UNL A   1      47.432  26.692  25.827  1.00  0.00     0.134 A 
ATOM     73  C   UNL A   1      49.422  26.422  27.126  1.00  0.00     0.134 A 
ATOM     74  F   UNL A   1      46.106  26.563  25.688  1.00  0.00    -0.206 F 
ATOM     75  C   UNL A   1      48.148  27.280  24.793  1.00  0.00     0.040 A 
ATOM     76  C   UNL A   1      50.151  26.996  26.098  1.00  0.00     0.040 A 
ATOM     77  F   UNL A   1      50.060  26.073  28.252  1.00  0.00    -0.206 F 
ATOM     78  C   UNL A   1      49.488  27.553  25.005  1.00  0.00     0.006 A 
ENDBRANCH  50  71
BRANCH  62  79
ATOM     79  C   UNL A   1      44.328  32.665  27.865  1.00  0.00     0.057 A 
ATOM     80  C   UNL A   1      44.532  33.796  28.666  1.00  0.00     0.134 A 
ATOM     81  C   UNL A   1      43.980  32.929  26.522  1.00  0.00     0.134 A 
ATOM     82  F   UNL A   1      45.008  33.700  29.914  1.00  0.00    -0.206 F 
ATOM     83  C   UNL A   1      44.302  35.092  28.197  1.00  0.00     0.040 A 
ATOM     84  C   UNL A   1      43.824  34.221  26.023  1.00  0.00     0.040 A 
ATOM     85  F   UNL A   1      43.794  31.946  25.629  1.00  0.00    -0.206 F 
ATOM     86  C   UNL A   1      43.957  35.309  26.869  1.00  0.00     0.006 A 
ENDBRANCH  62  79
ENDBRANCH  36  37
ENDBRANCH  29  31
ENDBRANCH  28  29
ENDBRANCH  27  28
ENDBRANCH  26  27
ENDBRANCH  25  26
ENDBRANCH   1  25
TORSDOF 17
ENDMDL
