MODEL 1
REMARK VINA RESULT:     -11.2      0.000      0.000
REMARK SMILES NS(=O)(=O)c1ccc(NS(=O)(=O)c2cccc(C(=O)OCCOCCOC(=O)c3ccc(-c4c5nc(c(-c6c(F)cccc6F)c6ccc([nH]6)c(-c6c(F)cccc6F)c6nc(c(-c7c(F)cccc7F)c7ccc4[nH]7)C=C6)C=C5)cc3)c2)cc1
REMARK SMILES IDX 21 1 20 2 18 3 19 4 17 5 13 6 14 7 83 8 15 9 16 10 10 11
REMARK SMILES IDX 11 12 12 13 9 14 8 16 5 17 6 18 85 19 7 20 84 21 2 22 3 23
REMARK SMILES IDX 4 24 1 25 22 28 23 29 24 30 25 31 26 32 27 33 28 34 29 35
REMARK SMILES IDX 30 36 82 37 31 38 81 39 32 40 33 41 34 42 75 43 35 44 80 45
REMARK SMILES IDX 74 46 76 47 36 48 79 49 73 50 72 51 37 53 63 54 46 55 62 56
REMARK SMILES IDX 47 57 50 58 61 59 77 60 48 61 49 62 60 64 78 65 51 66 38 67
REMARK SMILES IDX 39 68 44 69 40 70 41 71 43 72 45 73 42 74 64 75 65 76 70 77
REMARK SMILES IDX 66 78 67 79 69 80 71 81 68 82 52 83 53 84 58 85 54 86 55 87
REMARK SMILES IDX 57 88 59 89 56 90
REMARK H PARENT 9 15 1 26 1 27 76 52 50 63
REMARK Flexibility Score: inf
ROOT
ATOM      1  C   UNL A   1      39.976  21.440  26.347  1.00  0.00     0.261 C 
ENDROOT
BRANCH   1   2
ATOM      2  O   UNL A   1      38.693  21.559  25.710  1.00  0.00    -0.460 OA
BRANCH   2   3
ATOM      3  C   UNL A   1      38.139  22.790  25.827  1.00  0.00     0.338 C 
ATOM      4  O   UNL A   1      38.609  23.731  26.450  1.00  0.00    -0.246 OA
BRANCH   3   5
ATOM      5  C   UNL A   1      36.880  22.929  25.044  1.00  0.00     0.061 A 
ATOM      6  C   UNL A   1      34.540  23.473  24.730  1.00  0.00     0.088 A 
ATOM      7  C   UNL A   1      34.736  23.489  23.345  1.00  0.00     0.022 A 
ATOM      8  C   UNL A   1      35.622  23.217  25.594  1.00  0.00     0.038 A 
ATOM      9  C   UNL A   1      35.953  23.090  22.805  1.00  0.00     0.002 A 
ATOM     10  C   UNL A   1      37.018  22.807  23.652  1.00  0.00     0.016 A 
BRANCH   6  11
ATOM     11  S   UNL A   1      32.950  23.944  25.382  1.00  0.00     0.261 S 
ATOM     12  O   UNL A   1      32.564  25.165  24.707  1.00  0.00    -0.201 OA
ATOM     13  O   UNL A   1      33.044  23.906  26.827  1.00  0.00    -0.201 OA
BRANCH  11  14
ATOM     14  N   UNL A   1      31.766  22.775  24.977  1.00  0.00    -0.280 N 
ATOM     15  H   UNL A   1      30.816  23.033  24.953  1.00  0.00     0.180 HD
BRANCH  14  16
ATOM     16  C   UNL A   1      32.140  21.426  24.671  1.00  0.00     0.049 A 
ATOM     17  C   UNL A   1      33.032  18.835  24.134  1.00  0.00     0.082 A 
ATOM     18  C   UNL A   1      33.018  19.308  25.449  1.00  0.00     0.024 A 
ATOM     19  C   UNL A   1      32.548  19.628  23.090  1.00  0.00     0.024 A 
ATOM     20  C   UNL A   1      32.555  20.598  25.715  1.00  0.00     0.028 A 
ATOM     21  C   UNL A   1      32.112  20.935  23.360  1.00  0.00     0.028 A 
BRANCH  17  22
ATOM     22  S   UNL A   1      33.710  17.227  23.832  1.00  0.00     0.238 S 
ATOM     23  O   UNL A   1      34.962  17.117  24.551  1.00  0.00    -0.207 OA
ATOM     24  O   UNL A   1      33.591  16.953  22.424  1.00  0.00    -0.207 OA
BRANCH  22  25
ATOM     25  N   UNL A   1      32.665  16.167  24.610  1.00  0.00    -0.225 NA
ATOM     26  H   UNL A   1      32.392  15.425  23.966  1.00  0.00     0.137 HD
ATOM     27  H   UNL A   1      31.835  16.673  24.919  1.00  0.00     0.137 HD
ENDBRANCH  22  25
ENDBRANCH  17  22
ENDBRANCH  14  16
ENDBRANCH  11  14
ENDBRANCH   6  11
ENDBRANCH   3   5
ENDBRANCH   2   3
ENDBRANCH   1   2
BRANCH   1  28
ATOM     28  C   UNL A   1      40.484  19.996  26.390  1.00  0.00     0.202 C 
BRANCH  28  29
ATOM     29  O   UNL A   1      41.826  19.765  25.974  1.00  0.00    -0.374 OA
BRANCH  29  30
ATOM     30  C   UNL A   1      42.846  20.579  26.558  1.00  0.00     0.202 C 
BRANCH  30  31
ATOM     31  C   UNL A   1      43.715  21.396  25.595  1.00  0.00     0.261 C 
BRANCH  31  32
ATOM     32  O   UNL A   1      44.077  22.675  26.148  1.00  0.00    -0.460 OA
BRANCH  32  33
ATOM     33  C   UNL A   1      43.616  23.754  25.468  1.00  0.00     0.338 C 
ATOM     34  O   UNL A   1      43.501  23.878  24.261  1.00  0.00    -0.246 OA
BRANCH  33  35
ATOM     35  C   UNL A   1      43.062  24.729  26.425  1.00  0.00     0.060 A 
ATOM     36  C   UNL A   1      43.596  26.027  26.423  1.00  0.00     0.016 A 
ATOM     37  C   UNL A   1      42.066  24.372  27.333  1.00  0.00     0.016 A 
ATOM     38  C   UNL A   1      43.139  26.970  27.342  1.00  0.00     0.010 A 
ATOM     39  C   UNL A   1      41.624  25.314  28.267  1.00  0.00     0.010 A 
ATOM     40  C   UNL A   1      42.169  26.611  28.284  1.00  0.00    -0.014 A 
BRANCH  40  41
ATOM     41  C   UNL A   1      41.779  27.560  29.353  1.00  0.00     0.031 A 
ATOM     42  C   UNL A   1      42.512  27.536  30.662  1.00  0.00     0.074 A 
ATOM     43  C   UNL A   1      40.766  28.424  29.159  1.00  0.00     0.049 A 
ATOM     44  N   UNL A   1      42.269  28.202  31.761  1.00  0.00    -0.248 NA
ATOM     45  C   UNL A   1      43.675  26.639  30.741  1.00  0.00     0.031 C 
ATOM     46  C   UNL A   1      40.012  28.574  27.916  1.00  0.00     0.029 A 
ATOM     47  N   UNL A   1      40.191  29.328  30.016  1.00  0.00    -0.354 N 
ATOM     48  C   UNL A   1      43.243  27.802  32.666  1.00  0.00     0.074 A 
ATOM     49  C   UNL A   1      44.067  26.818  31.994  1.00  0.00     0.031 C 
ATOM     50  C   UNL A   1      39.055  29.501  28.098  1.00  0.00     0.029 A 
ATOM     51  C   UNL A   1      39.106  29.975  29.479  1.00  0.00     0.049 A 
ATOM     52  H   UNL A   1      40.522  29.494  30.928  1.00  0.00     0.167 HD
ATOM     53  C   UNL A   1      43.435  28.222  33.939  1.00  0.00     0.037 A 
ATOM     54  C   UNL A   1      38.231  30.825  30.051  1.00  0.00     0.037 A 
ATOM     55  C   UNL A   1      42.606  29.193  34.603  1.00  0.00     0.049 A 
ATOM     56  C   UNL A   1      38.396  31.189  31.502  1.00  0.00     0.074 A 
ATOM     57  C   UNL A   1      42.734  29.706  35.882  1.00  0.00     0.029 A 
ATOM     58  N   UNL A   1      41.483  29.784  34.046  1.00  0.00    -0.354 N 
ATOM     59  N   UNL A   1      39.334  30.830  32.343  1.00  0.00    -0.248 NA
ATOM     60  C   UNL A   1      37.371  32.068  32.086  1.00  0.00     0.031 C 
ATOM     61  C   UNL A   1      41.656  30.566  36.117  1.00  0.00     0.029 A 
ATOM     62  C   UNL A   1      40.884  30.626  34.969  1.00  0.00     0.049 A 
ATOM     63  H   UNL A   1      41.158  29.629  33.129  1.00  0.00     0.167 HD
ATOM     64  C   UNL A   1      39.024  31.447  33.548  1.00  0.00     0.074 A 
ATOM     65  C   UNL A   1      37.818  32.218  33.325  1.00  0.00     0.031 C 
ATOM     66  C   UNL A   1      39.678  31.381  34.734  1.00  0.00     0.037 A 
BRANCH  53  67
ATOM     67  C   UNL A   1      44.567  27.605  34.706  1.00  0.00     0.057 A 
ATOM     68  C   UNL A   1      45.853  28.160  34.704  1.00  0.00     0.134 A 
ATOM     69  C   UNL A   1      44.361  26.453  35.478  1.00  0.00     0.134 A 
ATOM     70  F   UNL A   1      46.120  29.254  33.975  1.00  0.00    -0.206 F 
ATOM     71  C   UNL A   1      46.899  27.579  35.422  1.00  0.00     0.040 A 
ATOM     72  C   UNL A   1      45.394  25.878  36.219  1.00  0.00     0.040 A 
ATOM     73  F   UNL A   1      43.152  25.873  35.527  1.00  0.00    -0.206 F 
ATOM     74  C   UNL A   1      46.669  26.437  36.187  1.00  0.00     0.006 A 
ENDBRANCH  53  67
BRANCH  54  75
ATOM     75  C   UNL A   1      37.096  31.363  29.260  1.00  0.00     0.057 A 
ATOM     76  C   UNL A   1      37.120  32.667  28.754  1.00  0.00     0.134 A 
ATOM     77  C   UNL A   1      35.958  30.589  28.998  1.00  0.00     0.134 A 
ATOM     78  F   UNL A   1      38.172  33.464  28.995  1.00  0.00    -0.206 F 
ATOM     79  C   UNL A   1      36.051  33.186  28.024  1.00  0.00     0.040 A 
ATOM     80  C   UNL A   1      34.892  31.088  28.247  1.00  0.00     0.040 A 
ATOM     81  F   UNL A   1      35.872  29.333  29.458  1.00  0.00    -0.206 F 
ATOM     82  C   UNL A   1      34.935  32.394  27.762  1.00  0.00     0.006 A 
ENDBRANCH  54  75
BRANCH  66  83
ATOM     83  C   UNL A   1      39.112  32.166  35.880  1.00  0.00     0.057 A 
ATOM     84  C   UNL A   1      39.461  33.505  36.096  1.00  0.00     0.134 A 
ATOM     85  C   UNL A   1      38.167  31.597  36.742  1.00  0.00     0.134 A 
ATOM     86  F   UNL A   1      40.372  34.105  35.314  1.00  0.00    -0.206 F 
ATOM     87  C   UNL A   1      38.899  34.247  37.137  1.00  0.00     0.040 A 
ATOM     88  C   UNL A   1      37.580  32.335  37.771  1.00  0.00     0.040 A 
ATOM     89  F   UNL A   1      37.783  30.321  36.585  1.00  0.00    -0.206 F 
ATOM     90  C   UNL A   1      37.948  33.663  37.973  1.00  0.00     0.006 A 
ENDBRANCH  66  83
ENDBRANCH  40  41
ENDBRANCH  33  35
ENDBRANCH  32  33
ENDBRANCH  31  32
ENDBRANCH  30  31
ENDBRANCH  29  30
ENDBRANCH  28  29
ENDBRANCH   1  28
TORSDOF 19
ENDMDL
MODEL 2
REMARK VINA RESULT:     -11.1      1.233      2.378
REMARK SMILES NS(=O)(=O)c1ccc(NS(=O)(=O)c2cccc(C(=O)OCCOCCOC(=O)c3ccc(-c4c5nc(c(-c6c(F)cccc6F)c6ccc([nH]6)c(-c6c(F)cccc6F)c6nc(c(-c7c(F)cccc7F)c7ccc4[nH]7)C=C6)C=C5)cc3)c2)cc1
REMARK SMILES IDX 21 1 20 2 18 3 19 4 17 5 13 6 14 7 83 8 15 9 16 10 10 11
REMARK SMILES IDX 11 12 12 13 9 14 8 16 5 17 6 18 85 19 7 20 84 21 2 22 3 23
REMARK SMILES IDX 4 24 1 25 22 28 23 29 24 30 25 31 26 32 27 33 28 34 29 35
REMARK SMILES IDX 30 36 82 37 31 38 81 39 32 40 33 41 34 42 75 43 35 44 80 45
REMARK SMILES IDX 74 46 76 47 36 48 79 49 73 50 72 51 37 53 63 54 46 55 62 56
REMARK SMILES IDX 47 57 50 58 61 59 77 60 48 61 49 62 60 64 78 65 51 66 38 67
REMARK SMILES IDX 39 68 44 69 40 70 41 71 43 72 45 73 42 74 64 75 65 76 70 77
REMARK SMILES IDX 66 78 67 79 69 80 71 81 68 82 52 83 53 84 58 85 54 86 55 87
REMARK SMILES IDX 57 88 59 89 56 90
REMARK H PARENT 9 15 1 26 1 27 76 52 50 63
REMARK Flexibility Score: inf
ROOT
ATOM      1  C   UNL A   1      41.214  19.268  25.988  1.00  0.00     0.261 C 
ENDROOT
BRANCH   1   2
ATOM      2  O   UNL A   1      40.634  20.555  25.716  1.00  0.00    -0.460 OA
BRANCH   2   3
ATOM      3  C   UNL A   1      40.266  21.233  26.831  1.00  0.00     0.338 C 
ATOM      4  O   UNL A   1      40.671  21.022  27.964  1.00  0.00    -0.246 OA
BRANCH   3   5
ATOM      5  C   UNL A   1      39.331  22.354  26.536  1.00  0.00     0.061 A 
ATOM      6  C   UNL A   1      37.329  23.354  25.607  1.00  0.00     0.088 A 
ATOM      7  C   UNL A   1      37.525  24.480  26.415  1.00  0.00     0.022 A 
ATOM      8  C   UNL A   1      38.221  22.268  25.682  1.00  0.00     0.038 A 
ATOM      9  C   UNL A   1      38.684  24.608  27.170  1.00  0.00     0.002 A 
ATOM     10  C   UNL A   1      39.585  23.551  27.225  1.00  0.00     0.016 A 
BRANCH   6  11
ATOM     11  S   UNL A   1      35.853  23.250  24.615  1.00  0.00     0.261 S 
ATOM     12  O   UNL A   1      36.229  22.620  23.367  1.00  0.00    -0.201 OA
ATOM     13  O   UNL A   1      35.234  24.559  24.617  1.00  0.00    -0.201 OA
BRANCH  11  14
ATOM     14  N   UNL A   1      34.708  22.210  25.352  1.00  0.00    -0.280 N 
ATOM     15  H   UNL A   1      34.100  22.566  26.040  1.00  0.00     0.180 HD
BRANCH  14  16
ATOM     16  C   UNL A   1      34.624  20.829  24.980  1.00  0.00     0.049 A 
ATOM     17  C   UNL A   1      34.353  18.112  24.393  1.00  0.00     0.082 A 
ATOM     18  C   UNL A   1      33.236  18.951  24.340  1.00  0.00     0.024 A 
ATOM     19  C   UNL A   1      35.617  18.633  24.683  1.00  0.00     0.024 A 
ATOM     20  C   UNL A   1      33.379  20.312  24.617  1.00  0.00     0.028 A 
ATOM     21  C   UNL A   1      35.749  19.996  24.991  1.00  0.00     0.028 A 
BRANCH  17  22
ATOM     22  S   UNL A   1      34.108  16.379  24.122  1.00  0.00     0.238 S 
ATOM     23  O   UNL A   1      34.920  15.649  25.072  1.00  0.00    -0.207 OA
ATOM     24  O   UNL A   1      34.161  16.141  22.704  1.00  0.00    -0.207 OA
BRANCH  22  25
ATOM     25  N   UNL A   1      32.522  16.091  24.590  1.00  0.00    -0.225 NA
ATOM     26  H   UNL A   1      32.074  15.475  23.912  1.00  0.00     0.137 HD
ATOM     27  H   UNL A   1      32.015  16.975  24.635  1.00  0.00     0.137 HD
ENDBRANCH  22  25
ENDBRANCH  17  22
ENDBRANCH  14  16
ENDBRANCH  11  14
ENDBRANCH   6  11
ENDBRANCH   3   5
ENDBRANCH   2   3
ENDBRANCH   1   2
BRANCH   1  28
ATOM     28  C   UNL A   1      42.743  19.315  26.074  1.00  0.00     0.202 C 
BRANCH  28  29
ATOM     29  O   UNL A   1      43.451  19.648  24.884  1.00  0.00    -0.374 OA
BRANCH  29  30
ATOM     30  C   UNL A   1      44.188  20.872  24.878  1.00  0.00     0.202 C 
BRANCH  30  31
ATOM     31  C   UNL A   1      43.951  21.829  26.053  1.00  0.00     0.261 C 
BRANCH  31  32
ATOM     32  O   UNL A   1      43.111  22.939  25.684  1.00  0.00    -0.460 OA
BRANCH  32  33
ATOM     33  C   UNL A   1      43.758  24.113  25.481  1.00  0.00     0.338 C 
ATOM     34  O   UNL A   1      44.359  24.468  24.482  1.00  0.00    -0.246 OA
BRANCH  33  35
ATOM     35  C   UNL A   1      43.464  25.028  26.599  1.00  0.00     0.060 A 
ATOM     36  C   UNL A   1      42.622  24.566  27.622  1.00  0.00     0.016 A 
ATOM     37  C   UNL A   1      43.972  26.327  26.630  1.00  0.00     0.016 A 
ATOM     38  C   UNL A   1      42.276  25.410  28.676  1.00  0.00     0.010 A 
ATOM     39  C   UNL A   1      43.607  27.177  27.678  1.00  0.00     0.010 A 
ATOM     40  C   UNL A   1      42.747  26.728  28.695  1.00  0.00    -0.014 A 
BRANCH  40  41
ATOM     41  C   UNL A   1      42.274  27.674  29.732  1.00  0.00     0.031 A 
ATOM     42  C   UNL A   1      42.962  27.708  31.066  1.00  0.00     0.074 A 
ATOM     43  C   UNL A   1      41.228  28.483  29.489  1.00  0.00     0.049 A 
ATOM     44  N   UNL A   1      42.649  28.379  32.144  1.00  0.00    -0.248 NA
ATOM     45  C   UNL A   1      44.165  26.871  31.201  1.00  0.00     0.031 C 
ATOM     46  C   UNL A   1      40.510  28.574  28.219  1.00  0.00     0.029 A 
ATOM     47  N   UNL A   1      40.579  29.371  30.309  1.00  0.00    -0.354 N 
ATOM     48  C   UNL A   1      43.610  28.044  33.088  1.00  0.00     0.074 A 
ATOM     49  C   UNL A   1      44.504  27.091  32.462  1.00  0.00     0.031 C 
ATOM     50  C   UNL A   1      39.503  29.455  28.352  1.00  0.00     0.029 A 
ATOM     51  C   UNL A   1      39.483  29.954  29.725  1.00  0.00     0.049 A 
ATOM     52  H   UNL A   1      40.871  29.569  31.229  1.00  0.00     0.167 HD
ATOM     53  C   UNL A   1      43.736  28.494  34.359  1.00  0.00     0.037 A 
ATOM     54  C   UNL A   1      38.548  30.769  30.251  1.00  0.00     0.037 A 
ATOM     55  C   UNL A   1      42.838  29.433  34.977  1.00  0.00     0.049 A 
ATOM     56  C   UNL A   1      38.644  31.165  31.699  1.00  0.00     0.074 A 
ATOM     57  C   UNL A   1      42.897  29.973  36.250  1.00  0.00     0.029 A 
ATOM     58  N   UNL A   1      41.707  29.958  34.371  1.00  0.00    -0.354 N 
ATOM     59  N   UNL A   1      39.570  30.867  32.579  1.00  0.00    -0.248 NA
ATOM     60  C   UNL A   1      37.558  32.001  32.233  1.00  0.00     0.031 C 
ATOM     61  C   UNL A   1      41.771  30.783  36.433  1.00  0.00     0.029 A 
ATOM     62  C   UNL A   1      41.037  30.785  35.258  1.00  0.00     0.049 A 
ATOM     63  H   UNL A   1      41.422  29.771  33.447  1.00  0.00     0.167 HD
ATOM     64  C   UNL A   1      39.188  31.488  33.761  1.00  0.00     0.074 A 
ATOM     65  C   UNL A   1      37.954  32.194  33.484  1.00  0.00     0.031 C 
ATOM     66  C   UNL A   1      39.804  31.474  34.969  1.00  0.00     0.037 A 
BRANCH  53  67
ATOM     67  C   UNL A   1      44.871  27.947  35.174  1.00  0.00     0.057 A 
ATOM     68  C   UNL A   1      44.769  26.731  35.862  1.00  0.00     0.134 A 
ATOM     69  C   UNL A   1      46.090  28.633  35.251  1.00  0.00     0.134 A 
ATOM     70  F   UNL A   1      43.625  26.030  35.840  1.00  0.00    -0.206 F 
ATOM     71  C   UNL A   1      45.831  26.229  36.617  1.00  0.00     0.040 A 
ATOM     72  C   UNL A   1      47.166  28.129  35.982  1.00  0.00     0.040 A 
ATOM     73  F   UNL A   1      46.255  29.801  34.612  1.00  0.00    -0.206 F 
ATOM     74  C   UNL A   1      47.036  26.927  36.674  1.00  0.00     0.006 A 
ENDBRANCH  53  67
BRANCH  54  75
ATOM     75  C   UNL A   1      37.416  31.236  29.412  1.00  0.00     0.057 A 
ATOM     76  C   UNL A   1      36.328  30.401  29.135  1.00  0.00     0.134 A 
ATOM     77  C   UNL A   1      37.398  32.524  28.862  1.00  0.00     0.134 A 
ATOM     78  F   UNL A   1      36.301  29.148  29.612  1.00  0.00    -0.206 F 
ATOM     79  C   UNL A   1      35.267  30.826  28.334  1.00  0.00     0.040 A 
ATOM     80  C   UNL A   1      36.331  32.970  28.081  1.00  0.00     0.040 A 
ATOM     81  F   UNL A   1      38.413  33.371  29.088  1.00  0.00    -0.206 F 
ATOM     82  C   UNL A   1      35.264  32.117  27.810  1.00  0.00     0.006 A 
ENDBRANCH  54  75
BRANCH  66  83
ATOM     83  C   UNL A   1      39.160  32.249  36.080  1.00  0.00     0.057 A 
ATOM     84  C   UNL A   1      38.214  31.665  36.932  1.00  0.00     0.134 A 
ATOM     85  C   UNL A   1      39.530  33.576  36.338  1.00  0.00     0.134 A 
ATOM     86  F   UNL A   1      37.806  30.403  36.730  1.00  0.00    -0.206 F 
ATOM     87  C   UNL A   1      37.650  32.376  37.993  1.00  0.00     0.040 A 
ATOM     88  C   UNL A   1      38.991  34.289  37.409  1.00  0.00     0.040 A 
ATOM     89  F   UNL A   1      40.437  34.192  35.565  1.00  0.00    -0.206 F 
ATOM     90  C   UNL A   1      38.045  33.690  38.238  1.00  0.00     0.006 A 
ENDBRANCH  66  83
ENDBRANCH  40  41
ENDBRANCH  33  35
ENDBRANCH  32  33
ENDBRANCH  31  32
ENDBRANCH  30  31
ENDBRANCH  29  30
ENDBRANCH  28  29
ENDBRANCH   1  28
TORSDOF 19
ENDMDL
MODEL 3
REMARK VINA RESULT:     -11.0      1.775      3.666
REMARK SMILES NS(=O)(=O)c1ccc(NS(=O)(=O)c2cccc(C(=O)OCCOCCOC(=O)c3ccc(-c4c5nc(c(-c6c(F)cccc6F)c6ccc([nH]6)c(-c6c(F)cccc6F)c6nc(c(-c7c(F)cccc7F)c7ccc4[nH]7)C=C6)C=C5)cc3)c2)cc1
REMARK SMILES IDX 21 1 20 2 18 3 19 4 17 5 13 6 14 7 83 8 15 9 16 10 10 11
REMARK SMILES IDX 11 12 12 13 9 14 8 16 5 17 6 18 85 19 7 20 84 21 2 22 3 23
REMARK SMILES IDX 4 24 1 25 22 28 23 29 24 30 25 31 26 32 27 33 28 34 29 35
REMARK SMILES IDX 30 36 82 37 31 38 81 39 32 40 33 41 34 42 75 43 35 44 80 45
REMARK SMILES IDX 74 46 76 47 36 48 79 49 73 50 72 51 37 53 63 54 46 55 62 56
REMARK SMILES IDX 47 57 50 58 61 59 77 60 48 61 49 62 60 64 78 65 51 66 38 67
REMARK SMILES IDX 39 68 44 69 40 70 41 71 43 72 45 73 42 74 64 75 65 76 70 77
REMARK SMILES IDX 66 78 67 79 69 80 71 81 68 82 52 83 53 84 58 85 54 86 55 87
REMARK SMILES IDX 57 88 59 89 56 90
REMARK H PARENT 9 15 1 26 1 27 76 52 50 63
REMARK Flexibility Score: inf
ROOT
ATOM      1  C   UNL A   1      39.091  22.052  26.051  1.00  0.00     0.261 C 
ENDROOT
BRANCH   1   2
ATOM      2  O   UNL A   1      37.703  21.846  25.740  1.00  0.00    -0.460 OA
BRANCH   2   3
ATOM      3  C   UNL A   1      36.942  22.959  25.882  1.00  0.00     0.338 C 
ATOM      4  O   UNL A   1      37.354  24.078  26.152  1.00  0.00    -0.246 OA
BRANCH   3   5
ATOM      5  C   UNL A   1      35.501  22.707  25.607  1.00  0.00     0.061 A 
ATOM      6  C   UNL A   1      33.534  22.537  24.203  1.00  0.00     0.088 A 
ATOM      7  C   UNL A   1      32.881  21.825  25.216  1.00  0.00     0.022 A 
ATOM      8  C   UNL A   1      34.863  22.962  24.383  1.00  0.00     0.038 A 
ATOM      9  C   UNL A   1      33.475  21.678  26.463  1.00  0.00     0.002 A 
ATOM     10  C   UNL A   1      34.778  22.121  26.658  1.00  0.00     0.016 A 
BRANCH   6  11
ATOM     11  S   UNL A   1      32.718  22.748  22.633  1.00  0.00     0.261 S 
ATOM     12  O   UNL A   1      32.100  21.480  22.307  1.00  0.00    -0.201 OA
ATOM     13  O   UNL A   1      33.672  23.351  21.725  1.00  0.00    -0.201 OA
BRANCH  11  14
ATOM     14  N   UNL A   1      31.443  23.884  22.766  1.00  0.00    -0.280 N 
ATOM     15  H   UNL A   1      30.648  23.792  22.193  1.00  0.00     0.180 HD
BRANCH  14  16
ATOM     16  C   UNL A   1      31.520  24.966  23.702  1.00  0.00     0.049 A 
ATOM     17  C   UNL A   1      31.828  27.016  25.574  1.00  0.00     0.082 A 
ATOM     18  C   UNL A   1      32.695  26.935  24.480  1.00  0.00     0.024 A 
ATOM     19  C   UNL A   1      30.771  26.112  25.708  1.00  0.00     0.024 A 
ATOM     20  C   UNL A   1      32.526  25.919  23.538  1.00  0.00     0.028 A 
ATOM     21  C   UNL A   1      30.625  25.075  24.774  1.00  0.00     0.028 A 
BRANCH  17  22
ATOM     22  S   UNL A   1      32.134  28.266  26.790  1.00  0.00     0.238 S 
ATOM     23  O   UNL A   1      31.619  29.524  26.293  1.00  0.00    -0.207 OA
ATOM     24  O   UNL A   1      33.486  28.106  27.259  1.00  0.00    -0.207 OA
BRANCH  22  25
ATOM     25  N   UNL A   1      31.137  27.864  28.079  1.00  0.00    -0.225 NA
ATOM     26  H   UNL A   1      30.194  28.208  27.901  1.00  0.00     0.137 HD
ATOM     27  H   UNL A   1      31.498  28.288  28.934  1.00  0.00     0.137 HD
ENDBRANCH  22  25
ENDBRANCH  17  22
ENDBRANCH  14  16
ENDBRANCH  11  14
ENDBRANCH   6  11
ENDBRANCH   3   5
ENDBRANCH   2   3
ENDBRANCH   1   2
BRANCH   1  28
ATOM     28  C   UNL A   1      39.877  20.740  26.142  1.00  0.00     0.202 C 
BRANCH  28  29
ATOM     29  O   UNL A   1      41.104  20.766  26.865  1.00  0.00    -0.374 OA
BRANCH  29  30
ATOM     30  C   UNL A   1      42.293  20.407  26.158  1.00  0.00     0.202 C 
BRANCH  30  31
ATOM     31  C   UNL A   1      43.230  21.552  25.755  1.00  0.00     0.261 C 
BRANCH  31  32
ATOM     32  O   UNL A   1      42.520  22.793  25.579  1.00  0.00    -0.460 OA
BRANCH  32  33
ATOM     33  C   UNL A   1      43.301  23.894  25.441  1.00  0.00     0.338 C 
ATOM     34  O   UNL A   1      43.993  24.199  24.486  1.00  0.00    -0.246 OA
BRANCH  33  35
ATOM     35  C   UNL A   1      43.043  24.814  26.564  1.00  0.00     0.060 A 
ATOM     36  C   UNL A   1      42.057  24.454  27.495  1.00  0.00     0.016 A 
ATOM     37  C   UNL A   1      43.727  26.023  26.684  1.00  0.00     0.016 A 
ATOM     38  C   UNL A   1      41.744  25.314  28.546  1.00  0.00     0.010 A 
ATOM     39  C   UNL A   1      43.397  26.892  27.729  1.00  0.00     0.010 A 
ATOM     40  C   UNL A   1      42.395  26.548  28.654  1.00  0.00    -0.014 A 
BRANCH  40  41
ATOM     41  C   UNL A   1      41.973  27.527  29.682  1.00  0.00     0.031 A 
ATOM     42  C   UNL A   1      42.678  27.553  31.007  1.00  0.00     0.074 A 
ATOM     43  C   UNL A   1      40.957  28.374  29.438  1.00  0.00     0.049 A 
ATOM     44  N   UNL A   1      42.405  28.252  32.078  1.00  0.00    -0.248 NA
ATOM     45  C   UNL A   1      43.849  26.672  31.140  1.00  0.00     0.031 C 
ATOM     46  C   UNL A   1      40.227  28.475  28.176  1.00  0.00     0.029 A 
ATOM     47  N   UNL A   1      40.354  29.299  30.253  1.00  0.00    -0.354 N 
ATOM     48  C   UNL A   1      43.364  27.893  33.016  1.00  0.00     0.074 A 
ATOM     49  C   UNL A   1      44.212  26.896  32.394  1.00  0.00     0.031 C 
ATOM     50  C   UNL A   1      39.258  29.397  28.307  1.00  0.00     0.029 A 
ATOM     51  C   UNL A   1      39.275  29.917  29.673  1.00  0.00     0.049 A 
ATOM     52  H   UNL A   1      40.664  29.498  31.166  1.00  0.00     0.167 HD
ATOM     53  C   UNL A   1      43.524  28.356  34.278  1.00  0.00     0.037 A 
ATOM     54  C   UNL A   1      38.380  30.775  30.197  1.00  0.00     0.037 A 
ATOM     55  C   UNL A   1      42.671  29.339  34.893  1.00  0.00     0.049 A 
ATOM     56  C   UNL A   1      38.509  31.189  31.639  1.00  0.00     0.074 A 
ATOM     57  C   UNL A   1      42.767  29.895  36.156  1.00  0.00     0.029 A 
ATOM     58  N   UNL A   1      41.555  29.900  34.292  1.00  0.00    -0.354 N 
ATOM     59  N   UNL A   1      39.433  30.867  32.511  1.00  0.00    -0.248 NA
ATOM     60  C   UNL A   1      37.463  32.075  32.172  1.00  0.00     0.031 C 
ATOM     61  C   UNL A   1      41.676  30.751  36.340  1.00  0.00     0.029 A 
ATOM     62  C   UNL A   1      40.928  30.766  35.174  1.00  0.00     0.049 A 
ATOM     63  H   UNL A   1      41.251  29.711  33.375  1.00  0.00     0.167 HD
ATOM     64  C   UNL A   1      39.091  31.520  33.689  1.00  0.00     0.074 A 
ATOM     65  C   UNL A   1      37.883  32.271  33.415  1.00  0.00     0.031 C 
ATOM     66  C   UNL A   1      39.721  31.499  34.889  1.00  0.00     0.037 A 
BRANCH  53  67
ATOM     67  C   UNL A   1      44.645  27.776  35.088  1.00  0.00     0.057 A 
ATOM     68  C   UNL A   1      45.919  28.357  35.113  1.00  0.00     0.134 A 
ATOM     69  C   UNL A   1      44.440  26.635  35.875  1.00  0.00     0.134 A 
ATOM     70  F   UNL A   1      46.185  29.444  34.372  1.00  0.00    -0.206 F 
ATOM     71  C   UNL A   1      46.956  27.811  35.872  1.00  0.00     0.040 A 
ATOM     72  C   UNL A   1      45.462  26.094  36.657  1.00  0.00     0.040 A 
ATOM     73  F   UNL A   1      43.242  26.031  35.900  1.00  0.00    -0.206 F 
ATOM     74  C   UNL A   1      46.726  26.679  36.651  1.00  0.00     0.006 A 
ENDBRANCH  53  67
BRANCH  54  75
ATOM     75  C   UNL A   1      37.256  31.275  29.365  1.00  0.00     0.057 A 
ATOM     76  C   UNL A   1      36.128  30.485  29.124  1.00  0.00     0.134 A 
ATOM     77  C   UNL A   1      37.289  32.550  28.785  1.00  0.00     0.134 A 
ATOM     78  F   UNL A   1      36.051  29.246  29.630  1.00  0.00    -0.206 F 
ATOM     79  C   UNL A   1      35.074  30.941  28.330  1.00  0.00     0.040 A 
ATOM     80  C   UNL A   1      36.231  33.027  28.010  1.00  0.00     0.040 A 
ATOM     81  F   UNL A   1      38.345  33.354  28.976  1.00  0.00    -0.206 F 
ATOM     82  C   UNL A   1      35.121  32.218  27.776  1.00  0.00     0.006 A 
ENDBRANCH  54  75
BRANCH  66  83
ATOM     83  C   UNL A   1      39.122  32.316  35.996  1.00  0.00     0.057 A 
ATOM     84  C   UNL A   1      38.225  31.760  36.917  1.00  0.00     0.134 A 
ATOM     85  C   UNL A   1      39.488  33.656  36.178  1.00  0.00     0.134 A 
ATOM     86  F   UNL A   1      37.823  30.486  36.790  1.00  0.00    -0.206 F 
ATOM     87  C   UNL A   1      37.704  32.511  37.973  1.00  0.00     0.040 A 
ATOM     88  C   UNL A   1      38.993  34.409  37.243  1.00  0.00     0.040 A 
ATOM     89  F   UNL A   1      40.349  34.247  35.336  1.00  0.00    -0.206 F 
ATOM     90  C   UNL A   1      38.095  33.838  38.142  1.00  0.00     0.006 A 
ENDBRANCH  66  83
ENDBRANCH  40  41
ENDBRANCH  33  35
ENDBRANCH  32  33
ENDBRANCH  31  32
ENDBRANCH  30  31
ENDBRANCH  29  30
ENDBRANCH  28  29
ENDBRANCH   1  28
TORSDOF 19
ENDMDL
