MODEL 1
REMARK VINA RESULT:     -11.3      0.000      0.000
REMARK SMILES Cc1ccccc1CCNS(=O)(=O)c1ccc(C(=O)OCCOCCOC(=O)c2ccc(-c3c4nc(c(-c5c(F)cccc5F)c5ccc([nH]5)c(-c5c(F)cccc5F)c5nc(c(-c6c(F)cccc6F)c6ccc3[nH]6)C=C5)C=C4)cc2)o1
REMARK SMILES IDX 21 1 20 2 18 3 19 4 17 5 14 6 15 7 83 8 16 9 11 10 12 11
REMARK SMILES IDX 13 12 10 13 9 15 8 16 7 17 1 18 2 19 3 20 4 21 6 22 5 23
REMARK SMILES IDX 22 24 23 25 24 26 25 27 26 28 27 29 28 30 29 31 30 32 82 33
REMARK SMILES IDX 31 34 81 35 32 36 33 37 34 38 75 39 35 40 80 41 74 42 76 43
REMARK SMILES IDX 36 44 79 45 73 46 72 47 37 49 63 50 46 51 62 52 47 53 50 54
REMARK SMILES IDX 61 55 77 56 48 57 49 58 60 60 78 61 51 62 38 63 39 64 44 65
REMARK SMILES IDX 40 66 41 67 43 68 45 69 42 70 64 71 65 72 70 73 66 74 67 75
REMARK SMILES IDX 69 76 71 77 68 78 52 79 53 80 58 81 54 82 55 83 57 84 59 85
REMARK SMILES IDX 56 86
REMARK H PARENT 10 14 76 48 50 59
REMARK Flexibility Score: inf
ROOT
ATOM      1  C   UNL A   1      40.930  20.185  26.132  1.00  0.00     0.261 C 
ENDROOT
BRANCH   1   2
ATOM      2  O   UNL A   1      40.410  20.833  27.302  1.00  0.00    -0.457 OA
BRANCH   2   3
ATOM      3  C   UNL A   1      40.402  22.204  27.312  1.00  0.00     0.374 C 
ATOM      4  O   UNL A   1      41.278  22.914  27.760  1.00  0.00    -0.242 OA
BRANCH   3   5
ATOM      5  C   UNL A   1      39.220  22.638  26.610  1.00  0.00     0.213 A 
ATOM      6  C   UNL A   1      37.263  22.270  25.632  1.00  0.00     0.234 A 
ATOM      7  C   UNL A   1      37.372  23.637  25.847  1.00  0.00     0.065 A 
ATOM      8  O   UNL A   1      38.432  21.680  26.053  1.00  0.00    -0.436 OA
ATOM      9  C   UNL A   1      38.625  23.872  26.454  1.00  0.00     0.060 A 
BRANCH   6  10
ATOM     10  S   UNL A   1      35.913  21.267  25.046  1.00  0.00     0.273 S 
ATOM     11  O   UNL A   1      36.405  19.912  24.976  1.00  0.00    -0.204 OA
ATOM     12  O   UNL A   1      35.394  21.960  23.886  1.00  0.00    -0.204 OA
BRANCH  10  13
ATOM     13  N   UNL A   1      34.698  21.325  26.219  1.00  0.00    -0.208 NA
ATOM     14  H   UNL A   1      34.441  20.361  26.438  1.00  0.00     0.141 HD
BRANCH  13  15
ATOM     15  C   UNL A   1      33.444  22.054  25.889  1.00  0.00     0.104 C 
BRANCH  15  16
ATOM     16  C   UNL A   1      32.266  21.062  25.756  1.00  0.00     0.052 C 
BRANCH  16  17
ATOM     17  C   UNL A   1      32.559  19.951  24.764  1.00  0.00    -0.044 A 
ATOM     18  C   UNL A   1      32.158  21.371  22.649  1.00  0.00     0.044 C 
ATOM     19  C   UNL A   1      32.389  20.071  23.371  1.00  0.00    -0.048 A 
ATOM     20  C   UNL A   1      32.480  18.912  22.576  1.00  0.00     0.004 A 
ATOM     21  C   UNL A   1      32.744  17.663  23.138  1.00  0.00     0.000 A 
ATOM     22  C   UNL A   1      32.920  18.695  25.298  1.00  0.00     0.004 A 
ATOM     23  C   UNL A   1      32.984  17.557  24.499  1.00  0.00     0.000 A 
ENDBRANCH  16  17
ENDBRANCH  15  16
ENDBRANCH  13  15
ENDBRANCH  10  13
ENDBRANCH   6  10
ENDBRANCH   3   5
ENDBRANCH   2   3
ENDBRANCH   1   2
BRANCH   1  24
ATOM     24  C   UNL A   1      42.363  19.747  26.330  1.00  0.00     0.202 C 
BRANCH  24  25
ATOM     25  O   UNL A   1      42.789  19.181  25.097  1.00  0.00    -0.374 OA
BRANCH  25  26
ATOM     26  C   UNL A   1      44.127  18.708  25.064  1.00  0.00     0.202 C 
BRANCH  26  27
ATOM     27  C   UNL A   1      44.948  19.236  23.877  1.00  0.00     0.261 C 
BRANCH  27  28
ATOM     28  O   UNL A   1      44.752  20.657  23.743  1.00  0.00    -0.460 OA
BRANCH  28  29
ATOM     29  C   UNL A   1      45.526  21.442  24.541  1.00  0.00     0.338 C 
ATOM     30  O   UNL A   1      46.673  21.200  24.881  1.00  0.00    -0.246 OA
BRANCH  29  31
ATOM     31  C   UNL A   1      44.674  22.485  25.181  1.00  0.00     0.060 A 
ATOM     32  C   UNL A   1      44.146  23.534  24.404  1.00  0.00     0.016 A 
ATOM     33  C   UNL A   1      44.678  22.585  26.570  1.00  0.00     0.016 A 
ATOM     34  C   UNL A   1      43.747  24.734  25.015  1.00  0.00     0.010 A 
ATOM     35  C   UNL A   1      44.375  23.797  27.153  1.00  0.00     0.010 A 
ATOM     36  C   UNL A   1      43.924  24.886  26.392  1.00  0.00    -0.014 A 
BRANCH  36  37
ATOM     37  C   UNL A   1      43.821  26.141  27.144  1.00  0.00     0.031 A 
ATOM     38  C   UNL A   1      42.502  26.787  27.348  1.00  0.00     0.074 A 
ATOM     39  C   UNL A   1      44.850  26.557  27.921  1.00  0.00     0.049 A 
ATOM     40  N   UNL A   1      42.359  27.977  27.826  1.00  0.00    -0.248 NA
ATOM     41  C   UNL A   1      41.227  26.149  27.034  1.00  0.00     0.031 C 
ATOM     42  C   UNL A   1      44.770  27.370  29.135  1.00  0.00     0.029 A 
ATOM     43  N   UNL A   1      46.220  26.345  27.762  1.00  0.00    -0.354 N 
ATOM     44  C   UNL A   1      41.041  28.132  28.181  1.00  0.00     0.074 A 
ATOM     45  C   UNL A   1      40.366  26.988  27.617  1.00  0.00     0.031 C 
ATOM     46  C   UNL A   1      45.999  27.780  29.476  1.00  0.00     0.029 A 
ATOM     47  C   UNL A   1      46.908  27.378  28.424  1.00  0.00     0.049 A 
ATOM     48  H   UNL A   1      46.634  25.599  27.270  1.00  0.00     0.167 HD
ATOM     49  C   UNL A   1      40.688  29.153  29.014  1.00  0.00     0.037 A 
ATOM     50  C   UNL A   1      47.784  28.160  27.739  1.00  0.00     0.037 A 
ATOM     51  C   UNL A   1      41.856  29.933  29.445  1.00  0.00     0.049 A 
ATOM     52  C   UNL A   1      47.259  29.565  27.596  1.00  0.00     0.074 A 
ATOM     53  C   UNL A   1      42.606  30.007  30.608  1.00  0.00     0.029 A 
ATOM     54  N   UNL A   1      42.602  30.595  28.487  1.00  0.00    -0.354 N 
ATOM     55  N   UNL A   1      46.235  30.021  28.264  1.00  0.00    -0.248 NA
ATOM     56  C   UNL A   1      47.767  30.539  26.632  1.00  0.00     0.031 C 
ATOM     57  C   UNL A   1      43.804  30.732  30.325  1.00  0.00     0.029 A 
ATOM     58  C   UNL A   1      43.778  31.112  28.995  1.00  0.00     0.049 A 
ATOM     59  H   UNL A   1      42.327  30.686  27.546  1.00  0.00     0.167 HD
ATOM     60  C   UNL A   1      45.842  31.214  27.738  1.00  0.00     0.074 A 
ATOM     61  C   UNL A   1      46.865  31.528  26.754  1.00  0.00     0.031 C 
ATOM     62  C   UNL A   1      44.673  31.823  28.090  1.00  0.00     0.037 A 
BRANCH  49  63
ATOM     63  C   UNL A   1      39.300  29.321  29.590  1.00  0.00     0.057 A 
ATOM     64  C   UNL A   1      39.020  28.991  30.929  1.00  0.00     0.134 A 
ATOM     65  C   UNL A   1      38.194  29.818  28.875  1.00  0.00     0.134 A 
ATOM     66  F   UNL A   1      39.983  28.607  31.776  1.00  0.00    -0.206 F 
ATOM     67  C   UNL A   1      37.731  29.050  31.476  1.00  0.00     0.040 A 
ATOM     68  C   UNL A   1      36.888  29.823  29.388  1.00  0.00     0.040 A 
ATOM     69  F   UNL A   1      38.333  30.386  27.670  1.00  0.00    -0.206 F 
ATOM     70  C   UNL A   1      36.650  29.429  30.695  1.00  0.00     0.006 A 
ENDBRANCH  49  63
BRANCH  50  71
ATOM     71  C   UNL A   1      48.565  27.359  26.753  1.00  0.00     0.057 A 
ATOM     72  C   UNL A   1      48.118  27.368  25.416  1.00  0.00     0.134 A 
ATOM     73  C   UNL A   1      49.905  27.016  26.969  1.00  0.00     0.134 A 
ATOM     74  F   UNL A   1      46.856  27.724  25.129  1.00  0.00    -0.206 F 
ATOM     75  C   UNL A   1      48.986  27.151  24.340  1.00  0.00     0.040 A 
ATOM     76  C   UNL A   1      50.785  26.810  25.897  1.00  0.00     0.040 A 
ATOM     77  F   UNL A   1      50.415  27.017  28.208  1.00  0.00    -0.206 F 
ATOM     78  C   UNL A   1      50.335  26.908  24.580  1.00  0.00     0.006 A 
ENDBRANCH  50  71
BRANCH  62  79
ATOM     79  C   UNL A   1      44.284  33.159  27.537  1.00  0.00     0.057 A 
ATOM     80  C   UNL A   1      44.236  34.301  28.348  1.00  0.00     0.134 A 
ATOM     81  C   UNL A   1      43.847  33.329  26.210  1.00  0.00     0.134 A 
ATOM     82  F   UNL A   1      44.554  34.235  29.650  1.00  0.00    -0.206 F 
ATOM     83  C   UNL A   1      43.850  35.548  27.853  1.00  0.00     0.040 A 
ATOM     84  C   UNL A   1      43.404  34.557  25.719  1.00  0.00     0.040 A 
ATOM     85  F   UNL A   1      43.856  32.323  25.325  1.00  0.00    -0.206 F 
ATOM     86  C   UNL A   1      43.425  35.678  26.536  1.00  0.00     0.006 A 
ENDBRANCH  62  79
ENDBRANCH  36  37
ENDBRANCH  29  31
ENDBRANCH  28  29
ENDBRANCH  27  28
ENDBRANCH  26  27
ENDBRANCH  25  26
ENDBRANCH  24  25
ENDBRANCH   1  24
TORSDOF 19
ENDMDL
MODEL 2
REMARK VINA RESULT:     -11.3      4.079      9.207
REMARK SMILES Cc1ccccc1CCNS(=O)(=O)c1ccc(C(=O)OCCOCCOC(=O)c2ccc(-c3c4nc(c(-c5c(F)cccc5F)c5ccc([nH]5)c(-c5c(F)cccc5F)c5nc(c(-c6c(F)cccc6F)c6ccc3[nH]6)C=C5)C=C4)cc2)o1
REMARK SMILES IDX 21 1 20 2 18 3 19 4 17 5 14 6 15 7 83 8 16 9 11 10 12 11
REMARK SMILES IDX 13 12 10 13 9 15 8 16 7 17 1 18 2 19 3 20 4 21 6 22 5 23
REMARK SMILES IDX 22 24 23 25 24 26 25 27 26 28 27 29 28 30 29 31 30 32 82 33
REMARK SMILES IDX 31 34 81 35 32 36 33 37 34 38 75 39 35 40 80 41 74 42 76 43
REMARK SMILES IDX 36 44 79 45 73 46 72 47 37 49 63 50 46 51 62 52 47 53 50 54
REMARK SMILES IDX 61 55 77 56 48 57 49 58 60 60 78 61 51 62 38 63 39 64 44 65
REMARK SMILES IDX 40 66 41 67 43 68 45 69 42 70 64 71 65 72 70 73 66 74 67 75
REMARK SMILES IDX 69 76 71 77 68 78 52 79 53 80 58 81 54 82 55 83 57 84 59 85
REMARK SMILES IDX 56 86
REMARK H PARENT 10 14 76 48 50 59
REMARK Flexibility Score: inf
ROOT
ATOM      1  C   UNL A   1      31.482  28.016  27.362  1.00  0.00     0.261 C 
ENDROOT
BRANCH   1   2
ATOM      2  O   UNL A   1      31.014  26.681  27.120  1.00  0.00    -0.457 OA
BRANCH   2   3
ATOM      3  C   UNL A   1      30.760  26.328  25.821  1.00  0.00     0.374 C 
ATOM      4  O   UNL A   1      30.343  27.068  24.954  1.00  0.00    -0.242 OA
BRANCH   3   5
ATOM      5  C   UNL A   1      31.169  24.956  25.653  1.00  0.00     0.213 A 
ATOM      6  C   UNL A   1      32.291  23.145  26.273  1.00  0.00     0.234 A 
ATOM      7  C   UNL A   1      31.354  22.753  25.326  1.00  0.00     0.065 A 
ATOM      8  O   UNL A   1      32.202  24.510  26.417  1.00  0.00    -0.436 OA
ATOM      9  C   UNL A   1      30.652  23.908  24.920  1.00  0.00     0.060 A 
BRANCH   6  10
ATOM     10  S   UNL A   1      33.403  22.206  27.298  1.00  0.00     0.273 S 
ATOM     11  O   UNL A   1      33.545  20.911  26.677  1.00  0.00    -0.204 OA
ATOM     12  O   UNL A   1      32.906  22.362  28.649  1.00  0.00    -0.204 OA
BRANCH  10  13
ATOM     13  N   UNL A   1      34.905  22.979  27.250  1.00  0.00    -0.208 NA
ATOM     14  H   UNL A   1      34.762  23.940  27.562  1.00  0.00     0.141 HD
BRANCH  13  15
ATOM     15  C   UNL A   1      35.616  23.038  25.944  1.00  0.00     0.104 C 
BRANCH  15  16
ATOM     16  C   UNL A   1      35.457  24.439  25.310  1.00  0.00     0.052 C 
BRANCH  16  17
ATOM     17  C   UNL A   1      34.654  24.400  24.023  1.00  0.00    -0.044 A 
ATOM     18  C   UNL A   1      34.029  26.901  24.024  1.00  0.00     0.044 C 
ATOM     19  C   UNL A   1      33.916  25.488  23.520  1.00  0.00    -0.048 A 
ATOM     20  C   UNL A   1      33.037  25.269  22.441  1.00  0.00     0.004 A 
ATOM     21  C   UNL A   1      32.896  24.007  21.862  1.00  0.00     0.000 A 
ATOM     22  C   UNL A   1      34.566  23.156  23.361  1.00  0.00     0.004 A 
ATOM     23  C   UNL A   1      33.677  22.953  22.310  1.00  0.00     0.000 A 
ENDBRANCH  16  17
ENDBRANCH  15  16
ENDBRANCH  13  15
ENDBRANCH  10  13
ENDBRANCH   6  10
ENDBRANCH   3   5
ENDBRANCH   2   3
ENDBRANCH   1   2
BRANCH   1  24
ATOM     24  C   UNL A   1      32.977  28.123  27.170  1.00  0.00     0.202 C 
BRANCH  24  25
ATOM     25  O   UNL A   1      33.211  29.335  26.465  1.00  0.00    -0.374 OA
BRANCH  25  26
ATOM     26  C   UNL A   1      32.307  30.395  26.740  1.00  0.00     0.202 C 
BRANCH  26  27
ATOM     27  C   UNL A   1      32.973  31.646  27.336  1.00  0.00     0.261 C 
BRANCH  27  28
ATOM     28  O   UNL A   1      34.397  31.447  27.419  1.00  0.00    -0.460 OA
BRANCH  28  29
ATOM     29  C   UNL A   1      34.917  31.382  28.674  1.00  0.00     0.338 C 
ATOM     30  O   UNL A   1      34.776  32.224  29.547  1.00  0.00    -0.246 OA
BRANCH  29  31
ATOM     31  C   UNL A   1      35.928  30.289  28.733  1.00  0.00     0.060 A 
ATOM     32  C   UNL A   1      36.262  29.706  29.971  1.00  0.00     0.016 A 
ATOM     33  C   UNL A   1      36.750  30.083  27.628  1.00  0.00     0.016 A 
ATOM     34  C   UNL A   1      37.484  29.032  30.130  1.00  0.00     0.010 A 
ATOM     35  C   UNL A   1      37.988  29.506  27.813  1.00  0.00     0.010 A 
ATOM     36  C   UNL A   1      38.378  28.990  29.058  1.00  0.00    -0.014 A 
BRANCH  36  37
ATOM     37  C   UNL A   1      39.784  28.577  29.121  1.00  0.00     0.031 A 
ATOM     38  C   UNL A   1      40.184  27.210  28.706  1.00  0.00     0.074 A 
ATOM     39  C   UNL A   1      40.763  29.505  29.247  1.00  0.00     0.049 A 
ATOM     40  N   UNL A   1      41.358  26.718  28.914  1.00  0.00    -0.248 NA
ATOM     41  C   UNL A   1      39.296  26.277  28.018  1.00  0.00     0.031 C 
ATOM     42  C   UNL A   1      42.138  29.413  28.758  1.00  0.00     0.029 A 
ATOM     43  N   UNL A   1      40.726  30.749  29.878  1.00  0.00    -0.354 N 
ATOM     44  C   UNL A   1      41.488  25.594  28.136  1.00  0.00     0.074 A 
ATOM     45  C   UNL A   1      40.158  25.329  27.640  1.00  0.00     0.031 C 
ATOM     46  C   UNL A   1      42.866  30.406  29.287  1.00  0.00     0.029 A 
ATOM     47  C   UNL A   1      42.037  31.096  30.252  1.00  0.00     0.049 A 
ATOM     48  H   UNL A   1      39.919  31.292  30.035  1.00  0.00     0.167 HD
ATOM     49  C   UNL A   1      42.730  25.079  27.906  1.00  0.00     0.037 A 
ATOM     50  C   UNL A   1      42.324  31.363  31.554  1.00  0.00     0.037 A 
ATOM     51  C   UNL A   1      43.781  25.889  28.534  1.00  0.00     0.049 A 
ATOM     52  C   UNL A   1      43.199  30.289  32.148  1.00  0.00     0.074 A 
ATOM     53  C   UNL A   1      44.706  26.815  28.076  1.00  0.00     0.029 A 
ATOM     54  N   UNL A   1      43.783  26.023  29.910  1.00  0.00    -0.354 N 
ATOM     55  N   UNL A   1      43.802  29.378  31.435  1.00  0.00    -0.248 NA
ATOM     56  C   UNL A   1      43.390  30.083  33.582  1.00  0.00     0.031 C 
ATOM     57  C   UNL A   1      45.263  27.491  29.205  1.00  0.00     0.029 A 
ATOM     58  C   UNL A   1      44.688  26.969  30.350  1.00  0.00     0.049 A 
ATOM     59  H   UNL A   1      43.201  25.502  30.511  1.00  0.00     0.167 HD
ATOM     60  C   UNL A   1      44.293  28.407  32.254  1.00  0.00     0.074 A 
ATOM     61  C   UNL A   1      44.062  28.919  33.596  1.00  0.00     0.031 C 
ATOM     62  C   UNL A   1      44.784  27.225  31.782  1.00  0.00     0.037 A 
BRANCH  49  63
ATOM     63  C   UNL A   1      42.998  23.945  26.942  1.00  0.00     0.057 A 
ATOM     64  C   UNL A   1      43.378  24.192  25.610  1.00  0.00     0.134 A 
ATOM     65  C   UNL A   1      42.914  22.579  27.273  1.00  0.00     0.134 A 
ATOM     66  F   UNL A   1      43.609  25.432  25.161  1.00  0.00    -0.206 F 
ATOM     67  C   UNL A   1      43.552  23.173  24.663  1.00  0.00     0.040 A 
ATOM     68  C   UNL A   1      43.022  21.551  26.324  1.00  0.00     0.040 A 
ATOM     69  F   UNL A   1      42.789  22.170  28.542  1.00  0.00    -0.206 F 
ATOM     70  C   UNL A   1      43.336  21.847  25.008  1.00  0.00     0.006 A 
ENDBRANCH  49  63
BRANCH  50  71
ATOM     71  C   UNL A   1      41.219  32.121  32.206  1.00  0.00     0.057 A 
ATOM     72  C   UNL A   1      41.135  33.502  31.934  1.00  0.00     0.134 A 
ATOM     73  C   UNL A   1      40.050  31.494  32.652  1.00  0.00     0.134 A 
ATOM     74  F   UNL A   1      42.207  34.163  31.466  1.00  0.00    -0.206 F 
ATOM     75  C   UNL A   1      39.926  34.202  32.001  1.00  0.00     0.040 A 
ATOM     76  C   UNL A   1      38.830  32.184  32.710  1.00  0.00     0.040 A 
ATOM     77  F   UNL A   1      40.037  30.177  32.901  1.00  0.00    -0.206 F 
ATOM     78  C   UNL A   1      38.760  33.531  32.355  1.00  0.00     0.006 A 
ENDBRANCH  50  71
BRANCH  62  79
ATOM     79  C   UNL A   1      45.365  26.193  32.698  1.00  0.00     0.057 A 
ATOM     80  C   UNL A   1      44.557  25.460  33.579  1.00  0.00     0.134 A 
ATOM     81  C   UNL A   1      46.750  25.971  32.806  1.00  0.00     0.134 A 
ATOM     82  F   UNL A   1      43.230  25.650  33.617  1.00  0.00    -0.206 F 
ATOM     83  C   UNL A   1      45.086  24.513  34.458  1.00  0.00     0.040 A 
ATOM     84  C   UNL A   1      47.295  25.070  33.721  1.00  0.00     0.040 A 
ATOM     85  F   UNL A   1      47.632  26.595  32.014  1.00  0.00    -0.206 F 
ATOM     86  C   UNL A   1      46.461  24.321  34.536  1.00  0.00     0.006 A 
ENDBRANCH  62  79
ENDBRANCH  36  37
ENDBRANCH  29  31
ENDBRANCH  28  29
ENDBRANCH  27  28
ENDBRANCH  26  27
ENDBRANCH  25  26
ENDBRANCH  24  25
ENDBRANCH   1  24
TORSDOF 19
ENDMDL
MODEL 3
REMARK VINA RESULT:     -11.1      1.524      2.568
REMARK SMILES Cc1ccccc1CCNS(=O)(=O)c1ccc(C(=O)OCCOCCOC(=O)c2ccc(-c3c4nc(c(-c5c(F)cccc5F)c5ccc([nH]5)c(-c5c(F)cccc5F)c5nc(c(-c6c(F)cccc6F)c6ccc3[nH]6)C=C5)C=C4)cc2)o1
REMARK SMILES IDX 21 1 20 2 18 3 19 4 17 5 14 6 15 7 83 8 16 9 11 10 12 11
REMARK SMILES IDX 13 12 10 13 9 15 8 16 7 17 1 18 2 19 3 20 4 21 6 22 5 23
REMARK SMILES IDX 22 24 23 25 24 26 25 27 26 28 27 29 28 30 29 31 30 32 82 33
REMARK SMILES IDX 31 34 81 35 32 36 33 37 34 38 75 39 35 40 80 41 74 42 76 43
REMARK SMILES IDX 36 44 79 45 73 46 72 47 37 49 63 50 46 51 62 52 47 53 50 54
REMARK SMILES IDX 61 55 77 56 48 57 49 58 60 60 78 61 51 62 38 63 39 64 44 65
REMARK SMILES IDX 40 66 41 67 43 68 45 69 42 70 64 71 65 72 70 73 66 74 67 75
REMARK SMILES IDX 69 76 71 77 68 78 52 79 53 80 58 81 54 82 55 83 57 84 59 85
REMARK SMILES IDX 56 86
REMARK H PARENT 10 14 76 48 50 59
REMARK Flexibility Score: inf
ROOT
ATOM      1  C   UNL A   1      40.357  19.723  26.138  1.00  0.00     0.261 C 
ENDROOT
BRANCH   1   2
ATOM      2  O   UNL A   1      39.781  20.837  26.837  1.00  0.00    -0.457 OA
BRANCH   2   3
ATOM      3  C   UNL A   1      39.929  22.078  26.275  1.00  0.00     0.374 C 
ATOM      4  O   UNL A   1      40.980  22.581  25.934  1.00  0.00    -0.242 OA
BRANCH   3   5
ATOM      5  C   UNL A   1      38.611  22.626  26.074  1.00  0.00     0.213 A 
ATOM      6  C   UNL A   1      36.410  22.439  25.864  1.00  0.00     0.234 A 
ATOM      7  C   UNL A   1      36.697  23.779  26.086  1.00  0.00     0.065 A 
ATOM      8  O   UNL A   1      37.603  21.756  25.801  1.00  0.00    -0.436 OA
ATOM      9  C   UNL A   1      38.099  23.900  26.202  1.00  0.00     0.060 A 
BRANCH   6  10
ATOM     10  S   UNL A   1      34.867  21.558  25.767  1.00  0.00     0.273 S 
ATOM     11  O   UNL A   1      34.424  21.349  27.125  1.00  0.00    -0.204 OA
ATOM     12  O   UNL A   1      35.106  20.459  24.856  1.00  0.00    -0.204 OA
BRANCH  10  13
ATOM     13  N   UNL A   1      33.754  22.576  25.003  1.00  0.00    -0.208 NA
ATOM     14  H   UNL A   1      32.996  22.748  25.665  1.00  0.00     0.141 HD
BRANCH  13  15
ATOM     15  C   UNL A   1      33.136  22.105  23.733  1.00  0.00     0.104 C 
BRANCH  15  16
ATOM     16  C   UNL A   1      33.491  23.067  22.577  1.00  0.00     0.052 C 
BRANCH  16  17
ATOM     17  C   UNL A   1      32.971  24.473  22.817  1.00  0.00    -0.044 A 
ATOM     18  C   UNL A   1      30.530  23.779  23.269  1.00  0.00     0.044 C 
ATOM     19  C   UNL A   1      31.613  24.790  23.008  1.00  0.00    -0.048 A 
ATOM     20  C   UNL A   1      31.228  26.145  23.001  1.00  0.00     0.004 A 
ATOM     21  C   UNL A   1      32.160  27.166  22.821  1.00  0.00     0.000 A 
ATOM     22  C   UNL A   1      33.909  25.525  22.732  1.00  0.00     0.004 A 
ATOM     23  C   UNL A   1      33.507  26.856  22.706  1.00  0.00     0.000 A 
ENDBRANCH  16  17
ENDBRANCH  15  16
ENDBRANCH  13  15
ENDBRANCH  10  13
ENDBRANCH   6  10
ENDBRANCH   3   5
ENDBRANCH   2   3
ENDBRANCH   1   2
BRANCH   1  24
ATOM     24  C   UNL A   1      41.803  19.514  26.524  1.00  0.00     0.202 C 
BRANCH  24  25
ATOM     25  O   UNL A   1      42.437  18.901  25.408  1.00  0.00    -0.374 OA
BRANCH  25  26
ATOM     26  C   UNL A   1      43.825  18.643  25.550  1.00  0.00     0.202 C 
BRANCH  26  27
ATOM     27  C   UNL A   1      44.636  18.852  24.262  1.00  0.00     0.261 C 
BRANCH  27  28
ATOM     28  O   UNL A   1      44.625  20.247  23.901  1.00  0.00    -0.460 OA
BRANCH  28  29
ATOM     29  C   UNL A   1      45.387  21.068  24.674  1.00  0.00     0.338 C 
ATOM     30  O   UNL A   1      46.507  20.818  25.089  1.00  0.00    -0.246 OA
BRANCH  29  31
ATOM     31  C   UNL A   1      44.542  22.183  25.189  1.00  0.00     0.060 A 
ATOM     32  C   UNL A   1      44.312  23.318  24.388  1.00  0.00     0.016 A 
ATOM     33  C   UNL A   1      44.262  22.230  26.553  1.00  0.00     0.016 A 
ATOM     34  C   UNL A   1      43.930  24.534  24.977  1.00  0.00     0.010 A 
ATOM     35  C   UNL A   1      43.982  23.446  27.136  1.00  0.00     0.010 A 
ATOM     36  C   UNL A   1      43.828  24.611  26.368  1.00  0.00    -0.014 A 
BRANCH  36  37
ATOM     37  C   UNL A   1      43.711  25.840  27.160  1.00  0.00     0.031 A 
ATOM     38  C   UNL A   1      42.403  26.529  27.285  1.00  0.00     0.074 A 
ATOM     39  C   UNL A   1      44.687  26.184  28.033  1.00  0.00     0.049 A 
ATOM     40  N   UNL A   1      42.265  27.705  27.799  1.00  0.00    -0.248 NA
ATOM     41  C   UNL A   1      41.136  25.955  26.845  1.00  0.00     0.031 C 
ATOM     42  C   UNL A   1      44.539  26.953  29.269  1.00  0.00     0.029 A 
ATOM     43  N   UNL A   1      46.057  25.924  27.976  1.00  0.00    -0.354 N 
ATOM     44  C   UNL A   1      40.930  27.899  28.054  1.00  0.00     0.074 A 
ATOM     45  C   UNL A   1      40.261  26.804  27.391  1.00  0.00     0.031 C 
ATOM     46  C   UNL A   1      45.751  27.302  29.724  1.00  0.00     0.029 A 
ATOM     47  C   UNL A   1      46.726  26.903  28.732  1.00  0.00     0.049 A 
ATOM     48  H   UNL A   1      46.482  25.182  27.488  1.00  0.00     0.167 HD
ATOM     49  C   UNL A   1      40.548  28.901  28.896  1.00  0.00     0.037 A 
ATOM     50  C   UNL A   1      47.683  27.676  28.151  1.00  0.00     0.037 A 
ATOM     51  C   UNL A   1      41.704  29.617  29.451  1.00  0.00     0.049 A 
ATOM     52  C   UNL A   1      47.223  29.105  28.024  1.00  0.00     0.074 A 
ATOM     53  C   UNL A   1      42.361  29.617  30.672  1.00  0.00     0.029 A 
ATOM     54  N   UNL A   1      42.550  30.285  28.583  1.00  0.00    -0.354 N 
ATOM     55  N   UNL A   1      46.166  29.576  28.627  1.00  0.00    -0.248 NA
ATOM     56  C   UNL A   1      47.842  30.094  27.144  1.00  0.00     0.031 C 
ATOM     57  C   UNL A   1      43.603  30.304  30.515  1.00  0.00     0.029 A 
ATOM     58  C   UNL A   1      43.699  30.735  29.204  1.00  0.00     0.049 A 
ATOM     59  H   UNL A   1      42.355  30.422  27.628  1.00  0.00     0.167 HD
ATOM     60  C   UNL A   1      45.860  30.802  28.120  1.00  0.00     0.074 A 
ATOM     61  C   UNL A   1      46.970  31.112  27.234  1.00  0.00     0.031 C 
ATOM     62  C   UNL A   1      44.689  31.443  28.403  1.00  0.00     0.037 A 
BRANCH  49  63
ATOM     63  C   UNL A   1      39.125  29.102  29.366  1.00  0.00     0.057 A 
ATOM     64  C   UNL A   1      38.132  29.594  28.499  1.00  0.00     0.134 A 
ATOM     65  C   UNL A   1      38.664  28.813  30.665  1.00  0.00     0.134 A 
ATOM     66  F   UNL A   1      38.376  29.816  27.201  1.00  0.00    -0.206 F 
ATOM     67  C   UNL A   1      36.823  29.875  28.917  1.00  0.00     0.040 A 
ATOM     68  C   UNL A   1      37.379  29.147  31.115  1.00  0.00     0.040 A 
ATOM     69  F   UNL A   1      39.415  28.132  31.542  1.00  0.00    -0.206 F 
ATOM     70  C   UNL A   1      36.451  29.689  30.240  1.00  0.00     0.006 A 
ENDBRANCH  49  63
BRANCH  50  71
ATOM     71  C   UNL A   1      48.511  26.882  27.198  1.00  0.00     0.057 A 
ATOM     72  C   UNL A   1      48.185  26.972  25.830  1.00  0.00     0.134 A 
ATOM     73  C   UNL A   1      49.811  26.466  27.512  1.00  0.00     0.134 A 
ATOM     74  F   UNL A   1      46.970  27.402  25.453  1.00  0.00    -0.206 F 
ATOM     75  C   UNL A   1      49.134  26.761  24.823  1.00  0.00     0.040 A 
ATOM     76  C   UNL A   1      50.772  26.265  26.511  1.00  0.00     0.040 A 
ATOM     77  F   UNL A   1      50.209  26.387  28.789  1.00  0.00    -0.206 F 
ATOM     78  C   UNL A   1      50.444  26.442  25.167  1.00  0.00     0.006 A 
ENDBRANCH  50  71
BRANCH  62  79
ATOM     79  C   UNL A   1      44.396  32.814  27.875  1.00  0.00     0.057 A 
ATOM     80  C   UNL A   1      44.025  33.019  26.539  1.00  0.00     0.134 A 
ATOM     81  C   UNL A   1      44.574  33.976  28.649  1.00  0.00     0.134 A 
ATOM     82  F   UNL A   1      43.904  31.986  25.691  1.00  0.00    -0.206 F 
ATOM     83  C   UNL A   1      43.774  34.292  26.025  1.00  0.00     0.040 A 
ATOM     84  C   UNL A   1      44.382  35.257  28.131  1.00  0.00     0.040 A 
ATOM     85  F   UNL A   1      44.912  33.921  29.944  1.00  0.00    -0.206 F 
ATOM     86  C   UNL A   1      43.959  35.418  26.820  1.00  0.00     0.006 A 
ENDBRANCH  62  79
ENDBRANCH  36  37
ENDBRANCH  29  31
ENDBRANCH  28  29
ENDBRANCH  27  28
ENDBRANCH  26  27
ENDBRANCH  25  26
ENDBRANCH  24  25
ENDBRANCH   1  24
TORSDOF 19
ENDMDL
