MODEL 1
REMARK VINA RESULT:     -11.0      0.000      0.000
REMARK SMILES Cn1nc(N2CCC(CC(=O)OCCOCCOC(=O)c3ccc(-c4c5nc(c(-c6c(F)cccc6F)c6ccc([nH]6)c(-c6c(F)cccc6F)c6nc(c(-c7c(F)cccc7F)c7ccc4[nH]7)C=C6)C=C5)cc3)CC2)c(=O)n(C)c1=O
REMARK SMILES IDX 15 1 14 2 13 3 12 4 10 5 11 6 9 7 8 8 5 9 6 10 76 11 7 12
REMARK SMILES IDX 75 13 4 14 1 15 2 16 3 17 81 18 79 19 82 20 77 21 80 22
REMARK SMILES IDX 78 23 16 24 17 25 18 26 19 27 20 28 21 29 22 30 74 31 23 32
REMARK SMILES IDX 73 33 24 34 25 35 26 36 67 37 27 38 72 39 66 40 68 41 28 42
REMARK SMILES IDX 71 43 65 44 64 45 29 47 55 48 38 49 54 50 39 51 42 52 53 53
REMARK SMILES IDX 69 54 40 55 41 56 52 58 70 59 43 60 30 61 31 62 36 63 32 64
REMARK SMILES IDX 33 65 35 66 37 67 34 68 56 69 57 70 62 71 58 72 59 73 61 74
REMARK SMILES IDX 63 75 60 76 44 77 45 78 50 79 46 80 47 81 49 82 51 83 48 84
REMARK H PARENT 68 46 42 57
REMARK Flexibility Score: inf
ROOT
ATOM      1  O   UNL A   1      42.063  21.542  27.296  1.00  0.00    -0.374 OA
ENDROOT
BRANCH   1   2
ATOM      2  C   UNL A   1      40.642  21.485  27.424  1.00  0.00     0.202 C 
BRANCH   2   3
ATOM      3  C   UNL A   1      39.850  21.679  26.129  1.00  0.00     0.261 C 
BRANCH   3   4
ATOM      4  O   UNL A   1      38.851  22.704  26.288  1.00  0.00    -0.463 OA
BRANCH   4   5
ATOM      5  C   UNL A   1      37.696  22.540  25.598  1.00  0.00     0.306 C 
ATOM      6  O   UNL A   1      37.563  21.817  24.618  1.00  0.00    -0.252 OA
BRANCH   5   7
ATOM      7  C   UNL A   1      36.566  23.401  26.126  1.00  0.00     0.126 C 
BRANCH   7   8
ATOM      8  C   UNL A   1      35.181  23.295  25.454  1.00  0.00     0.003 C 
ATOM      9  N   UNL A   1      32.838  24.698  24.484  1.00  0.00    -0.351 N 
ATOM     10  C   UNL A   1      32.706  23.842  25.653  1.00  0.00     0.118 C 
ATOM     11  C   UNL A   1      33.809  24.244  23.498  1.00  0.00     0.118 C 
ATOM     12  C   UNL A   1      34.039  23.745  26.386  1.00  0.00     0.026 C 
ATOM     13  C   UNL A   1      35.186  24.150  24.163  1.00  0.00     0.026 C 
BRANCH   9  14
ATOM     14  C   UNL A   1      32.351  26.001  24.485  1.00  0.00     0.215 A 
ATOM     15  C   UNL A   1      32.943  29.100  26.207  1.00  0.00     0.180 C 
ATOM     16  N   UNL A   1      32.317  28.154  25.301  1.00  0.00    -0.216 N 
ATOM     17  N   UNL A   1      32.813  26.881  25.327  1.00  0.00    -0.145 NA
ATOM     18  C   UNL A   1      31.261  28.590  24.508  1.00  0.00     0.346 A 
ATOM     19  N   UNL A   1      30.721  27.659  23.645  1.00  0.00    -0.259 N 
ATOM     20  O   UNL A   1      30.841  29.748  24.572  1.00  0.00    -0.246 OA
ATOM     21  C   UNL A   1      31.229  26.385  23.506  1.00  0.00     0.299 A 
ATOM     22  C   UNL A   1      29.587  28.017  22.819  1.00  0.00     0.159 C 
ATOM     23  O   UNL A   1      30.822  25.558  22.696  1.00  0.00    -0.265 OA
ENDBRANCH   9  14
ENDBRANCH   7   8
ENDBRANCH   5   7
ENDBRANCH   4   5
ENDBRANCH   3   4
ENDBRANCH   2   3
ENDBRANCH   1   2
BRANCH   1  24
ATOM     24  C   UNL A   1      42.631  20.988  26.111  1.00  0.00     0.202 C 
BRANCH  24  25
ATOM     25  C   UNL A   1      43.619  21.889  25.361  1.00  0.00     0.261 C 
BRANCH  25  26
ATOM     26  O   UNL A   1      42.996  23.095  24.881  1.00  0.00    -0.460 OA
BRANCH  26  27
ATOM     27  C   UNL A   1      43.722  24.221  25.074  1.00  0.00     0.338 C 
ATOM     28  O   UNL A   1      44.768  24.534  24.520  1.00  0.00    -0.246 OA
BRANCH  27  29
ATOM     29  C   UNL A   1      42.990  25.158  25.946  1.00  0.00     0.060 A 
ATOM     30  C   UNL A   1      43.626  26.362  26.270  1.00  0.00     0.016 A 
ATOM     31  C   UNL A   1      41.753  24.835  26.506  1.00  0.00     0.016 A 
ATOM     32  C   UNL A   1      43.049  27.230  27.195  1.00  0.00     0.010 A 
ATOM     33  C   UNL A   1      41.179  25.703  27.444  1.00  0.00     0.010 A 
ATOM     34  C   UNL A   1      41.842  26.887  27.819  1.00  0.00    -0.014 A 
BRANCH  34  35
ATOM     35  C   UNL A   1      41.373  27.691  28.974  1.00  0.00     0.031 A 
ATOM     36  C   UNL A   1      42.125  27.601  30.276  1.00  0.00     0.074 A 
ATOM     37  C   UNL A   1      40.343  28.547  28.849  1.00  0.00     0.049 A 
ATOM     38  N   UNL A   1      41.895  28.215  31.410  1.00  0.00    -0.248 NA
ATOM     39  C   UNL A   1      43.299  26.713  30.300  1.00  0.00     0.031 C 
ATOM     40  C   UNL A   1      39.579  28.778  27.625  1.00  0.00     0.029 A 
ATOM     41  N   UNL A   1      39.772  29.393  29.767  1.00  0.00    -0.354 N 
ATOM     42  C   UNL A   1      42.901  27.798  32.273  1.00  0.00     0.074 A 
ATOM     43  C   UNL A   1      43.720  26.852  31.549  1.00  0.00     0.031 C 
ATOM     44  C   UNL A   1      38.642  29.713  27.866  1.00  0.00     0.029 A 
ATOM     45  C   UNL A   1      38.719  30.121  29.267  1.00  0.00     0.049 A 
ATOM     46  H   UNL A   1      40.086  29.470  30.698  1.00  0.00     0.167 HD
ATOM     47  C   UNL A   1      43.132  28.184  33.549  1.00  0.00     0.037 A 
ATOM     48  C   UNL A   1      37.905  31.006  29.876  1.00  0.00     0.037 A 
ATOM     49  C   UNL A   1      42.319  29.122  34.276  1.00  0.00     0.049 A 
ATOM     50  C   UNL A   1      38.115  31.326  31.334  1.00  0.00     0.074 A 
ATOM     51  C   UNL A   1      42.461  29.552  35.584  1.00  0.00     0.029 A 
ATOM     52  N   UNL A   1      41.215  29.778  33.755  1.00  0.00    -0.354 N 
ATOM     53  N   UNL A   1      39.060  30.915  32.144  1.00  0.00    -0.248 NA
ATOM     54  C   UNL A   1      37.138  32.228  31.965  1.00  0.00     0.031 C 
ATOM     55  C   UNL A   1      41.422  30.442  35.867  1.00  0.00     0.029 A 
ATOM     56  C   UNL A   1      40.658  30.599  34.722  1.00  0.00     0.049 A 
ATOM     57  H   UNL A   1      40.877  29.677  32.837  1.00  0.00     0.167 HD
ATOM     58  C   UNL A   1      38.812  31.534  33.364  1.00  0.00     0.074 A 
ATOM     59  C   UNL A   1      37.633  32.354  33.187  1.00  0.00     0.031 C 
ATOM     60  C   UNL A   1      39.499  31.428  34.527  1.00  0.00     0.037 A 
BRANCH  47  61
ATOM     61  C   UNL A   1      44.318  27.600  34.255  1.00  0.00     0.057 A 
ATOM     62  C   UNL A   1      45.553  28.261  34.273  1.00  0.00     0.134 A 
ATOM     63  C   UNL A   1      44.203  26.417  34.996  1.00  0.00     0.134 A 
ATOM     64  F   UNL A   1      45.729  29.391  33.573  1.00  0.00    -0.206 F 
ATOM     65  C   UNL A   1      46.632  27.766  35.007  1.00  0.00     0.040 A 
ATOM     66  C   UNL A   1      45.268  25.924  35.749  1.00  0.00     0.040 A 
ATOM     67  F   UNL A   1      43.045  25.741  35.021  1.00  0.00    -0.206 F 
ATOM     68  C   UNL A   1      46.487  26.600  35.757  1.00  0.00     0.006 A 
ENDBRANCH  47  61
BRANCH  48  69
ATOM     69  C   UNL A   1      36.806  31.661  29.122  1.00  0.00     0.057 A 
ATOM     70  C   UNL A   1      36.902  32.997  28.718  1.00  0.00     0.134 A 
ATOM     71  C   UNL A   1      35.616  30.983  28.829  1.00  0.00     0.134 A 
ATOM     72  F   UNL A   1      38.005  33.708  28.993  1.00  0.00    -0.206 F 
ATOM     73  C   UNL A   1      35.847  33.643  28.069  1.00  0.00     0.040 A 
ATOM     74  C   UNL A   1      34.564  31.609  28.158  1.00  0.00     0.040 A 
ATOM     75  F   UNL A   1      35.458  29.702  29.193  1.00  0.00    -0.206 F 
ATOM     76  C   UNL A   1      34.675  32.946  27.785  1.00  0.00     0.006 A 
ENDBRANCH  48  69
BRANCH  60  77
ATOM     77  C   UNL A   1      39.026  32.243  35.694  1.00  0.00     0.057 A 
ATOM     78  C   UNL A   1      38.222  31.692  36.700  1.00  0.00     0.134 A 
ATOM     79  C   UNL A   1      39.444  33.571  35.854  1.00  0.00     0.134 A 
ATOM     80  F   UNL A   1      37.782  30.429  36.602  1.00  0.00    -0.206 F 
ATOM     81  C   UNL A   1      37.841  32.438  37.817  1.00  0.00     0.040 A 
ATOM     82  C   UNL A   1      39.090  34.318  36.977  1.00  0.00     0.040 A 
ATOM     83  F   UNL A   1      40.226  34.154  34.932  1.00  0.00    -0.206 F 
ATOM     84  C   UNL A   1      38.283  33.750  37.962  1.00  0.00     0.006 A 
ENDBRANCH  60  77
ENDBRANCH  34  35
ENDBRANCH  27  29
ENDBRANCH  26  27
ENDBRANCH  25  26
ENDBRANCH  24  25
ENDBRANCH   1  24
TORSDOF 16
ENDMDL
MODEL 2
REMARK VINA RESULT:     -10.7      0.855      6.315
REMARK SMILES Cn1nc(N2CCC(CC(=O)OCCOCCOC(=O)c3ccc(-c4c5nc(c(-c6c(F)cccc6F)c6ccc([nH]6)c(-c6c(F)cccc6F)c6nc(c(-c7c(F)cccc7F)c7ccc4[nH]7)C=C6)C=C5)cc3)CC2)c(=O)n(C)c1=O
REMARK SMILES IDX 15 1 14 2 13 3 12 4 10 5 11 6 9 7 8 8 5 9 6 10 76 11 7 12
REMARK SMILES IDX 75 13 4 14 1 15 2 16 3 17 81 18 79 19 82 20 77 21 80 22
REMARK SMILES IDX 78 23 16 24 17 25 18 26 19 27 20 28 21 29 22 30 74 31 23 32
REMARK SMILES IDX 73 33 24 34 25 35 26 36 67 37 27 38 72 39 66 40 68 41 28 42
REMARK SMILES IDX 71 43 65 44 64 45 29 47 55 48 38 49 54 50 39 51 42 52 53 53
REMARK SMILES IDX 69 54 40 55 41 56 52 58 70 59 43 60 30 61 31 62 36 63 32 64
REMARK SMILES IDX 33 65 35 66 37 67 34 68 56 69 57 70 62 71 58 72 59 73 61 74
REMARK SMILES IDX 63 75 60 76 44 77 45 78 50 79 46 80 47 81 49 82 51 83 48 84
REMARK H PARENT 68 46 42 57
REMARK Flexibility Score: inf
ROOT
ATOM      1  O   UNL A   1      41.809  21.659  27.178  1.00  0.00    -0.374 OA
ENDROOT
BRANCH   1   2
ATOM      2  C   UNL A   1      40.407  21.397  27.244  1.00  0.00     0.202 C 
BRANCH   2   3
ATOM      3  C   UNL A   1      39.638  21.560  25.931  1.00  0.00     0.261 C 
BRANCH   3   4
ATOM      4  O   UNL A   1      39.003  22.851  25.865  1.00  0.00    -0.463 OA
BRANCH   4   5
ATOM      5  C   UNL A   1      37.647  22.864  25.892  1.00  0.00     0.306 C 
ATOM      6  O   UNL A   1      36.965  23.795  26.304  1.00  0.00    -0.252 OA
BRANCH   5   7
ATOM      7  C   UNL A   1      37.036  21.565  25.409  1.00  0.00     0.126 C 
BRANCH   7   8
ATOM      8  C   UNL A   1      35.677  21.616  24.679  1.00  0.00     0.003 C 
ATOM      9  N   UNL A   1      33.318  23.174  24.041  1.00  0.00    -0.351 N 
ATOM     10  C   UNL A   1      33.179  22.025  24.922  1.00  0.00     0.118 C 
ATOM     11  C   UNL A   1      34.335  23.034  23.007  1.00  0.00     0.118 C 
ATOM     12  C   UNL A   1      34.491  21.761  25.653  1.00  0.00     0.026 C 
ATOM     13  C   UNL A   1      35.692  22.794  23.675  1.00  0.00     0.026 C 
BRANCH   9  14
ATOM     14  C   UNL A   1      32.787  24.413  24.382  1.00  0.00     0.215 A 
ATOM     15  C   UNL A   1      33.763  27.362  26.190  1.00  0.00     0.180 C 
ATOM     16  N   UNL A   1      32.915  26.456  25.437  1.00  0.00    -0.216 N 
ATOM     17  N   UNL A   1      33.463  25.244  25.123  1.00  0.00    -0.145 NA
ATOM     18  C   UNL A   1      31.623  26.861  25.121  1.00  0.00     0.346 A 
ATOM     19  N   UNL A   1      30.869  25.973  24.381  1.00  0.00    -0.259 N 
ATOM     20  O   UNL A   1      31.184  27.957  25.479  1.00  0.00    -0.246 OA
ATOM     21  C   UNL A   1      31.370  24.779  23.909  1.00  0.00     0.299 A 
ATOM     22  C   UNL A   1      29.496  26.296  24.052  1.00  0.00     0.159 C 
ATOM     23  O   UNL A   1      30.752  24.002  23.187  1.00  0.00    -0.265 OA
ENDBRANCH   9  14
ENDBRANCH   7   8
ENDBRANCH   5   7
ENDBRANCH   4   5
ENDBRANCH   3   4
ENDBRANCH   2   3
ENDBRANCH   1   2
BRANCH   1  24
ATOM     24  C   UNL A   1      42.538  21.033  26.124  1.00  0.00     0.202 C 
BRANCH  24  25
ATOM     25  C   UNL A   1      43.471  21.949  25.324  1.00  0.00     0.261 C 
BRANCH  25  26
ATOM     26  O   UNL A   1      42.847  23.204  24.994  1.00  0.00    -0.460 OA
BRANCH  26  27
ATOM     27  C   UNL A   1      43.634  24.291  25.176  1.00  0.00     0.338 C 
ATOM     28  O   UNL A   1      44.664  24.570  24.577  1.00  0.00    -0.246 OA
BRANCH  27  29
ATOM     29  C   UNL A   1      42.991  25.237  26.107  1.00  0.00     0.060 A 
ATOM     30  C   UNL A   1      43.667  26.435  26.372  1.00  0.00     0.016 A 
ATOM     31  C   UNL A   1      41.803  24.929  26.773  1.00  0.00     0.016 A 
ATOM     32  C   UNL A   1      43.182  27.310  27.341  1.00  0.00     0.010 A 
ATOM     33  C   UNL A   1      41.324  25.805  27.756  1.00  0.00     0.010 A 
ATOM     34  C   UNL A   1      42.030  26.981  28.069  1.00  0.00    -0.014 A 
BRANCH  34  35
ATOM     35  C   UNL A   1      41.673  27.792  29.259  1.00  0.00     0.031 A 
ATOM     36  C   UNL A   1      40.499  28.732  29.173  1.00  0.00     0.074 A 
ATOM     37  C   UNL A   1      42.330  27.641  30.423  1.00  0.00     0.049 A 
ATOM     38  N   UNL A   1      40.008  29.530  30.087  1.00  0.00    -0.248 NA
ATOM     39  C   UNL A   1      39.774  28.766  27.892  1.00  0.00     0.031 C 
ATOM     40  C   UNL A   1      43.436  26.714  30.655  1.00  0.00     0.029 A 
ATOM     41  N   UNL A   1      42.149  28.259  31.635  1.00  0.00    -0.354 N 
ATOM     42  C   UNL A   1      38.912  30.148  29.497  1.00  0.00     0.074 A 
ATOM     43  C   UNL A   1      38.831  29.665  28.136  1.00  0.00     0.031 C 
ATOM     44  C   UNL A   1      43.831  26.820  31.936  1.00  0.00     0.029 A 
ATOM     45  C   UNL A   1      43.029  27.843  32.605  1.00  0.00     0.049 A 
ATOM     46  H   UNL A   1      41.454  28.939  31.794  1.00  0.00     0.167 HD
ATOM     47  C   UNL A   1      38.041  31.027  30.046  1.00  0.00     0.037 A 
ATOM     48  C   UNL A   1      43.174  28.249  33.881  1.00  0.00     0.037 A 
ATOM     49  C   UNL A   1      38.119  31.514  31.397  1.00  0.00     0.049 A 
ATOM     50  C   UNL A   1      42.263  29.318  34.428  1.00  0.00     0.074 A 
ATOM     51  C   UNL A   1      37.295  32.428  32.030  1.00  0.00     0.029 A 
ATOM     52  N   UNL A   1      39.073  31.124  32.323  1.00  0.00    -0.354 N 
ATOM     53  N   UNL A   1      41.240  29.906  33.857  1.00  0.00    -0.248 NA
ATOM     54  C   UNL A   1      42.531  29.785  35.797  1.00  0.00     0.031 C 
ATOM     55  C   UNL A   1      37.771  32.618  33.330  1.00  0.00     0.029 A 
ATOM     56  C   UNL A   1      38.866  31.791  33.518  1.00  0.00     0.049 A 
ATOM     57  H   UNL A   1      39.790  30.471  32.155  1.00  0.00     0.167 HD
ATOM     58  C   UNL A   1      40.726  30.782  34.805  1.00  0.00     0.074 A 
ATOM     59  C   UNL A   1      41.542  30.645  35.991  1.00  0.00     0.031 C 
ATOM     60  C   UNL A   1      39.672  31.628  34.699  1.00  0.00     0.037 A 
BRANCH  47  61
ATOM     61  C   UNL A   1      36.915  31.523  29.191  1.00  0.00     0.057 A 
ATOM     62  C   UNL A   1      35.777  30.739  28.958  1.00  0.00     0.134 A 
ATOM     63  C   UNL A   1      36.924  32.824  28.674  1.00  0.00     0.134 A 
ATOM     64  F   UNL A   1      35.714  29.481  29.417  1.00  0.00    -0.206 F 
ATOM     65  C   UNL A   1      34.687  31.235  28.241  1.00  0.00     0.040 A 
ATOM     66  C   UNL A   1      35.832  33.337  27.973  1.00  0.00     0.040 A 
ATOM     67  F   UNL A   1      37.983  33.625  28.867  1.00  0.00    -0.206 F 
ATOM     68  C   UNL A   1      34.709  32.541  27.757  1.00  0.00     0.006 A 
ENDBRANCH  47  61
BRANCH  48  69
ATOM     69  C   UNL A   1      44.227  27.657  34.745  1.00  0.00     0.057 A 
ATOM     70  C   UNL A   1      43.968  26.525  35.527  1.00  0.00     0.134 A 
ATOM     71  C   UNL A   1      45.499  28.233  34.847  1.00  0.00     0.134 A 
ATOM     72  F   UNL A   1      42.760  25.944  35.494  1.00  0.00    -0.206 F 
ATOM     73  C   UNL A   1      44.928  26.000  36.394  1.00  0.00     0.040 A 
ATOM     74  C   UNL A   1      46.477  27.703  35.691  1.00  0.00     0.040 A 
ATOM     75  F   UNL A   1      45.810  29.322  34.128  1.00  0.00    -0.206 F 
ATOM     76  C   UNL A   1      46.189  26.588  36.474  1.00  0.00     0.006 A 
ENDBRANCH  48  69
BRANCH  60  77
ATOM     77  C   UNL A   1      39.308  32.445  35.903  1.00  0.00     0.057 A 
ATOM     78  C   UNL A   1      39.837  33.725  36.110  1.00  0.00     0.134 A 
ATOM     79  C   UNL A   1      38.360  31.979  36.824  1.00  0.00     0.134 A 
ATOM     80  F   UNL A   1      40.755  34.226  35.271  1.00  0.00    -0.206 F 
ATOM     81  C   UNL A   1      39.444  34.507  37.199  1.00  0.00     0.040 A 
ATOM     82  C   UNL A   1      37.942  32.760  37.900  1.00  0.00     0.040 A 
ATOM     83  F   UNL A   1      37.807  30.766  36.674  1.00  0.00    -0.206 F 
ATOM     84  C   UNL A   1      38.487  34.029  38.091  1.00  0.00     0.006 A 
ENDBRANCH  60  77
ENDBRANCH  34  35
ENDBRANCH  27  29
ENDBRANCH  26  27
ENDBRANCH  25  26
ENDBRANCH  24  25
ENDBRANCH   1  24
TORSDOF 16
ENDMDL
MODEL 3
REMARK VINA RESULT:     -10.7      1.160      1.867
REMARK SMILES Cn1nc(N2CCC(CC(=O)OCCOCCOC(=O)c3ccc(-c4c5nc(c(-c6c(F)cccc6F)c6ccc([nH]6)c(-c6c(F)cccc6F)c6nc(c(-c7c(F)cccc7F)c7ccc4[nH]7)C=C6)C=C5)cc3)CC2)c(=O)n(C)c1=O
REMARK SMILES IDX 15 1 14 2 13 3 12 4 10 5 11 6 9 7 8 8 5 9 6 10 76 11 7 12
REMARK SMILES IDX 75 13 4 14 1 15 2 16 3 17 81 18 79 19 82 20 77 21 80 22
REMARK SMILES IDX 78 23 16 24 17 25 18 26 19 27 20 28 21 29 22 30 74 31 23 32
REMARK SMILES IDX 73 33 24 34 25 35 26 36 67 37 27 38 72 39 66 40 68 41 28 42
REMARK SMILES IDX 71 43 65 44 64 45 29 47 55 48 38 49 54 50 39 51 42 52 53 53
REMARK SMILES IDX 69 54 40 55 41 56 52 58 70 59 43 60 30 61 31 62 36 63 32 64
REMARK SMILES IDX 33 65 35 66 37 67 34 68 56 69 57 70 62 71 58 72 59 73 61 74
REMARK SMILES IDX 63 75 60 76 44 77 45 78 50 79 46 80 47 81 49 82 51 83 48 84
REMARK H PARENT 68 46 42 57
REMARK Flexibility Score: inf
ROOT
ATOM      1  O   UNL A   1      42.267  21.254  27.220  1.00  0.00    -0.374 OA
ENDROOT
BRANCH   1   2
ATOM      2  C   UNL A   1      40.843  21.212  27.313  1.00  0.00     0.202 C 
BRANCH   2   3
ATOM      3  C   UNL A   1      40.082  21.872  26.161  1.00  0.00     0.261 C 
BRANCH   3   4
ATOM      4  O   UNL A   1      38.968  21.056  25.749  1.00  0.00    -0.463 OA
BRANCH   4   5
ATOM      5  C   UNL A   1      37.894  21.707  25.239  1.00  0.00     0.306 C 
ATOM      6  O   UNL A   1      37.826  22.918  25.068  1.00  0.00    -0.252 OA
BRANCH   5   7
ATOM      7  C   UNL A   1      36.729  20.783  24.945  1.00  0.00     0.126 C 
BRANCH   7   8
ATOM      8  C   UNL A   1      35.422  20.966  25.745  1.00  0.00     0.003 C 
ATOM      9  N   UNL A   1      32.870  22.323  25.951  1.00  0.00    -0.351 N 
ATOM     10  C   UNL A   1      33.902  22.624  26.931  1.00  0.00     0.118 C 
ATOM     11  C   UNL A   1      32.866  20.949  25.466  1.00  0.00     0.118 C 
ATOM     12  C   UNL A   1      35.282  22.385  26.329  1.00  0.00     0.026 C 
ATOM     13  C   UNL A   1      34.222  20.648  24.820  1.00  0.00     0.026 C 
BRANCH   9  14
ATOM     14  C   UNL A   1      32.192  23.337  25.282  1.00  0.00     0.215 A 
ATOM     15  C   UNL A   1      32.328  25.043  22.122  1.00  0.00     0.180 C 
ATOM     16  N   UNL A   1      31.892  24.724  23.469  1.00  0.00    -0.216 N 
ATOM     17  N   UNL A   1      32.581  23.728  24.102  1.00  0.00    -0.145 NA
ATOM     18  C   UNL A   1      30.846  25.456  24.021  1.00  0.00     0.346 A 
ATOM     19  N   UNL A   1      30.453  25.093  25.293  1.00  0.00    -0.259 N 
ATOM     20  O   UNL A   1      30.301  26.372  23.401  1.00  0.00    -0.246 OA
ATOM     21  C   UNL A   1      31.000  24.023  25.969  1.00  0.00     0.299 A 
ATOM     22  C   UNL A   1      29.404  25.837  25.960  1.00  0.00     0.159 C 
ATOM     23  O   UNL A   1      30.622  23.628  27.067  1.00  0.00    -0.265 OA
ENDBRANCH   9  14
ENDBRANCH   7   8
ENDBRANCH   5   7
ENDBRANCH   4   5
ENDBRANCH   3   4
ENDBRANCH   2   3
ENDBRANCH   1   2
BRANCH   1  24
ATOM     24  C   UNL A   1      42.849  20.855  25.981  1.00  0.00     0.202 C 
BRANCH  24  25
ATOM     25  C   UNL A   1      43.881  21.822  25.388  1.00  0.00     0.261 C 
BRANCH  25  26
ATOM     26  O   UNL A   1      43.270  23.025  24.885  1.00  0.00    -0.460 OA
BRANCH  26  27
ATOM     27  C   UNL A   1      43.975  24.157  25.121  1.00  0.00     0.338 C 
ATOM     28  O   UNL A   1      45.025  24.500  24.595  1.00  0.00    -0.246 OA
BRANCH  27  29
ATOM     29  C   UNL A   1      43.211  25.059  26.002  1.00  0.00     0.060 A 
ATOM     30  C   UNL A   1      43.741  26.336  26.225  1.00  0.00     0.016 A 
ATOM     31  C   UNL A   1      42.055  24.644  26.665  1.00  0.00     0.016 A 
ATOM     32  C   UNL A   1      43.142  27.189  27.151  1.00  0.00     0.010 A 
ATOM     33  C   UNL A   1      41.461  25.498  27.603  1.00  0.00     0.010 A 
ATOM     34  C   UNL A   1      42.023  26.759  27.876  1.00  0.00    -0.014 A 
BRANCH  34  35
ATOM     35  C   UNL A   1      41.553  27.571  29.026  1.00  0.00     0.031 A 
ATOM     36  C   UNL A   1      42.313  27.500  30.324  1.00  0.00     0.074 A 
ATOM     37  C   UNL A   1      40.515  28.418  28.899  1.00  0.00     0.049 A 
ATOM     38  N   UNL A   1      42.085  28.123  31.453  1.00  0.00    -0.248 NA
ATOM     39  C   UNL A   1      43.495  26.623  30.350  1.00  0.00     0.031 C 
ATOM     40  C   UNL A   1      39.743  28.630  27.676  1.00  0.00     0.029 A 
ATOM     41  N   UNL A   1      39.943  29.268  29.811  1.00  0.00    -0.354 N 
ATOM     42  C   UNL A   1      43.099  27.724  32.314  1.00  0.00     0.074 A 
ATOM     43  C   UNL A   1      43.922  26.777  31.595  1.00  0.00     0.031 C 
ATOM     44  C   UNL A   1      38.800  29.559  27.913  1.00  0.00     0.029 A 
ATOM     45  C   UNL A   1      38.881  29.982  29.310  1.00  0.00     0.049 A 
ATOM     46  H   UNL A   1      40.261  29.357  30.739  1.00  0.00     0.167 HD
ATOM     47  C   UNL A   1      43.334  28.124  33.586  1.00  0.00     0.037 A 
ATOM     48  C   UNL A   1      38.064  30.867  29.915  1.00  0.00     0.037 A 
ATOM     49  C   UNL A   1      42.517  29.063  34.307  1.00  0.00     0.049 A 
ATOM     50  C   UNL A   1      38.279  31.203  31.369  1.00  0.00     0.074 A 
ATOM     51  C   UNL A   1      42.664  29.506  35.610  1.00  0.00     0.029 A 
ATOM     52  N   UNL A   1      41.405  29.705  33.787  1.00  0.00    -0.354 N 
ATOM     53  N   UNL A   1      39.232  30.808  32.177  1.00  0.00    -0.248 NA
ATOM     54  C   UNL A   1      37.299  32.103  31.996  1.00  0.00     0.031 C 
ATOM     55  C   UNL A   1      41.619  30.391  35.890  1.00  0.00     0.029 A 
ATOM     56  C   UNL A   1      40.847  30.530  34.749  1.00  0.00     0.049 A 
ATOM     57  H   UNL A   1      41.063  29.591  32.871  1.00  0.00     0.167 HD
ATOM     58  C   UNL A   1      38.985  31.436  33.392  1.00  0.00     0.074 A 
ATOM     59  C   UNL A   1      37.799  32.245  33.214  1.00  0.00     0.031 C 
ATOM     60  C   UNL A   1      39.680  31.348  34.552  1.00  0.00     0.037 A 
BRANCH  47  61
ATOM     61  C   UNL A   1      44.529  27.556  34.290  1.00  0.00     0.057 A 
ATOM     62  C   UNL A   1      45.769  28.209  34.262  1.00  0.00     0.134 A 
ATOM     63  C   UNL A   1      44.419  26.402  35.075  1.00  0.00     0.134 A 
ATOM     64  F   UNL A   1      45.939  29.312  33.519  1.00  0.00    -0.206 F 
ATOM     65  C   UNL A   1      46.857  27.732  34.993  1.00  0.00     0.040 A 
ATOM     66  C   UNL A   1      45.495  25.928  35.826  1.00  0.00     0.040 A 
ATOM     67  F   UNL A   1      43.258  25.736  35.146  1.00  0.00    -0.206 F 
ATOM     68  C   UNL A   1      46.718  26.595  35.787  1.00  0.00     0.006 A 
ENDBRANCH  47  61
BRANCH  48  69
ATOM     69  C   UNL A   1      36.954  31.505  29.161  1.00  0.00     0.057 A 
ATOM     70  C   UNL A   1      37.039  32.836  28.738  1.00  0.00     0.134 A 
ATOM     71  C   UNL A   1      35.766  30.817  28.887  1.00  0.00     0.134 A 
ATOM     72  F   UNL A   1      38.141  33.557  28.995  1.00  0.00    -0.206 F 
ATOM     73  C   UNL A   1      35.976  33.467  28.089  1.00  0.00     0.040 A 
ATOM     74  C   UNL A   1      34.705  31.427  28.216  1.00  0.00     0.040 A 
ATOM     75  F   UNL A   1      35.618  29.539  29.269  1.00  0.00    -0.206 F 
ATOM     76  C   UNL A   1      34.806  32.760  27.823  1.00  0.00     0.006 A 
ENDBRANCH  48  69
BRANCH  60  77
ATOM     77  C   UNL A   1      39.207  32.170  35.714  1.00  0.00     0.057 A 
ATOM     78  C   UNL A   1      39.584  33.510  35.869  1.00  0.00     0.134 A 
ATOM     79  C   UNL A   1      38.304  31.639  36.644  1.00  0.00     0.134 A 
ATOM     80  F   UNL A   1      40.453  34.075  35.018  1.00  0.00    -0.206 F 
ATOM     81  C   UNL A   1      39.088  34.288  36.917  1.00  0.00     0.040 A 
ATOM     82  C   UNL A   1      37.782  32.414  37.680  1.00  0.00     0.040 A 
ATOM     83  F   UNL A   1      37.893  30.366  36.544  1.00  0.00    -0.206 F 
ATOM     84  C   UNL A   1      38.177  33.744  37.819  1.00  0.00     0.006 A 
ENDBRANCH  60  77
ENDBRANCH  34  35
ENDBRANCH  27  29
ENDBRANCH  26  27
ENDBRANCH  25  26
ENDBRANCH  24  25
ENDBRANCH   1  24
TORSDOF 16
ENDMDL
