MODEL 1
REMARK VINA RESULT:     -11.3      0.000      0.000
REMARK SMILES COc1cccc([C@@H]2CN(C(=O)CSc3nc(C)n[nH]3)C[C@H]2C(=O)OCCOCCOC(=O)c2ccc(-c3c4nc(c(-c5c(F)cccc5F)c5ccc([nH]5)c(-c5c(F)cccc5F)c5nc(c(-c6c(F)cccc6F)c6ccc3[nH]6)C=C5)C=C4)cc2)c1
REMARK SMILES IDX 27 1 26 2 25 3 23 4 24 5 22 6 8 7 9 8 10 9 21 10 7 11 3 12
REMARK SMILES IDX 4 13 88 14 5 15 6 16 2 17 1 18 11 19 12 20 13 21 14 22 15 23
REMARK SMILES IDX 16 24 20 25 17 26 19 27 18 29 28 30 29 31 30 32 31 33 32 34
REMARK SMILES IDX 33 35 34 36 35 37 87 38 36 39 86 40 37 41 38 42 39 43 80 44
REMARK SMILES IDX 40 45 85 46 79 47 81 48 41 49 84 50 78 51 77 52 42 54 68 55
REMARK SMILES IDX 51 56 67 57 52 58 55 59 66 60 82 61 53 62 54 63 65 65 83 66
REMARK SMILES IDX 56 67 43 68 44 69 49 70 45 71 46 72 48 73 50 74 47 75 69 76
REMARK SMILES IDX 70 77 75 78 71 79 72 80 74 81 76 82 73 83 57 84 58 85 63 86
REMARK SMILES IDX 59 87 60 88 62 89 64 90 61 91
REMARK H PARENT 20 28 81 53 55 64
REMARK Flexibility Score: inf
ROOT
ATOM      1  C   UNL A   1      38.560  22.089  25.934  1.00  0.00     0.202 C 
ENDROOT
BRANCH   1   2
ATOM      2  C   UNL A   1      37.584  21.189  25.175  1.00  0.00     0.261 C 
BRANCH   2   3
ATOM      3  O   UNL A   1      36.269  21.142  25.759  1.00  0.00    -0.463 OA
BRANCH   3   4
ATOM      4  C   UNL A   1      35.461  22.175  25.410  1.00  0.00     0.311 C 
ATOM      5  O   UNL A   1      35.310  23.198  26.071  1.00  0.00    -0.252 OA
BRANCH   4   6
ATOM      6  C   UNL A   1      34.662  21.945  24.156  1.00  0.00     0.128 C 
ATOM      7  C   UNL A   1      33.205  21.436  24.240  1.00  0.00     0.055 C 
ATOM      8  C   UNL A   1      32.525  22.166  23.072  1.00  0.00     0.128 C 
ATOM      9  N   UNL A   1      33.243  23.418  22.944  1.00  0.00    -0.340 N 
ATOM     10  C   UNL A   1      34.570  23.319  23.505  1.00  0.00     0.135 C 
BRANCH   7  11
ATOM     11  C   UNL A   1      32.940  19.941  24.100  1.00  0.00    -0.039 A 
ATOM     12  C   UNL A   1      33.001  17.640  24.928  1.00  0.00     0.119 A 
ATOM     13  C   UNL A   1      32.568  17.179  23.684  1.00  0.00     0.046 A 
ATOM     14  C   UNL A   1      33.178  19.014  25.133  1.00  0.00     0.050 A 
ATOM     15  C   UNL A   1      32.347  18.072  22.642  1.00  0.00     0.004 A 
ATOM     16  C   UNL A   1      32.556  19.436  22.846  1.00  0.00     0.004 A 
BRANCH  12  17
ATOM     17  O   UNL A   1      33.250  16.644  25.831  1.00  0.00    -0.497 OA
ATOM     18  C   UNL A   1      32.877  15.321  25.477  1.00  0.00     0.278 C 
ENDBRANCH  12  17
ENDBRANCH   7  11
BRANCH   9  19
ATOM     19  C   UNL A   1      32.868  24.551  22.267  1.00  0.00     0.233 C 
ATOM     20  O   UNL A   1      33.371  24.824  21.173  1.00  0.00    -0.274 OA
BRANCH  19  21
ATOM     21  C   UNL A   1      31.748  25.406  22.812  1.00  0.00     0.178 C 
BRANCH  21  22
ATOM     22  S   UNL A   1      32.150  26.049  24.453  1.00  0.00    -0.077 SA
BRANCH  22  23
ATOM     23  C   UNL A   1      31.699  24.802  25.558  1.00  0.00     0.184 A 
ATOM     24  N   UNL A   1      30.479  24.342  25.696  1.00  0.00    -0.206 NA
ATOM     25  N   UNL A   1      32.506  24.239  26.503  1.00  0.00    -0.254 N 
ATOM     26  C   UNL A   1      30.590  23.482  26.756  1.00  0.00     0.148 A 
ATOM     27  N   UNL A   1      31.813  23.401  27.295  1.00  0.00    -0.158 NA
ATOM     28  H   UNL A   1      33.469  24.422  26.593  1.00  0.00     0.192 HD
ATOM     29  C   UNL A   1      29.438  22.715  27.264  1.00  0.00     0.092 C 
ENDBRANCH  22  23
ENDBRANCH  21  22
ENDBRANCH  19  21
ENDBRANCH   9  19
ENDBRANCH   4   6
ENDBRANCH   3   4
ENDBRANCH   2   3
ENDBRANCH   1   2
BRANCH   1  30
ATOM     30  O   UNL A   1      39.930  21.708  26.004  1.00  0.00    -0.374 OA
BRANCH  30  31
ATOM     31  C   UNL A   1      40.297  20.397  26.417  1.00  0.00     0.202 C 
BRANCH  31  32
ATOM     32  C   UNL A   1      41.749  19.967  26.267  1.00  0.00     0.261 C 
BRANCH  32  33
ATOM     33  O   UNL A   1      42.410  20.646  25.206  1.00  0.00    -0.460 OA
BRANCH  33  34
ATOM     34  C   UNL A   1      43.734  20.836  25.430  1.00  0.00     0.338 C 
ATOM     35  O   UNL A   1      44.558  19.994  25.724  1.00  0.00    -0.246 OA
BRANCH  34  36
ATOM     36  C   UNL A   1      44.017  22.276  25.438  1.00  0.00     0.060 A 
ATOM     37  C   UNL A   1      44.988  22.680  26.352  1.00  0.00     0.016 A 
ATOM     38  C   UNL A   1      43.109  23.177  24.871  1.00  0.00     0.016 A 
ATOM     39  C   UNL A   1      44.849  23.918  26.927  1.00  0.00     0.010 A 
ATOM     40  C   UNL A   1      42.949  24.405  25.464  1.00  0.00     0.010 A 
ATOM     41  C   UNL A   1      43.761  24.712  26.552  1.00  0.00    -0.014 A 
BRANCH  41  42
ATOM     42  C   UNL A   1      43.580  25.960  27.255  1.00  0.00     0.031 A 
ATOM     43  C   UNL A   1      44.675  26.908  26.966  1.00  0.00     0.074 A 
ATOM     44  C   UNL A   1      42.500  26.214  28.015  1.00  0.00     0.049 A 
ATOM     45  N   UNL A   1      45.609  27.292  27.766  1.00  0.00    -0.248 NA
ATOM     46  C   UNL A   1      44.892  27.282  25.557  1.00  0.00     0.031 C 
ATOM     47  C   UNL A   1      41.276  25.423  28.159  1.00  0.00     0.029 A 
ATOM     48  N   UNL A   1      42.238  27.320  28.761  1.00  0.00    -0.354 N 
ATOM     49  C   UNL A   1      46.401  28.152  27.013  1.00  0.00     0.074 A 
ATOM     50  C   UNL A   1      46.062  27.912  25.639  1.00  0.00     0.031 C 
ATOM     51  C   UNL A   1      40.322  26.181  28.750  1.00  0.00     0.029 A 
ATOM     52  C   UNL A   1      40.904  27.454  29.132  1.00  0.00     0.049 A 
ATOM     53  H   UNL A   1      42.933  27.969  29.016  1.00  0.00     0.167 HD
ATOM     54  C   UNL A   1      47.024  29.205  27.605  1.00  0.00     0.037 A 
ATOM     55  C   UNL A   1      40.340  28.588  29.624  1.00  0.00     0.037 A 
ATOM     56  C   UNL A   1      47.165  28.979  29.026  1.00  0.00     0.049 A 
ATOM     57  C   UNL A   1      41.446  29.440  30.143  1.00  0.00     0.074 A 
ATOM     58  C   UNL A   1      47.766  28.002  29.797  1.00  0.00     0.029 A 
ATOM     59  N   UNL A   1      46.296  29.632  29.868  1.00  0.00    -0.354 N 
ATOM     60  N   UNL A   1      42.159  29.130  31.191  1.00  0.00    -0.248 NA
ATOM     61  C   UNL A   1      42.082  30.359  29.207  1.00  0.00     0.031 C 
ATOM     62  C   UNL A   1      46.886  27.806  30.902  1.00  0.00     0.029 A 
ATOM     63  C   UNL A   1      45.841  28.723  30.786  1.00  0.00     0.049 A 
ATOM     64  H   UNL A   1      46.045  30.582  29.819  1.00  0.00     0.167 HD
ATOM     65  C   UNL A   1      43.464  29.448  30.839  1.00  0.00     0.074 A 
ATOM     66  C   UNL A   1      43.346  30.260  29.628  1.00  0.00     0.031 C 
ATOM     67  C   UNL A   1      44.526  28.779  31.378  1.00  0.00     0.037 A 
BRANCH  54  68
ATOM     68  C   UNL A   1      47.058  30.591  26.993  1.00  0.00     0.057 A 
ATOM     69  C   UNL A   1      48.269  31.303  27.034  1.00  0.00     0.134 A 
ATOM     70  C   UNL A   1      45.926  31.370  26.667  1.00  0.00     0.134 A 
ATOM     71  F   UNL A   1      49.426  30.682  27.306  1.00  0.00    -0.206 F 
ATOM     72  C   UNL A   1      48.328  32.696  26.899  1.00  0.00     0.040 A 
ATOM     73  C   UNL A   1      45.980  32.753  26.486  1.00  0.00     0.040 A 
ATOM     74  F   UNL A   1      44.687  30.873  26.587  1.00  0.00    -0.206 F 
ATOM     75  C   UNL A   1      47.176  33.427  26.645  1.00  0.00     0.006 A 
ENDBRANCH  54  68
BRANCH  55  76
ATOM     76  C   UNL A   1      38.988  29.129  29.346  1.00  0.00     0.057 A 
ATOM     77  C   UNL A   1      38.582  29.444  28.041  1.00  0.00     0.134 A 
ATOM     78  C   UNL A   1      37.966  29.096  30.313  1.00  0.00     0.134 A 
ATOM     79  F   UNL A   1      39.470  29.455  27.036  1.00  0.00    -0.206 F 
ATOM     80  C   UNL A   1      37.240  29.692  27.715  1.00  0.00     0.040 A 
ATOM     81  C   UNL A   1      36.626  29.348  30.003  1.00  0.00     0.040 A 
ATOM     82  F   UNL A   1      38.219  28.727  31.578  1.00  0.00    -0.206 F 
ATOM     83  C   UNL A   1      36.256  29.635  28.696  1.00  0.00     0.006 A 
ENDBRANCH  55  76
BRANCH  67  84
ATOM     84  C   UNL A   1      44.265  27.849  32.529  1.00  0.00     0.057 A 
ATOM     85  C   UNL A   1      44.019  26.474  32.391  1.00  0.00     0.134 A 
ATOM     86  C   UNL A   1      44.433  28.332  33.832  1.00  0.00     0.134 A 
ATOM     87  F   UNL A   1      43.944  25.901  31.183  1.00  0.00    -0.206 F 
ATOM     88  C   UNL A   1      43.907  25.629  33.501  1.00  0.00     0.040 A 
ATOM     89  C   UNL A   1      44.359  27.495  34.945  1.00  0.00     0.040 A 
ATOM     90  F   UNL A   1      44.728  29.626  34.037  1.00  0.00    -0.206 F 
ATOM     91  C   UNL A   1      44.084  26.139  34.784  1.00  0.00     0.006 A 
ENDBRANCH  67  84
ENDBRANCH  41  42
ENDBRANCH  34  36
ENDBRANCH  33  34
ENDBRANCH  32  33
ENDBRANCH  31  32
ENDBRANCH  30  31
ENDBRANCH   1  30
TORSDOF 20
ENDMDL
MODEL 2
REMARK VINA RESULT:     -11.1      1.494      2.215
REMARK SMILES COc1cccc([C@@H]2CN(C(=O)CSc3nc(C)n[nH]3)C[C@H]2C(=O)OCCOCCOC(=O)c2ccc(-c3c4nc(c(-c5c(F)cccc5F)c5ccc([nH]5)c(-c5c(F)cccc5F)c5nc(c(-c6c(F)cccc6F)c6ccc3[nH]6)C=C5)C=C4)cc2)c1
REMARK SMILES IDX 27 1 26 2 25 3 23 4 24 5 22 6 8 7 9 8 10 9 21 10 7 11 3 12
REMARK SMILES IDX 4 13 88 14 5 15 6 16 2 17 1 18 11 19 12 20 13 21 14 22 15 23
REMARK SMILES IDX 16 24 20 25 17 26 19 27 18 29 28 30 29 31 30 32 31 33 32 34
REMARK SMILES IDX 33 35 34 36 35 37 87 38 36 39 86 40 37 41 38 42 39 43 80 44
REMARK SMILES IDX 40 45 85 46 79 47 81 48 41 49 84 50 78 51 77 52 42 54 68 55
REMARK SMILES IDX 51 56 67 57 52 58 55 59 66 60 82 61 53 62 54 63 65 65 83 66
REMARK SMILES IDX 56 67 43 68 44 69 49 70 45 71 46 72 48 73 50 74 47 75 69 76
REMARK SMILES IDX 70 77 75 78 71 79 72 80 74 81 76 82 73 83 57 84 58 85 63 86
REMARK SMILES IDX 59 87 60 88 62 89 64 90 61 91
REMARK H PARENT 20 28 81 53 55 64
REMARK Flexibility Score: inf
ROOT
ATOM      1  C   UNL A   1      38.626  20.678  25.512  1.00  0.00     0.202 C 
ENDROOT
BRANCH   1   2
ATOM      2  C   UNL A   1      37.466  21.476  24.918  1.00  0.00     0.261 C 
BRANCH   2   3
ATOM      3  O   UNL A   1      36.180  21.109  25.449  1.00  0.00    -0.463 OA
BRANCH   3   4
ATOM      4  C   UNL A   1      35.364  22.157  25.724  1.00  0.00     0.311 C 
ATOM      5  O   UNL A   1      35.642  23.079  26.485  1.00  0.00    -0.252 OA
BRANCH   4   6
ATOM      6  C   UNL A   1      34.006  22.076  25.081  1.00  0.00     0.128 C 
ATOM      7  C   UNL A   1      32.976  21.027  25.560  1.00  0.00     0.055 C 
ATOM      8  C   UNL A   1      31.642  21.777  25.418  1.00  0.00     0.128 C 
ATOM      9  N   UNL A   1      31.970  23.171  25.638  1.00  0.00    -0.340 N 
ATOM     10  C   UNL A   1      33.366  23.428  25.368  1.00  0.00     0.135 C 
BRANCH   7  11
ATOM     11  C   UNL A   1      32.872  19.704  24.811  1.00  0.00    -0.039 A 
ATOM     12  C   UNL A   1      33.218  17.290  24.612  1.00  0.00     0.119 A 
ATOM     13  C   UNL A   1      32.791  17.337  23.285  1.00  0.00     0.046 A 
ATOM     14  C   UNL A   1      33.250  18.468  25.370  1.00  0.00     0.050 A 
ATOM     15  C   UNL A   1      32.434  18.547  22.703  1.00  0.00     0.004 A 
ATOM     16  C   UNL A   1      32.499  19.720  23.456  1.00  0.00     0.004 A 
BRANCH  12  17
ATOM     17  O   UNL A   1      33.609  16.047  25.025  1.00  0.00    -0.497 OA
ATOM     18  C   UNL A   1      32.616  15.184  25.560  1.00  0.00     0.278 C 
ENDBRANCH  12  17
ENDBRANCH   7  11
BRANCH   9  19
ATOM     19  C   UNL A   1      31.123  24.214  25.914  1.00  0.00     0.233 C 
ATOM     20  O   UNL A   1      30.726  24.411  27.066  1.00  0.00    -0.274 OA
BRANCH  19  21
ATOM     21  C   UNL A   1      30.768  25.193  24.820  1.00  0.00     0.178 C 
BRANCH  21  22
ATOM     22  S   UNL A   1      31.583  26.786  25.073  1.00  0.00    -0.077 SA
BRANCH  22  23
ATOM     23  C   UNL A   1      30.857  27.860  23.934  1.00  0.00     0.184 A 
ATOM     24  N   UNL A   1      30.401  29.053  24.229  1.00  0.00    -0.206 NA
ATOM     25  N   UNL A   1      30.549  27.564  22.638  1.00  0.00    -0.254 N 
ATOM     26  C   UNL A   1      29.813  29.458  23.061  1.00  0.00     0.148 A 
ATOM     27  N   UNL A   1      29.863  28.568  22.062  1.00  0.00    -0.158 NA
ATOM     28  H   UNL A   1      30.796  26.726  22.184  1.00  0.00     0.192 HD
ATOM     29  C   UNL A   1      29.165  30.776  22.927  1.00  0.00     0.092 C 
ENDBRANCH  22  23
ENDBRANCH  21  22
ENDBRANCH  19  21
ENDBRANCH   9  19
ENDBRANCH   4   6
ENDBRANCH   3   4
ENDBRANCH   2   3
ENDBRANCH   1   2
BRANCH   1  30
ATOM     30  O   UNL A   1      39.790  21.377  25.942  1.00  0.00    -0.374 OA
BRANCH  30  31
ATOM     31  C   UNL A   1      40.542  20.917  27.058  1.00  0.00     0.202 C 
BRANCH  31  32
ATOM     32  C   UNL A   1      41.946  20.383  26.820  1.00  0.00     0.261 C 
BRANCH  32  33
ATOM     33  O   UNL A   1      42.409  20.642  25.500  1.00  0.00    -0.460 OA
BRANCH  33  34
ATOM     34  C   UNL A   1      43.753  20.804  25.422  1.00  0.00     0.338 C 
ATOM     35  O   UNL A   1      44.600  19.934  25.432  1.00  0.00    -0.246 OA
BRANCH  34  36
ATOM     36  C   UNL A   1      44.070  22.235  25.501  1.00  0.00     0.060 A 
ATOM     37  C   UNL A   1      44.874  22.602  26.578  1.00  0.00     0.016 A 
ATOM     38  C   UNL A   1      43.302  23.168  24.794  1.00  0.00     0.016 A 
ATOM     39  C   UNL A   1      44.670  23.838  27.137  1.00  0.00     0.010 A 
ATOM     40  C   UNL A   1      43.073  24.394  25.368  1.00  0.00     0.010 A 
ATOM     41  C   UNL A   1      43.687  24.667  26.586  1.00  0.00    -0.014 A 
BRANCH  41  42
ATOM     42  C   UNL A   1      43.418  25.913  27.264  1.00  0.00     0.031 A 
ATOM     43  C   UNL A   1      44.439  26.932  26.947  1.00  0.00     0.074 A 
ATOM     44  C   UNL A   1      42.326  26.104  28.025  1.00  0.00     0.049 A 
ATOM     45  N   UNL A   1      45.347  27.402  27.733  1.00  0.00    -0.248 NA
ATOM     46  C   UNL A   1      44.621  27.291  25.530  1.00  0.00     0.031 C 
ATOM     47  C   UNL A   1      41.165  25.228  28.194  1.00  0.00     0.029 A 
ATOM     48  N   UNL A   1      41.988  27.204  28.749  1.00  0.00    -0.354 N 
ATOM     49  C   UNL A   1      46.070  28.301  26.956  1.00  0.00     0.074 A 
ATOM     50  C   UNL A   1      45.742  28.007  25.590  1.00  0.00     0.031 C 
ATOM     51  C   UNL A   1      40.161  25.927  28.775  1.00  0.00     0.029 A 
ATOM     52  C   UNL A   1      40.649  27.248  29.126  1.00  0.00     0.049 A 
ATOM     53  H   UNL A   1      42.634  27.908  28.986  1.00  0.00     0.167 HD
ATOM     54  C   UNL A   1      46.616  29.410  27.522  1.00  0.00     0.037 A 
ATOM     55  C   UNL A   1      40.006  28.348  29.597  1.00  0.00     0.037 A 
ATOM     56  C   UNL A   1      46.780  29.225  28.947  1.00  0.00     0.049 A 
ATOM     57  C   UNL A   1      41.049  29.289  30.090  1.00  0.00     0.074 A 
ATOM     58  C   UNL A   1      47.456  28.312  29.734  1.00  0.00     0.029 A 
ATOM     59  N   UNL A   1      45.870  29.831  29.780  1.00  0.00    -0.354 N 
ATOM     60  N   UNL A   1      41.788  29.056  31.140  1.00  0.00    -0.248 NA
ATOM     61  C   UNL A   1      41.611  30.233  29.131  1.00  0.00     0.031 C 
ATOM     62  C   UNL A   1      46.597  28.076  30.848  1.00  0.00     0.029 A 
ATOM     63  C   UNL A   1      45.488  28.911  30.720  1.00  0.00     0.049 A 
ATOM     64  H   UNL A   1      45.550  30.759  29.712  1.00  0.00     0.167 HD
ATOM     65  C   UNL A   1      43.064  29.461  30.773  1.00  0.00     0.074 A 
ATOM     66  C   UNL A   1      42.880  30.236  29.546  1.00  0.00     0.031 C 
ATOM     67  C   UNL A   1      44.175  28.883  31.319  1.00  0.00     0.037 A 
BRANCH  54  68
ATOM     68  C   UNL A   1      46.545  30.780  26.881  1.00  0.00     0.057 A 
ATOM     69  C   UNL A   1      47.713  31.563  26.858  1.00  0.00     0.134 A 
ATOM     70  C   UNL A   1      45.357  31.485  26.583  1.00  0.00     0.134 A 
ATOM     71  F   UNL A   1      48.914  31.016  27.097  1.00  0.00    -0.206 F 
ATOM     72  C   UNL A   1      47.685  32.952  26.693  1.00  0.00     0.040 A 
ATOM     73  C   UNL A   1      45.324  32.864  26.371  1.00  0.00     0.040 A 
ATOM     74  F   UNL A   1      44.148  30.916  26.562  1.00  0.00    -0.206 F 
ATOM     75  C   UNL A   1      46.483  33.610  26.469  1.00  0.00     0.006 A 
ENDBRANCH  54  68
BRANCH  55  76
ATOM     76  C   UNL A   1      38.616  28.782  29.317  1.00  0.00     0.057 A 
ATOM     77  C   UNL A   1      37.670  28.909  30.344  1.00  0.00     0.134 A 
ATOM     78  C   UNL A   1      38.254  29.345  28.079  1.00  0.00     0.134 A 
ATOM     79  F   UNL A   1      37.937  28.449  31.576  1.00  0.00    -0.206 F 
ATOM     80  C   UNL A   1      36.447  29.571  30.157  1.00  0.00     0.040 A 
ATOM     81  C   UNL A   1      37.036  30.001  27.877  1.00  0.00     0.040 A 
ATOM     82  F   UNL A   1      39.109  29.358  27.046  1.00  0.00    -0.206 F 
ATOM     83  C   UNL A   1      36.131  30.128  28.923  1.00  0.00     0.006 A 
ENDBRANCH  55  76
BRANCH  67  84
ATOM     84  C   UNL A   1      43.988  27.961  32.492  1.00  0.00     0.057 A 
ATOM     85  C   UNL A   1      43.883  26.566  32.388  1.00  0.00     0.134 A 
ATOM     86  C   UNL A   1      44.087  28.493  33.783  1.00  0.00     0.134 A 
ATOM     87  F   UNL A   1      43.885  25.957  31.195  1.00  0.00    -0.206 F 
ATOM     88  C   UNL A   1      43.837  25.743  33.519  1.00  0.00     0.040 A 
ATOM     89  C   UNL A   1      44.077  27.681  34.918  1.00  0.00     0.040 A 
ATOM     90  F   UNL A   1      44.248  29.814  33.957  1.00  0.00    -0.206 F 
ATOM     91  C   UNL A   1      43.942  26.301  34.789  1.00  0.00     0.006 A 
ENDBRANCH  67  84
ENDBRANCH  41  42
ENDBRANCH  34  36
ENDBRANCH  33  34
ENDBRANCH  32  33
ENDBRANCH  31  32
ENDBRANCH  30  31
ENDBRANCH   1  30
TORSDOF 20
ENDMDL
MODEL 3
REMARK VINA RESULT:     -10.8      4.949     10.074
REMARK SMILES COc1cccc([C@@H]2CN(C(=O)CSc3nc(C)n[nH]3)C[C@H]2C(=O)OCCOCCOC(=O)c2ccc(-c3c4nc(c(-c5c(F)cccc5F)c5ccc([nH]5)c(-c5c(F)cccc5F)c5nc(c(-c6c(F)cccc6F)c6ccc3[nH]6)C=C5)C=C4)cc2)c1
REMARK SMILES IDX 27 1 26 2 25 3 23 4 24 5 22 6 8 7 9 8 10 9 21 10 7 11 3 12
REMARK SMILES IDX 4 13 88 14 5 15 6 16 2 17 1 18 11 19 12 20 13 21 14 22 15 23
REMARK SMILES IDX 16 24 20 25 17 26 19 27 18 29 28 30 29 31 30 32 31 33 32 34
REMARK SMILES IDX 33 35 34 36 35 37 87 38 36 39 86 40 37 41 38 42 39 43 80 44
REMARK SMILES IDX 40 45 85 46 79 47 81 48 41 49 84 50 78 51 77 52 42 54 68 55
REMARK SMILES IDX 51 56 67 57 52 58 55 59 66 60 82 61 53 62 54 63 65 65 83 66
REMARK SMILES IDX 56 67 43 68 44 69 49 70 45 71 46 72 48 73 50 74 47 75 69 76
REMARK SMILES IDX 70 77 75 78 71 79 72 80 74 81 76 82 73 83 57 84 58 85 63 86
REMARK SMILES IDX 59 87 60 88 62 89 64 90 61 91
REMARK H PARENT 20 28 81 53 55 64
REMARK Flexibility Score: inf
ROOT
ATOM      1  C   UNL A   1      33.716  32.252  27.666  1.00  0.00     0.202 C 
ENDROOT
BRANCH   1   2
ATOM      2  C   UNL A   1      33.085  30.872  27.482  1.00  0.00     0.261 C 
BRANCH   2   3
ATOM      3  O   UNL A   1      32.459  30.689  26.199  1.00  0.00    -0.463 OA
BRANCH   3   4
ATOM      4  C   UNL A   1      32.736  29.502  25.602  1.00  0.00     0.311 C 
ATOM      5  O   UNL A   1      33.809  29.216  25.080  1.00  0.00    -0.252 OA
BRANCH   4   6
ATOM      6  C   UNL A   1      31.573  28.549  25.540  1.00  0.00     0.128 C 
ATOM      7  C   UNL A   1      31.084  28.000  24.181  1.00  0.00     0.055 C 
ATOM      8  C   UNL A   1      30.657  26.567  24.531  1.00  0.00     0.128 C 
ATOM      9  N   UNL A   1      31.522  26.174  25.624  1.00  0.00    -0.340 N 
ATOM     10  C   UNL A   1      32.038  27.328  26.323  1.00  0.00     0.135 C 
BRANCH   7  11
ATOM     11  C   UNL A   1      29.923  28.697  23.481  1.00  0.00    -0.039 A 
ATOM     12  C   UNL A   1      28.903  30.615  22.357  1.00  0.00     0.119 A 
ATOM     13  C   UNL A   1      27.671  29.960  22.353  1.00  0.00     0.046 A 
ATOM     14  C   UNL A   1      30.022  29.981  22.912  1.00  0.00     0.050 A 
ATOM     15  C   UNL A   1      27.543  28.702  22.928  1.00  0.00     0.004 A 
ATOM     16  C   UNL A   1      28.655  28.091  23.507  1.00  0.00     0.004 A 
BRANCH  12  17
ATOM     17  O   UNL A   1      28.863  31.875  21.826  1.00  0.00    -0.497 OA
ATOM     18  C   UNL A   1      28.813  32.971  22.728  1.00  0.00     0.278 C 
ENDBRANCH  12  17
ENDBRANCH   7  11
BRANCH   9  19
ATOM     19  C   UNL A   1      31.764  24.914  26.111  1.00  0.00     0.233 C 
ATOM     20  O   UNL A   1      31.257  24.544  27.174  1.00  0.00    -0.274 OA
BRANCH  19  21
ATOM     21  C   UNL A   1      32.563  23.937  25.280  1.00  0.00     0.178 C 
BRANCH  21  22
ATOM     22  S   UNL A   1      33.270  22.627  26.305  1.00  0.00    -0.077 SA
BRANCH  22  23
ATOM     23  C   UNL A   1      34.771  22.218  25.557  1.00  0.00     0.184 A 
ATOM     24  N   UNL A   1      35.330  21.034  25.619  1.00  0.00    -0.206 NA
ATOM     25  N   UNL A   1      35.616  23.087  24.931  1.00  0.00    -0.254 N 
ATOM     26  C   UNL A   1      36.538  21.229  25.005  1.00  0.00     0.148 A 
ATOM     27  N   UNL A   1      36.765  22.478  24.583  1.00  0.00    -0.158 NA
ATOM     28  H   UNL A   1      35.413  24.034  24.757  1.00  0.00     0.192 HD
ATOM     29  C   UNL A   1      37.514  20.136  24.836  1.00  0.00     0.092 C 
ENDBRANCH  22  23
ENDBRANCH  21  22
ENDBRANCH  19  21
ENDBRANCH   9  19
ENDBRANCH   4   6
ENDBRANCH   3   4
ENDBRANCH   2   3
ENDBRANCH   1   2
BRANCH   1  30
ATOM     30  O   UNL A   1      32.870  33.397  27.671  1.00  0.00    -0.374 OA
BRANCH  30  31
ATOM     31  C   UNL A   1      33.228  34.560  28.408  1.00  0.00     0.202 C 
BRANCH  31  32
ATOM     32  C   UNL A   1      33.555  34.413  29.886  1.00  0.00     0.261 C 
BRANCH  32  33
ATOM     33  O   UNL A   1      33.127  35.534  30.652  1.00  0.00    -0.460 OA
BRANCH  33  34
ATOM     34  C   UNL A   1      32.828  35.226  31.938  1.00  0.00     0.338 C 
ATOM     35  O   UNL A   1      31.820  35.521  32.549  1.00  0.00    -0.246 OA
BRANCH  34  36
ATOM     36  C   UNL A   1      34.002  34.612  32.570  1.00  0.00     0.060 A 
ATOM     37  C   UNL A   1      35.152  35.399  32.565  1.00  0.00     0.016 A 
ATOM     38  C   UNL A   1      34.048  33.230  32.782  1.00  0.00     0.016 A 
ATOM     39  C   UNL A   1      36.362  34.763  32.464  1.00  0.00     0.010 A 
ATOM     40  C   UNL A   1      35.255  32.588  32.651  1.00  0.00     0.010 A 
ATOM     41  C   UNL A   1      36.379  33.366  32.393  1.00  0.00    -0.014 A 
BRANCH  41  42
ATOM     42  C   UNL A   1      37.657  32.731  32.174  1.00  0.00     0.031 A 
ATOM     43  C   UNL A   1      38.469  32.711  33.408  1.00  0.00     0.074 A 
ATOM     44  C   UNL A   1      38.000  32.177  30.998  1.00  0.00     0.049 A 
ATOM     45  N   UNL A   1      39.534  33.394  33.655  1.00  0.00    -0.248 NA
ATOM     46  C   UNL A   1      37.896  32.037  34.586  1.00  0.00     0.031 C 
ATOM     47  C   UNL A   1      37.167  31.954  29.815  1.00  0.00     0.029 A 
ATOM     48  N   UNL A   1      39.182  31.600  30.654  1.00  0.00    -0.354 N 
ATOM     49  C   UNL A   1      39.896  33.046  34.952  1.00  0.00     0.074 A 
ATOM     50  C   UNL A   1      38.744  32.421  35.538  1.00  0.00     0.031 C 
ATOM     51  C   UNL A   1      37.796  31.089  28.984  1.00  0.00     0.029 A 
ATOM     52  C   UNL A   1      39.115  30.801  29.516  1.00  0.00     0.049 A 
ATOM     53  H   UNL A   1      40.012  31.735  31.164  1.00  0.00     0.167 HD
ATOM     54  C   UNL A   1      41.207  33.011  35.312  1.00  0.00     0.037 A 
ATOM     55  C   UNL A   1      40.062  29.906  29.133  1.00  0.00     0.037 A 
ATOM     56  C   UNL A   1      42.000  33.827  34.420  1.00  0.00     0.049 A 
ATOM     57  C   UNL A   1      41.328  30.284  29.821  1.00  0.00     0.074 A 
ATOM     58  C   UNL A   1      41.984  35.160  34.054  1.00  0.00     0.029 A 
ATOM     59  N   UNL A   1      42.741  33.187  33.455  1.00  0.00    -0.354 N 
ATOM     60  N   UNL A   1      41.995  31.372  29.548  1.00  0.00    -0.248 NA
ATOM     61  C   UNL A   1      41.568  29.722  31.144  1.00  0.00     0.031 C 
ATOM     62  C   UNL A   1      42.291  35.166  32.661  1.00  0.00     0.029 A 
ATOM     63  C   UNL A   1      42.551  33.852  32.273  1.00  0.00     0.049 A 
ATOM     64  H   UNL A   1      43.305  32.393  33.590  1.00  0.00     0.167 HD
ATOM     65  C   UNL A   1      42.385  31.868  30.784  1.00  0.00     0.074 A 
ATOM     66  C   UNL A   1      42.147  30.775  31.727  1.00  0.00     0.031 C 
ATOM     67  C   UNL A   1      42.576  33.206  30.982  1.00  0.00     0.037 A 
BRANCH  54  68
ATOM     68  C   UNL A   1      41.804  31.891  36.139  1.00  0.00     0.057 A 
ATOM     69  C   UNL A   1      42.664  32.235  37.196  1.00  0.00     0.134 A 
ATOM     70  C   UNL A   1      41.839  30.529  35.768  1.00  0.00     0.134 A 
ATOM     71  F   UNL A   1      42.712  33.490  37.667  1.00  0.00    -0.206 F 
ATOM     72  C   UNL A   1      43.582  31.331  37.743  1.00  0.00     0.040 A 
ATOM     73  C   UNL A   1      42.719  29.607  36.339  1.00  0.00     0.040 A 
ATOM     74  F   UNL A   1      41.098  30.014  34.782  1.00  0.00    -0.206 F 
ATOM     75  C   UNL A   1      43.626  30.016  37.299  1.00  0.00     0.006 A 
ENDBRANCH  54  68
BRANCH  55  76
ATOM     76  C   UNL A   1      39.861  28.569  28.525  1.00  0.00     0.057 A 
ATOM     77  C   UNL A   1      40.426  28.239  27.284  1.00  0.00     0.134 A 
ATOM     78  C   UNL A   1      39.340  27.491  29.265  1.00  0.00     0.134 A 
ATOM     79  F   UNL A   1      40.994  29.186  26.522  1.00  0.00    -0.206 F 
ATOM     80  C   UNL A   1      40.486  26.917  26.817  1.00  0.00     0.040 A 
ATOM     81  C   UNL A   1      39.387  26.170  28.808  1.00  0.00     0.040 A 
ATOM     82  F   UNL A   1      38.848  27.670  30.499  1.00  0.00    -0.206 F 
ATOM     83  C   UNL A   1      39.974  25.877  27.584  1.00  0.00     0.006 A 
ENDBRANCH  55  76
BRANCH  67  84
ATOM     84  C   UNL A   1      42.579  34.106  29.778  1.00  0.00     0.057 A 
ATOM     85  C   UNL A   1      41.453  34.802  29.312  1.00  0.00     0.134 A 
ATOM     86  C   UNL A   1      43.803  34.407  29.171  1.00  0.00     0.134 A 
ATOM     87  F   UNL A   1      40.257  34.656  29.897  1.00  0.00    -0.206 F 
ATOM     88  C   UNL A   1      41.537  35.723  28.262  1.00  0.00     0.040 A 
ATOM     89  C   UNL A   1      43.907  35.349  28.147  1.00  0.00     0.040 A 
ATOM     90  F   UNL A   1      44.932  33.823  29.604  1.00  0.00    -0.206 F 
ATOM     91  C   UNL A   1      42.770  36.005  27.682  1.00  0.00     0.006 A 
ENDBRANCH  67  84
ENDBRANCH  41  42
ENDBRANCH  34  36
ENDBRANCH  33  34
ENDBRANCH  32  33
ENDBRANCH  31  32
ENDBRANCH  30  31
ENDBRANCH   1  30
TORSDOF 20
ENDMDL
