MODEL 1
REMARK VINA RESULT:     -11.8      0.000      0.000
REMARK SMILES Cc1ccc(-c2cc(Cl)cc3c2O[C@@H](C(F)(F)F)C(C(=O)OCCOCCOC(=O)c2ccc(-c4c5nc(c(-c6c(F)cccc6F)c6ccc([nH]6)c(-c6c(F)cccc6F)c6nc(c(-c7c(F)cccc7F)c7ccc4[nH]7)C=C6)C=C5)cc2)=C3)cc1
REMARK SMILES IDX 26 1 25 2 24 3 23 4 22 5 20 6 21 7 19 8 6 9 7 10 12 11 8 12
REMARK SMILES IDX 11 13 13 14 9 15 10 16 85 17 14 18 5 19 1 20 2 21 3 22 87 23
REMARK SMILES IDX 4 24 86 25 15 26 16 27 17 28 18 29 27 30 28 31 29 32 30 33
REMARK SMILES IDX 31 34 32 35 84 36 33 37 83 38 34 39 35 40 36 41 77 42 37 43
REMARK SMILES IDX 82 44 76 45 78 46 38 47 81 48 75 49 74 50 39 52 65 53 48 54
REMARK SMILES IDX 64 55 49 56 52 57 63 58 79 59 50 60 51 61 62 63 80 64 53 65
REMARK SMILES IDX 40 66 41 67 46 68 42 69 43 70 45 71 47 72 44 73 66 74 67 75
REMARK SMILES IDX 72 76 68 77 69 78 71 79 73 80 70 81 54 82 55 83 60 84 56 85
REMARK SMILES IDX 57 86 59 87 61 88 58 89
REMARK H PARENT 78 51 52 62
REMARK Flexibility Score: inf
ROOT
ATOM      1  C   UNL A   1      37.752  21.666  25.724  1.00  0.00     0.202 C 
ENDROOT
BRANCH   1   2
ATOM      2  O   UNL A   1      37.320  23.010  25.496  1.00  0.00    -0.374 OA
BRANCH   2   3
ATOM      3  C   UNL A   1      36.058  23.317  26.076  1.00  0.00     0.202 C 
BRANCH   3   4
ATOM      4  C   UNL A   1      35.333  24.387  25.253  1.00  0.00     0.261 C 
BRANCH   4   5
ATOM      5  O   UNL A   1      34.915  23.904  23.964  1.00  0.00    -0.460 OA
BRANCH   5   6
ATOM      6  C   UNL A   1      34.102  24.760  23.261  1.00  0.00     0.338 C 
ATOM      7  O   UNL A   1      34.324  25.916  22.984  1.00  0.00    -0.246 OA
BRANCH   6   8
ATOM      8  C   UNL A   1      33.026  23.926  22.571  1.00  0.00     0.087 C 
ATOM      9  C   UNL A   1      31.150  25.736  25.569  1.00  0.00     0.026 A 
ATOM     10  C   UNL A   1      30.419  24.966  26.506  1.00  0.00     0.033 A 
ATOM     11  C   UNL A   1      31.430  25.108  24.331  1.00  0.00     0.135 A 
ATOM     12  C   UNL A   1      30.224  23.598  26.335  1.00  0.00     0.042 A 
ATOM     13  C   UNL A   1      31.493  23.687  24.313  1.00  0.00     0.019 A 
ATOM     14  O   UNL A   1      31.645  25.803  23.110  1.00  0.00    -0.475 OA
ATOM     15  Cl  UNL A   1      29.388  22.702  27.539  1.00  0.00    -0.084 Cl
ATOM     16  C   UNL A   1      30.835  22.938  25.281  1.00  0.00     0.032 A 
ATOM     17  C   UNL A   1      32.372  23.006  23.312  1.00  0.00     0.027 C 
ATOM     18  C   UNL A   1      32.009  24.884  21.980  1.00  0.00     0.316 C 
BRANCH   9  19
ATOM     19  C   UNL A   1      31.979  26.783  26.262  1.00  0.00    -0.015 A 
ATOM     20  C   UNL A   1      34.024  30.407  27.636  1.00  0.00     0.044 C 
ATOM     21  C   UNL A   1      33.312  29.184  27.124  1.00  0.00    -0.051 A 
ATOM     22  C   UNL A   1      34.006  28.148  26.485  1.00  0.00     0.004 A 
ATOM     23  C   UNL A   1      31.948  29.009  27.351  1.00  0.00     0.004 A 
ATOM     24  C   UNL A   1      33.347  26.977  26.043  1.00  0.00     0.009 A 
ATOM     25  C   UNL A   1      31.305  27.826  26.949  1.00  0.00     0.009 A 
ENDBRANCH   9  19
BRANCH  18  26
ATOM     26  C   UNL A   1      32.508  25.360  20.571  1.00  0.00     0.430 C 
ATOM     27  F   UNL A   1      31.473  25.729  19.766  1.00  0.00    -0.167 F 
ATOM     28  F   UNL A   1      33.266  26.482  20.711  1.00  0.00    -0.167 F 
ATOM     29  F   UNL A   1      33.253  24.503  19.857  1.00  0.00    -0.167 F 
ENDBRANCH  18  26
ENDBRANCH   6   8
ENDBRANCH   5   6
ENDBRANCH   4   5
ENDBRANCH   3   4
ENDBRANCH   2   3
ENDBRANCH   1   2
BRANCH   1  30
ATOM     30  C   UNL A   1      39.277  21.543  25.757  1.00  0.00     0.261 C 
BRANCH  30  31
ATOM     31  O   UNL A   1      39.753  22.118  26.988  1.00  0.00    -0.460 OA
BRANCH  31  32
ATOM     32  C   UNL A   1      40.760  23.015  26.831  1.00  0.00     0.338 C 
ATOM     33  O   UNL A   1      41.951  22.743  26.861  1.00  0.00    -0.246 OA
BRANCH  32  34
ATOM     34  C   UNL A   1      40.229  24.407  26.923  1.00  0.00     0.060 A 
ATOM     35  C   UNL A   1      40.888  25.430  26.227  1.00  0.00     0.016 A 
ATOM     36  C   UNL A   1      39.299  24.740  27.902  1.00  0.00     0.016 A 
ATOM     37  C   UNL A   1      40.758  26.766  26.640  1.00  0.00     0.010 A 
ATOM     38  C   UNL A   1      39.210  26.058  28.334  1.00  0.00     0.010 A 
ATOM     39  C   UNL A   1      39.991  27.071  27.768  1.00  0.00    -0.014 A 
BRANCH  39  40
ATOM     40  C   UNL A   1      40.197  28.275  28.602  1.00  0.00     0.031 A 
ATOM     41  C   UNL A   1      39.232  29.408  28.649  1.00  0.00     0.074 A 
ATOM     42  C   UNL A   1      41.117  28.207  29.602  1.00  0.00     0.049 A 
ATOM     43  N   UNL A   1      39.467  30.508  29.284  1.00  0.00    -0.248 NA
ATOM     44  C   UNL A   1      37.937  29.445  27.976  1.00  0.00     0.031 C 
ATOM     45  C   UNL A   1      41.144  28.984  30.844  1.00  0.00     0.029 A 
ATOM     46  N   UNL A   1      42.184  27.343  29.793  1.00  0.00    -0.354 N 
ATOM     47  C   UNL A   1      38.274  31.159  29.471  1.00  0.00     0.074 A 
ATOM     48  C   UNL A   1      37.399  30.561  28.493  1.00  0.00     0.031 C 
ATOM     49  C   UNL A   1      42.263  28.716  31.534  1.00  0.00     0.029 A 
ATOM     50  C   UNL A   1      43.092  27.884  30.697  1.00  0.00     0.049 A 
ATOM     51  H   UNL A   1      42.284  26.469  29.350  1.00  0.00     0.167 HD
ATOM     52  C   UNL A   1      38.156  32.033  30.516  1.00  0.00     0.037 A 
ATOM     53  C   UNL A   1      44.362  28.205  30.313  1.00  0.00     0.037 A 
ATOM     54  C   UNL A   1      39.459  32.286  31.159  1.00  0.00     0.049 A 
ATOM     55  C   UNL A   1      44.529  29.711  30.214  1.00  0.00     0.074 A 
ATOM     56  C   UNL A   1      39.975  32.098  32.431  1.00  0.00     0.029 A 
ATOM     57  N   UNL A   1      40.552  32.633  30.357  1.00  0.00    -0.354 N 
ATOM     58  N   UNL A   1      43.512  30.527  30.306  1.00  0.00    -0.248 NA
ATOM     59  C   UNL A   1      45.782  30.446  30.070  1.00  0.00     0.031 C 
ATOM     60  C   UNL A   1      41.396  32.227  32.353  1.00  0.00     0.029 A 
ATOM     61  C   UNL A   1      41.743  32.537  31.046  1.00  0.00     0.049 A 
ATOM     62  H   UNL A   1      40.478  32.911  29.415  1.00  0.00     0.167 HD
ATOM     63  C   UNL A   1      43.914  31.824  30.274  1.00  0.00     0.074 A 
ATOM     64  C   UNL A   1      45.352  31.726  30.099  1.00  0.00     0.031 C 
ATOM     65  C   UNL A   1      43.017  32.849  30.391  1.00  0.00     0.037 A 
BRANCH  52  66
ATOM     66  C   UNL A   1      36.844  32.594  31.053  1.00  0.00     0.057 A 
ATOM     67  C   UNL A   1      36.168  33.630  30.372  1.00  0.00     0.134 A 
ATOM     68  C   UNL A   1      36.223  32.211  32.260  1.00  0.00     0.134 A 
ATOM     69  F   UNL A   1      36.648  34.146  29.232  1.00  0.00    -0.206 F 
ATOM     70  C   UNL A   1      34.965  34.197  30.829  1.00  0.00     0.040 A 
ATOM     71  C   UNL A   1      34.993  32.731  32.698  1.00  0.00     0.040 A 
ATOM     72  F   UNL A   1      36.793  31.356  33.116  1.00  0.00    -0.206 F 
ATOM     73  C   UNL A   1      34.357  33.729  31.984  1.00  0.00     0.006 A 
ENDBRANCH  52  66
BRANCH  53  74
ATOM     74  C   UNL A   1      44.979  27.078  29.558  1.00  0.00     0.057 A 
ATOM     75  C   UNL A   1      45.258  25.936  30.343  1.00  0.00     0.134 A 
ATOM     76  C   UNL A   1      44.691  26.852  28.207  1.00  0.00     0.134 A 
ATOM     77  F   UNL A   1      45.555  26.079  31.645  1.00  0.00    -0.206 F 
ATOM     78  C   UNL A   1      45.045  24.639  29.869  1.00  0.00     0.040 A 
ATOM     79  C   UNL A   1      44.497  25.548  27.715  1.00  0.00     0.040 A 
ATOM     80  F   UNL A   1      44.387  27.874  27.394  1.00  0.00    -0.206 F 
ATOM     81  C   UNL A   1      44.614  24.444  28.562  1.00  0.00     0.006 A 
ENDBRANCH  53  74
BRANCH  65  82
ATOM     82  C   UNL A   1      43.277  34.261  29.934  1.00  0.00     0.057 A 
ATOM     83  C   UNL A   1      43.407  35.347  30.813  1.00  0.00     0.134 A 
ATOM     84  C   UNL A   1      43.611  34.534  28.589  1.00  0.00     0.134 A 
ATOM     85  F   UNL A   1      43.223  35.212  32.133  1.00  0.00    -0.206 F 
ATOM     86  C   UNL A   1      43.797  36.620  30.381  1.00  0.00     0.040 A 
ATOM     87  C   UNL A   1      44.056  35.785  28.157  1.00  0.00     0.040 A 
ATOM     88  F   UNL A   1      43.555  33.587  27.640  1.00  0.00    -0.206 F 
ATOM     89  C   UNL A   1      44.139  36.840  29.053  1.00  0.00     0.006 A 
ENDBRANCH  65  82
ENDBRANCH  39  40
ENDBRANCH  32  34
ENDBRANCH  31  32
ENDBRANCH  30  31
ENDBRANCH   1  30
TORSDOF 16
ENDMDL
MODEL 2
REMARK VINA RESULT:     -11.6      3.009      7.945
REMARK SMILES Cc1ccc(-c2cc(Cl)cc3c2O[C@@H](C(F)(F)F)C(C(=O)OCCOCCOC(=O)c2ccc(-c4c5nc(c(-c6c(F)cccc6F)c6ccc([nH]6)c(-c6c(F)cccc6F)c6nc(c(-c7c(F)cccc7F)c7ccc4[nH]7)C=C6)C=C5)cc2)=C3)cc1
REMARK SMILES IDX 26 1 25 2 24 3 23 4 22 5 20 6 21 7 19 8 6 9 7 10 12 11 8 12
REMARK SMILES IDX 11 13 13 14 9 15 10 16 85 17 14 18 5 19 1 20 2 21 3 22 87 23
REMARK SMILES IDX 4 24 86 25 15 26 16 27 17 28 18 29 27 30 28 31 29 32 30 33
REMARK SMILES IDX 31 34 32 35 84 36 33 37 83 38 34 39 35 40 36 41 77 42 37 43
REMARK SMILES IDX 82 44 76 45 78 46 38 47 81 48 75 49 74 50 39 52 65 53 48 54
REMARK SMILES IDX 64 55 49 56 52 57 63 58 79 59 50 60 51 61 62 63 80 64 53 65
REMARK SMILES IDX 40 66 41 67 46 68 42 69 43 70 45 71 47 72 44 73 66 74 67 75
REMARK SMILES IDX 72 76 68 77 69 78 71 79 73 80 70 81 54 82 55 83 60 84 56 85
REMARK SMILES IDX 57 86 59 87 61 88 58 89
REMARK H PARENT 78 51 52 62
REMARK Flexibility Score: inf
ROOT
ATOM      1  C   UNL A   1      33.610  28.419  23.752  1.00  0.00     0.202 C 
ENDROOT
BRANCH   1   2
ATOM      2  O   UNL A   1      32.526  28.502  22.822  1.00  0.00    -0.374 OA
BRANCH   2   3
ATOM      3  C   UNL A   1      32.356  27.333  22.029  1.00  0.00     0.202 C 
BRANCH   3   4
ATOM      4  C   UNL A   1      33.653  26.519  21.984  1.00  0.00     0.261 C 
BRANCH   4   5
ATOM      5  O   UNL A   1      33.437  25.120  22.242  1.00  0.00    -0.460 OA
BRANCH   5   6
ATOM      6  C   UNL A   1      33.360  24.781  23.571  1.00  0.00     0.338 C 
ATOM      7  O   UNL A   1      34.109  25.125  24.456  1.00  0.00    -0.246 OA
BRANCH   6   8
ATOM      8  C   UNL A   1      31.977  24.191  23.827  1.00  0.00     0.087 C 
ATOM      9  C   UNL A   1      34.509  21.599  25.456  1.00  0.00     0.026 A 
ATOM     10  C   UNL A   1      34.455  20.235  25.079  1.00  0.00     0.033 A 
ATOM     11  C   UNL A   1      33.352  22.368  25.177  1.00  0.00     0.135 A 
ATOM     12  C   UNL A   1      33.450  19.744  24.250  1.00  0.00     0.042 A 
ATOM     13  C   UNL A   1      32.520  21.940  24.106  1.00  0.00     0.019 A 
ATOM     14  O   UNL A   1      32.968  23.529  25.901  1.00  0.00    -0.475 OA
ATOM     15  Cl  UNL A   1      33.474  18.095  23.771  1.00  0.00    -0.084 Cl
ATOM     16  C   UNL A   1      32.527  20.614  23.690  1.00  0.00     0.032 A 
ATOM     17  C   UNL A   1      31.722  22.955  23.349  1.00  0.00     0.027 C 
ATOM     18  C   UNL A   1      31.748  24.188  25.326  1.00  0.00     0.316 C 
BRANCH   9  19
ATOM     19  C   UNL A   1      35.930  22.089  25.508  1.00  0.00    -0.015 A 
ATOM     20  C   UNL A   1      40.143  22.920  26.381  1.00  0.00     0.044 C 
ATOM     21  C   UNL A   1      38.692  22.615  26.123  1.00  0.00    -0.051 A 
ATOM     22  C   UNL A   1      37.689  23.558  26.387  1.00  0.00     0.004 A 
ATOM     23  C   UNL A   1      38.314  21.412  25.530  1.00  0.00     0.004 A 
ATOM     24  C   UNL A   1      36.328  23.290  26.104  1.00  0.00     0.009 A 
ATOM     25  C   UNL A   1      36.968  21.167  25.210  1.00  0.00     0.009 A 
ENDBRANCH   9  19
BRANCH  18  26
ATOM     26  C   UNL A   1      31.202  25.592  25.767  1.00  0.00     0.430 C 
ATOM     27  F   UNL A   1      30.055  25.484  26.494  1.00  0.00    -0.167 F 
ATOM     28  F   UNL A   1      32.098  26.185  26.605  1.00  0.00    -0.167 F 
ATOM     29  F   UNL A   1      30.955  26.490  24.802  1.00  0.00    -0.167 F 
ENDBRANCH  18  26
ENDBRANCH   6   8
ENDBRANCH   5   6
ENDBRANCH   4   5
ENDBRANCH   3   4
ENDBRANCH   2   3
ENDBRANCH   1   2
BRANCH   1  30
ATOM     30  C   UNL A   1      33.271  29.063  25.098  1.00  0.00     0.261 C 
BRANCH  30  31
ATOM     31  O   UNL A   1      34.401  28.901  25.976  1.00  0.00    -0.460 OA
BRANCH  31  32
ATOM     32  C   UNL A   1      34.124  29.124  27.286  1.00  0.00     0.338 C 
ATOM     33  O   UNL A   1      33.005  29.129  27.775  1.00  0.00    -0.246 OA
BRANCH  32  34
ATOM     34  C   UNL A   1      35.331  29.659  27.983  1.00  0.00     0.060 A 
ATOM     35  C   UNL A   1      36.399  30.144  27.213  1.00  0.00     0.016 A 
ATOM     36  C   UNL A   1      35.528  29.411  29.337  1.00  0.00     0.016 A 
ATOM     37  C   UNL A   1      37.695  30.194  27.751  1.00  0.00     0.010 A 
ATOM     38  C   UNL A   1      36.820  29.421  29.849  1.00  0.00     0.010 A 
ATOM     39  C   UNL A   1      37.925  29.733  29.049  1.00  0.00    -0.014 A 
BRANCH  39  40
ATOM     40  C   UNL A   1      39.233  29.233  29.526  1.00  0.00     0.031 A 
ATOM     41  C   UNL A   1      39.839  27.958  29.055  1.00  0.00     0.074 A 
ATOM     42  C   UNL A   1      40.058  30.113  30.156  1.00  0.00     0.049 A 
ATOM     43  N   UNL A   1      40.923  27.465  29.557  1.00  0.00    -0.248 NA
ATOM     44  C   UNL A   1      39.292  27.096  28.012  1.00  0.00     0.031 C 
ATOM     45  C   UNL A   1      41.521  30.062  30.238  1.00  0.00     0.029 A 
ATOM     46  N   UNL A   1      39.788  31.322  30.776  1.00  0.00    -0.354 N 
ATOM     47  C   UNL A   1      41.422  26.541  28.675  1.00  0.00     0.074 A 
ATOM     48  C   UNL A   1      40.293  26.220  27.837  1.00  0.00     0.031 C 
ATOM     49  C   UNL A   1      41.975  31.043  31.033  1.00  0.00     0.029 A 
ATOM     50  C   UNL A   1      40.824  31.671  31.637  1.00  0.00     0.049 A 
ATOM     51  H   UNL A   1      38.976  31.860  30.627  1.00  0.00     0.167 HD
ATOM     52  C   UNL A   1      42.761  26.265  28.696  1.00  0.00     0.037 A 
ATOM     53  C   UNL A   1      40.619  31.765  32.983  1.00  0.00     0.037 A 
ATOM     54  C   UNL A   1      43.422  26.887  29.860  1.00  0.00     0.049 A 
ATOM     55  C   UNL A   1      41.257  30.593  33.708  1.00  0.00     0.074 A 
ATOM     56  C   UNL A   1      44.436  27.817  30.027  1.00  0.00     0.029 A 
ATOM     57  N   UNL A   1      42.868  26.701  31.130  1.00  0.00    -0.354 N 
ATOM     58  N   UNL A   1      41.751  29.568  33.064  1.00  0.00    -0.248 NA
ATOM     59  C   UNL A   1      41.463  30.459  35.147  1.00  0.00     0.031 C 
ATOM     60  C   UNL A   1      44.403  28.264  31.384  1.00  0.00     0.029 A 
ATOM     61  C   UNL A   1      43.403  27.576  32.055  1.00  0.00     0.049 A 
ATOM     62  H   UNL A   1      42.180  26.029  31.339  1.00  0.00     0.167 HD
ATOM     63  C   UNL A   1      42.341  28.688  33.913  1.00  0.00     0.074 A 
ATOM     64  C   UNL A   1      42.114  29.278  35.220  1.00  0.00     0.031 C 
ATOM     65  C   UNL A   1      42.956  27.558  33.451  1.00  0.00     0.037 A 
BRANCH  52  66
ATOM     66  C   UNL A   1      43.527  25.521  27.609  1.00  0.00     0.057 A 
ATOM     67  C   UNL A   1      43.490  24.112  27.533  1.00  0.00     0.134 A 
ATOM     68  C   UNL A   1      44.368  26.117  26.646  1.00  0.00     0.134 A 
ATOM     69  F   UNL A   1      42.777  23.384  28.405  1.00  0.00    -0.206 F 
ATOM     70  C   UNL A   1      44.189  23.372  26.563  1.00  0.00     0.040 A 
ATOM     71  C   UNL A   1      45.027  25.394  25.637  1.00  0.00     0.040 A 
ATOM     72  F   UNL A   1      44.650  27.425  26.655  1.00  0.00    -0.206 F 
ATOM     73  C   UNL A   1      44.941  24.014  25.591  1.00  0.00     0.006 A 
ENDBRANCH  52  66
BRANCH  53  74
ATOM     74  C   UNL A   1      39.403  32.577  33.270  1.00  0.00     0.057 A 
ATOM     75  C   UNL A   1      38.319  31.836  33.792  1.00  0.00     0.134 A 
ATOM     76  C   UNL A   1      39.489  33.918  33.662  1.00  0.00     0.134 A 
ATOM     77  F   UNL A   1      38.166  30.547  33.448  1.00  0.00    -0.206 F 
ATOM     78  C   UNL A   1      37.502  32.332  34.812  1.00  0.00     0.040 A 
ATOM     79  C   UNL A   1      38.656  34.433  34.672  1.00  0.00     0.040 A 
ATOM     80  F   UNL A   1      40.501  34.689  33.239  1.00  0.00    -0.206 F 
ATOM     81  C   UNL A   1      37.703  33.622  35.290  1.00  0.00     0.006 A 
ENDBRANCH  53  74
BRANCH  65  82
ATOM     82  C   UNL A   1      43.234  26.338  34.291  1.00  0.00     0.057 A 
ATOM     83  C   UNL A   1      42.230  25.583  34.916  1.00  0.00     0.134 A 
ATOM     84  C   UNL A   1      44.525  25.764  34.323  1.00  0.00     0.134 A 
ATOM     85  F   UNL A   1      40.943  25.952  34.876  1.00  0.00    -0.206 F 
ATOM     86  C   UNL A   1      42.495  24.371  35.563  1.00  0.00     0.040 A 
ATOM     87  C   UNL A   1      44.790  24.528  34.917  1.00  0.00     0.040 A 
ATOM     88  F   UNL A   1      45.579  26.361  33.748  1.00  0.00    -0.206 F 
ATOM     89  C   UNL A   1      43.774  23.830  35.552  1.00  0.00     0.006 A 
ENDBRANCH  65  82
ENDBRANCH  39  40
ENDBRANCH  32  34
ENDBRANCH  31  32
ENDBRANCH  30  31
ENDBRANCH   1  30
TORSDOF 16
ENDMDL
MODEL 3
REMARK VINA RESULT:     -11.6      1.442      2.163
REMARK SMILES Cc1ccc(-c2cc(Cl)cc3c2O[C@@H](C(F)(F)F)C(C(=O)OCCOCCOC(=O)c2ccc(-c4c5nc(c(-c6c(F)cccc6F)c6ccc([nH]6)c(-c6c(F)cccc6F)c6nc(c(-c7c(F)cccc7F)c7ccc4[nH]7)C=C6)C=C5)cc2)=C3)cc1
REMARK SMILES IDX 26 1 25 2 24 3 23 4 22 5 20 6 21 7 19 8 6 9 7 10 12 11 8 12
REMARK SMILES IDX 11 13 13 14 9 15 10 16 85 17 14 18 5 19 1 20 2 21 3 22 87 23
REMARK SMILES IDX 4 24 86 25 15 26 16 27 17 28 18 29 27 30 28 31 29 32 30 33
REMARK SMILES IDX 31 34 32 35 84 36 33 37 83 38 34 39 35 40 36 41 77 42 37 43
REMARK SMILES IDX 82 44 76 45 78 46 38 47 81 48 75 49 74 50 39 52 65 53 48 54
REMARK SMILES IDX 64 55 49 56 52 57 63 58 79 59 50 60 51 61 62 63 80 64 53 65
REMARK SMILES IDX 40 66 41 67 46 68 42 69 43 70 45 71 47 72 44 73 66 74 67 75
REMARK SMILES IDX 72 76 68 77 69 78 71 79 73 80 70 81 54 82 55 83 60 84 56 85
REMARK SMILES IDX 57 86 59 87 61 88 58 89
REMARK H PARENT 78 51 52 62
REMARK Flexibility Score: inf
ROOT
ATOM      1  C   UNL A   1      37.695  22.195  25.077  1.00  0.00     0.202 C 
ENDROOT
BRANCH   1   2
ATOM      2  O   UNL A   1      36.494  22.170  25.854  1.00  0.00    -0.374 OA
BRANCH   2   3
ATOM      3  C   UNL A   1      36.033  23.457  26.246  1.00  0.00     0.202 C 
BRANCH   3   4
ATOM      4  C   UNL A   1      34.511  23.452  26.428  1.00  0.00     0.261 C 
BRANCH   4   5
ATOM      5  O   UNL A   1      33.830  24.211  25.412  1.00  0.00    -0.460 OA
BRANCH   5   6
ATOM      6  C   UNL A   1      32.461  24.233  25.527  1.00  0.00     0.338 C 
ATOM      7  O   UNL A   1      31.809  24.787  26.381  1.00  0.00    -0.246 OA
BRANCH   6   8
ATOM      8  C   UNL A   1      31.871  23.747  24.207  1.00  0.00     0.087 C 
ATOM      9  C   UNL A   1      31.477  27.699  24.107  1.00  0.00     0.026 A 
ATOM     10  C   UNL A   1      30.203  28.270  23.873  1.00  0.00     0.033 A 
ATOM     11  C   UNL A   1      31.631  26.344  23.722  1.00  0.00     0.135 A 
ATOM     12  C   UNL A   1      29.099  27.488  23.542  1.00  0.00     0.042 A 
ATOM     13  C   UNL A   1      30.464  25.532  23.687  1.00  0.00     0.019 A 
ATOM     14  O   UNL A   1      32.871  25.749  23.364  1.00  0.00    -0.475 OA
ATOM     15  Cl  UNL A   1      27.563  28.229  23.337  1.00  0.00    -0.084 Cl
ATOM     16  C   UNL A   1      29.207  26.106  23.533  1.00  0.00     0.032 A 
ATOM     17  C   UNL A   1      30.587  24.063  23.938  1.00  0.00     0.027 C 
ATOM     18  C   UNL A   1      32.746  24.279  23.088  1.00  0.00     0.316 C 
BRANCH   9  19
ATOM     19  C   UNL A   1      32.190  28.409  25.225  1.00  0.00    -0.015 A 
ATOM     20  C   UNL A   1      34.370  31.161  27.847  1.00  0.00     0.044 C 
ATOM     21  C   UNL A   1      33.636  30.240  26.910  1.00  0.00    -0.051 A 
ATOM     22  C   UNL A   1      34.223  29.060  26.435  1.00  0.00     0.004 A 
ATOM     23  C   UNL A   1      32.312  30.495  26.557  1.00  0.00     0.004 A 
ATOM     24  C   UNL A   1      33.518  28.170  25.589  1.00  0.00     0.009 A 
ATOM     25  C   UNL A   1      31.601  29.588  25.753  1.00  0.00     0.009 A 
ENDBRANCH   9  19
BRANCH  18  26
ATOM     26  C   UNL A   1      33.959  23.306  22.875  1.00  0.00     0.430 C 
ATOM     27  F   UNL A   1      33.817  22.156  23.590  1.00  0.00    -0.167 F 
ATOM     28  F   UNL A   1      34.001  22.910  21.572  1.00  0.00    -0.167 F 
ATOM     29  F   UNL A   1      35.184  23.775  23.153  1.00  0.00    -0.167 F 
ENDBRANCH  18  26
ENDBRANCH   6   8
ENDBRANCH   5   6
ENDBRANCH   4   5
ENDBRANCH   3   4
ENDBRANCH   2   3
ENDBRANCH   1   2
BRANCH   1  30
ATOM     30  C   UNL A   1      38.805  21.341  25.695  1.00  0.00     0.261 C 
BRANCH  30  31
ATOM     31  O   UNL A   1      39.335  22.041  26.836  1.00  0.00    -0.460 OA
BRANCH  31  32
ATOM     32  C   UNL A   1      40.384  22.854  26.552  1.00  0.00     0.338 C 
ATOM     33  O   UNL A   1      41.548  22.491  26.463  1.00  0.00    -0.246 OA
BRANCH  32  34
ATOM     34  C   UNL A   1      39.973  24.284  26.666  1.00  0.00     0.060 A 
ATOM     35  C   UNL A   1      40.749  25.265  26.032  1.00  0.00     0.016 A 
ATOM     36  C   UNL A   1      39.032  24.671  27.614  1.00  0.00     0.016 A 
ATOM     37  C   UNL A   1      40.718  26.595  26.482  1.00  0.00     0.010 A 
ATOM     38  C   UNL A   1      39.039  25.979  28.084  1.00  0.00     0.010 A 
ATOM     39  C   UNL A   1      39.931  26.934  27.585  1.00  0.00    -0.014 A 
BRANCH  39  40
ATOM     40  C   UNL A   1      40.202  28.092  28.465  1.00  0.00     0.031 A 
ATOM     41  C   UNL A   1      39.302  29.274  28.558  1.00  0.00     0.074 A 
ATOM     42  C   UNL A   1      41.117  27.934  29.460  1.00  0.00     0.049 A 
ATOM     43  N   UNL A   1      39.597  30.333  29.236  1.00  0.00    -0.248 NA
ATOM     44  C   UNL A   1      38.011  29.409  27.889  1.00  0.00     0.031 C 
ATOM     45  C   UNL A   1      41.186  28.658  30.732  1.00  0.00     0.029 A 
ATOM     46  N   UNL A   1      42.134  27.005  29.615  1.00  0.00    -0.354 N 
ATOM     47  C   UNL A   1      38.442  31.041  29.449  1.00  0.00     0.074 A 
ATOM     48  C   UNL A   1      37.536  30.532  28.450  1.00  0.00     0.031 C 
ATOM     49  C   UNL A   1      42.288  28.302  31.409  1.00  0.00     0.029 A 
ATOM     50  C   UNL A   1      43.071  27.458  30.538  1.00  0.00     0.049 A 
ATOM     51  H   UNL A   1      42.185  26.144  29.138  1.00  0.00     0.167 HD
ATOM     52  C   UNL A   1      38.372  31.879  30.528  1.00  0.00     0.037 A 
ATOM     53  C   UNL A   1      44.356  27.724  30.164  1.00  0.00     0.037 A 
ATOM     54  C   UNL A   1      39.688  32.034  31.178  1.00  0.00     0.049 A 
ATOM     55  C   UNL A   1      44.607  29.220  30.125  1.00  0.00     0.074 A 
ATOM     56  C   UNL A   1      40.191  31.768  32.441  1.00  0.00     0.029 A 
ATOM     57  N   UNL A   1      40.798  32.351  30.388  1.00  0.00    -0.354 N 
ATOM     58  N   UNL A   1      43.637  30.088  30.250  1.00  0.00    -0.248 NA
ATOM     59  C   UNL A   1      45.899  29.890  30.007  1.00  0.00     0.031 C 
ATOM     60  C   UNL A   1      41.618  31.820  32.366  1.00  0.00     0.029 A 
ATOM     61  C   UNL A   1      41.982  32.162  31.072  1.00  0.00     0.049 A 
ATOM     62  H   UNL A   1      40.740  32.670  29.459  1.00  0.00     0.167 HD
ATOM     63  C   UNL A   1      44.110  31.360  30.268  1.00  0.00     0.074 A 
ATOM     64  C   UNL A   1      45.540  31.190  30.086  1.00  0.00     0.031 C 
ATOM     65  C   UNL A   1      43.272  32.428  30.427  1.00  0.00     0.037 A 
BRANCH  52  66
ATOM     66  C   UNL A   1      37.094  32.490  31.089  1.00  0.00     0.057 A 
ATOM     67  C   UNL A   1      36.493  31.966  32.254  1.00  0.00     0.134 A 
ATOM     68  C   UNL A   1      36.367  33.549  30.506  1.00  0.00     0.134 A 
ATOM     69  F   UNL A   1      37.027  30.925  32.909  1.00  0.00    -0.206 F 
ATOM     70  C   UNL A   1      35.306  32.478  32.808  1.00  0.00     0.040 A 
ATOM     71  C   UNL A   1      35.211  34.105  31.079  1.00  0.00     0.040 A 
ATOM     72  F   UNL A   1      36.696  34.071  29.319  1.00  0.00    -0.206 F 
ATOM     73  C   UNL A   1      34.672  33.571  32.236  1.00  0.00     0.006 A 
ENDBRANCH  52  66
BRANCH  53  74
ATOM     74  C   UNL A   1      44.910  26.594  29.365  1.00  0.00     0.057 A 
ATOM     75  C   UNL A   1      45.082  25.395  30.093  1.00  0.00     0.134 A 
ATOM     76  C   UNL A   1      44.645  26.462  27.996  1.00  0.00     0.134 A 
ATOM     77  F   UNL A   1      45.351  25.447  31.408  1.00  0.00    -0.206 F 
ATOM     78  C   UNL A   1      44.787  24.144  29.544  1.00  0.00     0.040 A 
ATOM     79  C   UNL A   1      44.370  25.204  27.430  1.00  0.00     0.040 A 
ATOM     80  F   UNL A   1      44.441  27.545  27.233  1.00  0.00    -0.206 F 
ATOM     81  C   UNL A   1      44.381  24.051  28.218  1.00  0.00     0.006 A 
ENDBRANCH  53  74
BRANCH  65  82
ATOM     82  C   UNL A   1      43.609  33.841  30.025  1.00  0.00     0.057 A 
ATOM     83  C   UNL A   1      43.731  34.259  28.692  1.00  0.00     0.134 A 
ATOM     84  C   UNL A   1      43.619  34.879  30.983  1.00  0.00     0.134 A 
ATOM     85  F   UNL A   1      43.636  33.396  27.671  1.00  0.00    -0.206 F 
ATOM     86  C   UNL A   1      43.894  35.603  28.338  1.00  0.00     0.040 A 
ATOM     87  C   UNL A   1      43.724  36.228  30.637  1.00  0.00     0.040 A 
ATOM     88  F   UNL A   1      43.489  34.632  32.295  1.00  0.00    -0.206 F 
ATOM     89  C   UNL A   1      43.875  36.595  29.309  1.00  0.00     0.006 A 
ENDBRANCH  65  82
ENDBRANCH  39  40
ENDBRANCH  32  34
ENDBRANCH  31  32
ENDBRANCH  30  31
ENDBRANCH   1  30
TORSDOF 16
ENDMDL
