MODEL 1
REMARK VINA RESULT:     -11.1      0.000      0.000
REMARK SMILES Cc1nc(C)c(C(=O)N[C@@H](Cc2ccccc2)C(=O)OCCOCCOC(=O)c2ccc(-c3c4nc(c(-c5c(F)cccc5F)c5ccc([nH]5)c(-c5c(F)cccc5F)c5nc(c(-c6c(F)cccc6F)c6ccc3[nH]6)C=C5)C=C4)cc2)s1
REMARK SMILES IDX 23 1 22 2 21 3 20 4 18 5 19 6 10 7 9 8 7 9 8 10 6 12 1 13
REMARK SMILES IDX 2 14 3 15 83 16 4 17 5 18 11 19 12 20 13 21 17 22 14 23
REMARK SMILES IDX 16 24 15 25 24 26 25 27 26 28 27 29 28 30 29 31 30 32 82 33
REMARK SMILES IDX 31 34 81 35 32 36 33 37 34 38 75 39 35 40 80 41 74 42 76 43
REMARK SMILES IDX 36 44 79 45 73 46 72 47 37 49 63 50 46 51 62 52 47 53 50 54
REMARK SMILES IDX 61 55 77 56 48 57 49 58 60 60 78 61 51 62 38 63 39 64 44 65
REMARK SMILES IDX 40 66 41 67 43 68 45 69 42 70 64 71 65 72 70 73 66 74 67 75
REMARK SMILES IDX 69 76 71 77 68 78 52 79 53 80 58 81 54 82 55 83 57 84 59 85
REMARK SMILES IDX 56 86
REMARK H PARENT 9 11 76 48 50 59
REMARK Flexibility Score: inf
ROOT
ATOM      1  O   UNL A   1      32.041  30.627  27.155  1.00  0.00    -0.374 OA
ENDROOT
BRANCH   1   2
ATOM      2  C   UNL A   1      33.265  30.229  26.541  1.00  0.00     0.202 C 
BRANCH   2   3
ATOM      3  C   UNL A   1      33.337  28.779  26.055  1.00  0.00     0.261 C 
BRANCH   3   4
ATOM      4  O   UNL A   1      32.499  28.560  24.910  1.00  0.00    -0.462 OA
BRANCH   4   5
ATOM      5  C   UNL A   1      33.138  28.195  23.762  1.00  0.00     0.329 C 
ATOM      6  O   UNL A   1      34.350  28.260  23.587  1.00  0.00    -0.250 OA
BRANCH   5   7
ATOM      7  C   UNL A   1      32.153  27.805  22.646  1.00  0.00     0.197 C 
BRANCH   7   8
ATOM      8  N   UNL A   1      32.609  26.669  21.826  1.00  0.00    -0.338 N 
ATOM      9  C   UNL A   1      32.733  25.317  22.045  1.00  0.00     0.263 C 
ATOM     10  O   UNL A   1      33.164  24.683  21.079  1.00  0.00    -0.268 OA
ATOM     11  H   UNL A   1      32.886  26.937  20.921  1.00  0.00     0.164 HD
BRANCH   9  12
ATOM     12  C   UNL A   1      32.409  24.661  23.303  1.00  0.00     0.115 A 
ATOM     13  C   UNL A   1      30.526  22.747  26.130  1.00  0.00     0.079 C 
ATOM     14  C   UNL A   1      31.439  23.443  25.183  1.00  0.00     0.091 A 
ATOM     15  N   UNL A   1      32.660  23.815  25.483  1.00  0.00    -0.246 NA
ATOM     16  S   UNL A   1      30.955  23.787  23.582  1.00  0.00    -0.113 S 
ATOM     17  C   UNL A   1      33.243  24.471  24.405  1.00  0.00     0.061 A 
ATOM     18  C   UNL A   1      34.666  24.880  24.583  1.00  0.00     0.068 C 
ENDBRANCH   9  12
ENDBRANCH   7   8
BRANCH   7  19
ATOM     19  C   UNL A   1      30.767  27.551  23.266  1.00  0.00     0.072 C 
BRANCH  19  20
ATOM     20  C   UNL A   1      29.701  28.539  22.853  1.00  0.00    -0.045 A 
ATOM     21  C   UNL A   1      28.363  28.332  23.212  1.00  0.00     0.004 A 
ATOM     22  C   UNL A   1      30.040  29.687  22.120  1.00  0.00     0.004 A 
ATOM     23  C   UNL A   1      27.386  29.260  22.853  1.00  0.00     0.000 A 
ATOM     24  C   UNL A   1      29.060  30.616  21.768  1.00  0.00     0.000 A 
ATOM     25  C   UNL A   1      27.734  30.403  22.134  1.00  0.00     0.000 A 
ENDBRANCH  19  20
ENDBRANCH   7  19
ENDBRANCH   5   7
ENDBRANCH   4   5
ENDBRANCH   3   4
ENDBRANCH   2   3
ENDBRANCH   1   2
BRANCH   1  26
ATOM     26  C   UNL A   1      31.421  31.822  26.677  1.00  0.00     0.202 C 
BRANCH  26  27
ATOM     27  C   UNL A   1      32.240  33.116  26.768  1.00  0.00     0.261 C 
BRANCH  27  28
ATOM     28  O   UNL A   1      32.150  33.751  28.057  1.00  0.00    -0.460 OA
BRANCH  28  29
ATOM     29  C   UNL A   1      33.229  34.498  28.395  1.00  0.00     0.338 C 
ATOM     30  O   UNL A   1      33.261  35.701  28.616  1.00  0.00    -0.246 OA
BRANCH  29  31
ATOM     31  C   UNL A   1      34.405  33.642  28.630  1.00  0.00     0.060 A 
ATOM     32  C   UNL A   1      34.195  32.413  29.266  1.00  0.00     0.016 A 
ATOM     33  C   UNL A   1      35.699  34.093  28.365  1.00  0.00     0.016 A 
ATOM     34  C   UNL A   1      35.282  31.650  29.687  1.00  0.00     0.010 A 
ATOM     35  C   UNL A   1      36.791  33.329  28.798  1.00  0.00     0.010 A 
ATOM     36  C   UNL A   1      36.587  32.123  29.493  1.00  0.00    -0.014 A 
BRANCH  36  37
ATOM     37  C   UNL A   1      37.721  31.420  30.142  1.00  0.00     0.031 A 
ATOM     38  C   UNL A   1      38.037  31.707  31.584  1.00  0.00     0.074 A 
ATOM     39  C   UNL A   1      38.437  30.503  29.466  1.00  0.00     0.049 A 
ATOM     40  N   UNL A   1      38.984  31.213  32.341  1.00  0.00    -0.248 NA
ATOM     41  C   UNL A   1      37.167  32.678  32.266  1.00  0.00     0.031 C 
ATOM     42  C   UNL A   1      38.207  30.105  28.080  1.00  0.00     0.029 A 
ATOM     43  N   UNL A   1      39.508  29.742  29.865  1.00  0.00    -0.354 N 
ATOM     44  C   UNL A   1      38.826  31.811  33.585  1.00  0.00     0.074 A 
ATOM     45  C   UNL A   1      37.708  32.726  33.475  1.00  0.00     0.031 C 
ATOM     46  C   UNL A   1      39.116  29.176  27.737  1.00  0.00     0.029 A 
ATOM     47  C   UNL A   1      40.006  28.934  28.872  1.00  0.00     0.049 A 
ATOM     48  H   UNL A   1      39.883  29.773  30.773  1.00  0.00     0.167 HD
ATOM     49  C   UNL A   1      39.539  31.612  34.719  1.00  0.00     0.037 A 
ATOM     50  C   UNL A   1      41.070  28.108  28.876  1.00  0.00     0.037 A 
ATOM     51  C   UNL A   1      40.651  30.706  34.833  1.00  0.00     0.049 A 
ATOM     52  C   UNL A   1      41.892  27.958  30.128  1.00  0.00     0.074 A 
ATOM     53  C   UNL A   1      41.426  30.426  35.946  1.00  0.00     0.029 A 
ATOM     54  N   UNL A   1      41.150  29.936  33.794  1.00  0.00    -0.354 N 
ATOM     55  N   UNL A   1      41.719  28.513  31.303  1.00  0.00    -0.248 NA
ATOM     56  C   UNL A   1      43.060  27.068  30.052  1.00  0.00     0.031 C 
ATOM     57  C   UNL A   1      42.420  29.516  35.569  1.00  0.00     0.029 A 
ATOM     58  C   UNL A   1      42.237  29.198  34.233  1.00  0.00     0.049 A 
ATOM     59  H   UNL A   1      40.784  29.915  32.880  1.00  0.00     0.167 HD
ATOM     60  C   UNL A   1      42.737  28.022  32.110  1.00  0.00     0.074 A 
ATOM     61  C   UNL A   1      43.517  27.114  31.296  1.00  0.00     0.031 C 
ATOM     62  C   UNL A   1      43.001  28.296  33.411  1.00  0.00     0.037 A 
BRANCH  49  63
ATOM     63  C   UNL A   1      39.149  32.408  35.928  1.00  0.00     0.057 A 
ATOM     64  C   UNL A   1      38.265  31.901  36.890  1.00  0.00     0.134 A 
ATOM     65  C   UNL A   1      39.691  33.680  36.153  1.00  0.00     0.134 A 
ATOM     66  F   UNL A   1      37.703  30.695  36.728  1.00  0.00    -0.206 F 
ATOM     67  C   UNL A   1      37.922  32.640  38.024  1.00  0.00     0.040 A 
ATOM     68  C   UNL A   1      39.371  34.418  37.292  1.00  0.00     0.040 A 
ATOM     69  F   UNL A   1      40.547  34.219  35.272  1.00  0.00    -0.206 F 
ATOM     70  C   UNL A   1      38.480  33.900  38.230  1.00  0.00     0.006 A 
ENDBRANCH  49  63
BRANCH  50  71
ATOM     71  C   UNL A   1      41.436  27.365  27.645  1.00  0.00     0.057 A 
ATOM     72  C   UNL A   1      42.224  27.953  26.649  1.00  0.00     0.134 A 
ATOM     73  C   UNL A   1      40.984  26.059  27.423  1.00  0.00     0.134 A 
ATOM     74  F   UNL A   1      42.666  29.211  26.793  1.00  0.00    -0.206 F 
ATOM     75  C   UNL A   1      42.537  27.275  25.470  1.00  0.00     0.040 A 
ATOM     76  C   UNL A   1      41.307  25.360  26.260  1.00  0.00     0.040 A 
ATOM     77  F   UNL A   1      40.225  25.441  28.340  1.00  0.00    -0.206 F 
ATOM     78  C   UNL A   1      42.081  25.973  25.276  1.00  0.00     0.006 A 
ENDBRANCH  50  71
BRANCH  62  79
ATOM     79  C   UNL A   1      44.165  27.588  34.041  1.00  0.00     0.057 A 
ATOM     80  C   UNL A   1      44.031  26.321  34.621  1.00  0.00     0.134 A 
ATOM     81  C   UNL A   1      45.440  28.166  34.031  1.00  0.00     0.134 A 
ATOM     82  F   UNL A   1      42.832  25.721  34.675  1.00  0.00    -0.206 F 
ATOM     83  C   UNL A   1      45.123  25.660  35.187  1.00  0.00     0.040 A 
ATOM     84  C   UNL A   1      46.544  27.505  34.572  1.00  0.00     0.040 A 
ATOM     85  F   UNL A   1      45.638  29.374  33.484  1.00  0.00    -0.206 F 
ATOM     86  C   UNL A   1      46.386  26.250  35.157  1.00  0.00     0.006 A 
ENDBRANCH  62  79
ENDBRANCH  36  37
ENDBRANCH  29  31
ENDBRANCH  28  29
ENDBRANCH  27  28
ENDBRANCH  26  27
ENDBRANCH   1  26
TORSDOF 18
ENDMDL
MODEL 2
REMARK VINA RESULT:     -11.1      0.847      6.102
REMARK SMILES Cc1nc(C)c(C(=O)N[C@@H](Cc2ccccc2)C(=O)OCCOCCOC(=O)c2ccc(-c3c4nc(c(-c5c(F)cccc5F)c5ccc([nH]5)c(-c5c(F)cccc5F)c5nc(c(-c6c(F)cccc6F)c6ccc3[nH]6)C=C5)C=C4)cc2)s1
REMARK SMILES IDX 23 1 22 2 21 3 20 4 18 5 19 6 10 7 9 8 7 9 8 10 6 12 1 13
REMARK SMILES IDX 2 14 3 15 83 16 4 17 5 18 11 19 12 20 13 21 17 22 14 23
REMARK SMILES IDX 16 24 15 25 24 26 25 27 26 28 27 29 28 30 29 31 30 32 82 33
REMARK SMILES IDX 31 34 81 35 32 36 33 37 34 38 75 39 35 40 80 41 74 42 76 43
REMARK SMILES IDX 36 44 79 45 73 46 72 47 37 49 63 50 46 51 62 52 47 53 50 54
REMARK SMILES IDX 61 55 77 56 48 57 49 58 60 60 78 61 51 62 38 63 39 64 44 65
REMARK SMILES IDX 40 66 41 67 43 68 45 69 42 70 64 71 65 72 70 73 66 74 67 75
REMARK SMILES IDX 69 76 71 77 68 78 52 79 53 80 58 81 54 82 55 83 57 84 59 85
REMARK SMILES IDX 56 86
REMARK H PARENT 9 11 76 48 50 59
REMARK Flexibility Score: inf
ROOT
ATOM      1  O   UNL A   1      31.751  30.663  26.856  1.00  0.00    -0.374 OA
ENDROOT
BRANCH   1   2
ATOM      2  C   UNL A   1      33.127  30.370  27.091  1.00  0.00     0.202 C 
BRANCH   2   3
ATOM      3  C   UNL A   1      33.767  29.337  26.160  1.00  0.00     0.261 C 
BRANCH   3   4
ATOM      4  O   UNL A   1      32.823  28.824  25.207  1.00  0.00    -0.462 OA
BRANCH   4   5
ATOM      5  C   UNL A   1      33.317  28.550  23.966  1.00  0.00     0.329 C 
ATOM      6  O   UNL A   1      34.498  28.638  23.649  1.00  0.00    -0.250 OA
BRANCH   5   7
ATOM      7  C   UNL A   1      32.203  28.232  22.953  1.00  0.00     0.197 C 
BRANCH   7   8
ATOM      8  N   UNL A   1      32.593  27.241  21.936  1.00  0.00    -0.338 N 
ATOM      9  C   UNL A   1      32.911  25.903  21.973  1.00  0.00     0.263 C 
ATOM     10  O   UNL A   1      33.190  25.417  20.874  1.00  0.00    -0.268 OA
ATOM     11  H   UNL A   1      32.637  27.620  21.029  1.00  0.00     0.164 HD
BRANCH   9  12
ATOM     12  C   UNL A   1      32.941  25.105  23.189  1.00  0.00     0.115 A 
ATOM     13  C   UNL A   1      34.106  23.387  26.490  1.00  0.00     0.079 C 
ATOM     14  C   UNL A   1      33.444  23.970  25.291  1.00  0.00     0.091 A 
ATOM     15  N   UNL A   1      32.223  23.676  24.913  1.00  0.00    -0.246 NA
ATOM     16  S   UNL A   1      34.242  25.121  24.313  1.00  0.00    -0.113 S 
ATOM     17  C   UNL A   1      31.905  24.351  23.741  1.00  0.00     0.061 A 
ATOM     18  C   UNL A   1      30.513  24.168  23.241  1.00  0.00     0.068 C 
ENDBRANCH   9  12
ENDBRANCH   7   8
BRANCH   7  19
ATOM     19  C   UNL A   1      30.936  27.807  23.718  1.00  0.00     0.072 C 
BRANCH  19  20
ATOM     20  C   UNL A   1      29.747  28.721  23.526  1.00  0.00    -0.045 A 
ATOM     21  C   UNL A   1      29.878  30.103  23.707  1.00  0.00     0.004 A 
ATOM     22  C   UNL A   1      28.501  28.198  23.147  1.00  0.00     0.004 A 
ATOM     23  C   UNL A   1      28.785  30.946  23.503  1.00  0.00     0.000 A 
ATOM     24  C   UNL A   1      27.412  29.045  22.938  1.00  0.00     0.000 A 
ATOM     25  C   UNL A   1      27.555  30.419  23.115  1.00  0.00     0.000 A 
ENDBRANCH  19  20
ENDBRANCH   7  19
ENDBRANCH   5   7
ENDBRANCH   4   5
ENDBRANCH   3   4
ENDBRANCH   2   3
ENDBRANCH   1   2
BRANCH   1  26
ATOM     26  C   UNL A   1      31.402  32.023  26.588  1.00  0.00     0.202 C 
BRANCH  26  27
ATOM     27  C   UNL A   1      32.471  33.085  26.877  1.00  0.00     0.261 C 
BRANCH  27  28
ATOM     28  O   UNL A   1      32.174  33.883  28.038  1.00  0.00    -0.460 OA
BRANCH  28  29
ATOM     29  C   UNL A   1      33.206  34.641  28.481  1.00  0.00     0.338 C 
ATOM     30  O   UNL A   1      33.198  35.842  28.719  1.00  0.00    -0.246 OA
BRANCH  29  31
ATOM     31  C   UNL A   1      34.369  33.801  28.811  1.00  0.00     0.060 A 
ATOM     32  C   UNL A   1      34.150  32.682  29.625  1.00  0.00     0.016 A 
ATOM     33  C   UNL A   1      35.665  34.176  28.453  1.00  0.00     0.016 A 
ATOM     34  C   UNL A   1      35.232  31.962  30.128  1.00  0.00     0.010 A 
ATOM     35  C   UNL A   1      36.751  33.456  28.968  1.00  0.00     0.010 A 
ATOM     36  C   UNL A   1      36.541  32.370  29.836  1.00  0.00    -0.014 A 
BRANCH  36  37
ATOM     37  C   UNL A   1      37.677  31.741  30.555  1.00  0.00     0.031 A 
ATOM     38  C   UNL A   1      38.496  30.689  29.859  1.00  0.00     0.074 A 
ATOM     39  C   UNL A   1      38.002  32.133  31.799  1.00  0.00     0.049 A 
ATOM     40  N   UNL A   1      39.522  30.007  30.303  1.00  0.00    -0.248 NA
ATOM     41  C   UNL A   1      38.109  30.362  28.478  1.00  0.00     0.031 C 
ATOM     42  C   UNL A   1      37.315  33.169  32.567  1.00  0.00     0.029 A 
ATOM     43  N   UNL A   1      39.000  31.697  32.636  1.00  0.00    -0.354 N 
ATOM     44  C   UNL A   1      39.903  29.173  29.259  1.00  0.00     0.074 A 
ATOM     45  C   UNL A   1      38.982  29.414  28.168  1.00  0.00     0.031 C 
ATOM     46  C   UNL A   1      37.907  33.287  33.767  1.00  0.00     0.029 A 
ATOM     47  C   UNL A   1      38.996  32.316  33.862  1.00  0.00     0.049 A 
ATOM     48  H   UNL A   1      39.654  31.008  32.382  1.00  0.00     0.167 HD
ATOM     49  C   UNL A   1      40.932  28.294  29.209  1.00  0.00     0.037 A 
ATOM     50  C   UNL A   1      39.774  32.108  34.943  1.00  0.00     0.037 A 
ATOM     51  C   UNL A   1      41.850  28.051  30.290  1.00  0.00     0.049 A 
ATOM     52  C   UNL A   1      40.865  31.073  34.887  1.00  0.00     0.074 A 
ATOM     53  C   UNL A   1      42.932  27.189  30.326  1.00  0.00     0.029 A 
ATOM     54  N   UNL A   1      41.788  28.668  31.530  1.00  0.00    -0.354 N 
ATOM     55  N   UNL A   1      41.228  30.307  33.887  1.00  0.00    -0.248 NA
ATOM     56  C   UNL A   1      41.653  30.873  36.112  1.00  0.00     0.031 C 
ATOM     57  C   UNL A   1      43.502  27.255  31.603  1.00  0.00     0.029 A 
ATOM     58  C   UNL A   1      42.799  28.189  32.347  1.00  0.00     0.049 A 
ATOM     59  H   UNL A   1      41.125  29.348  31.790  1.00  0.00     0.167 HD
ATOM     60  C   UNL A   1      42.299  29.554  34.353  1.00  0.00     0.074 A 
ATOM     61  C   UNL A   1      42.536  29.964  35.721  1.00  0.00     0.031 C 
ATOM     62  C   UNL A   1      43.024  28.610  33.705  1.00  0.00     0.037 A 
BRANCH  49  63
ATOM     63  C   UNL A   1      41.108  27.510  27.942  1.00  0.00     0.057 A 
ATOM     64  C   UNL A   1      40.474  26.277  27.746  1.00  0.00     0.134 A 
ATOM     65  C   UNL A   1      41.890  28.012  26.894  1.00  0.00     0.134 A 
ATOM     66  F   UNL A   1      39.721  25.737  28.716  1.00  0.00    -0.206 F 
ATOM     67  C   UNL A   1      40.626  25.562  26.557  1.00  0.00     0.040 A 
ATOM     68  C   UNL A   1      42.032  27.316  25.693  1.00  0.00     0.040 A 
ATOM     69  F   UNL A   1      42.519  29.190  27.018  1.00  0.00    -0.206 F 
ATOM     70  C   UNL A   1      41.402  26.085  25.524  1.00  0.00     0.006 A 
ENDBRANCH  49  63
BRANCH  50  71
ATOM     71  C   UNL A   1      39.541  32.886  36.184  1.00  0.00     0.057 A 
ATOM     72  C   UNL A   1      40.223  34.083  36.430  1.00  0.00     0.134 A 
ATOM     73  C   UNL A   1      38.649  32.438  37.166  1.00  0.00     0.134 A 
ATOM     74  F   UNL A   1      41.109  34.550  35.537  1.00  0.00    -0.206 F 
ATOM     75  C   UNL A   1      40.041  34.798  37.615  1.00  0.00     0.040 A 
ATOM     76  C   UNL A   1      38.440  33.154  38.345  1.00  0.00     0.040 A 
ATOM     77  F   UNL A   1      37.965  31.299  36.989  1.00  0.00    -0.206 F 
ATOM     78  C   UNL A   1      39.143  34.335  38.574  1.00  0.00     0.006 A 
ENDBRANCH  50  71
BRANCH  62  79
ATOM     79  C   UNL A   1      44.155  27.973  34.458  1.00  0.00     0.057 A 
ATOM     80  C   UNL A   1      43.986  26.781  35.174  1.00  0.00     0.134 A 
ATOM     81  C   UNL A   1      45.436  28.538  34.433  1.00  0.00     0.134 A 
ATOM     82  F   UNL A   1      42.780  26.198  35.248  1.00  0.00    -0.206 F 
ATOM     83  C   UNL A   1      45.048  26.184  35.855  1.00  0.00     0.040 A 
ATOM     84  C   UNL A   1      46.511  27.938  35.090  1.00  0.00     0.040 A 
ATOM     85  F   UNL A   1      45.667  29.674  33.759  1.00  0.00    -0.206 F 
ATOM     86  C   UNL A   1      46.317  26.759  35.808  1.00  0.00     0.006 A 
ENDBRANCH  62  79
ENDBRANCH  36  37
ENDBRANCH  29  31
ENDBRANCH  28  29
ENDBRANCH  27  28
ENDBRANCH  26  27
ENDBRANCH   1  26
TORSDOF 18
ENDMDL
MODEL 3
REMARK VINA RESULT:     -10.9      4.374      9.150
REMARK SMILES Cc1nc(C)c(C(=O)N[C@@H](Cc2ccccc2)C(=O)OCCOCCOC(=O)c2ccc(-c3c4nc(c(-c5c(F)cccc5F)c5ccc([nH]5)c(-c5c(F)cccc5F)c5nc(c(-c6c(F)cccc6F)c6ccc3[nH]6)C=C5)C=C4)cc2)s1
REMARK SMILES IDX 23 1 22 2 21 3 20 4 18 5 19 6 10 7 9 8 7 9 8 10 6 12 1 13
REMARK SMILES IDX 2 14 3 15 83 16 4 17 5 18 11 19 12 20 13 21 17 22 14 23
REMARK SMILES IDX 16 24 15 25 24 26 25 27 26 28 27 29 28 30 29 31 30 32 82 33
REMARK SMILES IDX 31 34 81 35 32 36 33 37 34 38 75 39 35 40 80 41 74 42 76 43
REMARK SMILES IDX 36 44 79 45 73 46 72 47 37 49 63 50 46 51 62 52 47 53 50 54
REMARK SMILES IDX 61 55 77 56 48 57 49 58 60 60 78 61 51 62 38 63 39 64 44 65
REMARK SMILES IDX 40 66 41 67 43 68 45 69 42 70 64 71 65 72 70 73 66 74 67 75
REMARK SMILES IDX 69 76 71 77 68 78 52 79 53 80 58 81 54 82 55 83 57 84 59 85
REMARK SMILES IDX 56 86
REMARK H PARENT 9 11 76 48 50 59
REMARK Flexibility Score: inf
ROOT
ATOM      1  O   UNL A   1      37.411  20.740  24.680  1.00  0.00    -0.374 OA
ENDROOT
BRANCH   1   2
ATOM      2  C   UNL A   1      36.027  20.691  25.023  1.00  0.00     0.202 C 
BRANCH   2   3
ATOM      3  C   UNL A   1      35.504  21.842  25.888  1.00  0.00     0.261 C 
BRANCH   3   4
ATOM      4  O   UNL A   1      34.798  22.816  25.106  1.00  0.00    -0.462 OA
BRANCH   4   5
ATOM      5  C   UNL A   1      35.295  24.085  25.140  1.00  0.00     0.329 C 
ATOM      6  O   UNL A   1      36.351  24.407  25.674  1.00  0.00    -0.250 OA
BRANCH   5   7
ATOM      7  C   UNL A   1      34.319  25.110  24.538  1.00  0.00     0.197 C 
BRANCH   7   8
ATOM      8  N   UNL A   1      33.948  24.824  23.141  1.00  0.00    -0.338 N 
ATOM      9  C   UNL A   1      33.144  25.448  22.216  1.00  0.00     0.263 C 
ATOM     10  O   UNL A   1      33.092  24.879  21.122  1.00  0.00    -0.268 OA
ATOM     11  H   UNL A   1      34.369  24.005  22.793  1.00  0.00     0.164 HD
BRANCH   9  12
ATOM     12  C   UNL A   1      32.391  26.665  22.477  1.00  0.00     0.115 A 
ATOM     13  C   UNL A   1      29.494  29.169  23.211  1.00  0.00     0.079 C 
ATOM     14  C   UNL A   1      30.744  28.395  22.979  1.00  0.00     0.091 A 
ATOM     15  N   UNL A   1      31.928  28.941  22.844  1.00  0.00    -0.246 NA
ATOM     16  S   UNL A   1      30.726  26.689  22.902  1.00  0.00    -0.113 S 
ATOM     17  C   UNL A   1      32.886  27.964  22.603  1.00  0.00     0.061 A 
ATOM     18  C   UNL A   1      34.295  28.441  22.507  1.00  0.00     0.068 C 
ENDBRANCH   9  12
ENDBRANCH   7   8
BRANCH   7  19
ATOM     19  C   UNL A   1      33.085  25.225  25.451  1.00  0.00     0.072 C 
BRANCH  19  20
ATOM     20  C   UNL A   1      32.877  26.593  26.061  1.00  0.00    -0.045 A 
ATOM     21  C   UNL A   1      31.634  26.948  26.598  1.00  0.00     0.004 A 
ATOM     22  C   UNL A   1      33.932  27.516  26.113  1.00  0.00     0.004 A 
ATOM     23  C   UNL A   1      31.453  28.201  27.185  1.00  0.00     0.000 A 
ATOM     24  C   UNL A   1      33.749  28.766  26.706  1.00  0.00     0.000 A 
ATOM     25  C   UNL A   1      32.510  29.108  27.242  1.00  0.00     0.000 A 
ENDBRANCH  19  20
ENDBRANCH   7  19
ENDBRANCH   5   7
ENDBRANCH   4   5
ENDBRANCH   3   4
ENDBRANCH   2   3
ENDBRANCH   1   2
BRANCH   1  26
ATOM     26  C   UNL A   1      38.227  21.694  25.361  1.00  0.00     0.202 C 
BRANCH  26  27
ATOM     27  C   UNL A   1      39.383  21.144  26.206  1.00  0.00     0.261 C 
BRANCH  27  28
ATOM     28  O   UNL A   1      39.919  19.909  25.693  1.00  0.00    -0.460 OA
BRANCH  28  29
ATOM     29  C   UNL A   1      41.191  19.643  26.076  1.00  0.00     0.338 C 
ATOM     30  O   UNL A   1      41.790  18.581  25.980  1.00  0.00    -0.246 OA
BRANCH  29  31
ATOM     31  C   UNL A   1      41.874  20.873  26.510  1.00  0.00     0.060 A 
ATOM     32  C   UNL A   1      41.927  21.135  27.885  1.00  0.00     0.016 A 
ATOM     33  C   UNL A   1      42.326  21.821  25.589  1.00  0.00     0.016 A 
ATOM     34  C   UNL A   1      42.385  22.368  28.344  1.00  0.00     0.010 A 
ATOM     35  C   UNL A   1      42.778  23.063  26.053  1.00  0.00     0.010 A 
ATOM     36  C   UNL A   1      42.775  23.356  27.428  1.00  0.00    -0.014 A 
BRANCH  36  37
ATOM     37  C   UNL A   1      43.042  24.733  27.912  1.00  0.00     0.031 A 
ATOM     38  C   UNL A   1      44.463  25.167  28.149  1.00  0.00     0.074 A 
ATOM     39  C   UNL A   1      42.033  25.602  28.099  1.00  0.00     0.049 A 
ATOM     40  N   UNL A   1      44.919  26.317  28.577  1.00  0.00    -0.248 NA
ATOM     41  C   UNL A   1      45.509  24.173  27.863  1.00  0.00     0.031 C 
ATOM     42  C   UNL A   1      40.619  25.319  27.867  1.00  0.00     0.029 A 
ATOM     43  N   UNL A   1      42.052  26.905  28.531  1.00  0.00    -0.354 N 
ATOM     44  C   UNL A   1      46.302  26.186  28.612  1.00  0.00     0.074 A 
ATOM     45  C   UNL A   1      46.610  24.837  28.188  1.00  0.00     0.031 C 
ATOM     46  C   UNL A   1      39.901  26.415  28.166  1.00  0.00     0.029 A 
ATOM     47  C   UNL A   1      40.802  27.466  28.635  1.00  0.00     0.049 A 
ATOM     48  H   UNL A   1      42.880  27.391  28.746  1.00  0.00     0.167 HD
ATOM     49  C   UNL A   1      47.233  27.108  28.956  1.00  0.00     0.037 A 
ATOM     50  C   UNL A   1      40.430  28.684  29.076  1.00  0.00     0.037 A 
ATOM     51  C   UNL A   1      46.932  28.450  29.379  1.00  0.00     0.049 A 
ATOM     52  C   UNL A   1      41.479  29.667  29.522  1.00  0.00     0.074 A 
ATOM     53  C   UNL A   1      47.809  29.461  29.734  1.00  0.00     0.029 A 
ATOM     54  N   UNL A   1      45.653  28.967  29.510  1.00  0.00    -0.354 N 
ATOM     55  N   UNL A   1      42.784  29.538  29.530  1.00  0.00    -0.248 NA
ATOM     56  C   UNL A   1      41.002  30.964  30.024  1.00  0.00     0.031 C 
ATOM     57  C   UNL A   1      47.058  30.577  30.119  1.00  0.00     0.029 A 
ATOM     58  C   UNL A   1      45.715  30.275  29.963  1.00  0.00     0.049 A 
ATOM     59  H   UNL A   1      44.822  28.478  29.309  1.00  0.00     0.167 HD
ATOM     60  C   UNL A   1      43.282  30.742  30.011  1.00  0.00     0.074 A 
ATOM     61  C   UNL A   1      42.142  31.594  30.274  1.00  0.00     0.031 C 
ATOM     62  C   UNL A   1      44.571  31.111  30.216  1.00  0.00     0.037 A 
BRANCH  49  63
ATOM     63  C   UNL A   1      48.671  26.688  28.909  1.00  0.00     0.057 A 
ATOM     64  C   UNL A   1      49.304  26.106  30.014  1.00  0.00     0.134 A 
ATOM     65  C   UNL A   1      49.420  26.831  27.734  1.00  0.00     0.134 A 
ATOM     66  F   UNL A   1      48.645  25.950  31.172  1.00  0.00    -0.206 F 
ATOM     67  C   UNL A   1      50.638  25.697  29.958  1.00  0.00     0.040 A 
ATOM     68  C   UNL A   1      50.748  26.408  27.659  1.00  0.00     0.040 A 
ATOM     69  F   UNL A   1      48.870  27.377  26.640  1.00  0.00    -0.206 F 
ATOM     70  C   UNL A   1      51.361  25.843  28.775  1.00  0.00     0.006 A 
ENDBRANCH  49  63
BRANCH  50  71
ATOM     71  C   UNL A   1      38.992  29.043  29.134  1.00  0.00     0.057 A 
ATOM     72  C   UNL A   1      38.257  28.906  30.317  1.00  0.00     0.134 A 
ATOM     73  C   UNL A   1      38.313  29.508  28.002  1.00  0.00     0.134 A 
ATOM     74  F   UNL A   1      38.848  28.441  31.428  1.00  0.00    -0.206 F 
ATOM     75  C   UNL A   1      36.894  29.202  30.368  1.00  0.00     0.040 A 
ATOM     76  C   UNL A   1      36.956  29.829  28.043  1.00  0.00     0.040 A 
ATOM     77  F   UNL A   1      38.963  29.661  26.838  1.00  0.00    -0.206 F 
ATOM     78  C   UNL A   1      36.241  29.669  29.229  1.00  0.00     0.006 A 
ENDBRANCH  50  71
BRANCH  62  79
ATOM     79  C   UNL A   1      44.817  32.501  30.725  1.00  0.00     0.057 A 
ATOM     80  C   UNL A   1      44.907  33.597  29.859  1.00  0.00     0.134 A 
ATOM     81  C   UNL A   1      44.923  32.748  32.099  1.00  0.00     0.134 A 
ATOM     82  F   UNL A   1      44.827  33.424  28.532  1.00  0.00    -0.206 F 
ATOM     83  C   UNL A   1      45.115  34.891  30.342  1.00  0.00     0.040 A 
ATOM     84  C   UNL A   1      45.108  34.040  32.595  1.00  0.00     0.040 A 
ATOM     85  F   UNL A   1      44.837  31.743  32.982  1.00  0.00    -0.206 F 
ATOM     86  C   UNL A   1      45.209  35.115  31.715  1.00  0.00     0.006 A 
ENDBRANCH  62  79
ENDBRANCH  36  37
ENDBRANCH  29  31
ENDBRANCH  28  29
ENDBRANCH  27  28
ENDBRANCH  26  27
ENDBRANCH   1  26
TORSDOF 18
ENDMDL
