MODEL 1
REMARK VINA RESULT:      -8.8      0.000      0.000
REMARK SMILES O=C(Cc1ccc(=O)n(C(F)F)c1)OCCOCCOC(=O)c1ccc(-c2c3nc(c(-c4c(F)cccc4F)c4ccc([nH]4)c(-c4c(F)cccc4F)c4nc(c(-c5c(F)cccc5F)c5ccc2[nH]5)C=C4)C=C3)cc1
REMARK SMILES IDX 17 1 16 2 15 3 14 4 2 5 1 6 3 7 4 8 5 9 13 10 6 11 9 12 7 13
REMARK SMILES IDX 8 14 10 15 11 16 12 17 18 18 19 19 20 20 21 21 22 22 23 23
REMARK SMILES IDX 24 24 76 25 25 26 75 27 26 28 27 29 28 30 69 31 29 32 74 33
REMARK SMILES IDX 68 34 70 35 30 36 73 37 67 38 66 39 31 41 57 42 40 43 56 44
REMARK SMILES IDX 41 45 44 46 55 47 71 48 42 49 43 50 54 52 72 53 45 54 32 55
REMARK SMILES IDX 33 56 38 57 34 58 35 59 37 60 39 61 36 62 58 63 59 64 64 65
REMARK SMILES IDX 60 66 61 67 63 68 65 69 62 70 46 71 47 72 52 73 48 74 49 75
REMARK SMILES IDX 51 76 53 77 50 78
REMARK H PARENT 70 40 44 51
REMARK Flexibility Score: inf
ROOT
ATOM      1  O   UNL A   1      33.430  35.835  32.802  1.00  0.00    -0.374 OA
ENDROOT
BRANCH   1   2
ATOM      2  C   UNL A   1      34.791  35.743  33.189  1.00  0.00     0.202 C 
BRANCH   2   3
ATOM      3  C   UNL A   1      35.220  34.551  34.044  1.00  0.00     0.261 C 
BRANCH   3   4
ATOM      4  O   UNL A   1      36.608  34.476  34.395  1.00  0.00    -0.463 OA
BRANCH   4   5
ATOM      5  C   UNL A   1      37.110  33.604  35.308  1.00  0.00     0.310 C 
ATOM      6  O   UNL A   1      36.476  33.350  36.331  1.00  0.00    -0.252 OA
BRANCH   5   7
ATOM      7  C   UNL A   1      38.490  33.011  35.075  1.00  0.00     0.159 C 
BRANCH   7   8
ATOM      8  C   UNL A   1      38.602  31.674  34.394  1.00  0.00    -0.020 A 
ATOM      9  C   UNL A   1      37.491  31.066  33.691  1.00  0.00     0.011 A 
ATOM     10  C   UNL A   1      39.784  31.033  34.390  1.00  0.00     0.099 A 
ATOM     11  C   UNL A   1      37.668  29.977  32.935  1.00  0.00     0.072 A 
ATOM     12  N   UNL A   1      39.974  29.857  33.688  1.00  0.00    -0.258 N 
ATOM     13  C   UNL A   1      38.989  29.295  32.893  1.00  0.00     0.254 A 
ATOM     14  O   UNL A   1      39.109  28.295  32.193  1.00  0.00    -0.269 OA
BRANCH  12  15
ATOM     15  C   UNL A   1      41.200  29.117  33.835  1.00  0.00     0.451 C 
ATOM     16  F   UNL A   1      42.049  29.785  34.656  1.00  0.00    -0.185 F 
ATOM     17  F   UNL A   1      40.993  27.886  34.358  1.00  0.00    -0.185 F 
ENDBRANCH  12  15
ENDBRANCH   7   8
ENDBRANCH   5   7
ENDBRANCH   4   5
ENDBRANCH   3   4
ENDBRANCH   2   3
ENDBRANCH   1   2
BRANCH   1  18
ATOM     18  C   UNL A   1      33.053  36.879  31.900  1.00  0.00     0.202 C 
BRANCH  18  19
ATOM     19  C   UNL A   1      32.916  36.510  30.421  1.00  0.00     0.261 C 
BRANCH  19  20
ATOM     20  O   UNL A   1      32.713  35.096  30.257  1.00  0.00    -0.460 OA
BRANCH  20  21
ATOM     21  C   UNL A   1      33.078  34.576  29.061  1.00  0.00     0.338 C 
ATOM     22  O   UNL A   1      32.579  34.798  27.970  1.00  0.00    -0.246 OA
BRANCH  21  23
ATOM     23  C   UNL A   1      34.353  33.862  29.245  1.00  0.00     0.060 A 
ATOM     24  C   UNL A   1      35.359  33.951  28.282  1.00  0.00     0.016 A 
ATOM     25  C   UNL A   1      34.539  33.104  30.409  1.00  0.00     0.016 A 
ATOM     26  C   UNL A   1      36.571  33.302  28.502  1.00  0.00     0.010 A 
ATOM     27  C   UNL A   1      35.751  32.450  30.624  1.00  0.00     0.010 A 
ATOM     28  C   UNL A   1      36.782  32.566  29.681  1.00  0.00    -0.014 A 
BRANCH  28  29
ATOM     29  C   UNL A   1      38.133  32.046  29.987  1.00  0.00     0.031 A 
ATOM     30  C   UNL A   1      39.095  32.820  30.834  1.00  0.00     0.074 A 
ATOM     31  C   UNL A   1      38.478  30.850  29.472  1.00  0.00     0.049 A 
ATOM     32  N   UNL A   1      40.296  32.482  31.229  1.00  0.00    -0.248 NA
ATOM     33  C   UNL A   1      38.656  34.144  31.297  1.00  0.00     0.031 C 
ATOM     34  C   UNL A   1      37.621  30.027  28.616  1.00  0.00     0.029 A 
ATOM     35  N   UNL A   1      39.630  30.119  29.594  1.00  0.00    -0.354 N 
ATOM     36  C   UNL A   1      40.753  33.541  32.000  1.00  0.00     0.074 A 
ATOM     37  C   UNL A   1      39.717  34.553  31.985  1.00  0.00     0.031 C 
ATOM     38  C   UNL A   1      38.270  28.894  28.306  1.00  0.00     0.029 A 
ATOM     39  C   UNL A   1      39.597  28.927  28.911  1.00  0.00     0.049 A 
ATOM     40  H   UNL A   1      40.406  30.418  30.120  1.00  0.00     0.167 HD
ATOM     41  C   UNL A   1      41.928  33.647  32.668  1.00  0.00     0.037 A 
ATOM     42  C   UNL A   1      40.538  27.976  28.781  1.00  0.00     0.037 A 
ATOM     43  C   UNL A   1      42.959  32.639  32.659  1.00  0.00     0.049 A 
ATOM     44  C   UNL A   1      41.855  28.157  29.483  1.00  0.00     0.074 A 
ATOM     45  C   UNL A   1      44.171  32.640  33.327  1.00  0.00     0.029 A 
ATOM     46  N   UNL A   1      42.905  31.456  31.934  1.00  0.00    -0.354 N 
ATOM     47  N   UNL A   1      42.247  29.128  30.272  1.00  0.00    -0.248 NA
ATOM     48  C   UNL A   1      42.862  27.106  29.280  1.00  0.00     0.031 C 
ATOM     49  C   UNL A   1      44.875  31.489  32.961  1.00  0.00     0.029 A 
ATOM     50  C   UNL A   1      44.075  30.737  32.116  1.00  0.00     0.049 A 
ATOM     51  H   UNL A   1      42.148  31.172  31.374  1.00  0.00     0.167 HD
ATOM     52  C   UNL A   1      43.524  28.784  30.692  1.00  0.00     0.074 A 
ATOM     53  C   UNL A   1      43.837  27.510  30.079  1.00  0.00     0.031 C 
ATOM     54  C   UNL A   1      44.362  29.459  31.515  1.00  0.00     0.037 A 
BRANCH  41  55
ATOM     55  C   UNL A   1      42.174  34.898  33.459  1.00  0.00     0.057 A 
ATOM     56  C   UNL A   1      42.806  36.003  32.874  1.00  0.00     0.134 A 
ATOM     57  C   UNL A   1      41.853  34.985  34.820  1.00  0.00     0.134 A 
ATOM     58  F   UNL A   1      43.150  35.983  31.577  1.00  0.00    -0.206 F 
ATOM     59  C   UNL A   1      43.117  37.144  33.614  1.00  0.00     0.040 A 
ATOM     60  C   UNL A   1      42.137  36.131  35.566  1.00  0.00     0.040 A 
ATOM     61  F   UNL A   1      41.242  33.965  35.441  1.00  0.00    -0.206 F 
ATOM     62  C   UNL A   1      42.779  37.212  34.964  1.00  0.00     0.006 A 
ENDBRANCH  41  55
BRANCH  42  63
ATOM     63  C   UNL A   1      40.284  26.768  27.954  1.00  0.00     0.057 A 
ATOM     64  C   UNL A   1      40.834  26.633  26.674  1.00  0.00     0.134 A 
ATOM     65  C   UNL A   1      39.535  25.694  28.450  1.00  0.00     0.134 A 
ATOM     66  F   UNL A   1      41.551  27.630  26.135  1.00  0.00    -0.206 F 
ATOM     67  C   UNL A   1      40.661  25.471  25.922  1.00  0.00     0.040 A 
ATOM     68  C   UNL A   1      39.381  24.513  27.723  1.00  0.00     0.040 A 
ATOM     69  F   UNL A   1      38.994  25.757  29.676  1.00  0.00    -0.206 F 
ATOM     70  C   UNL A   1      39.946  24.399  26.454  1.00  0.00     0.006 A 
ENDBRANCH  42  63
BRANCH  54  71
ATOM     71  C   UNL A   1      45.670  28.803  31.851  1.00  0.00     0.057 A 
ATOM     72  C   UNL A   1      45.778  27.976  32.978  1.00  0.00     0.134 A 
ATOM     73  C   UNL A   1      46.825  29.008  31.087  1.00  0.00     0.134 A 
ATOM     74  F   UNL A   1      44.711  27.744  33.756  1.00  0.00    -0.206 F 
ATOM     75  C   UNL A   1      46.988  27.383  33.334  1.00  0.00     0.040 A 
ATOM     76  C   UNL A   1      48.036  28.394  31.417  1.00  0.00     0.040 A 
ATOM     77  F   UNL A   1      46.787  29.774  29.987  1.00  0.00    -0.206 F 
ATOM     78  C   UNL A   1      48.120  27.585  32.549  1.00  0.00     0.006 A 
ENDBRANCH  54  71
ENDBRANCH  28  29
ENDBRANCH  21  23
ENDBRANCH  20  21
ENDBRANCH  19  20
ENDBRANCH  18  19
ENDBRANCH   1  18
TORSDOF 16
ENDMDL
MODEL 2
REMARK VINA RESULT:      -8.4      0.477      6.489
REMARK SMILES O=C(Cc1ccc(=O)n(C(F)F)c1)OCCOCCOC(=O)c1ccc(-c2c3nc(c(-c4c(F)cccc4F)c4ccc([nH]4)c(-c4c(F)cccc4F)c4nc(c(-c5c(F)cccc5F)c5ccc2[nH]5)C=C4)C=C3)cc1
REMARK SMILES IDX 17 1 16 2 15 3 14 4 2 5 1 6 3 7 4 8 5 9 13 10 6 11 9 12 7 13
REMARK SMILES IDX 8 14 10 15 11 16 12 17 18 18 19 19 20 20 21 21 22 22 23 23
REMARK SMILES IDX 24 24 76 25 25 26 75 27 26 28 27 29 28 30 69 31 29 32 74 33
REMARK SMILES IDX 68 34 70 35 30 36 73 37 67 38 66 39 31 41 57 42 40 43 56 44
REMARK SMILES IDX 41 45 44 46 55 47 71 48 42 49 43 50 54 52 72 53 45 54 32 55
REMARK SMILES IDX 33 56 38 57 34 58 35 59 37 60 39 61 36 62 58 63 59 64 64 65
REMARK SMILES IDX 60 66 61 67 63 68 65 69 62 70 46 71 47 72 52 73 48 74 49 75
REMARK SMILES IDX 51 76 53 77 50 78
REMARK H PARENT 70 40 44 51
REMARK Flexibility Score: inf
ROOT
ATOM      1  O   UNL A   1      33.646  35.444  32.100  1.00  0.00    -0.374 OA
ENDROOT
BRANCH   1   2
ATOM      2  C   UNL A   1      34.811  35.635  32.886  1.00  0.00     0.202 C 
BRANCH   2   3
ATOM      3  C   UNL A   1      35.188  34.548  33.891  1.00  0.00     0.261 C 
BRANCH   3   4
ATOM      4  O   UNL A   1      36.515  34.604  34.432  1.00  0.00    -0.463 OA
BRANCH   4   5
ATOM      5  C   UNL A   1      36.980  33.753  35.384  1.00  0.00     0.310 C 
ATOM      6  O   UNL A   1      36.280  33.477  36.357  1.00  0.00    -0.252 OA
BRANCH   5   7
ATOM      7  C   UNL A   1      38.395  33.214  35.260  1.00  0.00     0.159 C 
BRANCH   7   8
ATOM      8  C   UNL A   1      38.606  31.858  34.644  1.00  0.00    -0.020 A 
ATOM      9  C   UNL A   1      37.595  31.209  33.834  1.00  0.00     0.011 A 
ATOM     10  C   UNL A   1      39.788  31.237  34.805  1.00  0.00     0.099 A 
ATOM     11  C   UNL A   1      37.876  30.098  33.142  1.00  0.00     0.072 A 
ATOM     12  N   UNL A   1      40.075  30.041  34.171  1.00  0.00    -0.258 N 
ATOM     13  C   UNL A   1      39.201  29.437  33.284  1.00  0.00     0.254 A 
ATOM     14  O   UNL A   1      39.417  28.417  32.639  1.00  0.00    -0.269 OA
BRANCH  12  15
ATOM     15  C   UNL A   1      41.284  29.327  34.491  1.00  0.00     0.451 C 
ATOM     16  F   UNL A   1      41.748  28.684  33.391  1.00  0.00    -0.185 F 
ATOM     17  F   UNL A   1      42.259  30.152  34.939  1.00  0.00    -0.185 F 
ENDBRANCH  12  15
ENDBRANCH   7   8
ENDBRANCH   5   7
ENDBRANCH   4   5
ENDBRANCH   3   4
ENDBRANCH   2   3
ENDBRANCH   1   2
BRANCH   1  18
ATOM     18  C   UNL A   1      33.252  36.493  31.210  1.00  0.00     0.202 C 
BRANCH  18  19
ATOM     19  C   UNL A   1      32.997  36.112  29.749  1.00  0.00     0.261 C 
BRANCH  19  20
ATOM     20  O   UNL A   1      32.530  34.756  29.642  1.00  0.00    -0.460 OA
BRANCH  20  21
ATOM     21  C   UNL A   1      33.101  34.004  28.672  1.00  0.00     0.338 C 
ATOM     22  O   UNL A   1      32.698  33.826  27.534  1.00  0.00    -0.246 OA
BRANCH  21  23
ATOM     23  C   UNL A   1      34.443  33.610  29.132  1.00  0.00     0.060 A 
ATOM     24  C   UNL A   1      34.599  32.864  30.301  1.00  0.00     0.016 A 
ATOM     25  C   UNL A   1      35.556  33.987  28.367  1.00  0.00     0.016 A 
ATOM     26  C   UNL A   1      35.876  32.467  30.690  1.00  0.00     0.010 A 
ATOM     27  C   UNL A   1      36.834  33.592  28.762  1.00  0.00     0.010 A 
ATOM     28  C   UNL A   1      36.997  32.810  29.913  1.00  0.00    -0.014 A 
BRANCH  28  29
ATOM     29  C   UNL A   1      38.316  32.220  30.232  1.00  0.00     0.031 A 
ATOM     30  C   UNL A   1      38.733  30.892  29.681  1.00  0.00     0.074 A 
ATOM     31  C   UNL A   1      39.135  32.915  31.045  1.00  0.00     0.049 A 
ATOM     32  N   UNL A   1      39.870  30.263  29.830  1.00  0.00    -0.248 NA
ATOM     33  C   UNL A   1      37.748  30.177  28.856  1.00  0.00     0.031 C 
ATOM     34  C   UNL A   1      38.814  34.208  31.654  1.00  0.00     0.029 A 
ATOM     35  N   UNL A   1      40.399  32.638  31.496  1.00  0.00    -0.354 N 
ATOM     36  C   UNL A   1      39.749  29.084  29.107  1.00  0.00     0.074 A 
ATOM     37  C   UNL A   1      38.410  29.066  28.553  1.00  0.00     0.031 C 
ATOM     38  C   UNL A   1      39.862  34.622  32.382  1.00  0.00     0.029 A 
ATOM     39  C   UNL A   1      40.911  33.611  32.321  1.00  0.00     0.049 A 
ATOM     40  H   UNL A   1      40.892  31.822  31.252  1.00  0.00     0.167 HD
ATOM     41  C   UNL A   1      40.678  28.116  28.919  1.00  0.00     0.037 A 
ATOM     42  C   UNL A   1      42.092  33.671  32.962  1.00  0.00     0.037 A 
ATOM     43  C   UNL A   1      42.000  28.139  29.493  1.00  0.00     0.049 A 
ATOM     44  C   UNL A   1      43.074  32.546  32.781  1.00  0.00     0.074 A 
ATOM     45  C   UNL A   1      43.024  27.220  29.337  1.00  0.00     0.029 A 
ATOM     46  N   UNL A   1      42.477  29.124  30.346  1.00  0.00    -0.354 N 
ATOM     47  N   UNL A   1      42.976  31.473  32.034  1.00  0.00    -0.248 NA
ATOM     48  C   UNL A   1      44.334  32.643  33.531  1.00  0.00     0.031 C 
ATOM     49  C   UNL A   1      44.097  27.617  30.140  1.00  0.00     0.029 A 
ATOM     50  C   UNL A   1      43.767  28.819  30.747  1.00  0.00     0.049 A 
ATOM     51  H   UNL A   1      41.972  29.922  30.625  1.00  0.00     0.167 HD
ATOM     52  C   UNL A   1      44.176  30.793  32.190  1.00  0.00     0.074 A 
ATOM     53  C   UNL A   1      44.989  31.578  33.094  1.00  0.00     0.031 C 
ATOM     54  C   UNL A   1      44.571  29.623  31.631  1.00  0.00     0.037 A 
BRANCH  41  55
ATOM     55  C   UNL A   1      40.301  26.941  28.064  1.00  0.00     0.057 A 
ATOM     56  C   UNL A   1      39.498  25.913  28.574  1.00  0.00     0.134 A 
ATOM     57  C   UNL A   1      40.795  26.787  26.762  1.00  0.00     0.134 A 
ATOM     58  F   UNL A   1      39.000  25.990  29.818  1.00  0.00    -0.206 F 
ATOM     59  C   UNL A   1      39.204  24.773  27.824  1.00  0.00     0.040 A 
ATOM     60  C   UNL A   1      40.489  25.664  25.992  1.00  0.00     0.040 A 
ATOM     61  F   UNL A   1      41.566  27.737  26.211  1.00  0.00    -0.206 F 
ATOM     62  C   UNL A   1      39.697  24.648  26.527  1.00  0.00     0.006 A 
ENDBRANCH  41  55
BRANCH  42  63
ATOM     63  C   UNL A   1      42.420  34.825  33.838  1.00  0.00     0.057 A 
ATOM     64  C   UNL A   1      42.943  36.012  33.313  1.00  0.00     0.134 A 
ATOM     65  C   UNL A   1      42.159  34.788  35.213  1.00  0.00     0.134 A 
ATOM     66  F   UNL A   1      43.227  36.109  32.006  1.00  0.00    -0.206 F 
ATOM     67  C   UNL A   1      43.184  37.124  34.119  1.00  0.00     0.040 A 
ATOM     68  C   UNL A   1      42.364  35.903  36.026  1.00  0.00     0.040 A 
ATOM     69  F   UNL A   1      41.644  33.683  35.773  1.00  0.00    -0.206 F 
ATOM     70  C   UNL A   1      42.878  37.077  35.479  1.00  0.00     0.006 A 
ENDBRANCH  42  63
BRANCH  54  71
ATOM     71  C   UNL A   1      45.966  29.157  31.932  1.00  0.00     0.057 A 
ATOM     72  C   UNL A   1      47.031  29.528  31.099  1.00  0.00     0.134 A 
ATOM     73  C   UNL A   1      46.256  28.321  33.017  1.00  0.00     0.134 A 
ATOM     74  F   UNL A   1      46.821  30.321  30.038  1.00  0.00    -0.206 F 
ATOM     75  C   UNL A   1      48.331  29.081  31.333  1.00  0.00     0.040 A 
ATOM     76  C   UNL A   1      47.559  27.892  33.279  1.00  0.00     0.040 A 
ATOM     77  F   UNL A   1      45.286  27.942  33.863  1.00  0.00    -0.206 F 
ATOM     78  C   UNL A   1      48.599  28.267  32.430  1.00  0.00     0.006 A 
ENDBRANCH  54  71
ENDBRANCH  28  29
ENDBRANCH  21  23
ENDBRANCH  20  21
ENDBRANCH  19  20
ENDBRANCH  18  19
ENDBRANCH   1  18
TORSDOF 16
ENDMDL
MODEL 3
REMARK VINA RESULT:      -8.0      5.036     11.009
REMARK SMILES O=C(Cc1ccc(=O)n(C(F)F)c1)OCCOCCOC(=O)c1ccc(-c2c3nc(c(-c4c(F)cccc4F)c4ccc([nH]4)c(-c4c(F)cccc4F)c4nc(c(-c5c(F)cccc5F)c5ccc2[nH]5)C=C4)C=C3)cc1
REMARK SMILES IDX 17 1 16 2 15 3 14 4 2 5 1 6 3 7 4 8 5 9 13 10 6 11 9 12 7 13
REMARK SMILES IDX 8 14 10 15 11 16 12 17 18 18 19 19 20 20 21 21 22 22 23 23
REMARK SMILES IDX 24 24 76 25 25 26 75 27 26 28 27 29 28 30 69 31 29 32 74 33
REMARK SMILES IDX 68 34 70 35 30 36 73 37 67 38 66 39 31 41 57 42 40 43 56 44
REMARK SMILES IDX 41 45 44 46 55 47 71 48 42 49 43 50 54 52 72 53 45 54 32 55
REMARK SMILES IDX 33 56 38 57 34 58 35 59 37 60 39 61 36 62 58 63 59 64 64 65
REMARK SMILES IDX 60 66 61 67 63 68 65 69 62 70 46 71 47 72 52 73 48 74 49 75
REMARK SMILES IDX 51 76 53 77 50 78
REMARK H PARENT 70 40 44 51
REMARK Flexibility Score: inf
ROOT
ATOM      1  O   UNL A   1      41.539  21.837  26.230  1.00  0.00    -0.374 OA
ENDROOT
BRANCH   1   2
ATOM      2  C   UNL A   1      40.336  21.087  26.247  1.00  0.00     0.202 C 
BRANCH   2   3
ATOM      3  C   UNL A   1      39.014  21.838  26.091  1.00  0.00     0.261 C 
BRANCH   3   4
ATOM      4  O   UNL A   1      38.099  21.334  25.109  1.00  0.00    -0.463 OA
BRANCH   4   5
ATOM      5  C   UNL A   1      36.999  22.008  24.684  1.00  0.00     0.310 C 
ATOM      6  O   UNL A   1      37.039  22.655  23.639  1.00  0.00    -0.252 OA
BRANCH   5   7
ATOM      7  C   UNL A   1      35.755  22.007  25.556  1.00  0.00     0.159 C 
BRANCH   7   8
ATOM      8  C   UNL A   1      34.679  20.990  25.286  1.00  0.00    -0.020 A 
ATOM      9  C   UNL A   1      33.269  21.317  25.359  1.00  0.00     0.011 A 
ATOM     10  C   UNL A   1      35.025  19.744  24.919  1.00  0.00     0.099 A 
ATOM     11  C   UNL A   1      32.340  20.454  24.929  1.00  0.00     0.072 A 
ATOM     12  N   UNL A   1      34.080  18.802  24.554  1.00  0.00    -0.258 N 
ATOM     13  C   UNL A   1      32.728  19.091  24.478  1.00  0.00     0.254 A 
ATOM     14  O   UNL A   1      31.847  18.328  24.099  1.00  0.00    -0.269 OA
BRANCH  12  15
ATOM     15  C   UNL A   1      34.473  17.437  24.322  1.00  0.00     0.451 C 
ATOM     16  F   UNL A   1      34.498  17.180  22.990  1.00  0.00    -0.185 F 
ATOM     17  F   UNL A   1      35.701  17.168  24.824  1.00  0.00    -0.185 F 
ENDBRANCH  12  15
ENDBRANCH   7   8
ENDBRANCH   5   7
ENDBRANCH   4   5
ENDBRANCH   3   4
ENDBRANCH   2   3
ENDBRANCH   1   2
BRANCH   1  18
ATOM     18  C   UNL A   1      42.741  21.177  25.822  1.00  0.00     0.202 C 
BRANCH  18  19
ATOM     19  C   UNL A   1      43.838  22.045  25.197  1.00  0.00     0.261 C 
BRANCH  19  20
ATOM     20  O   UNL A   1      43.349  23.366  24.907  1.00  0.00    -0.460 OA
BRANCH  20  21
ATOM     21  C   UNL A   1      44.196  24.387  25.178  1.00  0.00     0.338 C 
ATOM     22  O   UNL A   1      45.217  24.686  24.579  1.00  0.00    -0.246 OA
BRANCH  21  23
ATOM     23  C   UNL A   1      43.560  25.250  26.187  1.00  0.00     0.060 A 
ATOM     24  C   UNL A   1      42.413  24.827  26.858  1.00  0.00     0.016 A 
ATOM     25  C   UNL A   1      44.137  26.497  26.468  1.00  0.00     0.016 A 
ATOM     26  C   UNL A   1      41.857  25.644  27.840  1.00  0.00     0.010 A 
ATOM     27  C   UNL A   1      43.575  27.315  27.447  1.00  0.00     0.010 A 
ATOM     28  C   UNL A   1      42.446  26.881  28.154  1.00  0.00    -0.014 A 
BRANCH  28  29
ATOM     29  C   UNL A   1      41.961  27.646  29.325  1.00  0.00     0.031 A 
ATOM     30  C   UNL A   1      42.637  27.548  30.657  1.00  0.00     0.074 A 
ATOM     31  C   UNL A   1      40.882  28.434  29.158  1.00  0.00     0.049 A 
ATOM     32  N   UNL A   1      42.361  28.185  31.766  1.00  0.00    -0.248 NA
ATOM     33  C   UNL A   1      43.766  26.612  30.762  1.00  0.00     0.031 C 
ATOM     34  C   UNL A   1      40.137  28.582  27.905  1.00  0.00     0.029 A 
ATOM     35  N   UNL A   1      40.227  29.257  30.035  1.00  0.00    -0.354 N 
ATOM     36  C   UNL A   1      43.290  27.744  32.698  1.00  0.00     0.074 A 
ATOM     37  C   UNL A   1      44.113  26.753  32.036  1.00  0.00     0.031 C 
ATOM     38  C   UNL A   1      39.139  29.460  28.090  1.00  0.00     0.029 A 
ATOM     39  C   UNL A   1      39.153  29.908  29.478  1.00  0.00     0.049 A 
ATOM     40  H   UNL A   1      40.500  29.372  30.974  1.00  0.00     0.167 HD
ATOM     41  C   UNL A   1      43.444  28.145  33.983  1.00  0.00     0.037 A 
ATOM     42  C   UNL A   1      38.273  30.762  30.031  1.00  0.00     0.037 A 
ATOM     43  C   UNL A   1      42.605  29.120  34.634  1.00  0.00     0.049 A 
ATOM     44  C   UNL A   1      38.435  31.134  31.479  1.00  0.00     0.074 A 
ATOM     45  C   UNL A   1      42.698  29.614  35.924  1.00  0.00     0.029 A 
ATOM     46  N   UNL A   1      41.509  29.739  34.049  1.00  0.00    -0.354 N 
ATOM     47  N   UNL A   1      39.364  30.768  32.329  1.00  0.00    -0.248 NA
ATOM     48  C   UNL A   1      37.428  32.042  32.045  1.00  0.00     0.031 C 
ATOM     49  C   UNL A   1      41.626  30.485  36.140  1.00  0.00     0.029 A 
ATOM     50  C   UNL A   1      40.901  30.585  34.962  1.00  0.00     0.049 A 
ATOM     51  H   UNL A   1      41.207  29.597  33.124  1.00  0.00     0.167 HD
ATOM     52  C   UNL A   1      39.078  31.434  33.513  1.00  0.00     0.074 A 
ATOM     53  C   UNL A   1      37.896  32.233  33.268  1.00  0.00     0.031 C 
ATOM     54  C   UNL A   1      39.737  31.391  34.696  1.00  0.00     0.037 A 
BRANCH  41  55
ATOM     55  C   UNL A   1      44.553  27.525  34.782  1.00  0.00     0.057 A 
ATOM     56  C   UNL A   1      44.321  26.391  35.570  1.00  0.00     0.134 A 
ATOM     57  C   UNL A   1      45.833  28.094  34.832  1.00  0.00     0.134 A 
ATOM     58  F   UNL A   1      43.115  25.801  35.578  1.00  0.00    -0.206 F 
ATOM     59  C   UNL A   1      45.317  25.849  36.383  1.00  0.00     0.040 A 
ATOM     60  C   UNL A   1      46.845  27.547  35.622  1.00  0.00     0.040 A 
ATOM     61  F   UNL A   1      46.123  29.178  34.098  1.00  0.00    -0.206 F 
ATOM     62  C   UNL A   1      46.586  26.424  36.408  1.00  0.00     0.006 A 
ENDBRANCH  41  55
BRANCH  42  63
ATOM     63  C   UNL A   1      37.157  31.325  29.228  1.00  0.00     0.057 A 
ATOM     64  C   UNL A   1      35.993  30.588  28.983  1.00  0.00     0.134 A 
ATOM     65  C   UNL A   1      37.205  32.636  28.740  1.00  0.00     0.134 A 
ATOM     66  F   UNL A   1      35.888  29.322  29.413  1.00  0.00    -0.206 F 
ATOM     67  C   UNL A   1      34.912  31.137  28.293  1.00  0.00     0.040 A 
ATOM     68  C   UNL A   1      36.119  33.209  28.077  1.00  0.00     0.040 A 
ATOM     69  F   UNL A   1      38.288  33.398  28.955  1.00  0.00    -0.206 F 
ATOM     70  C   UNL A   1      34.967  32.458  27.853  1.00  0.00     0.006 A 
ENDBRANCH  42  63
BRANCH  54  71
ATOM     71  C   UNL A   1      39.232  32.281  35.795  1.00  0.00     0.057 A 
ATOM     72  C   UNL A   1      38.285  31.804  36.712  1.00  0.00     0.134 A 
ATOM     73  C   UNL A   1      39.651  33.610  35.931  1.00  0.00     0.134 A 
ATOM     74  F   UNL A   1      37.836  30.542  36.634  1.00  0.00    -0.206 F 
ATOM     75  C   UNL A   1      37.771  32.618  37.721  1.00  0.00     0.040 A 
ATOM     76  C   UNL A   1      39.166  34.425  36.956  1.00  0.00     0.040 A 
ATOM     77  F   UNL A   1      40.567  34.124  35.097  1.00  0.00    -0.206 F 
ATOM     78  C   UNL A   1      38.217  33.931  37.850  1.00  0.00     0.006 A 
ENDBRANCH  54  71
ENDBRANCH  28  29
ENDBRANCH  21  23
ENDBRANCH  20  21
ENDBRANCH  19  20
ENDBRANCH  18  19
ENDBRANCH   1  18
TORSDOF 16
ENDMDL
