MODEL 1
REMARK VINA RESULT:     -10.3      0.000      0.000
REMARK SMILES CCCCNC(=O)c1c(Cl)c(Cl)c(Cl)c(Cl)c1C(=O)OCCOCCOC(=O)c1ccc(-c2c3nc(c(-c4c(F)cccc4F)c4ccc([nH]4)c(-c4c(F)cccc4F)c4nc(c(-c5c(F)cccc5F)c5ccc2[nH]5)C=C4)C=C3)cc1
REMARK SMILES IDX 22 1 21 2 20 3 18 4 19 5 17 6 8 7 9 8 10 9 11 10 15 11 12 12
REMARK SMILES IDX 13 13 16 14 14 15 6 16 5 17 7 19 4 20 3 21 2 22 1 23 23 24
REMARK SMILES IDX 24 25 25 26 26 27 27 28 28 29 29 30 30 31 82 32 31 33 81 34
REMARK SMILES IDX 32 35 33 36 34 37 75 38 35 39 80 40 74 41 76 42 36 43 79 44
REMARK SMILES IDX 73 45 72 46 37 48 63 49 46 50 62 51 47 52 50 53 61 54 77 55
REMARK SMILES IDX 48 56 49 57 60 59 78 60 51 61 38 62 39 63 44 64 40 65 41 66
REMARK SMILES IDX 43 67 45 68 42 69 64 70 65 71 70 72 66 73 67 74 69 75 71 76
REMARK SMILES IDX 68 77 52 78 53 79 58 80 54 81 55 82 57 83 59 84 56 85
REMARK H PARENT 5 18 76 47 50 58
REMARK Flexibility Score: inf
ROOT
ATOM      1  C   UNL A   1      34.749  23.537  25.448  1.00  0.00     0.202 C 
ENDROOT
BRANCH   1   2
ATOM      2  C   UNL A   1      33.872  24.783  25.554  1.00  0.00     0.261 C 
BRANCH   2   3
ATOM      3  O   UNL A   1      34.050  25.618  24.396  1.00  0.00    -0.460 OA
BRANCH   3   4
ATOM      4  C   UNL A   1      33.162  25.373  23.416  1.00  0.00     0.340 C 
ATOM      5  O   UNL A   1      33.154  24.431  22.630  1.00  0.00    -0.246 OA
BRANCH   4   6
ATOM      6  C   UNL A   1      32.034  26.310  23.506  1.00  0.00     0.094 A 
ATOM      7  C   UNL A   1      32.165  27.630  23.050  1.00  0.00     0.076 A 
ATOM      8  C   UNL A   1      31.011  28.379  22.779  1.00  0.00     0.074 A 
ATOM      9  Cl  UNL A   1      31.130  29.861  21.874  1.00  0.00    -0.082 Cl
ATOM     10  C   UNL A   1      29.749  27.888  23.163  1.00  0.00     0.080 A 
ATOM     11  C   UNL A   1      30.780  25.810  23.893  1.00  0.00     0.076 A 
ATOM     12  Cl  UNL A   1      28.327  28.862  22.919  1.00  0.00    -0.081 Cl
ATOM     13  C   UNL A   1      29.639  26.619  23.762  1.00  0.00     0.080 A 
ATOM     14  Cl  UNL A   1      30.652  24.217  24.585  1.00  0.00    -0.082 Cl
ATOM     15  Cl  UNL A   1      28.092  26.043  24.315  1.00  0.00    -0.081 Cl
BRANCH   7  16
ATOM     16  C   UNL A   1      33.520  28.189  22.870  1.00  0.00     0.253 C 
ATOM     17  N   UNL A   1      34.159  28.808  23.922  1.00  0.00    -0.352 N 
ATOM     18  H   UNL A   1      35.112  29.008  23.770  1.00  0.00     0.163 HD
ATOM     19  O   UNL A   1      34.092  28.036  21.798  1.00  0.00    -0.269 OA
BRANCH  17  20
ATOM     20  C   UNL A   1      33.646  29.212  25.225  1.00  0.00     0.116 C 
BRANCH  20  21
ATOM     21  C   UNL A   1      34.303  28.505  26.407  1.00  0.00     0.021 C 
BRANCH  21  22
ATOM     22  C   UNL A   1      34.701  29.395  27.586  1.00  0.00    -0.002 C 
ATOM     23  C   UNL A   1      36.195  29.660  27.692  1.00  0.00     0.004 C 
ENDBRANCH  21  22
ENDBRANCH  20  21
ENDBRANCH  17  20
ENDBRANCH   7  16
ENDBRANCH   4   6
ENDBRANCH   3   4
ENDBRANCH   2   3
ENDBRANCH   1   2
BRANCH   1  24
ATOM     24  O   UNL A   1      35.984  23.708  24.748  1.00  0.00    -0.374 OA
BRANCH  24  25
ATOM     25  C   UNL A   1      36.372  22.690  23.828  1.00  0.00     0.202 C 
BRANCH  25  26
ATOM     26  C   UNL A   1      37.389  21.664  24.341  1.00  0.00     0.261 C 
BRANCH  26  27
ATOM     27  O   UNL A   1      37.661  21.794  25.746  1.00  0.00    -0.460 OA
BRANCH  27  28
ATOM     28  C   UNL A   1      38.966  21.635  26.072  1.00  0.00     0.338 C 
ATOM     29  O   UNL A   1      39.714  20.734  25.718  1.00  0.00    -0.246 OA
BRANCH  28  30
ATOM     30  C   UNL A   1      39.461  22.789  26.846  1.00  0.00     0.060 A 
ATOM     31  C   UNL A   1      38.815  24.015  26.653  1.00  0.00     0.016 A 
ATOM     32  C   UNL A   1      40.610  22.708  27.635  1.00  0.00     0.016 A 
ATOM     33  C   UNL A   1      39.359  25.178  27.190  1.00  0.00     0.010 A 
ATOM     34  C   UNL A   1      41.154  23.878  28.179  1.00  0.00     0.010 A 
ATOM     35  C   UNL A   1      40.560  25.123  27.910  1.00  0.00    -0.014 A 
BRANCH  35  36
ATOM     36  C   UNL A   1      41.281  26.390  28.185  1.00  0.00     0.031 A 
ATOM     37  C   UNL A   1      42.675  26.563  27.645  1.00  0.00     0.074 A 
ATOM     38  C   UNL A   1      40.682  27.398  28.841  1.00  0.00     0.049 A 
ATOM     39  N   UNL A   1      43.454  27.615  27.678  1.00  0.00    -0.248 NA
ATOM     40  C   UNL A   1      43.271  25.394  26.979  1.00  0.00     0.031 C 
ATOM     41  C   UNL A   1      39.337  27.358  29.408  1.00  0.00     0.029 A 
ATOM     42  N   UNL A   1      41.136  28.660  29.130  1.00  0.00    -0.354 N 
ATOM     43  C   UNL A   1      44.627  27.233  27.039  1.00  0.00     0.074 A 
ATOM     44  C   UNL A   1      44.475  25.845  26.664  1.00  0.00     0.031 C 
ATOM     45  C   UNL A   1      39.071  28.546  29.979  1.00  0.00     0.029 A 
ATOM     46  C   UNL A   1      40.228  29.426  29.818  1.00  0.00     0.049 A 
ATOM     47  H   UNL A   1      42.027  28.986  28.867  1.00  0.00     0.167 HD
ATOM     48  C   UNL A   1      45.728  27.975  26.773  1.00  0.00     0.037 A 
ATOM     49  C   UNL A   1      40.320  30.693  30.261  1.00  0.00     0.037 A 
ATOM     50  C   UNL A   1      45.882  29.359  27.134  1.00  0.00     0.049 A 
ATOM     51  C   UNL A   1      41.553  31.501  29.957  1.00  0.00     0.074 A 
ATOM     52  C   UNL A   1      46.946  30.206  26.880  1.00  0.00     0.029 A 
ATOM     53  N   UNL A   1      44.940  30.097  27.833  1.00  0.00    -0.354 N 
ATOM     54  N   UNL A   1      42.635  31.146  29.305  1.00  0.00    -0.248 NA
ATOM     55  C   UNL A   1      41.569  32.891  30.434  1.00  0.00     0.031 C 
ATOM     56  C   UNL A   1      46.663  31.450  27.458  1.00  0.00     0.029 A 
ATOM     57  C   UNL A   1      45.405  31.386  28.036  1.00  0.00     0.049 A 
ATOM     58  H   UNL A   1      44.068  29.757  28.140  1.00  0.00     0.167 HD
ATOM     59  C   UNL A   1      43.448  32.273  29.274  1.00  0.00     0.074 A 
ATOM     60  C   UNL A   1      42.730  33.326  29.961  1.00  0.00     0.031 C 
ATOM     61  C   UNL A   1      44.677  32.423  28.721  1.00  0.00     0.037 A 
BRANCH  48  62
ATOM     62  C   UNL A   1      46.859  27.287  26.069  1.00  0.00     0.057 A 
ATOM     63  C   UNL A   1      47.826  26.551  26.765  1.00  0.00     0.134 A 
ATOM     64  C   UNL A   1      46.984  27.365  24.676  1.00  0.00     0.134 A 
ATOM     65  F   UNL A   1      47.773  26.453  28.102  1.00  0.00    -0.206 F 
ATOM     66  C   UNL A   1      48.892  25.939  26.104  1.00  0.00     0.040 A 
ATOM     67  C   UNL A   1      48.033  26.739  24.002  1.00  0.00     0.040 A 
ATOM     68  F   UNL A   1      46.091  28.056  23.950  1.00  0.00    -0.206 F 
ATOM     69  C   UNL A   1      48.996  26.029  24.716  1.00  0.00     0.006 A 
ENDBRANCH  48  62
BRANCH  49  70
ATOM     70  C   UNL A   1      39.195  31.287  31.021  1.00  0.00     0.057 A 
ATOM     71  C   UNL A   1      38.159  31.970  30.375  1.00  0.00     0.134 A 
ATOM     72  C   UNL A   1      39.129  31.178  32.415  1.00  0.00     0.134 A 
ATOM     73  F   UNL A   1      38.181  32.125  29.043  1.00  0.00    -0.206 F 
ATOM     74  C   UNL A   1      37.101  32.535  31.089  1.00  0.00     0.040 A 
ATOM     75  C   UNL A   1      38.067  31.721  33.140  1.00  0.00     0.040 A 
ATOM     76  F   UNL A   1      40.092  30.534  33.089  1.00  0.00    -0.206 F 
ATOM     77  C   UNL A   1      37.051  32.405  32.476  1.00  0.00     0.006 A 
ENDBRANCH  49  70
BRANCH  61  78
ATOM     78  C   UNL A   1      45.309  33.779  28.818  1.00  0.00     0.057 A 
ATOM     79  C   UNL A   1      46.156  34.125  29.878  1.00  0.00     0.134 A 
ATOM     80  C   UNL A   1      45.092  34.740  27.822  1.00  0.00     0.134 A 
ATOM     81  F   UNL A   1      46.397  33.253  30.868  1.00  0.00    -0.206 F 
ATOM     82  C   UNL A   1      46.746  35.389  29.958  1.00  0.00     0.040 A 
ATOM     83  C   UNL A   1      45.693  35.998  27.879  1.00  0.00     0.040 A 
ATOM     84  F   UNL A   1      44.299  34.468  26.775  1.00  0.00    -0.206 F 
ATOM     85  C   UNL A   1      46.517  36.327  28.953  1.00  0.00     0.006 A 
ENDBRANCH  61  78
ENDBRANCH  35  36
ENDBRANCH  28  30
ENDBRANCH  27  28
ENDBRANCH  26  27
ENDBRANCH  25  26
ENDBRANCH  24  25
ENDBRANCH   1  24
TORSDOF 18
ENDMDL
MODEL 2
REMARK VINA RESULT:     -10.3      4.660      9.499
REMARK SMILES CCCCNC(=O)c1c(Cl)c(Cl)c(Cl)c(Cl)c1C(=O)OCCOCCOC(=O)c1ccc(-c2c3nc(c(-c4c(F)cccc4F)c4ccc([nH]4)c(-c4c(F)cccc4F)c4nc(c(-c5c(F)cccc5F)c5ccc2[nH]5)C=C4)C=C3)cc1
REMARK SMILES IDX 22 1 21 2 20 3 18 4 19 5 17 6 8 7 9 8 10 9 11 10 15 11 12 12
REMARK SMILES IDX 13 13 16 14 14 15 6 16 5 17 7 19 4 20 3 21 2 22 1 23 23 24
REMARK SMILES IDX 24 25 25 26 26 27 27 28 28 29 29 30 30 31 82 32 31 33 81 34
REMARK SMILES IDX 32 35 33 36 34 37 75 38 35 39 80 40 74 41 76 42 36 43 79 44
REMARK SMILES IDX 73 45 72 46 37 48 63 49 46 50 62 51 47 52 50 53 61 54 77 55
REMARK SMILES IDX 48 56 49 57 60 59 78 60 51 61 38 62 39 63 44 64 40 65 41 66
REMARK SMILES IDX 43 67 45 68 42 69 64 70 65 71 70 72 66 73 67 74 69 75 71 76
REMARK SMILES IDX 68 77 52 78 53 79 58 80 54 81 55 82 57 83 59 84 56 85
REMARK H PARENT 5 18 76 47 50 58
REMARK Flexibility Score: inf
ROOT
ATOM      1  C   UNL A   1      35.196  29.370  27.483  1.00  0.00     0.202 C 
ENDROOT
BRANCH   1   2
ATOM      2  C   UNL A   1      33.918  28.615  27.120  1.00  0.00     0.261 C 
BRANCH   2   3
ATOM      3  O   UNL A   1      33.616  28.786  25.724  1.00  0.00    -0.460 OA
BRANCH   3   4
ATOM      4  C   UNL A   1      32.313  29.020  25.482  1.00  0.00     0.340 C 
ATOM      5  O   UNL A   1      31.717  30.089  25.562  1.00  0.00    -0.246 OA
BRANCH   4   6
ATOM      6  C   UNL A   1      31.681  27.827  24.907  1.00  0.00     0.094 A 
ATOM      7  C   UNL A   1      31.729  27.588  23.525  1.00  0.00     0.076 A 
ATOM      8  C   UNL A   1      31.480  26.295  23.043  1.00  0.00     0.074 A 
ATOM      9  Cl  UNL A   1      31.892  25.884  21.403  1.00  0.00    -0.082 Cl
ATOM     10  C   UNL A   1      30.979  25.307  23.912  1.00  0.00     0.080 A 
ATOM     11  C   UNL A   1      31.180  26.848  25.782  1.00  0.00     0.076 A 
ATOM     12  Cl  UNL A   1      30.574  23.731  23.293  1.00  0.00    -0.081 Cl
ATOM     13  C   UNL A   1      30.787  25.599  25.276  1.00  0.00     0.080 A 
ATOM     14  Cl  UNL A   1      30.998  27.206  27.477  1.00  0.00    -0.082 Cl
ATOM     15  Cl  UNL A   1      30.088  24.407  26.335  1.00  0.00    -0.081 Cl
BRANCH   7  16
ATOM     16  C   UNL A   1      32.043  28.713  22.620  1.00  0.00     0.253 C 
ATOM     17  N   UNL A   1      31.071  29.633  22.298  1.00  0.00    -0.352 N 
ATOM     18  H   UNL A   1      31.398  30.434  21.825  1.00  0.00     0.163 HD
ATOM     19  O   UNL A   1      33.191  28.852  22.217  1.00  0.00    -0.269 OA
BRANCH  17  20
ATOM     20  C   UNL A   1      29.635  29.609  22.547  1.00  0.00     0.116 C 
BRANCH  20  21
ATOM     21  C   UNL A   1      29.094  30.861  23.232  1.00  0.00     0.021 C 
BRANCH  21  22
ATOM     22  C   UNL A   1      28.150  31.729  22.397  1.00  0.00    -0.002 C 
ATOM     23  C   UNL A   1      28.130  31.384  20.916  1.00  0.00     0.004 C 
ENDBRANCH  21  22
ENDBRANCH  20  21
ENDBRANCH  17  20
ENDBRANCH   7  16
ENDBRANCH   4   6
ENDBRANCH   3   4
ENDBRANCH   2   3
ENDBRANCH   1   2
BRANCH   1  24
ATOM     24  O   UNL A   1      35.005  30.669  28.052  1.00  0.00    -0.374 OA
BRANCH  24  25
ATOM     25  C   UNL A   1      34.240  31.613  27.307  1.00  0.00     0.202 C 
BRANCH  25  26
ATOM     26  C   UNL A   1      33.266  32.482  28.110  1.00  0.00     0.261 C 
BRANCH  26  27
ATOM     27  O   UNL A   1      33.299  33.867  27.726  1.00  0.00    -0.460 OA
BRANCH  27  28
ATOM     28  C   UNL A   1      33.318  34.729  28.772  1.00  0.00     0.338 C 
ATOM     29  O   UNL A   1      32.466  35.556  29.065  1.00  0.00    -0.246 OA
BRANCH  28  30
ATOM     30  C   UNL A   1      34.479  34.475  29.645  1.00  0.00     0.060 A 
ATOM     31  C   UNL A   1      35.748  34.538  29.059  1.00  0.00     0.016 A 
ATOM     32  C   UNL A   1      34.328  34.054  30.967  1.00  0.00     0.016 A 
ATOM     33  C   UNL A   1      36.864  34.109  29.771  1.00  0.00     0.010 A 
ATOM     34  C   UNL A   1      35.452  33.627  31.685  1.00  0.00     0.010 A 
ATOM     35  C   UNL A   1      36.715  33.601  31.068  1.00  0.00    -0.014 A 
BRANCH  35  36
ATOM     36  C   UNL A   1      37.847  32.858  31.674  1.00  0.00     0.031 A 
ATOM     37  C   UNL A   1      38.390  33.318  33.000  1.00  0.00     0.074 A 
ATOM     38  C   UNL A   1      38.338  31.751  31.092  1.00  0.00     0.049 A 
ATOM     39  N   UNL A   1      39.304  32.770  33.759  1.00  0.00    -0.248 NA
ATOM     40  C   UNL A   1      37.826  34.565  33.543  1.00  0.00     0.031 C 
ATOM     41  C   UNL A   1      37.897  31.200  29.814  1.00  0.00     0.029 A 
ATOM     42  N   UNL A   1      39.316  30.887  31.517  1.00  0.00    -0.354 N 
ATOM     43  C   UNL A   1      39.424  33.603  34.865  1.00  0.00     0.074 A 
ATOM     44  C   UNL A   1      38.518  34.713  34.661  1.00  0.00     0.031 C 
ATOM     45  C   UNL A   1      38.603  30.085  29.556  1.00  0.00     0.029 A 
ATOM     46  C   UNL A   1      39.545  29.849  30.649  1.00  0.00     0.049 A 
ATOM     47  H   UNL A   1      39.806  31.001  32.363  1.00  0.00     0.167 HD
ATOM     48  C   UNL A   1      40.204  33.451  35.961  1.00  0.00     0.037 A 
ATOM     49  C   UNL A   1      40.412  28.823  30.733  1.00  0.00     0.037 A 
ATOM     50  C   UNL A   1      41.098  32.345  36.175  1.00  0.00     0.049 A 
ATOM     51  C   UNL A   1      41.273  28.673  31.958  1.00  0.00     0.074 A 
ATOM     52  C   UNL A   1      41.906  32.085  37.267  1.00  0.00     0.029 A 
ATOM     53  N   UNL A   1      41.303  31.315  35.270  1.00  0.00    -0.354 N 
ATOM     54  N   UNL A   1      41.338  29.437  33.022  1.00  0.00    -0.248 NA
ATOM     55  C   UNL A   1      42.166  27.506  32.002  1.00  0.00     0.031 C 
ATOM     56  C   UNL A   1      42.629  30.914  37.008  1.00  0.00     0.029 A 
ATOM     57  C   UNL A   1      42.239  30.425  35.770  1.00  0.00     0.049 A 
ATOM     58  H   UNL A   1      40.850  31.228  34.400  1.00  0.00     0.167 HD
ATOM     59  C   UNL A   1      42.259  28.833  33.869  1.00  0.00     0.074 A 
ATOM     60  C   UNL A   1      42.718  27.633  33.201  1.00  0.00     0.031 C 
ATOM     61  C   UNL A   1      42.684  29.234  35.093  1.00  0.00     0.037 A 
BRANCH  48  62
ATOM     62  C   UNL A   1      40.130  34.526  37.004  1.00  0.00     0.057 A 
ATOM     63  C   UNL A   1      39.198  34.481  38.048  1.00  0.00     0.134 A 
ATOM     64  C   UNL A   1      41.000  35.623  36.960  1.00  0.00     0.134 A 
ATOM     65  F   UNL A   1      38.324  33.467  38.135  1.00  0.00    -0.206 F 
ATOM     66  C   UNL A   1      39.115  35.501  38.998  1.00  0.00     0.040 A 
ATOM     67  C   UNL A   1      40.942  36.637  37.916  1.00  0.00     0.040 A 
ATOM     68  F   UNL A   1      41.917  35.726  35.985  1.00  0.00    -0.206 F 
ATOM     69  C   UNL A   1      39.993  36.582  38.935  1.00  0.00     0.006 A 
ENDBRANCH  48  62
BRANCH  49  70
ATOM     70  C   UNL A   1      40.490  27.838  29.628  1.00  0.00     0.057 A 
ATOM     71  C   UNL A   1      41.462  27.940  28.628  1.00  0.00     0.134 A 
ATOM     72  C   UNL A   1      39.592  26.766  29.553  1.00  0.00     0.134 A 
ATOM     73  F   UNL A   1      42.334  28.958  28.637  1.00  0.00    -0.206 F 
ATOM     74  C   UNL A   1      41.534  27.016  27.584  1.00  0.00     0.040 A 
ATOM     75  C   UNL A   1      39.665  25.825  28.525  1.00  0.00     0.040 A 
ATOM     76  F   UNL A   1      38.640  26.615  30.484  1.00  0.00    -0.206 F 
ATOM     77  C   UNL A   1      40.637  25.951  27.534  1.00  0.00     0.006 A 
ENDBRANCH  49  70
BRANCH  61  78
ATOM     78  C   UNL A   1      43.675  28.356  35.796  1.00  0.00     0.057 A 
ATOM     79  C   UNL A   1      43.270  27.326  36.654  1.00  0.00     0.134 A 
ATOM     80  C   UNL A   1      45.050  28.523  35.587  1.00  0.00     0.134 A 
ATOM     81  F   UNL A   1      41.968  27.121  36.903  1.00  0.00    -0.206 F 
ATOM     82  C   UNL A   1      44.199  26.508  37.301  1.00  0.00     0.040 A 
ATOM     83  C   UNL A   1      45.987  27.698  36.210  1.00  0.00     0.040 A 
ATOM     84  F   UNL A   1      45.503  29.485  34.770  1.00  0.00    -0.206 F 
ATOM     85  C   UNL A   1      45.562  26.691  37.075  1.00  0.00     0.006 A 
ENDBRANCH  61  78
ENDBRANCH  35  36
ENDBRANCH  28  30
ENDBRANCH  27  28
ENDBRANCH  26  27
ENDBRANCH  25  26
ENDBRANCH  24  25
ENDBRANCH   1  24
TORSDOF 18
ENDMDL
MODEL 3
REMARK VINA RESULT:     -10.3      3.876      6.417
REMARK SMILES CCCCNC(=O)c1c(Cl)c(Cl)c(Cl)c(Cl)c1C(=O)OCCOCCOC(=O)c1ccc(-c2c3nc(c(-c4c(F)cccc4F)c4ccc([nH]4)c(-c4c(F)cccc4F)c4nc(c(-c5c(F)cccc5F)c5ccc2[nH]5)C=C4)C=C3)cc1
REMARK SMILES IDX 22 1 21 2 20 3 18 4 19 5 17 6 8 7 9 8 10 9 11 10 15 11 12 12
REMARK SMILES IDX 13 13 16 14 14 15 6 16 5 17 7 19 4 20 3 21 2 22 1 23 23 24
REMARK SMILES IDX 24 25 25 26 26 27 27 28 28 29 29 30 30 31 82 32 31 33 81 34
REMARK SMILES IDX 32 35 33 36 34 37 75 38 35 39 80 40 74 41 76 42 36 43 79 44
REMARK SMILES IDX 73 45 72 46 37 48 63 49 46 50 62 51 47 52 50 53 61 54 77 55
REMARK SMILES IDX 48 56 49 57 60 59 78 60 51 61 38 62 39 63 44 64 40 65 41 66
REMARK SMILES IDX 43 67 45 68 42 69 64 70 65 71 70 72 66 73 67 74 69 75 71 76
REMARK SMILES IDX 68 77 52 78 53 79 58 80 54 81 55 82 57 83 59 84 56 85
REMARK H PARENT 5 18 76 47 50 58
REMARK Flexibility Score: inf
ROOT
ATOM      1  C   UNL A   1      34.019  28.483  23.544  1.00  0.00     0.202 C 
ENDROOT
BRANCH   1   2
ATOM      2  C   UNL A   1      34.042  27.872  22.144  1.00  0.00     0.261 C 
BRANCH   2   3
ATOM      3  O   UNL A   1      34.110  26.437  22.226  1.00  0.00    -0.460 OA
BRANCH   3   4
ATOM      4  C   UNL A   1      33.054  25.819  21.666  1.00  0.00     0.340 C 
ATOM      5  O   UNL A   1      32.892  25.536  20.483  1.00  0.00    -0.246 OA
BRANCH   4   6
ATOM      6  C   UNL A   1      32.142  25.328  22.706  1.00  0.00     0.094 A 
ATOM      7  C   UNL A   1      32.463  24.190  23.460  1.00  0.00     0.076 A 
ATOM      8  C   UNL A   1      31.805  23.964  24.677  1.00  0.00     0.074 A 
ATOM      9  Cl  UNL A   1      32.429  22.789  25.799  1.00  0.00    -0.082 Cl
ATOM     10  C   UNL A   1      30.690  24.750  25.028  1.00  0.00     0.080 A 
ATOM     11  C   UNL A   1      31.031  26.118  23.046  1.00  0.00     0.076 A 
ATOM     12  Cl  UNL A   1      29.810  24.405  26.490  1.00  0.00    -0.081 Cl
ATOM     13  C   UNL A   1      30.276  25.801  24.188  1.00  0.00     0.080 A 
ATOM     14  Cl  UNL A   1      30.561  27.448  22.025  1.00  0.00    -0.082 Cl
ATOM     15  Cl  UNL A   1      28.849  26.720  24.575  1.00  0.00    -0.081 Cl
BRANCH   7  16
ATOM     16  C   UNL A   1      33.491  23.262  22.944  1.00  0.00     0.253 C 
ATOM     17  N   UNL A   1      34.774  23.305  23.441  1.00  0.00    -0.352 N 
ATOM     18  H   UNL A   1      35.352  22.556  23.166  1.00  0.00     0.163 HD
ATOM     19  O   UNL A   1      33.170  22.414  22.120  1.00  0.00    -0.269 OA
BRANCH  17  20
ATOM     20  C   UNL A   1      35.411  24.284  24.312  1.00  0.00     0.116 C 
BRANCH  20  21
ATOM     21  C   UNL A   1      36.027  23.695  25.578  1.00  0.00     0.021 C 
BRANCH  21  22
ATOM     22  C   UNL A   1      37.514  23.341  25.501  1.00  0.00    -0.002 C 
ATOM     23  C   UNL A   1      38.384  24.077  26.508  1.00  0.00     0.004 C 
ENDBRANCH  21  22
ENDBRANCH  20  21
ENDBRANCH  17  20
ENDBRANCH   7  16
ENDBRANCH   4   6
ENDBRANCH   3   4
ENDBRANCH   2   3
ENDBRANCH   1   2
BRANCH   1  24
ATOM     24  O   UNL A   1      32.945  29.391  23.804  1.00  0.00    -0.374 OA
BRANCH  24  25
ATOM     25  C   UNL A   1      32.146  29.160  24.961  1.00  0.00     0.202 C 
BRANCH  25  26
ATOM     26  C   UNL A   1      31.699  30.404  25.737  1.00  0.00     0.261 C 
BRANCH  26  27
ATOM     27  O   UNL A   1      32.262  30.476  27.058  1.00  0.00    -0.460 OA
BRANCH  27  28
ATOM     28  C   UNL A   1      33.020  31.578  27.275  1.00  0.00     0.338 C 
ATOM     29  O   UNL A   1      32.654  32.745  27.257  1.00  0.00    -0.246 OA
BRANCH  28  30
ATOM     30  C   UNL A   1      34.389  31.206  27.678  1.00  0.00     0.060 A 
ATOM     31  C   UNL A   1      34.648  29.848  27.892  1.00  0.00     0.016 A 
ATOM     32  C   UNL A   1      35.357  32.168  27.971  1.00  0.00     0.016 A 
ATOM     33  C   UNL A   1      35.851  29.453  28.469  1.00  0.00     0.010 A 
ATOM     34  C   UNL A   1      36.569  31.770  28.548  1.00  0.00     0.010 A 
ATOM     35  C   UNL A   1      36.795  30.416  28.850  1.00  0.00    -0.014 A 
BRANCH  35  36
ATOM     36  C   UNL A   1      37.904  30.006  29.746  1.00  0.00     0.031 A 
ATOM     37  C   UNL A   1      38.950  29.060  29.219  1.00  0.00     0.074 A 
ATOM     38  C   UNL A   1      38.021  30.520  30.981  1.00  0.00     0.049 A 
ATOM     39  N   UNL A   1      40.054  28.643  29.785  1.00  0.00    -0.248 NA
ATOM     40  C   UNL A   1      38.719  28.510  27.874  1.00  0.00     0.031 C 
ATOM     41  C   UNL A   1      37.081  31.446  31.605  1.00  0.00     0.029 A 
ATOM     42  N   UNL A   1      38.997  30.336  31.928  1.00  0.00    -0.354 N 
ATOM     43  C   UNL A   1      40.646  27.786  28.867  1.00  0.00     0.074 A 
ATOM     44  C   UNL A   1      39.763  27.710  27.724  1.00  0.00     0.031 C 
ATOM     45  C   UNL A   1      37.526  31.753  32.836  1.00  0.00     0.029 A 
ATOM     46  C   UNL A   1      38.780  31.043  33.084  1.00  0.00     0.049 A 
ATOM     47  H   UNL A   1      39.779  29.753  31.791  1.00  0.00     0.167 HD
ATOM     48  C   UNL A   1      41.829  27.131  28.957  1.00  0.00     0.037 A 
ATOM     49  C   UNL A   1      39.514  31.111  34.211  1.00  0.00     0.037 A 
ATOM     50  C   UNL A   1      42.717  27.211  30.085  1.00  0.00     0.049 A 
ATOM     51  C   UNL A   1      40.824  30.374  34.293  1.00  0.00     0.074 A 
ATOM     52  C   UNL A   1      43.952  26.611  30.258  1.00  0.00     0.029 A 
ATOM     53  N   UNL A   1      42.458  27.936  31.238  1.00  0.00    -0.354 N 
ATOM     54  N   UNL A   1      41.400  29.609  33.397  1.00  0.00    -0.248 NA
ATOM     55  C   UNL A   1      41.593  30.527  35.536  1.00  0.00     0.031 C 
ATOM     56  C   UNL A   1      44.426  26.944  31.533  1.00  0.00     0.029 A 
ATOM     57  C   UNL A   1      43.503  27.784  32.136  1.00  0.00     0.049 A 
ATOM     58  H   UNL A   1      41.652  28.479  31.397  1.00  0.00     0.167 HD
ATOM     59  C   UNL A   1      42.607  29.209  33.957  1.00  0.00     0.074 A 
ATOM     60  C   UNL A   1      42.686  29.826  35.265  1.00  0.00     0.031 C 
ATOM     61  C   UNL A   1      43.567  28.406  33.434  1.00  0.00     0.037 A 
BRANCH  48  62
ATOM     62  C   UNL A   1      42.213  26.257  27.801  1.00  0.00     0.057 A 
ATOM     63  C   UNL A   1      42.975  26.740  26.730  1.00  0.00     0.134 A 
ATOM     64  C   UNL A   1      41.813  24.915  27.758  1.00  0.00     0.134 A 
ATOM     65  F   UNL A   1      43.374  28.021  26.702  1.00  0.00    -0.206 F 
ATOM     66  C   UNL A   1      43.303  25.928  25.643  1.00  0.00     0.040 A 
ATOM     67  C   UNL A   1      42.153  24.088  26.687  1.00  0.00     0.040 A 
ATOM     68  F   UNL A   1      41.081  24.391  28.753  1.00  0.00    -0.206 F 
ATOM     69  C   UNL A   1      42.894  24.595  25.622  1.00  0.00     0.006 A 
ENDBRANCH  48  62
BRANCH  49  70
ATOM     70  C   UNL A   1      39.035  31.933  35.348  1.00  0.00     0.057 A 
ATOM     71  C   UNL A   1      39.353  33.291  35.451  1.00  0.00     0.134 A 
ATOM     72  C   UNL A   1      38.241  31.375  36.357  1.00  0.00     0.134 A 
ATOM     73  F   UNL A   1      40.129  33.873  34.525  1.00  0.00    -0.206 F 
ATOM     74  C   UNL A   1      38.908  34.065  36.523  1.00  0.00     0.040 A 
ATOM     75  C   UNL A   1      37.773  32.142  37.425  1.00  0.00     0.040 A 
ATOM     76  F   UNL A   1      37.902  30.078  36.312  1.00  0.00    -0.206 F 
ATOM     77  C   UNL A   1      38.110  33.491  37.511  1.00  0.00     0.006 A 
ENDBRANCH  49  70
BRANCH  61  78
ATOM     78  C   UNL A   1      44.791  28.171  34.266  1.00  0.00     0.057 A 
ATOM     79  C   UNL A   1      45.909  29.011  34.187  1.00  0.00     0.134 A 
ATOM     80  C   UNL A   1      44.841  27.109  35.178  1.00  0.00     0.134 A 
ATOM     81  F   UNL A   1      45.928  30.039  33.326  1.00  0.00    -0.206 F 
ATOM     82  C   UNL A   1      47.044  28.788  34.970  1.00  0.00     0.040 A 
ATOM     83  C   UNL A   1      45.961  26.890  35.981  1.00  0.00     0.040 A 
ATOM     84  F   UNL A   1      43.799  26.274  35.308  1.00  0.00    -0.206 F 
ATOM     85  C   UNL A   1      47.069  27.727  35.873  1.00  0.00     0.006 A 
ENDBRANCH  61  78
ENDBRANCH  35  36
ENDBRANCH  28  30
ENDBRANCH  27  28
ENDBRANCH  26  27
ENDBRANCH  25  26
ENDBRANCH  24  25
ENDBRANCH   1  24
TORSDOF 18
ENDMDL
