MODEL 1
REMARK VINA RESULT:     -11.0      0.000      0.000
REMARK SMILES Cc1ccsc1C(=O)N1CCN(C(=O)OC(C)(C)C)C[C@@H]1C(=O)OCCOCCOC(=O)c1ccc(-c2c3nc(c(-c4c(F)cccc4F)c4ccc([nH]4)c(-c4c(F)cccc4F)c4nc(c(-c5c(F)cccc5F)c5ccc2[nH]5)C=C4)C=C3)cc1
REMARK SMILES IDX 26 1 25 2 24 3 22 4 23 5 21 6 9 7 10 8 11 9 20 10 12 11 7 12
REMARK SMILES IDX 8 13 6 14 1 15 2 16 3 17 4 18 5 19 13 20 14 21 15 22 16 23
REMARK SMILES IDX 17 24 18 25 19 26 27 27 28 28 29 29 30 30 31 31 32 32 33 33
REMARK SMILES IDX 34 34 86 35 35 36 85 37 36 38 37 39 38 40 79 41 39 42 84 43
REMARK SMILES IDX 78 44 80 45 40 46 83 47 77 48 76 49 41 51 67 52 50 53 66 54
REMARK SMILES IDX 51 55 54 56 65 57 81 58 52 59 53 60 64 62 82 63 55 64 42 65
REMARK SMILES IDX 43 66 48 67 44 68 45 69 47 70 49 71 46 72 68 73 69 74 74 75
REMARK SMILES IDX 70 76 71 77 73 78 75 79 72 80 56 81 57 82 62 83 58 84 59 85
REMARK SMILES IDX 61 86 63 87 60 88
REMARK H PARENT 80 50 54 61
REMARK Flexibility Score: inf
ROOT
ATOM      1  C   UNL A   1      37.675  22.162  25.397  1.00  0.00     0.202 C 
ENDROOT
BRANCH   1   2
ATOM      2  C   UNL A   1      37.021  23.443  24.860  1.00  0.00     0.261 C 
BRANCH   2   3
ATOM      3  O   UNL A   1      36.131  24.083  25.801  1.00  0.00    -0.462 OA
BRANCH   3   4
ATOM      4  C   UNL A   1      34.990  23.401  26.103  1.00  0.00     0.330 C 
ATOM      5  O   UNL A   1      34.805  22.790  27.152  1.00  0.00    -0.250 OA
BRANCH   4   6
ATOM      6  C   UNL A   1      33.958  23.372  24.955  1.00  0.00     0.215 C 
ATOM      7  N   UNL A   1      32.629  23.706  25.484  1.00  0.00    -0.321 N 
ATOM      8  C   UNL A   1      31.948  22.602  26.146  1.00  0.00     0.142 C 
ATOM      9  C   UNL A   1      31.779  21.428  25.180  1.00  0.00     0.144 C 
ATOM     10  C   UNL A   1      33.947  22.083  24.091  1.00  0.00     0.160 C 
ATOM     11  N   UNL A   1      33.014  21.022  24.498  1.00  0.00    -0.304 N 
BRANCH   7  12
ATOM     12  C   UNL A   1      32.277  25.007  25.838  1.00  0.00     0.265 C 
ATOM     13  O   UNL A   1      31.597  25.171  26.853  1.00  0.00    -0.268 OA
BRANCH  12  14
ATOM     14  C   UNL A   1      32.609  26.099  24.913  1.00  0.00     0.095 A 
ATOM     15  C   UNL A   1      33.933  27.835  26.317  1.00  0.00     0.046 C 
ATOM     16  C   UNL A   1      33.334  27.283  25.067  1.00  0.00    -0.027 A 
ATOM     17  C   UNL A   1      33.518  27.954  23.807  1.00  0.00     0.016 A 
ATOM     18  C   UNL A   1      32.964  27.277  22.751  1.00  0.00     0.066 A 
ATOM     19  S   UNL A   1      32.166  25.865  23.258  1.00  0.00    -0.138 S 
ENDBRANCH  12  14
ENDBRANCH   7  12
BRANCH  11  20
ATOM     20  C   UNL A   1      33.050  19.729  23.967  1.00  0.00     0.410 C 
ATOM     21  O   UNL A   1      32.217  19.334  23.154  1.00  0.00    -0.224 OA
BRANCH  20  22
ATOM     22  O   UNL A   1      34.076  18.958  24.425  1.00  0.00    -0.444 OA
BRANCH  22  23
ATOM     23  C   UNL A   1      33.954  17.497  24.495  1.00  0.00     0.106 C 
ATOM     24  C   UNL A   1      32.821  17.055  25.426  1.00  0.00     0.056 C 
ATOM     25  C   UNL A   1      33.784  16.835  23.122  1.00  0.00     0.056 C 
ATOM     26  C   UNL A   1      35.275  16.993  25.105  1.00  0.00     0.056 C 
ENDBRANCH  22  23
ENDBRANCH  20  22
ENDBRANCH  11  20
ENDBRANCH   4   6
ENDBRANCH   3   4
ENDBRANCH   2   3
ENDBRANCH   1   2
BRANCH   1  27
ATOM     27  O   UNL A   1      37.171  20.924  24.909  1.00  0.00    -0.374 OA
BRANCH  27  28
ATOM     28  C   UNL A   1      38.059  19.815  24.894  1.00  0.00     0.202 C 
BRANCH  28  29
ATOM     29  C   UNL A   1      39.316  19.903  25.767  1.00  0.00     0.261 C 
BRANCH  29  30
ATOM     30  O   UNL A   1      40.300  18.869  25.534  1.00  0.00    -0.460 OA
BRANCH  30  31
ATOM     31  C   UNL A   1      41.529  19.156  26.033  1.00  0.00     0.338 C 
ATOM     32  O   UNL A   1      42.517  18.438  25.972  1.00  0.00    -0.246 OA
BRANCH  31  33
ATOM     33  C   UNL A   1      41.661  20.525  26.565  1.00  0.00     0.060 A 
ATOM     34  C   UNL A   1      41.962  21.507  25.617  1.00  0.00     0.016 A 
ATOM     35  C   UNL A   1      41.731  20.827  27.928  1.00  0.00     0.016 A 
ATOM     36  C   UNL A   1      42.389  22.764  26.026  1.00  0.00     0.010 A 
ATOM     37  C   UNL A   1      42.149  22.100  28.342  1.00  0.00     0.010 A 
ATOM     38  C   UNL A   1      42.505  23.067  27.391  1.00  0.00    -0.014 A 
BRANCH  38  39
ATOM     39  C   UNL A   1      42.958  24.424  27.776  1.00  0.00     0.031 A 
ATOM     40  C   UNL A   1      44.405  24.817  27.705  1.00  0.00     0.074 A 
ATOM     41  C   UNL A   1      42.020  25.329  28.111  1.00  0.00     0.049 A 
ATOM     42  N   UNL A   1      44.952  25.988  27.924  1.00  0.00    -0.248 NA
ATOM     43  C   UNL A   1      45.364  23.765  27.336  1.00  0.00     0.031 C 
ATOM     44  C   UNL A   1      40.584  25.050  28.186  1.00  0.00     0.029 A 
ATOM     45  N   UNL A   1      42.122  26.656  28.428  1.00  0.00    -0.354 N 
ATOM     46  C   UNL A   1      46.315  25.817  27.716  1.00  0.00     0.074 A 
ATOM     47  C   UNL A   1      46.517  24.422  27.382  1.00  0.00     0.031 C 
ATOM     48  C   UNL A   1      39.937  26.179  28.507  1.00  0.00     0.029 A 
ATOM     49  C   UNL A   1      40.914  27.244  28.707  1.00  0.00     0.049 A 
ATOM     50  H   UNL A   1      42.979  27.141  28.454  1.00  0.00     0.167 HD
ATOM     51  C   UNL A   1      47.301  26.745  27.792  1.00  0.00     0.037 A 
ATOM     52  C   UNL A   1      40.626  28.499  29.099  1.00  0.00     0.037 A 
ATOM     53  C   UNL A   1      47.082  28.131  28.135  1.00  0.00     0.049 A 
ATOM     54  C   UNL A   1      41.747  29.487  29.245  1.00  0.00     0.074 A 
ATOM     55  C   UNL A   1      48.006  29.158  28.211  1.00  0.00     0.029 A 
ATOM     56  N   UNL A   1      45.852  28.676  28.477  1.00  0.00    -0.354 N 
ATOM     57  N   UNL A   1      43.025  29.326  29.000  1.00  0.00    -0.248 NA
ATOM     58  C   UNL A   1      41.389  30.826  29.725  1.00  0.00     0.031 C 
ATOM     59  C   UNL A   1      47.347  30.308  28.658  1.00  0.00     0.029 A 
ATOM     60  C   UNL A   1      46.001  30.015  28.805  1.00  0.00     0.049 A 
ATOM     61  H   UNL A   1      44.999  28.185  28.483  1.00  0.00     0.167 HD
ATOM     62  C   UNL A   1      43.623  30.545  29.286  1.00  0.00     0.074 A 
ATOM     63  C   UNL A   1      42.561  31.443  29.694  1.00  0.00     0.031 C 
ATOM     64  C   UNL A   1      44.932  30.890  29.222  1.00  0.00     0.037 A 
BRANCH  51  65
ATOM     65  C   UNL A   1      48.712  26.297  27.530  1.00  0.00     0.057 A 
ATOM     66  C   UNL A   1      49.294  26.375  26.257  1.00  0.00     0.134 A 
ATOM     67  C   UNL A   1      49.519  25.832  28.576  1.00  0.00     0.134 A 
ATOM     68  F   UNL A   1      48.579  26.808  25.208  1.00  0.00    -0.206 F 
ATOM     69  C   UNL A   1      50.617  25.984  26.031  1.00  0.00     0.040 A 
ATOM     70  C   UNL A   1      50.851  25.463  28.369  1.00  0.00     0.040 A 
ATOM     71  F   UNL A   1      49.034  25.742  29.824  1.00  0.00    -0.206 F 
ATOM     72  C   UNL A   1      51.402  25.533  27.092  1.00  0.00     0.006 A 
ENDBRANCH  51  65
BRANCH  52  73
ATOM     73  C   UNL A   1      39.222  28.871  29.404  1.00  0.00     0.057 A 
ATOM     74  C   UNL A   1      38.676  28.676  30.677  1.00  0.00     0.134 A 
ATOM     75  C   UNL A   1      38.396  29.442  28.428  1.00  0.00     0.134 A 
ATOM     76  F   UNL A   1      39.411  28.120  31.650  1.00  0.00    -0.206 F 
ATOM     77  C   UNL A   1      37.354  29.022  30.964  1.00  0.00     0.040 A 
ATOM     78  C   UNL A   1      37.084  29.820  28.708  1.00  0.00     0.040 A 
ATOM     79  F   UNL A   1      38.864  29.661  27.189  1.00  0.00    -0.206 F 
ATOM     80  C   UNL A   1      36.557  29.603  29.979  1.00  0.00     0.006 A 
ENDBRANCH  52  73
BRANCH  64  81
ATOM     81  C   UNL A   1      45.284  32.300  29.600  1.00  0.00     0.057 A 
ATOM     82  C   UNL A   1      45.241  33.344  28.666  1.00  0.00     0.134 A 
ATOM     83  C   UNL A   1      45.643  32.622  30.914  1.00  0.00     0.134 A 
ATOM     84  F   UNL A   1      44.921  33.099  27.386  1.00  0.00    -0.206 F 
ATOM     85  C   UNL A   1      45.564  34.654  29.023  1.00  0.00     0.040 A 
ATOM     86  C   UNL A   1      45.939  33.933  31.289  1.00  0.00     0.040 A 
ATOM     87  F   UNL A   1      45.697  31.671  31.859  1.00  0.00    -0.206 F 
ATOM     88  C   UNL A   1      45.907  34.953  30.339  1.00  0.00     0.006 A 
ENDBRANCH  64  81
ENDBRANCH  38  39
ENDBRANCH  31  33
ENDBRANCH  30  31
ENDBRANCH  29  30
ENDBRANCH  28  29
ENDBRANCH  27  28
ENDBRANCH   1  27
TORSDOF 19
ENDMDL
MODEL 2
REMARK VINA RESULT:     -10.9      1.171      6.066
REMARK SMILES Cc1ccsc1C(=O)N1CCN(C(=O)OC(C)(C)C)C[C@@H]1C(=O)OCCOCCOC(=O)c1ccc(-c2c3nc(c(-c4c(F)cccc4F)c4ccc([nH]4)c(-c4c(F)cccc4F)c4nc(c(-c5c(F)cccc5F)c5ccc2[nH]5)C=C4)C=C3)cc1
REMARK SMILES IDX 26 1 25 2 24 3 22 4 23 5 21 6 9 7 10 8 11 9 20 10 12 11 7 12
REMARK SMILES IDX 8 13 6 14 1 15 2 16 3 17 4 18 5 19 13 20 14 21 15 22 16 23
REMARK SMILES IDX 17 24 18 25 19 26 27 27 28 28 29 29 30 30 31 31 32 32 33 33
REMARK SMILES IDX 34 34 86 35 35 36 85 37 36 38 37 39 38 40 79 41 39 42 84 43
REMARK SMILES IDX 78 44 80 45 40 46 83 47 77 48 76 49 41 51 67 52 50 53 66 54
REMARK SMILES IDX 51 55 54 56 65 57 81 58 52 59 53 60 64 62 82 63 55 64 42 65
REMARK SMILES IDX 43 66 48 67 44 68 45 69 47 70 49 71 46 72 68 73 69 74 74 75
REMARK SMILES IDX 70 76 71 77 73 78 75 79 72 80 56 81 57 82 62 83 58 84 59 85
REMARK SMILES IDX 61 86 63 87 60 88
REMARK H PARENT 80 50 54 61
REMARK Flexibility Score: inf
ROOT
ATOM      1  C   UNL A   1      38.036  21.779  25.635  1.00  0.00     0.202 C 
ENDROOT
BRANCH   1   2
ATOM      2  C   UNL A   1      37.267  23.005  25.122  1.00  0.00     0.261 C 
BRANCH   2   3
ATOM      3  O   UNL A   1      36.170  23.405  25.971  1.00  0.00    -0.462 OA
BRANCH   3   4
ATOM      4  C   UNL A   1      35.096  22.566  25.994  1.00  0.00     0.330 C 
ATOM      5  O   UNL A   1      34.455  22.288  27.005  1.00  0.00    -0.250 OA
BRANCH   4   6
ATOM      6  C   UNL A   1      34.796  21.899  24.635  1.00  0.00     0.215 C 
ATOM      7  N   UNL A   1      33.675  22.592  23.987  1.00  0.00    -0.321 N 
ATOM      8  C   UNL A   1      32.360  22.208  24.484  1.00  0.00     0.142 C 
ATOM      9  C   UNL A   1      32.142  20.706  24.301  1.00  0.00     0.144 C 
ATOM     10  C   UNL A   1      34.604  20.360  24.669  1.00  0.00     0.160 C 
ATOM     11  N   UNL A   1      33.227  19.868  24.826  1.00  0.00    -0.304 N 
BRANCH   7  12
ATOM     12  C   UNL A   1      33.818  23.846  23.398  1.00  0.00     0.265 C 
ATOM     13  O   UNL A   1      34.844  24.074  22.754  1.00  0.00    -0.268 OA
BRANCH  12  14
ATOM     14  C   UNL A   1      32.812  24.877  23.690  1.00  0.00     0.095 A 
ATOM     15  C   UNL A   1      33.273  25.645  26.126  1.00  0.00     0.046 C 
ATOM     16  C   UNL A   1      32.575  25.680  24.808  1.00  0.00    -0.027 A 
ATOM     17  C   UNL A   1      31.556  26.661  24.543  1.00  0.00     0.016 A 
ATOM     18  C   UNL A   1      31.068  26.599  23.263  1.00  0.00     0.066 A 
ATOM     19  S   UNL A   1      31.777  25.331  22.381  1.00  0.00    -0.138 S 
ENDBRANCH  12  14
ENDBRANCH   7  12
BRANCH  11  20
ATOM     20  C   UNL A   1      32.920  18.532  25.101  1.00  0.00     0.410 C 
ATOM     21  O   UNL A   1      31.778  18.090  25.000  1.00  0.00    -0.224 OA
BRANCH  20  22
ATOM     22  O   UNL A   1      33.987  17.774  25.486  1.00  0.00    -0.444 OA
BRANCH  22  23
ATOM     23  C   UNL A   1      34.189  16.423  24.951  1.00  0.00     0.106 C 
ATOM     24  C   UNL A   1      35.535  15.828  25.376  1.00  0.00     0.056 C 
ATOM     25  C   UNL A   1      33.057  15.452  25.309  1.00  0.00     0.056 C 
ATOM     26  C   UNL A   1      34.216  16.577  23.418  1.00  0.00     0.056 C 
ENDBRANCH  22  23
ENDBRANCH  20  22
ENDBRANCH  11  20
ENDBRANCH   4   6
ENDBRANCH   3   4
ENDBRANCH   2   3
ENDBRANCH   1   2
BRANCH   1  27
ATOM     27  O   UNL A   1      37.765  20.534  25.002  1.00  0.00    -0.374 OA
BRANCH  27  28
ATOM     28  C   UNL A   1      38.688  19.475  25.216  1.00  0.00     0.202 C 
BRANCH  28  29
ATOM     29  C   UNL A   1      40.002  19.816  25.929  1.00  0.00     0.261 C 
BRANCH  29  30
ATOM     30  O   UNL A   1      41.051  18.830  25.788  1.00  0.00    -0.460 OA
BRANCH  30  31
ATOM     31  C   UNL A   1      42.293  19.305  26.060  1.00  0.00     0.338 C 
ATOM     32  O   UNL A   1      43.345  18.697  25.914  1.00  0.00    -0.246 OA
BRANCH  31  33
ATOM     33  C   UNL A   1      42.327  20.732  26.431  1.00  0.00     0.060 A 
ATOM     34  C   UNL A   1      42.564  21.616  25.375  1.00  0.00     0.016 A 
ATOM     35  C   UNL A   1      42.369  21.192  27.750  1.00  0.00     0.016 A 
ATOM     36  C   UNL A   1      42.901  22.939  25.636  1.00  0.00     0.010 A 
ATOM     37  C   UNL A   1      42.695  22.530  28.014  1.00  0.00     0.010 A 
ATOM     38  C   UNL A   1      42.988  23.404  26.957  1.00  0.00    -0.014 A 
BRANCH  38  39
ATOM     39  C   UNL A   1      43.344  24.824  27.182  1.00  0.00     0.031 A 
ATOM     40  C   UNL A   1      42.345  25.805  27.725  1.00  0.00     0.074 A 
ATOM     41  C   UNL A   1      44.619  25.195  26.968  1.00  0.00     0.049 A 
ATOM     42  N   UNL A   1      42.522  27.060  28.059  1.00  0.00    -0.248 NA
ATOM     43  C   UNL A   1      40.972  25.318  27.923  1.00  0.00     0.031 C 
ATOM     44  C   UNL A   1      45.671  24.309  26.464  1.00  0.00     0.029 A 
ATOM     45  N   UNL A   1      45.253  26.393  27.162  1.00  0.00    -0.354 N 
ATOM     46  C   UNL A   1      41.288  27.512  28.512  1.00  0.00     0.074 A 
ATOM     47  C   UNL A   1      40.363  26.405  28.381  1.00  0.00     0.031 C 
ATOM     48  C   UNL A   1      46.825  24.989  26.409  1.00  0.00     0.029 A 
ATOM     49  C   UNL A   1      46.583  26.366  26.826  1.00  0.00     0.049 A 
ATOM     50  H   UNL A   1      44.798  27.195  27.509  1.00  0.00     0.167 HD
ATOM     51  C   UNL A   1      40.966  28.737  28.996  1.00  0.00     0.037 A 
ATOM     52  C   UNL A   1      47.503  27.348  26.835  1.00  0.00     0.037 A 
ATOM     53  C   UNL A   1      41.901  29.832  29.111  1.00  0.00     0.049 A 
ATOM     54  C   UNL A   1      47.100  28.714  27.308  1.00  0.00     0.074 A 
ATOM     55  C   UNL A   1      41.685  31.102  29.615  1.00  0.00     0.029 A 
ATOM     56  N   UNL A   1      43.226  29.788  28.698  1.00  0.00    -0.354 N 
ATOM     57  N   UNL A   1      45.943  29.116  27.777  1.00  0.00    -0.248 NA
ATOM     58  C   UNL A   1      48.125  29.762  27.250  1.00  0.00     0.031 C 
ATOM     59  C   UNL A   1      42.859  31.845  29.450  1.00  0.00     0.029 A 
ATOM     60  C   UNL A   1      43.826  31.021  28.897  1.00  0.00     0.049 A 
ATOM     61  H   UNL A   1      43.673  28.997  28.321  1.00  0.00     0.167 HD
ATOM     62  C   UNL A   1      46.104  30.461  28.080  1.00  0.00     0.074 A 
ATOM     63  C   UNL A   1      47.479  30.796  27.768  1.00  0.00     0.031 C 
ATOM     64  C   UNL A   1      45.194  31.340  28.567  1.00  0.00     0.037 A 
BRANCH  51  65
ATOM     65  C   UNL A   1      39.542  28.977  29.414  1.00  0.00     0.057 A 
ATOM     66  C   UNL A   1      38.566  29.421  28.512  1.00  0.00     0.134 A 
ATOM     67  C   UNL A   1      39.128  28.707  30.725  1.00  0.00     0.134 A 
ATOM     68  F   UNL A   1      38.891  29.703  27.241  1.00  0.00    -0.206 F 
ATOM     69  C   UNL A   1      37.238  29.611  28.904  1.00  0.00     0.040 A 
ATOM     70  C   UNL A   1      37.798  28.867  31.123  1.00  0.00     0.040 A 
ATOM     71  F   UNL A   1      40.005  28.266  31.640  1.00  0.00    -0.206 F 
ATOM     72  C   UNL A   1      36.850  29.327  30.213  1.00  0.00     0.006 A 
ENDBRANCH  51  65
BRANCH  52  73
ATOM     73  C   UNL A   1      48.880  27.070  26.353  1.00  0.00     0.057 A 
ATOM     74  C   UNL A   1      49.898  26.691  27.233  1.00  0.00     0.134 A 
ATOM     75  C   UNL A   1      49.204  27.168  24.994  1.00  0.00     0.134 A 
ATOM     76  F   UNL A   1      49.654  26.594  28.548  1.00  0.00    -0.206 F 
ATOM     77  C   UNL A   1      51.194  26.434  26.781  1.00  0.00     0.040 A 
ATOM     78  C   UNL A   1      50.486  26.884  24.524  1.00  0.00     0.040 A 
ATOM     79  F   UNL A   1      48.269  27.521  24.098  1.00  0.00    -0.206 F 
ATOM     80  C   UNL A   1      51.488  26.523  25.422  1.00  0.00     0.006 A 
ENDBRANCH  52  73
BRANCH  64  81
ATOM     81  C   UNL A   1      45.663  32.748  28.793  1.00  0.00     0.057 A 
ATOM     82  C   UNL A   1      45.588  33.720  27.787  1.00  0.00     0.134 A 
ATOM     83  C   UNL A   1      46.172  33.144  30.037  1.00  0.00     0.134 A 
ATOM     84  F   UNL A   1      45.127  33.401  26.567  1.00  0.00    -0.206 F 
ATOM     85  C   UNL A   1      46.021  35.028  28.003  1.00  0.00     0.040 A 
ATOM     86  C   UNL A   1      46.580  34.457  30.274  1.00  0.00     0.040 A 
ATOM     87  F   UNL A   1      46.265  32.264  31.046  1.00  0.00    -0.206 F 
ATOM     88  C   UNL A   1      46.513  35.402  29.252  1.00  0.00     0.006 A 
ENDBRANCH  64  81
ENDBRANCH  38  39
ENDBRANCH  31  33
ENDBRANCH  30  31
ENDBRANCH  29  30
ENDBRANCH  28  29
ENDBRANCH  27  28
ENDBRANCH   1  27
TORSDOF 19
ENDMDL
MODEL 3
REMARK VINA RESULT:     -10.8      3.666      8.582
REMARK SMILES Cc1ccsc1C(=O)N1CCN(C(=O)OC(C)(C)C)C[C@@H]1C(=O)OCCOCCOC(=O)c1ccc(-c2c3nc(c(-c4c(F)cccc4F)c4ccc([nH]4)c(-c4c(F)cccc4F)c4nc(c(-c5c(F)cccc5F)c5ccc2[nH]5)C=C4)C=C3)cc1
REMARK SMILES IDX 26 1 25 2 24 3 22 4 23 5 21 6 9 7 10 8 11 9 20 10 12 11 7 12
REMARK SMILES IDX 8 13 6 14 1 15 2 16 3 17 4 18 5 19 13 20 14 21 15 22 16 23
REMARK SMILES IDX 17 24 18 25 19 26 27 27 28 28 29 29 30 30 31 31 32 32 33 33
REMARK SMILES IDX 34 34 86 35 35 36 85 37 36 38 37 39 38 40 79 41 39 42 84 43
REMARK SMILES IDX 78 44 80 45 40 46 83 47 77 48 76 49 41 51 67 52 50 53 66 54
REMARK SMILES IDX 51 55 54 56 65 57 81 58 52 59 53 60 64 62 82 63 55 64 42 65
REMARK SMILES IDX 43 66 48 67 44 68 45 69 47 70 49 71 46 72 68 73 69 74 74 75
REMARK SMILES IDX 70 76 71 77 73 78 75 79 72 80 56 81 57 82 62 83 58 84 59 85
REMARK SMILES IDX 61 86 63 87 60 88
REMARK H PARENT 80 50 54 61
REMARK Flexibility Score: inf
ROOT
ATOM      1  C   UNL A   1      34.778  30.554  27.662  1.00  0.00     0.202 C 
ENDROOT
BRANCH   1   2
ATOM      2  C   UNL A   1      33.594  29.932  26.909  1.00  0.00     0.261 C 
BRANCH   2   3
ATOM      3  O   UNL A   1      33.981  28.974  25.900  1.00  0.00    -0.462 OA
BRANCH   3   4
ATOM      4  C   UNL A   1      33.139  28.854  24.835  1.00  0.00     0.330 C 
ATOM      5  O   UNL A   1      33.505  28.792  23.665  1.00  0.00    -0.250 OA
BRANCH   4   6
ATOM      6  C   UNL A   1      31.643  28.899  25.215  1.00  0.00     0.215 C 
ATOM      7  N   UNL A   1      31.116  27.530  25.288  1.00  0.00    -0.321 N 
ATOM      8  C   UNL A   1      30.787  26.940  23.997  1.00  0.00     0.142 C 
ATOM      9  C   UNL A   1      29.748  27.797  23.272  1.00  0.00     0.144 C 
ATOM     10  C   UNL A   1      30.757  29.832  24.349  1.00  0.00     0.160 C 
ATOM     11  N   UNL A   1      30.091  29.222  23.188  1.00  0.00    -0.304 N 
BRANCH   7  12
ATOM     12  C   UNL A   1      31.412  26.676  26.348  1.00  0.00     0.265 C 
ATOM     13  O   UNL A   1      31.415  27.143  27.490  1.00  0.00    -0.268 OA
BRANCH  12  14
ATOM     14  C   UNL A   1      31.842  25.305  26.044  1.00  0.00     0.095 A 
ATOM     15  C   UNL A   1      34.341  25.482  25.365  1.00  0.00     0.046 C 
ATOM     16  C   UNL A   1      33.071  24.759  25.665  1.00  0.00    -0.027 A 
ATOM     17  C   UNL A   1      33.023  23.321  25.641  1.00  0.00     0.016 A 
ATOM     18  C   UNL A   1      31.801  22.817  26.009  1.00  0.00     0.066 A 
ATOM     19  S   UNL A   1      30.682  24.055  26.330  1.00  0.00    -0.138 S 
ENDBRANCH  12  14
ENDBRANCH   7  12
BRANCH  11  20
ATOM     20  C   UNL A   1      29.454  29.970  22.193  1.00  0.00     0.410 C 
ATOM     21  O   UNL A   1      28.758  29.445  21.327  1.00  0.00    -0.224 OA
BRANCH  20  22
ATOM     22  O   UNL A   1      29.670  31.314  22.270  1.00  0.00    -0.444 OA
BRANCH  22  23
ATOM     23  C   UNL A   1      28.573  32.244  22.559  1.00  0.00     0.106 C 
ATOM     24  C   UNL A   1      27.497  31.610  23.446  1.00  0.00     0.056 C 
ATOM     25  C   UNL A   1      29.043  33.565  23.179  1.00  0.00     0.056 C 
ATOM     26  C   UNL A   1      27.921  32.561  21.200  1.00  0.00     0.056 C 
ENDBRANCH  22  23
ENDBRANCH  20  22
ENDBRANCH  11  20
ENDBRANCH   4   6
ENDBRANCH   3   4
ENDBRANCH   2   3
ENDBRANCH   1   2
BRANCH   1  27
ATOM     27  O   UNL A   1      34.767  31.967  27.831  1.00  0.00    -0.374 OA
BRANCH  27  28
ATOM     28  C   UNL A   1      34.772  32.468  29.160  1.00  0.00     0.202 C 
BRANCH  28  29
ATOM     29  C   UNL A   1      36.121  32.542  29.883  1.00  0.00     0.261 C 
BRANCH  29  30
ATOM     30  O   UNL A   1      36.189  31.816  31.133  1.00  0.00    -0.460 OA
BRANCH  30  31
ATOM     31  C   UNL A   1      36.616  30.534  31.004  1.00  0.00     0.338 C 
ATOM     32  O   UNL A   1      35.915  29.533  31.047  1.00  0.00    -0.246 OA
BRANCH  31  33
ATOM     33  C   UNL A   1      38.041  30.406  30.646  1.00  0.00     0.060 A 
ATOM     34  C   UNL A   1      38.311  30.379  29.275  1.00  0.00     0.016 A 
ATOM     35  C   UNL A   1      39.048  30.087  31.561  1.00  0.00     0.016 A 
ATOM     36  C   UNL A   1      39.560  29.977  28.817  1.00  0.00     0.010 A 
ATOM     37  C   UNL A   1      40.314  29.695  31.100  1.00  0.00     0.010 A 
ATOM     38  C   UNL A   1      40.567  29.614  29.723  1.00  0.00    -0.014 A 
BRANCH  38  39
ATOM     39  C   UNL A   1      41.884  29.200  29.186  1.00  0.00     0.031 A 
ATOM     40  C   UNL A   1      43.054  30.140  29.170  1.00  0.00     0.074 A 
ATOM     41  C   UNL A   1      42.028  27.923  28.789  1.00  0.00     0.049 A 
ATOM     42  N   UNL A   1      44.293  29.906  28.815  1.00  0.00    -0.248 NA
ATOM     43  C   UNL A   1      42.806  31.520  29.615  1.00  0.00     0.031 C 
ATOM     44  C   UNL A   1      40.956  26.924  28.788  1.00  0.00     0.029 A 
ATOM     45  N   UNL A   1      43.124  27.240  28.333  1.00  0.00    -0.354 N 
ATOM     46  C   UNL A   1      44.976  31.103  28.995  1.00  0.00     0.074 A 
ATOM     47  C   UNL A   1      44.005  32.071  29.465  1.00  0.00     0.031 C 
ATOM     48  C   UNL A   1      41.453  25.751  28.373  1.00  0.00     0.029 A 
ATOM     49  C   UNL A   1      42.861  25.927  28.033  1.00  0.00     0.049 A 
ATOM     50  H   UNL A   1      44.012  27.652  28.230  1.00  0.00     0.167 HD
ATOM     51  C   UNL A   1      46.291  31.362  28.793  1.00  0.00     0.037 A 
ATOM     52  C   UNL A   1      43.662  24.974  27.522  1.00  0.00     0.037 A 
ATOM     53  C   UNL A   1      47.242  30.386  28.315  1.00  0.00     0.049 A 
ATOM     54  C   UNL A   1      45.098  25.309  27.239  1.00  0.00     0.074 A 
ATOM     55  C   UNL A   1      48.602  30.536  28.105  1.00  0.00     0.029 A 
ATOM     56  N   UNL A   1      46.926  29.082  27.958  1.00  0.00    -0.354 N 
ATOM     57  N   UNL A   1      45.741  26.430  27.459  1.00  0.00    -0.248 NA
ATOM     58  C   UNL A   1      45.916  24.252  26.636  1.00  0.00     0.031 C 
ATOM     59  C   UNL A   1      49.095  29.345  27.562  1.00  0.00     0.029 A 
ATOM     60  C   UNL A   1      48.057  28.431  27.489  1.00  0.00     0.049 A 
ATOM     61  H   UNL A   1      46.032  28.679  28.029  1.00  0.00     0.167 HD
ATOM     62  C   UNL A   1      47.043  26.211  27.031  1.00  0.00     0.074 A 
ATOM     63  C   UNL A   1      47.101  24.840  26.566  1.00  0.00     0.031 C 
ATOM     64  C   UNL A   1      48.092  27.069  27.017  1.00  0.00     0.037 A 
BRANCH  51  65
ATOM     65  C   UNL A   1      46.783  32.758  29.056  1.00  0.00     0.057 A 
ATOM     66  C   UNL A   1      46.777  33.749  28.065  1.00  0.00     0.134 A 
ATOM     67  C   UNL A   1      47.217  33.133  30.334  1.00  0.00     0.134 A 
ATOM     68  F   UNL A   1      46.378  33.461  26.817  1.00  0.00    -0.206 F 
ATOM     69  C   UNL A   1      47.208  35.052  28.329  1.00  0.00     0.040 A 
ATOM     70  C   UNL A   1      47.624  34.439  30.619  1.00  0.00     0.040 A 
ATOM     71  F   UNL A   1      47.237  32.240  31.336  1.00  0.00    -0.206 F 
ATOM     72  C   UNL A   1      47.626  35.402  29.613  1.00  0.00     0.006 A 
ENDBRANCH  51  65
BRANCH  52  73
ATOM     73  C   UNL A   1      43.108  23.629  27.225  1.00  0.00     0.057 A 
ATOM     74  C   UNL A   1      42.729  23.267  25.928  1.00  0.00     0.134 A 
ATOM     75  C   UNL A   1      42.956  22.670  28.234  1.00  0.00     0.134 A 
ATOM     76  F   UNL A   1      42.836  24.146  24.922  1.00  0.00    -0.206 F 
ATOM     77  C   UNL A   1      42.204  22.004  25.648  1.00  0.00     0.040 A 
ATOM     78  C   UNL A   1      42.462  21.394  27.963  1.00  0.00     0.040 A 
ATOM     79  F   UNL A   1      43.308  22.954  29.497  1.00  0.00    -0.206 F 
ATOM     80  C   UNL A   1      42.077  21.061  26.667  1.00  0.00     0.006 A 
ENDBRANCH  52  73
BRANCH  64  81
ATOM     81  C   UNL A   1      49.394  26.541  26.485  1.00  0.00     0.057 A 
ATOM     82  C   UNL A   1      49.822  26.821  25.181  1.00  0.00     0.134 A 
ATOM     83  C   UNL A   1      50.239  25.769  27.291  1.00  0.00     0.134 A 
ATOM     84  F   UNL A   1      49.051  27.541  24.351  1.00  0.00    -0.206 F 
ATOM     85  C   UNL A   1      51.034  26.333  24.691  1.00  0.00     0.040 A 
ATOM     86  C   UNL A   1      51.466  25.300  26.823  1.00  0.00     0.040 A 
ATOM     87  F   UNL A   1      49.891  25.469  28.552  1.00  0.00    -0.206 F 
ATOM     88  C   UNL A   1      51.864  25.576  25.516  1.00  0.00     0.006 A 
ENDBRANCH  64  81
ENDBRANCH  38  39
ENDBRANCH  31  33
ENDBRANCH  30  31
ENDBRANCH  29  30
ENDBRANCH  28  29
ENDBRANCH  27  28
ENDBRANCH   1  27
TORSDOF 19
ENDMDL
