MODEL 1
REMARK VINA RESULT:     -11.5      0.000      0.000
REMARK SMILES COC(=O)c1ccccc1N1C(=O)/C(=C\c2ccc(-c3ccc(Cl)c(C(=O)OCCOCCOC(=O)c4ccc(-c5c6nc(c(-c7c(F)cccc7F)c7ccc([nH]7)c(-c7c(F)cccc7F)c7nc(c(-c8c(F)cccc8F)c8ccc5[nH]8)C=C7)C=C6)cc4)c3)o2)SC1=S
REMARK SMILES IDX 29 1 28 2 26 3 27 4 25 5 20 6 21 7 91 8 22 9 23 10 24 11
REMARK SMILES IDX 19 12 16 13 17 14 92 15 18 16 15 17 11 18 12 19 94 20 13 21
REMARK SMILES IDX 14 22 93 23 95 24 10 25 5 26 6 27 7 28 9 29 8 30 3 31 4 32
REMARK SMILES IDX 2 33 1 34 30 35 31 36 32 37 33 38 34 39 35 40 36 41 37 42
REMARK SMILES IDX 38 43 90 44 39 45 89 46 40 47 41 48 42 49 83 50 43 51 88 52
REMARK SMILES IDX 82 53 84 54 44 55 87 56 81 57 80 58 45 60 71 61 54 62 70 63
REMARK SMILES IDX 55 64 58 65 69 66 85 67 56 68 57 69 68 71 86 72 59 73 46 74
REMARK SMILES IDX 47 75 52 76 48 77 49 78 51 79 53 80 50 81 72 82 73 83 78 84
REMARK SMILES IDX 74 85 75 86 77 87 79 88 76 89 60 90 61 91 66 92 62 93 63 94
REMARK SMILES IDX 65 95 67 96 64 97
REMARK H PARENT 84 59 58 70
REMARK Flexibility Score: inf
ROOT
ATOM      1  C   UNL A   1      33.415  35.043  29.988  1.00  0.00     0.261 C 
ENDROOT
BRANCH   1   2
ATOM      2  O   UNL A   1      33.630  33.729  29.453  1.00  0.00    -0.460 OA
BRANCH   2   3
ATOM      3  C   UNL A   1      34.239  33.678  28.240  1.00  0.00     0.339 C 
ATOM      4  O   UNL A   1      34.421  34.607  27.472  1.00  0.00    -0.246 OA
BRANCH   3   5
ATOM      5  C   UNL A   1      34.724  32.298  28.025  1.00  0.00     0.079 A 
ATOM      6  C   UNL A   1      34.180  29.982  27.477  1.00  0.00     0.018 A 
ATOM      7  C   UNL A   1      35.535  29.654  27.585  1.00  0.00     0.013 A 
ATOM      8  C   UNL A   1      33.785  31.306  27.717  1.00  0.00     0.029 A 
ATOM      9  C   UNL A   1      36.477  30.638  27.911  1.00  0.00     0.022 A 
ATOM     10  C   UNL A   1      36.077  31.962  28.128  1.00  0.00     0.055 A 
ATOM     11  Cl  UNL A   1      37.297  33.094  28.584  1.00  0.00    -0.083 Cl
BRANCH   6  12
ATOM     12  C   UNL A   1      33.177  29.023  27.043  1.00  0.00     0.134 A 
ATOM     13  C   UNL A   1      32.118  27.777  25.546  1.00  0.00     0.128 A 
ATOM     14  C   UNL A   1      31.498  27.584  26.775  1.00  0.00     0.051 A 
ATOM     15  O   UNL A   1      33.181  28.636  25.735  1.00  0.00    -0.457 OA
ATOM     16  C   UNL A   1      32.154  28.397  27.718  1.00  0.00     0.051 A 
BRANCH  13  17
ATOM     17  C   UNL A   1      31.734  27.251  24.285  1.00  0.00     0.068 C 
ATOM     18  N   UNL A   1      33.629  24.186  23.661  1.00  0.00    -0.260 N 
ATOM     19  C   UNL A   1      33.279  25.256  24.476  1.00  0.00     0.270 C 
ATOM     20  C   UNL A   1      33.002  24.110  22.431  1.00  0.00     0.152 C 
ATOM     21  O   UNL A   1      33.703  25.455  25.608  1.00  0.00    -0.268 OA
ATOM     22  C   UNL A   1      32.295  26.140  23.787  1.00  0.00     0.084 C 
ATOM     23  S   UNL A   1      31.953  25.516  22.217  1.00  0.00    -0.054 SA
ATOM     24  S   UNL A   1      33.049  22.882  21.297  1.00  0.00    -0.051 S 
BRANCH  18  25
ATOM     25  C   UNL A   1      34.540  23.222  24.188  1.00  0.00     0.065 A 
ATOM     26  C   UNL A   1      34.167  22.103  24.958  1.00  0.00     0.084 A 
ATOM     27  C   UNL A   1      35.159  21.183  25.356  1.00  0.00     0.018 A 
ATOM     28  C   UNL A   1      36.495  21.355  24.990  1.00  0.00     0.001 A 
ATOM     29  C   UNL A   1      35.898  23.376  23.834  1.00  0.00     0.028 A 
ATOM     30  C   UNL A   1      36.866  22.455  24.231  1.00  0.00     0.002 A 
BRANCH  26  31
ATOM     31  C   UNL A   1      32.782  21.744  25.357  1.00  0.00     0.339 C 
ATOM     32  O   UNL A   1      32.052  21.051  24.665  1.00  0.00    -0.246 OA
BRANCH  31  33
ATOM     33  O   UNL A   1      32.432  22.324  26.534  1.00  0.00    -0.465 OA
ATOM     34  C   UNL A   1      31.121  22.896  26.513  1.00  0.00     0.282 C 
ENDBRANCH  31  33
ENDBRANCH  26  31
ENDBRANCH  18  25
ENDBRANCH  13  17
ENDBRANCH   6  12
ENDBRANCH   3   5
ENDBRANCH   2   3
ENDBRANCH   1   2
BRANCH   1  35
ATOM     35  C   UNL A   1      33.897  35.134  31.439  1.00  0.00     0.202 C 
BRANCH  35  36
ATOM     36  O   UNL A   1      33.345  34.212  32.378  1.00  0.00    -0.374 OA
BRANCH  36  37
ATOM     37  C   UNL A   1      34.217  33.252  32.971  1.00  0.00     0.202 C 
BRANCH  37  38
ATOM     38  C   UNL A   1      35.495  32.867  32.214  1.00  0.00     0.261 C 
BRANCH  38  39
ATOM     39  O   UNL A   1      36.066  31.621  32.643  1.00  0.00    -0.460 OA
BRANCH  39  40
ATOM     40  C   UNL A   1      37.079  31.755  33.535  1.00  0.00     0.338 C 
ATOM     41  O   UNL A   1      36.989  31.956  34.734  1.00  0.00    -0.246 OA
BRANCH  40  42
ATOM     42  C   UNL A   1      38.370  31.457  32.890  1.00  0.00     0.060 A 
ATOM     43  C   UNL A   1      38.614  32.049  31.645  1.00  0.00     0.016 A 
ATOM     44  C   UNL A   1      39.275  30.545  33.435  1.00  0.00     0.016 A 
ATOM     45  C   UNL A   1      39.744  31.692  30.914  1.00  0.00     0.010 A 
ATOM     46  C   UNL A   1      40.410  30.185  32.696  1.00  0.00     0.010 A 
ATOM     47  C   UNL A   1      40.630  30.729  31.417  1.00  0.00    -0.014 A 
BRANCH  47  48
ATOM     48  C   UNL A   1      41.721  30.230  30.543  1.00  0.00     0.031 A 
ATOM     49  C   UNL A   1      41.571  28.902  29.850  1.00  0.00     0.074 A 
ATOM     50  C   UNL A   1      42.814  30.985  30.328  1.00  0.00     0.049 A 
ATOM     51  N   UNL A   1      42.391  28.304  29.022  1.00  0.00    -0.248 NA
ATOM     52  C   UNL A   1      40.339  28.148  30.124  1.00  0.00     0.031 C 
ATOM     53  C   UNL A   1      43.065  32.297  30.925  1.00  0.00     0.029 A 
ATOM     54  N   UNL A   1      43.917  30.757  29.543  1.00  0.00    -0.354 N 
ATOM     55  C   UNL A   1      41.780  27.101  28.687  1.00  0.00     0.074 A 
ATOM     56  C   UNL A   1      40.533  27.041  29.420  1.00  0.00     0.031 C 
ATOM     57  C   UNL A   1      44.249  32.757  30.486  1.00  0.00     0.029 A 
ATOM     58  C   UNL A   1      44.852  31.762  29.603  1.00  0.00     0.049 A 
ATOM     59  H   UNL A   1      44.028  29.950  28.990  1.00  0.00     0.167 HD
ATOM     60  C   UNL A   1      42.217  26.139  27.840  1.00  0.00     0.037 A 
ATOM     61  C   UNL A   1      46.065  31.859  29.025  1.00  0.00     0.037 A 
ATOM     62  C   UNL A   1      43.448  26.210  27.096  1.00  0.00     0.049 A 
ATOM     63  C   UNL A   1      46.540  30.752  28.119  1.00  0.00     0.074 A 
ATOM     64  C   UNL A   1      43.947  25.311  26.169  1.00  0.00     0.029 A 
ATOM     65  N   UNL A   1      44.380  27.231  27.202  1.00  0.00    -0.354 N 
ATOM     66  N   UNL A   1      45.925  29.650  27.764  1.00  0.00    -0.248 NA
ATOM     67  C   UNL A   1      47.876  30.909  27.528  1.00  0.00     0.031 C 
ATOM     68  C   UNL A   1      45.210  25.752  25.766  1.00  0.00     0.029 A 
ATOM     69  C   UNL A   1      45.469  26.962  26.389  1.00  0.00     0.049 A 
ATOM     70  H   UNL A   1      44.282  28.028  27.771  1.00  0.00     0.167 HD
ATOM     71  C   UNL A   1      46.785  29.000  26.886  1.00  0.00     0.074 A 
ATOM     72  C   UNL A   1      47.952  29.844  26.745  1.00  0.00     0.031 C 
ATOM     73  C   UNL A   1      46.626  27.810  26.255  1.00  0.00     0.037 A 
BRANCH  60  74
ATOM     74  C   UNL A   1      41.377  24.903  27.683  1.00  0.00     0.057 A 
ATOM     75  C   UNL A   1      40.257  24.862  26.844  1.00  0.00     0.134 A 
ATOM     76  C   UNL A   1      41.747  23.713  28.324  1.00  0.00     0.134 A 
ATOM     77  F   UNL A   1      39.843  25.968  26.208  1.00  0.00    -0.206 F 
ATOM     78  C   UNL A   1      39.529  23.685  26.656  1.00  0.00     0.040 A 
ATOM     79  C   UNL A   1      41.044  22.524  28.124  1.00  0.00     0.040 A 
ATOM     80  F   UNL A   1      42.814  23.681  29.139  1.00  0.00    -0.206 F 
ATOM     81  C   UNL A   1      39.928  22.510  27.290  1.00  0.00     0.006 A 
ENDBRANCH  60  74
BRANCH  61  82
ATOM     82  C   UNL A   1      46.937  33.032  29.298  1.00  0.00     0.057 A 
ATOM     83  C   UNL A   1      46.920  34.163  28.476  1.00  0.00     0.134 A 
ATOM     84  C   UNL A   1      47.850  33.023  30.361  1.00  0.00     0.134 A 
ATOM     85  F   UNL A   1      46.084  34.224  27.428  1.00  0.00    -0.206 F 
ATOM     86  C   UNL A   1      47.801  35.228  28.676  1.00  0.00     0.040 A 
ATOM     87  C   UNL A   1      48.714  34.094  30.592  1.00  0.00     0.040 A 
ATOM     88  F   UNL A   1      47.916  31.972  31.191  1.00  0.00    -0.206 F 
ATOM     89  C   UNL A   1      48.701  35.195  29.740  1.00  0.00     0.006 A 
ENDBRANCH  61  82
BRANCH  73  90
ATOM     90  C   UNL A   1      47.725  27.371  25.330  1.00  0.00     0.057 A 
ATOM     91  C   UNL A   1      47.721  27.689  23.965  1.00  0.00     0.134 A 
ATOM     92  C   UNL A   1      48.811  26.630  25.814  1.00  0.00     0.134 A 
ATOM     93  F   UNL A   1      46.706  28.386  23.433  1.00  0.00    -0.206 F 
ATOM     94  C   UNL A   1      48.735  27.253  23.110  1.00  0.00     0.040 A 
ATOM     95  C   UNL A   1      49.849  26.218  24.976  1.00  0.00     0.040 A 
ATOM     96  F   UNL A   1      48.888  26.301  27.113  1.00  0.00    -0.206 F 
ATOM     97  C   UNL A   1      49.806  26.519  23.617  1.00  0.00     0.006 A 
ENDBRANCH  73  90
ENDBRANCH  47  48
ENDBRANCH  40  42
ENDBRANCH  39  40
ENDBRANCH  38  39
ENDBRANCH  37  38
ENDBRANCH  36  37
ENDBRANCH  35  36
ENDBRANCH   1  35
TORSDOF 19
ENDMDL
MODEL 2
REMARK VINA RESULT:     -11.0      1.199      5.801
REMARK SMILES COC(=O)c1ccccc1N1C(=O)/C(=C\c2ccc(-c3ccc(Cl)c(C(=O)OCCOCCOC(=O)c4ccc(-c5c6nc(c(-c7c(F)cccc7F)c7ccc([nH]7)c(-c7c(F)cccc7F)c7nc(c(-c8c(F)cccc8F)c8ccc5[nH]8)C=C7)C=C6)cc4)c3)o2)SC1=S
REMARK SMILES IDX 29 1 28 2 26 3 27 4 25 5 20 6 21 7 91 8 22 9 23 10 24 11
REMARK SMILES IDX 19 12 16 13 17 14 92 15 18 16 15 17 11 18 12 19 94 20 13 21
REMARK SMILES IDX 14 22 93 23 95 24 10 25 5 26 6 27 7 28 9 29 8 30 3 31 4 32
REMARK SMILES IDX 2 33 1 34 30 35 31 36 32 37 33 38 34 39 35 40 36 41 37 42
REMARK SMILES IDX 38 43 90 44 39 45 89 46 40 47 41 48 42 49 83 50 43 51 88 52
REMARK SMILES IDX 82 53 84 54 44 55 87 56 81 57 80 58 45 60 71 61 54 62 70 63
REMARK SMILES IDX 55 64 58 65 69 66 85 67 56 68 57 69 68 71 86 72 59 73 46 74
REMARK SMILES IDX 47 75 52 76 48 77 49 78 51 79 53 80 50 81 72 82 73 83 78 84
REMARK SMILES IDX 74 85 75 86 77 87 79 88 76 89 60 90 61 91 66 92 62 93 63 94
REMARK SMILES IDX 65 95 67 96 64 97
REMARK H PARENT 84 59 58 70
REMARK Flexibility Score: inf
ROOT
ATOM      1  C   UNL A   1      33.511  35.191  30.253  1.00  0.00     0.261 C 
ENDROOT
BRANCH   1   2
ATOM      2  O   UNL A   1      33.598  33.901  29.634  1.00  0.00    -0.460 OA
BRANCH   2   3
ATOM      3  C   UNL A   1      34.091  33.885  28.368  1.00  0.00     0.339 C 
ATOM      4  O   UNL A   1      34.173  34.830  27.603  1.00  0.00    -0.246 OA
BRANCH   3   5
ATOM      5  C   UNL A   1      34.592  32.524  28.085  1.00  0.00     0.079 A 
ATOM      6  C   UNL A   1      34.079  30.238  27.397  1.00  0.00     0.018 A 
ATOM      7  C   UNL A   1      35.436  29.915  27.511  1.00  0.00     0.013 A 
ATOM      8  C   UNL A   1      33.668  31.543  27.703  1.00  0.00     0.029 A 
ATOM      9  C   UNL A   1      36.363  30.888  27.909  1.00  0.00     0.022 A 
ATOM     10  C   UNL A   1      35.947  32.193  28.193  1.00  0.00     0.055 A 
ATOM     11  Cl  UNL A   1      37.147  33.308  28.735  1.00  0.00    -0.083 Cl
BRANCH   6  12
ATOM     12  C   UNL A   1      33.094  29.297  26.890  1.00  0.00     0.134 A 
ATOM     13  C   UNL A   1      32.109  28.087  25.315  1.00  0.00     0.128 A 
ATOM     14  C   UNL A   1      31.418  27.881  26.504  1.00  0.00     0.051 A 
ATOM     15  O   UNL A   1      33.168  28.931  25.578  1.00  0.00    -0.457 OA
ATOM     16  C   UNL A   1      32.027  28.671  27.496  1.00  0.00     0.051 A 
BRANCH  13  17
ATOM     17  C   UNL A   1      31.792  27.586  24.026  1.00  0.00     0.068 C 
ATOM     18  N   UNL A   1      33.606  24.453  23.502  1.00  0.00    -0.260 N 
ATOM     19  C   UNL A   1      33.243  25.530  24.302  1.00  0.00     0.270 C 
ATOM     20  C   UNL A   1      33.062  24.410  22.232  1.00  0.00     0.152 C 
ATOM     21  O   UNL A   1      33.596  25.704  25.462  1.00  0.00    -0.268 OA
ATOM     22  C   UNL A   1      32.343  26.457  23.557  1.00  0.00     0.084 C 
ATOM     23  S   UNL A   1      32.084  25.858  21.961  1.00  0.00    -0.054 SA
ATOM     24  S   UNL A   1      33.139  23.190  21.091  1.00  0.00    -0.051 S 
BRANCH  18  25
ATOM     25  C   UNL A   1      34.441  23.450  24.080  1.00  0.00     0.065 A 
ATOM     26  C   UNL A   1      33.973  22.326  24.787  1.00  0.00     0.084 A 
ATOM     27  C   UNL A   1      34.900  21.368  25.244  1.00  0.00     0.018 A 
ATOM     28  C   UNL A   1      36.267  21.508  24.999  1.00  0.00     0.001 A 
ATOM     29  C   UNL A   1      35.828  23.573  23.848  1.00  0.00     0.028 A 
ATOM     30  C   UNL A   1      36.733  22.614  24.303  1.00  0.00     0.002 A 
BRANCH  26  31
ATOM     31  C   UNL A   1      32.548  21.999  25.056  1.00  0.00     0.339 C 
ATOM     32  O   UNL A   1      31.914  21.199  24.384  1.00  0.00    -0.246 OA
BRANCH  31  33
ATOM     33  O   UNL A   1      32.050  22.733  26.083  1.00  0.00    -0.465 OA
ATOM     34  C   UNL A   1      30.655  22.513  26.310  1.00  0.00     0.282 C 
ENDBRANCH  31  33
ENDBRANCH  26  31
ENDBRANCH  18  25
ENDBRANCH  13  17
ENDBRANCH   6  12
ENDBRANCH   3   5
ENDBRANCH   2   3
ENDBRANCH   1   2
BRANCH   1  35
ATOM     35  C   UNL A   1      33.983  35.137  31.710  1.00  0.00     0.202 C 
BRANCH  35  36
ATOM     36  O   UNL A   1      33.546  34.037  32.506  1.00  0.00    -0.374 OA
BRANCH  36  37
ATOM     37  C   UNL A   1      34.525  33.109  32.967  1.00  0.00     0.202 C 
BRANCH  37  38
ATOM     38  C   UNL A   1      35.874  33.056  32.238  1.00  0.00     0.261 C 
BRANCH  38  39
ATOM     39  O   UNL A   1      36.341  31.720  31.986  1.00  0.00    -0.460 OA
BRANCH  39  40
ATOM     40  C   UNL A   1      37.366  31.334  32.786  1.00  0.00     0.338 C 
ATOM     41  O   UNL A   1      37.417  31.388  34.003  1.00  0.00    -0.246 OA
BRANCH  40  42
ATOM     42  C   UNL A   1      38.405  30.654  31.993  1.00  0.00     0.060 A 
ATOM     43  C   UNL A   1      39.292  29.820  32.684  1.00  0.00     0.016 A 
ATOM     44  C   UNL A   1      38.576  30.903  30.630  1.00  0.00     0.016 A 
ATOM     45  C   UNL A   1      40.387  29.269  32.023  1.00  0.00     0.010 A 
ATOM     46  C   UNL A   1      39.680  30.350  29.968  1.00  0.00     0.010 A 
ATOM     47  C   UNL A   1      40.610  29.560  30.669  1.00  0.00    -0.014 A 
BRANCH  47  48
ATOM     48  C   UNL A   1      41.877  29.116  30.038  1.00  0.00     0.031 A 
ATOM     49  C   UNL A   1      43.076  30.027  30.051  1.00  0.00     0.074 A 
ATOM     50  C   UNL A   1      41.972  27.883  29.505  1.00  0.00     0.049 A 
ATOM     51  N   UNL A   1      44.280  29.816  29.585  1.00  0.00    -0.248 NA
ATOM     52  C   UNL A   1      42.894  31.349  30.669  1.00  0.00     0.031 C 
ATOM     53  C   UNL A   1      40.888  26.902  29.451  1.00  0.00     0.029 A 
ATOM     54  N   UNL A   1      43.032  27.246  28.911  1.00  0.00    -0.354 N 
ATOM     55  C   UNL A   1      44.996  30.980  29.841  1.00  0.00     0.074 A 
ATOM     56  C   UNL A   1      44.083  31.904  30.481  1.00  0.00     0.031 C 
ATOM     57  C   UNL A   1      41.339  25.786  28.853  1.00  0.00     0.029 A 
ATOM     58  C   UNL A   1      42.730  25.984  28.457  1.00  0.00     0.049 A 
ATOM     59  H   UNL A   1      43.923  27.654  28.818  1.00  0.00     0.167 HD
ATOM     60  C   UNL A   1      46.296  31.249  29.573  1.00  0.00     0.037 A 
ATOM     61  C   UNL A   1      43.488  25.098  27.782  1.00  0.00     0.037 A 
ATOM     62  C   UNL A   1      47.207  30.320  28.955  1.00  0.00     0.049 A 
ATOM     63  C   UNL A   1      44.920  25.443  27.464  1.00  0.00     0.074 A 
ATOM     64  C   UNL A   1      48.556  30.482  28.696  1.00  0.00     0.029 A 
ATOM     65  N   UNL A   1      46.859  29.062  28.487  1.00  0.00    -0.354 N 
ATOM     66  N   UNL A   1      45.599  26.523  27.768  1.00  0.00    -0.248 NA
ATOM     67  C   UNL A   1      45.692  24.441  26.716  1.00  0.00     0.031 C 
ATOM     68  C   UNL A   1      49.010  29.352  28.011  1.00  0.00     0.029 A 
ATOM     69  C   UNL A   1      47.960  28.455  27.904  1.00  0.00     0.049 A 
ATOM     70  H   UNL A   1      45.963  28.661  28.558  1.00  0.00     0.167 HD
ATOM     71  C   UNL A   1      46.883  26.316  27.275  1.00  0.00     0.074 A 
ATOM     72  C   UNL A   1      46.892  24.999  26.676  1.00  0.00     0.031 C 
ATOM     73  C   UNL A   1      47.957  27.142  27.311  1.00  0.00     0.037 A 
BRANCH  60  74
ATOM     74  C   UNL A   1      46.819  32.614  29.919  1.00  0.00     0.057 A 
ATOM     75  C   UNL A   1      46.841  33.662  28.991  1.00  0.00     0.134 A 
ATOM     76  C   UNL A   1      47.231  32.901  31.227  1.00  0.00     0.134 A 
ATOM     77  F   UNL A   1      46.468  33.454  27.719  1.00  0.00    -0.206 F 
ATOM     78  C   UNL A   1      47.265  34.944  29.348  1.00  0.00     0.040 A 
ATOM     79  C   UNL A   1      47.632  34.184  31.603  1.00  0.00     0.040 A 
ATOM     80  F   UNL A   1      47.230  31.944  32.167  1.00  0.00    -0.206 F 
ATOM     81  C   UNL A   1      47.652  35.210  30.660  1.00  0.00     0.006 A 
ENDBRANCH  60  74
BRANCH  61  82
ATOM     82  C   UNL A   1      42.910  23.803  27.334  1.00  0.00     0.057 A 
ATOM     83  C   UNL A   1      42.794  22.713  28.203  1.00  0.00     0.134 A 
ATOM     84  C   UNL A   1      42.512  23.610  26.004  1.00  0.00     0.134 A 
ATOM     85  F   UNL A   1      43.179  22.826  29.483  1.00  0.00    -0.206 F 
ATOM     86  C   UNL A   1      42.337  21.470  27.762  1.00  0.00     0.040 A 
ATOM     87  C   UNL A   1      42.022  22.382  25.558  1.00  0.00     0.040 A 
ATOM     88  F   UNL A   1      42.593  24.614  25.119  1.00  0.00    -0.206 F 
ATOM     89  C   UNL A   1      41.947  21.303  26.434  1.00  0.00     0.006 A 
ENDBRANCH  61  82
BRANCH  73  90
ATOM     90  C   UNL A   1      49.239  26.629  26.717  1.00  0.00     0.057 A 
ATOM     91  C   UNL A   1      49.635  26.952  25.412  1.00  0.00     0.134 A 
ATOM     92  C   UNL A   1      50.095  25.811  27.466  1.00  0.00     0.134 A 
ATOM     93  F   UNL A   1      48.857  27.722  24.636  1.00  0.00    -0.206 F 
ATOM     94  C   UNL A   1      50.815  26.448  24.862  1.00  0.00     0.040 A 
ATOM     95  C   UNL A   1      51.294  25.330  26.938  1.00  0.00     0.040 A 
ATOM     96  F   UNL A   1      49.785  25.473  28.727  1.00  0.00    -0.206 F 
ATOM     97  C   UNL A   1      51.652  25.639  25.629  1.00  0.00     0.006 A 
ENDBRANCH  73  90
ENDBRANCH  47  48
ENDBRANCH  40  42
ENDBRANCH  39  40
ENDBRANCH  38  39
ENDBRANCH  37  38
ENDBRANCH  36  37
ENDBRANCH  35  36
ENDBRANCH   1  35
TORSDOF 19
ENDMDL
MODEL 3
REMARK VINA RESULT:     -10.8      5.056      7.539
REMARK SMILES COC(=O)c1ccccc1N1C(=O)/C(=C\c2ccc(-c3ccc(Cl)c(C(=O)OCCOCCOC(=O)c4ccc(-c5c6nc(c(-c7c(F)cccc7F)c7ccc([nH]7)c(-c7c(F)cccc7F)c7nc(c(-c8c(F)cccc8F)c8ccc5[nH]8)C=C7)C=C6)cc4)c3)o2)SC1=S
REMARK SMILES IDX 29 1 28 2 26 3 27 4 25 5 20 6 21 7 91 8 22 9 23 10 24 11
REMARK SMILES IDX 19 12 16 13 17 14 92 15 18 16 15 17 11 18 12 19 94 20 13 21
REMARK SMILES IDX 14 22 93 23 95 24 10 25 5 26 6 27 7 28 9 29 8 30 3 31 4 32
REMARK SMILES IDX 2 33 1 34 30 35 31 36 32 37 33 38 34 39 35 40 36 41 37 42
REMARK SMILES IDX 38 43 90 44 39 45 89 46 40 47 41 48 42 49 83 50 43 51 88 52
REMARK SMILES IDX 82 53 84 54 44 55 87 56 81 57 80 58 45 60 71 61 54 62 70 63
REMARK SMILES IDX 55 64 58 65 69 66 85 67 56 68 57 69 68 71 86 72 59 73 46 74
REMARK SMILES IDX 47 75 52 76 48 77 49 78 51 79 53 80 50 81 72 82 73 83 78 84
REMARK SMILES IDX 74 85 75 86 77 87 79 88 76 89 60 90 61 91 66 92 62 93 63 94
REMARK SMILES IDX 65 95 67 96 64 97
REMARK H PARENT 84 59 58 70
REMARK Flexibility Score: inf
ROOT
ATOM      1  C   UNL A   1      40.802  27.832  27.145  1.00  0.00     0.261 C 
ENDROOT
BRANCH   1   2
ATOM      2  O   UNL A   1      40.195  26.596  26.745  1.00  0.00    -0.460 OA
BRANCH   2   3
ATOM      3  C   UNL A   1      39.760  25.798  27.755  1.00  0.00     0.339 C 
ATOM      4  O   UNL A   1      39.431  26.148  28.875  1.00  0.00    -0.246 OA
BRANCH   3   5
ATOM      5  C   UNL A   1      39.677  24.413  27.245  1.00  0.00     0.079 A 
ATOM      6  C   UNL A   1      38.332  22.697  26.147  1.00  0.00     0.018 A 
ATOM      7  C   UNL A   1      39.414  21.814  26.234  1.00  0.00     0.013 A 
ATOM      8  C   UNL A   1      38.471  23.989  26.672  1.00  0.00     0.029 A 
ATOM      9  C   UNL A   1      40.617  22.227  26.822  1.00  0.00     0.022 A 
ATOM     10  C   UNL A   1      40.754  23.526  27.325  1.00  0.00     0.055 A 
ATOM     11  Cl  UNL A   1      42.250  23.927  28.087  1.00  0.00    -0.083 Cl
BRANCH   6  12
ATOM     12  C   UNL A   1      37.099  22.353  25.456  1.00  0.00     0.134 A 
ATOM     13  C   UNL A   1      35.530  22.622  23.914  1.00  0.00     0.128 A 
ATOM     14  C   UNL A   1      35.166  21.540  24.708  1.00  0.00     0.051 A 
ATOM     15  O   UNL A   1      36.749  23.088  24.362  1.00  0.00    -0.457 OA
ATOM     16  C   UNL A   1      36.149  21.388  25.703  1.00  0.00     0.051 A 
BRANCH  13  17
ATOM     17  C   UNL A   1      34.791  23.213  22.856  1.00  0.00     0.068 C 
ATOM     18  N   UNL A   1      32.882  26.033  24.189  1.00  0.00    -0.260 N 
ATOM     19  C   UNL A   1      33.797  25.000  24.348  1.00  0.00     0.270 C 
ATOM     20  C   UNL A   1      32.353  26.208  22.923  1.00  0.00     0.152 C 
ATOM     21  O   UNL A   1      34.391  24.730  25.385  1.00  0.00    -0.268 OA
ATOM     22  C   UNL A   1      33.975  24.256  23.068  1.00  0.00     0.084 C 
ATOM     23  S   UNL A   1      32.968  24.945  21.850  1.00  0.00    -0.054 SA
ATOM     24  S   UNL A   1      31.382  27.440  22.345  1.00  0.00    -0.051 S 
BRANCH  18  25
ATOM     25  C   UNL A   1      32.623  26.869  25.317  1.00  0.00     0.065 A 
ATOM     26  C   UNL A   1      31.467  26.799  26.119  1.00  0.00     0.084 A 
ATOM     27  C   UNL A   1      31.366  27.632  27.251  1.00  0.00     0.018 A 
ATOM     28  C   UNL A   1      32.393  28.512  27.597  1.00  0.00     0.001 A 
ATOM     29  C   UNL A   1      33.646  27.770  25.685  1.00  0.00     0.028 A 
ATOM     30  C   UNL A   1      33.533  28.584  26.811  1.00  0.00     0.002 A 
BRANCH  26  31
ATOM     31  C   UNL A   1      30.330  25.862  25.925  1.00  0.00     0.339 C 
ATOM     32  O   UNL A   1      29.486  26.015  25.055  1.00  0.00    -0.246 OA
BRANCH  31  33
ATOM     33  O   UNL A   1      30.328  24.876  26.859  1.00  0.00    -0.465 OA
ATOM     34  C   UNL A   1      31.109  23.738  26.480  1.00  0.00     0.282 C 
ENDBRANCH  31  33
ENDBRANCH  26  31
ENDBRANCH  18  25
ENDBRANCH  13  17
ENDBRANCH   6  12
ENDBRANCH   3   5
ENDBRANCH   2   3
ENDBRANCH   1   2
BRANCH   1  35
ATOM     35  C   UNL A   1      39.827  29.004  26.986  1.00  0.00     0.202 C 
BRANCH  35  36
ATOM     36  O   UNL A   1      39.075  29.399  28.132  1.00  0.00    -0.374 OA
BRANCH  36  37
ATOM     37  C   UNL A   1      37.655  29.279  28.079  1.00  0.00     0.202 C 
BRANCH  37  38
ATOM     38  C   UNL A   1      36.818  30.172  29.004  1.00  0.00     0.261 C 
BRANCH  38  39
ATOM     39  O   UNL A   1      37.545  30.667  30.141  1.00  0.00    -0.460 OA
BRANCH  39  40
ATOM     40  C   UNL A   1      37.290  29.999  31.293  1.00  0.00     0.338 C 
ATOM     41  O   UNL A   1      36.200  29.731  31.769  1.00  0.00    -0.246 OA
BRANCH  40  42
ATOM     42  C   UNL A   1      38.540  29.462  31.859  1.00  0.00     0.060 A 
ATOM     43  C   UNL A   1      39.643  30.322  31.905  1.00  0.00     0.016 A 
ATOM     44  C   UNL A   1      38.664  28.124  32.240  1.00  0.00     0.016 A 
ATOM     45  C   UNL A   1      40.890  29.836  32.286  1.00  0.00     0.010 A 
ATOM     46  C   UNL A   1      39.921  27.636  32.620  1.00  0.00     0.010 A 
ATOM     47  C   UNL A   1      41.047  28.480  32.610  1.00  0.00    -0.014 A 
BRANCH  47  48
ATOM     48  C   UNL A   1      42.414  27.948  32.830  1.00  0.00     0.031 A 
ATOM     49  C   UNL A   1      43.259  27.552  31.649  1.00  0.00     0.074 A 
ATOM     50  C   UNL A   1      42.917  27.869  34.077  1.00  0.00     0.049 A 
ATOM     51  N   UNL A   1      44.486  27.097  31.625  1.00  0.00    -0.248 NA
ATOM     52  C   UNL A   1      42.642  27.685  30.320  1.00  0.00     0.031 C 
ATOM     53  C   UNL A   1      42.204  28.241  35.299  1.00  0.00     0.029 A 
ATOM     54  N   UNL A   1      44.147  27.454  34.519  1.00  0.00    -0.354 N 
ATOM     55  C   UNL A   1      44.783  26.879  30.284  1.00  0.00     0.074 A 
ATOM     56  C   UNL A   1      43.600  27.226  29.527  1.00  0.00     0.031 C 
ATOM     57  C   UNL A   1      43.010  28.035  36.354  1.00  0.00     0.029 A 
ATOM     58  C   UNL A   1      44.281  27.490  35.886  1.00  0.00     0.049 A 
ATOM     59  H   UNL A   1      44.866  27.157  33.914  1.00  0.00     0.167 HD
ATOM     60  C   UNL A   1      45.940  26.436  29.737  1.00  0.00     0.037 A 
ATOM     61  C   UNL A   1      45.308  27.108  36.671  1.00  0.00     0.037 A 
ATOM     62  C   UNL A   1      47.123  26.110  30.491  1.00  0.00     0.049 A 
ATOM     63  C   UNL A   1      46.567  26.581  36.032  1.00  0.00     0.074 A 
ATOM     64  C   UNL A   1      48.361  25.709  30.019  1.00  0.00     0.029 A 
ATOM     65  N   UNL A   1      47.213  26.135  31.874  1.00  0.00    -0.354 N 
ATOM     66  N   UNL A   1      46.856  26.439  34.761  1.00  0.00    -0.248 NA
ATOM     67  C   UNL A   1      47.647  26.170  36.940  1.00  0.00     0.031 C 
ATOM     68  C   UNL A   1      49.178  25.425  31.117  1.00  0.00     0.029 A 
ATOM     69  C   UNL A   1      48.472  25.716  32.273  1.00  0.00     0.049 A 
ATOM     70  H   UNL A   1      46.489  26.410  32.482  1.00  0.00     0.167 HD
ATOM     71  C   UNL A   1      48.157  25.952  34.718  1.00  0.00     0.074 A 
ATOM     72  C   UNL A   1      48.609  25.848  36.089  1.00  0.00     0.031 C 
ATOM     73  C   UNL A   1      48.911  25.618  33.642  1.00  0.00     0.037 A 
BRANCH  60  74
ATOM     74  C   UNL A   1      45.988  26.246  28.247  1.00  0.00     0.057 A 
ATOM     75  C   UNL A   1      45.735  25.007  27.644  1.00  0.00     0.134 A 
ATOM     76  C   UNL A   1      46.211  27.342  27.403  1.00  0.00     0.134 A 
ATOM     77  F   UNL A   1      45.524  23.915  28.393  1.00  0.00    -0.206 F 
ATOM     78  C   UNL A   1      45.715  24.864  26.255  1.00  0.00     0.040 A 
ATOM     79  C   UNL A   1      46.166  27.216  26.013  1.00  0.00     0.040 A 
ATOM     80  F   UNL A   1      46.454  28.558  27.915  1.00  0.00    -0.206 F 
ATOM     81  C   UNL A   1      45.920  25.972  25.436  1.00  0.00     0.006 A 
ENDBRANCH  60  74
BRANCH  61  82
ATOM     82  C   UNL A   1      45.190  27.182  38.151  1.00  0.00     0.057 A 
ATOM     83  C   UNL A   1      45.653  28.290  38.867  1.00  0.00     0.134 A 
ATOM     84  C   UNL A   1      44.660  26.115  38.889  1.00  0.00     0.134 A 
ATOM     85  F   UNL A   1      46.192  29.335  38.221  1.00  0.00    -0.206 F 
ATOM     86  C   UNL A   1      45.627  28.323  40.264  1.00  0.00     0.040 A 
ATOM     87  C   UNL A   1      44.598  26.148  40.282  1.00  0.00     0.040 A 
ATOM     88  F   UNL A   1      44.195  25.023  38.264  1.00  0.00    -0.206 F 
ATOM     89  C   UNL A   1      45.096  27.249  40.974  1.00  0.00     0.006 A 
ENDBRANCH  61  82
BRANCH  73  90
ATOM     90  C   UNL A   1      50.312  25.142  33.905  1.00  0.00     0.057 A 
ATOM     91  C   UNL A   1      51.392  26.029  34.005  1.00  0.00     0.134 A 
ATOM     92  C   UNL A   1      50.581  23.777  34.075  1.00  0.00     0.134 A 
ATOM     93  F   UNL A   1      51.207  27.347  33.842  1.00  0.00    -0.206 F 
ATOM     94  C   UNL A   1      52.694  25.573  34.224  1.00  0.00     0.040 A 
ATOM     95  C   UNL A   1      51.873  23.313  34.329  1.00  0.00     0.040 A 
ATOM     96  F   UNL A   1      49.592  22.873  34.006  1.00  0.00    -0.206 F 
ATOM     97  C   UNL A   1      52.935  24.210  34.392  1.00  0.00     0.006 A 
ENDBRANCH  73  90
ENDBRANCH  47  48
ENDBRANCH  40  42
ENDBRANCH  39  40
ENDBRANCH  38  39
ENDBRANCH  37  38
ENDBRANCH  36  37
ENDBRANCH  35  36
ENDBRANCH   1  35
TORSDOF 19
ENDMDL
