MODEL 1
REMARK VINA RESULT:     -11.9      0.000      0.000
REMARK SMILES CC(=O)NS(=O)(=O)c1ccc(-c2ccn(C(F)F)c(=O)c2)cc1C(=O)OCCOCCOC(=O)c1ccc(-c2c3nc(c(-c4c(F)cccc4F)c4ccc([nH]4)c(-c4c(F)cccc4F)c4nc(c(-c5c(F)cccc5F)c5ccc2[nH]5)C=C4)C=C3)cc1
REMARK SMILES IDX 29 1 28 2 27 3 26 4 24 5 25 6 23 7 8 8 9 9 10 10 22 11 11 12
REMARK SMILES IDX 5 13 6 14 7 15 4 16 1 17 2 18 3 19 12 21 13 22 21 23 14 24
REMARK SMILES IDX 19 25 15 26 20 27 16 28 17 29 18 30 30 31 31 32 32 33 33 34
REMARK SMILES IDX 34 35 35 36 36 37 88 38 37 39 87 40 38 41 39 42 40 43 81 44
REMARK SMILES IDX 41 45 86 46 80 47 82 48 42 49 85 50 79 51 78 52 43 54 69 55
REMARK SMILES IDX 52 56 68 57 53 58 56 59 67 60 83 61 54 62 55 63 66 65 84 66
REMARK SMILES IDX 57 67 44 68 45 69 50 70 46 71 47 72 49 73 51 74 48 75 70 76
REMARK SMILES IDX 71 77 76 78 72 79 73 80 75 81 77 82 74 83 58 84 59 85 64 86
REMARK SMILES IDX 60 87 61 88 63 89 65 90 62 91
REMARK H PARENT 4 20 82 53 56 64
REMARK Flexibility Score: inf
ROOT
ATOM      1  O   UNL A   1      32.598  30.290  26.265  1.00  0.00    -0.374 OA
ENDROOT
BRANCH   1   2
ATOM      2  C   UNL A   1      32.313  29.061  26.940  1.00  0.00     0.202 C 
BRANCH   2   3
ATOM      3  C   UNL A   1      33.422  28.009  26.811  1.00  0.00     0.261 C 
BRANCH   3   4
ATOM      4  O   UNL A   1      32.953  26.858  26.078  1.00  0.00    -0.460 OA
BRANCH   4   5
ATOM      5  C   UNL A   1      33.506  26.693  24.866  1.00  0.00     0.339 C 
ATOM      6  O   UNL A   1      33.916  27.599  24.154  1.00  0.00    -0.246 OA
BRANCH   5   7
ATOM      7  C   UNL A   1      33.632  25.264  24.449  1.00  0.00     0.081 A 
ATOM      8  C   UNL A   1      32.699  24.439  23.802  1.00  0.00     0.102 A 
ATOM      9  C   UNL A   1      33.073  23.135  23.409  1.00  0.00     0.024 A 
ATOM     10  C   UNL A   1      34.306  22.596  23.784  1.00  0.00     0.010 A 
ATOM     11  C   UNL A   1      34.867  24.694  24.815  1.00  0.00     0.025 A 
ATOM     12  C   UNL A   1      35.190  23.363  24.535  1.00  0.00    -0.017 A 
BRANCH   8  13
ATOM     13  S   UNL A   1      30.981  24.868  23.650  1.00  0.00     0.264 S 
ATOM     14  O   UNL A   1      30.302  23.750  23.043  1.00  0.00    -0.201 OA
ATOM     15  O   UNL A   1      30.864  26.224  23.163  1.00  0.00    -0.201 OA
BRANCH  13  16
ATOM     16  N   UNL A   1      30.424  24.948  25.235  1.00  0.00    -0.249 N 
ATOM     17  C   UNL A   1      30.585  22.565  25.959  1.00  0.00     0.115 C 
ATOM     18  C   UNL A   1      30.827  24.028  26.226  1.00  0.00     0.230 C 
ATOM     19  O   UNL A   1      31.182  24.441  27.321  1.00  0.00    -0.274 OA
ATOM     20  H   UNL A   1      29.793  25.662  25.480  1.00  0.00     0.183 HD
ENDBRANCH  13  16
ENDBRANCH   8  13
BRANCH  12  21
ATOM     21  C   UNL A   1      36.423  22.812  25.113  1.00  0.00    -0.011 A 
ATOM     22  C   UNL A   1      37.339  23.638  25.878  1.00  0.00     0.027 A 
ATOM     23  C   UNL A   1      36.752  21.540  24.840  1.00  0.00     0.080 A 
ATOM     24  C   UNL A   1      38.524  23.156  26.266  1.00  0.00     0.095 A 
ATOM     25  C   UNL A   1      38.058  20.981  25.292  1.00  0.00     0.255 A 
ATOM     26  N   UNL A   1      38.890  21.856  25.973  1.00  0.00    -0.258 N 
ATOM     27  O   UNL A   1      38.315  19.813  25.022  1.00  0.00    -0.269 OA
BRANCH  26  28
ATOM     28  C   UNL A   1      40.187  21.361  26.354  1.00  0.00     0.451 C 
ATOM     29  F   UNL A   1      41.167  21.947  25.625  1.00  0.00    -0.185 F 
ATOM     30  F   UNL A   1      40.432  21.604  27.664  1.00  0.00    -0.185 F 
ENDBRANCH  26  28
ENDBRANCH  12  21
ENDBRANCH   5   7
ENDBRANCH   4   5
ENDBRANCH   3   4
ENDBRANCH   2   3
ENDBRANCH   1   2
BRANCH   1  31
ATOM     31  C   UNL A   1      31.504  31.198  26.126  1.00  0.00     0.202 C 
BRANCH  31  32
ATOM     32  C   UNL A   1      31.506  32.357  27.129  1.00  0.00     0.261 C 
BRANCH  32  33
ATOM     33  O   UNL A   1      32.621  33.235  26.906  1.00  0.00    -0.460 OA
BRANCH  33  34
ATOM     34  C   UNL A   1      33.148  33.786  28.025  1.00  0.00     0.338 C 
ATOM     35  O   UNL A   1      32.626  34.621  28.745  1.00  0.00    -0.246 OA
BRANCH  34  36
ATOM     36  C   UNL A   1      34.424  33.118  28.373  1.00  0.00     0.060 A 
ATOM     37  C   UNL A   1      34.346  31.787  28.804  1.00  0.00     0.016 A 
ATOM     38  C   UNL A   1      35.662  33.765  28.311  1.00  0.00     0.016 A 
ATOM     39  C   UNL A   1      35.494  31.118  29.223  1.00  0.00     0.010 A 
ATOM     40  C   UNL A   1      36.813  33.094  28.741  1.00  0.00     0.010 A 
ATOM     41  C   UNL A   1      36.727  31.780  29.228  1.00  0.00    -0.014 A 
BRANCH  41  42
ATOM     42  C   UNL A   1      37.885  31.132  29.889  1.00  0.00     0.031 A 
ATOM     43  C   UNL A   1      38.164  31.441  31.333  1.00  0.00     0.074 A 
ATOM     44  C   UNL A   1      38.646  30.239  29.232  1.00  0.00     0.049 A 
ATOM     45  N   UNL A   1      39.095  30.961  32.119  1.00  0.00    -0.248 NA
ATOM     46  C   UNL A   1      37.271  32.416  31.979  1.00  0.00     0.031 C 
ATOM     47  C   UNL A   1      38.460  29.829  27.841  1.00  0.00     0.029 A 
ATOM     48  N   UNL A   1      39.728  29.512  29.658  1.00  0.00    -0.354 N 
ATOM     49  C   UNL A   1      38.895  31.569  33.352  1.00  0.00     0.074 A 
ATOM     50  C   UNL A   1      37.774  32.473  33.204  1.00  0.00     0.031 C 
ATOM     51  C   UNL A   1      39.403  28.922  27.527  1.00  0.00     0.029 A 
ATOM     52  C   UNL A   1      40.264  28.703  28.688  1.00  0.00     0.049 A 
ATOM     53  H   UNL A   1      40.087  29.564  30.574  1.00  0.00     0.167 HD
ATOM     54  C   UNL A   1      39.576  31.384  34.507  1.00  0.00     0.037 A 
ATOM     55  C   UNL A   1      41.334  27.886  28.732  1.00  0.00     0.037 A 
ATOM     56  C   UNL A   1      40.693  30.492  34.662  1.00  0.00     0.049 A 
ATOM     57  C   UNL A   1      42.116  27.748  30.009  1.00  0.00     0.074 A 
ATOM     58  C   UNL A   1      41.434  30.228  35.799  1.00  0.00     0.029 A 
ATOM     59  N   UNL A   1      41.232  29.725  33.643  1.00  0.00    -0.354 N 
ATOM     60  N   UNL A   1      41.900  28.306  31.175  1.00  0.00    -0.248 NA
ATOM     61  C   UNL A   1      43.293  26.866  29.975  1.00  0.00     0.031 C 
ATOM     62  C   UNL A   1      42.446  29.324  35.460  1.00  0.00     0.029 A 
ATOM     63  C   UNL A   1      42.314  29.003  34.119  1.00  0.00     0.049 A 
ATOM     64  H   UNL A   1      40.897  29.697  32.717  1.00  0.00     0.167 HD
ATOM     65  C   UNL A   1      42.898  27.829  32.017  1.00  0.00     0.074 A 
ATOM     66  C   UNL A   1      43.716  26.930  31.230  1.00  0.00     0.031 C 
ATOM     67  C   UNL A   1      43.117  28.112  33.323  1.00  0.00     0.037 A 
BRANCH  54  68
ATOM     68  C   UNL A   1      39.133  32.182  35.694  1.00  0.00     0.057 A 
ATOM     69  C   UNL A   1      39.567  33.498  35.896  1.00  0.00     0.134 A 
ATOM     70  C   UNL A   1      38.248  31.638  36.631  1.00  0.00     0.134 A 
ATOM     71  F   UNL A   1      40.428  34.068  35.040  1.00  0.00    -0.206 F 
ATOM     72  C   UNL A   1      39.148  34.240  37.001  1.00  0.00     0.040 A 
ATOM     73  C   UNL A   1      37.808  32.376  37.731  1.00  0.00     0.040 A 
ATOM     74  F   UNL A   1      37.796  30.382  36.493  1.00  0.00    -0.206 F 
ATOM     75  C   UNL A   1      38.261  33.680  37.919  1.00  0.00     0.006 A 
ENDBRANCH  54  68
BRANCH  55  76
ATOM     76  C   UNL A   1      41.741  27.134  27.520  1.00  0.00     0.057 A 
ATOM     77  C   UNL A   1      41.328  25.815  27.312  1.00  0.00     0.134 A 
ATOM     78  C   UNL A   1      42.574  27.713  26.555  1.00  0.00     0.134 A 
ATOM     79  F   UNL A   1      40.551  25.199  28.216  1.00  0.00    -0.206 F 
ATOM     80  C   UNL A   1      41.737  25.091  26.190  1.00  0.00     0.040 A 
ATOM     81  C   UNL A   1      42.976  27.008  25.421  1.00  0.00     0.040 A 
ATOM     82  F   UNL A   1      43.007  28.974  26.703  1.00  0.00    -0.206 F 
ATOM     83  C   UNL A   1      42.561  25.690  25.239  1.00  0.00     0.006 A 
ENDBRANCH  55  76
BRANCH  67  84
ATOM     84  C   UNL A   1      44.272  27.429  33.990  1.00  0.00     0.057 A 
ATOM     85  C   UNL A   1      44.110  26.223  34.682  1.00  0.00     0.134 A 
ATOM     86  C   UNL A   1      45.565  27.961  33.902  1.00  0.00     0.134 A 
ATOM     87  F   UNL A   1      42.895  25.671  34.811  1.00  0.00    -0.206 F 
ATOM     88  C   UNL A   1      45.195  25.575  35.276  1.00  0.00     0.040 A 
ATOM     89  C   UNL A   1      46.659  27.312  34.477  1.00  0.00     0.040 A 
ATOM     90  F   UNL A   1      45.786  29.110  33.247  1.00  0.00    -0.206 F 
ATOM     91  C   UNL A   1      46.475  26.117  35.170  1.00  0.00     0.006 A 
ENDBRANCH  67  84
ENDBRANCH  41  42
ENDBRANCH  34  36
ENDBRANCH  33  34
ENDBRANCH  32  33
ENDBRANCH  31  32
ENDBRANCH   1  31
TORSDOF 18
ENDMDL
MODEL 2
REMARK VINA RESULT:     -11.1      0.499      5.855
REMARK SMILES CC(=O)NS(=O)(=O)c1ccc(-c2ccn(C(F)F)c(=O)c2)cc1C(=O)OCCOCCOC(=O)c1ccc(-c2c3nc(c(-c4c(F)cccc4F)c4ccc([nH]4)c(-c4c(F)cccc4F)c4nc(c(-c5c(F)cccc5F)c5ccc2[nH]5)C=C4)C=C3)cc1
REMARK SMILES IDX 29 1 28 2 27 3 26 4 24 5 25 6 23 7 8 8 9 9 10 10 22 11 11 12
REMARK SMILES IDX 5 13 6 14 7 15 4 16 1 17 2 18 3 19 12 21 13 22 21 23 14 24
REMARK SMILES IDX 19 25 15 26 20 27 16 28 17 29 18 30 30 31 31 32 32 33 33 34
REMARK SMILES IDX 34 35 35 36 36 37 88 38 37 39 87 40 38 41 39 42 40 43 81 44
REMARK SMILES IDX 41 45 86 46 80 47 82 48 42 49 85 50 79 51 78 52 43 54 69 55
REMARK SMILES IDX 52 56 68 57 53 58 56 59 67 60 83 61 54 62 55 63 66 65 84 66
REMARK SMILES IDX 57 67 44 68 45 69 50 70 46 71 47 72 49 73 51 74 48 75 70 76
REMARK SMILES IDX 71 77 76 78 72 79 73 80 75 81 77 82 74 83 58 84 59 85 64 86
REMARK SMILES IDX 60 87 61 88 63 89 65 90 62 91
REMARK H PARENT 4 20 82 53 56 64
REMARK Flexibility Score: inf
ROOT
ATOM      1  O   UNL A   1      31.387  29.521  26.863  1.00  0.00    -0.374 OA
ENDROOT
BRANCH   1   2
ATOM      2  C   UNL A   1      32.440  28.640  27.269  1.00  0.00     0.202 C 
BRANCH   2   3
ATOM      3  C   UNL A   1      33.396  28.249  26.135  1.00  0.00     0.261 C 
BRANCH   3   4
ATOM      4  O   UNL A   1      33.212  26.866  25.764  1.00  0.00    -0.460 OA
BRANCH   4   5
ATOM      5  C   UNL A   1      33.577  26.561  24.510  1.00  0.00     0.339 C 
ATOM      6  O   UNL A   1      33.810  27.377  23.630  1.00  0.00    -0.246 OA
BRANCH   5   7
ATOM      7  C   UNL A   1      33.732  25.095  24.266  1.00  0.00     0.081 A 
ATOM      8  C   UNL A   1      32.813  24.179  23.729  1.00  0.00     0.102 A 
ATOM      9  C   UNL A   1      33.213  22.846  23.492  1.00  0.00     0.024 A 
ATOM     10  C   UNL A   1      34.459  22.380  23.920  1.00  0.00     0.010 A 
ATOM     11  C   UNL A   1      34.981  24.598  24.688  1.00  0.00     0.025 A 
ATOM     12  C   UNL A   1      35.330  23.250  24.567  1.00  0.00    -0.017 A 
BRANCH   8  13
ATOM     13  S   UNL A   1      31.086  24.553  23.541  1.00  0.00     0.264 S 
ATOM     14  O   UNL A   1      30.430  23.361  23.061  1.00  0.00    -0.201 OA
ATOM     15  O   UNL A   1      30.937  25.845  22.911  1.00  0.00    -0.201 OA
BRANCH  13  16
ATOM     16  N   UNL A   1      30.531  24.791  25.110  1.00  0.00    -0.249 N 
ATOM     17  C   UNL A   1      30.687  22.491  26.067  1.00  0.00     0.115 C 
ATOM     18  C   UNL A   1      30.933  23.973  26.188  1.00  0.00     0.230 C 
ATOM     19  O   UNL A   1      31.290  24.492  27.235  1.00  0.00    -0.274 OA
ATOM     20  H   UNL A   1      29.903  25.527  25.284  1.00  0.00     0.183 HD
ENDBRANCH  13  16
ENDBRANCH   8  13
BRANCH  12  21
ATOM     21  C   UNL A   1      36.577  22.797  25.197  1.00  0.00    -0.011 A 
ATOM     22  C   UNL A   1      37.396  23.695  25.991  1.00  0.00     0.027 A 
ATOM     23  C   UNL A   1      37.013  21.552  24.947  1.00  0.00     0.080 A 
ATOM     24  C   UNL A   1      38.598  23.306  26.429  1.00  0.00     0.095 A 
ATOM     25  C   UNL A   1      38.339  21.097  25.454  1.00  0.00     0.255 A 
ATOM     26  N   UNL A   1      39.073  22.036  26.161  1.00  0.00    -0.258 N 
ATOM     27  O   UNL A   1      38.694  19.951  25.202  1.00  0.00    -0.269 OA
BRANCH  26  28
ATOM     28  C   UNL A   1      40.389  21.644  26.596  1.00  0.00     0.451 C 
ATOM     29  F   UNL A   1      41.328  21.980  25.679  1.00  0.00    -0.185 F 
ATOM     30  F   UNL A   1      40.709  22.242  27.768  1.00  0.00    -0.185 F 
ENDBRANCH  26  28
ENDBRANCH  12  21
ENDBRANCH   5   7
ENDBRANCH   4   5
ENDBRANCH   3   4
ENDBRANCH   2   3
ENDBRANCH   1   2
BRANCH   1  31
ATOM     31  C   UNL A   1      31.738  30.514  25.898  1.00  0.00     0.202 C 
BRANCH  31  32
ATOM     32  C   UNL A   1      31.456  31.957  26.336  1.00  0.00     0.261 C 
BRANCH  32  33
ATOM     33  O   UNL A   1      32.010  32.222  27.635  1.00  0.00    -0.460 OA
BRANCH  33  34
ATOM     34  C   UNL A   1      32.922  33.222  27.674  1.00  0.00     0.338 C 
ATOM     35  O   UNL A   1      32.719  34.407  27.464  1.00  0.00    -0.246 OA
BRANCH  34  36
ATOM     36  C   UNL A   1      34.221  32.712  28.169  1.00  0.00     0.060 A 
ATOM     37  C   UNL A   1      34.289  31.348  28.484  1.00  0.00     0.016 A 
ATOM     38  C   UNL A   1      35.341  33.531  28.350  1.00  0.00     0.016 A 
ATOM     39  C   UNL A   1      35.454  30.812  29.028  1.00  0.00     0.010 A 
ATOM     40  C   UNL A   1      36.508  32.992  28.905  1.00  0.00     0.010 A 
ATOM     41  C   UNL A   1      36.557  31.638  29.276  1.00  0.00    -0.014 A 
BRANCH  41  42
ATOM     42  C   UNL A   1      37.693  31.101  30.061  1.00  0.00     0.031 A 
ATOM     43  C   UNL A   1      38.658  30.162  29.394  1.00  0.00     0.074 A 
ATOM     44  C   UNL A   1      37.898  31.486  31.333  1.00  0.00     0.049 A 
ATOM     45  N   UNL A   1      39.740  29.605  29.874  1.00  0.00    -0.248 NA
ATOM     46  C   UNL A   1      38.367  29.809  27.994  1.00  0.00     0.031 C 
ATOM     47  C   UNL A   1      37.056  32.415  32.083  1.00  0.00     0.029 A 
ATOM     48  N   UNL A   1      38.890  31.140  32.215  1.00  0.00    -0.354 N 
ATOM     49  C   UNL A   1      40.263  28.842  28.837  1.00  0.00     0.074 A 
ATOM     50  C   UNL A   1      39.366  28.985  27.710  1.00  0.00     0.031 C 
ATOM     51  C   UNL A   1      37.566  32.563  33.319  1.00  0.00     0.029 A 
ATOM     52  C   UNL A   1      38.759  31.728  33.448  1.00  0.00     0.049 A 
ATOM     53  H   UNL A   1      39.627  30.528  31.986  1.00  0.00     0.167 HD
ATOM     54  C   UNL A   1      41.394  28.100  28.820  1.00  0.00     0.037 A 
ATOM     55  C   UNL A   1      39.513  31.598  34.557  1.00  0.00     0.037 A 
ATOM     56  C   UNL A   1      42.288  27.948  29.936  1.00  0.00     0.049 A 
ATOM     57  C   UNL A   1      40.729  30.711  34.533  1.00  0.00     0.074 A 
ATOM     58  C   UNL A   1      43.467  27.228  30.005  1.00  0.00     0.029 A 
ATOM     59  N   UNL A   1      42.095  28.524  31.180  1.00  0.00    -0.354 N 
ATOM     60  N   UNL A   1      41.228  30.019  33.539  1.00  0.00    -0.248 NA
ATOM     61  C   UNL A   1      41.485  30.589  35.789  1.00  0.00     0.031 C 
ATOM     62  C   UNL A   1      43.971  27.340  31.305  1.00  0.00     0.029 A 
ATOM     63  C   UNL A   1      43.122  28.156  32.034  1.00  0.00     0.049 A 
ATOM     64  H   UNL A   1      41.340  29.108  31.423  1.00  0.00     0.167 HD
ATOM     65  C   UNL A   1      42.365  29.396  34.041  1.00  0.00     0.074 A 
ATOM     66  C   UNL A   1      42.486  29.799  35.426  1.00  0.00     0.031 C 
ATOM     67  C   UNL A   1      43.228  28.566  33.409  1.00  0.00     0.037 A 
BRANCH  54  68
ATOM     68  C   UNL A   1      41.715  27.378  27.548  1.00  0.00     0.057 A 
ATOM     69  C   UNL A   1      42.395  28.008  26.498  1.00  0.00     0.134 A 
ATOM     70  C   UNL A   1      41.361  26.035  27.380  1.00  0.00     0.134 A 
ATOM     71  F   UNL A   1      42.747  29.299  26.596  1.00  0.00    -0.206 F 
ATOM     72  C   UNL A   1      42.697  27.330  25.317  1.00  0.00     0.040 A 
ATOM     73  C   UNL A   1      41.673  25.341  26.209  1.00  0.00     0.040 A 
ATOM     74  F   UNL A   1      40.708  25.376  28.349  1.00  0.00    -0.206 F 
ATOM     75  C   UNL A   1      42.340  25.990  25.173  1.00  0.00     0.006 A 
ENDBRANCH  54  68
BRANCH  55  76
ATOM     76  C   UNL A   1      39.137  32.319  35.796  1.00  0.00     0.057 A 
ATOM     77  C   UNL A   1      38.325  31.721  36.765  1.00  0.00     0.134 A 
ATOM     78  C   UNL A   1      39.562  33.632  36.027  1.00  0.00     0.134 A 
ATOM     79  F   UNL A   1      37.865  30.474  36.585  1.00  0.00    -0.206 F 
ATOM     80  C   UNL A   1      37.939  32.409  37.918  1.00  0.00     0.040 A 
ATOM     81  C   UNL A   1      39.199  34.325  37.182  1.00  0.00     0.040 A 
ATOM     82  F   UNL A   1      40.338  34.260  35.130  1.00  0.00    -0.206 F 
ATOM     83  C   UNL A   1      38.380  33.714  38.129  1.00  0.00     0.006 A 
ENDBRANCH  55  76
BRANCH  67  84
ATOM     84  C   UNL A   1      44.391  28.051  34.204  1.00  0.00     0.057 A 
ATOM     85  C   UNL A   1      44.330  26.830  34.885  1.00  0.00     0.134 A 
ATOM     86  C   UNL A   1      45.595  28.764  34.252  1.00  0.00     0.134 A 
ATOM     87  F   UNL A   1      43.199  26.108  34.886  1.00  0.00    -0.206 F 
ATOM     88  C   UNL A   1      45.425  26.341  35.599  1.00  0.00     0.040 A 
ATOM     89  C   UNL A   1      46.702  28.276  34.948  1.00  0.00     0.040 A 
ATOM     90  F   UNL A   1      45.718  29.938  33.614  1.00  0.00    -0.206 F 
ATOM     91  C   UNL A   1      46.617  27.062  35.628  1.00  0.00     0.006 A 
ENDBRANCH  67  84
ENDBRANCH  41  42
ENDBRANCH  34  36
ENDBRANCH  33  34
ENDBRANCH  32  33
ENDBRANCH  31  32
ENDBRANCH   1  31
TORSDOF 18
ENDMDL
MODEL 3
REMARK VINA RESULT:     -11.1      4.484      9.356
REMARK SMILES CC(=O)NS(=O)(=O)c1ccc(-c2ccn(C(F)F)c(=O)c2)cc1C(=O)OCCOCCOC(=O)c1ccc(-c2c3nc(c(-c4c(F)cccc4F)c4ccc([nH]4)c(-c4c(F)cccc4F)c4nc(c(-c5c(F)cccc5F)c5ccc2[nH]5)C=C4)C=C3)cc1
REMARK SMILES IDX 29 1 28 2 27 3 26 4 24 5 25 6 23 7 8 8 9 9 10 10 22 11 11 12
REMARK SMILES IDX 5 13 6 14 7 15 4 16 1 17 2 18 3 19 12 21 13 22 21 23 14 24
REMARK SMILES IDX 19 25 15 26 20 27 16 28 17 29 18 30 30 31 31 32 32 33 33 34
REMARK SMILES IDX 34 35 35 36 36 37 88 38 37 39 87 40 38 41 39 42 40 43 81 44
REMARK SMILES IDX 41 45 86 46 80 47 82 48 42 49 85 50 79 51 78 52 43 54 69 55
REMARK SMILES IDX 52 56 68 57 53 58 56 59 67 60 83 61 54 62 55 63 66 65 84 66
REMARK SMILES IDX 57 67 44 68 45 69 50 70 46 71 47 72 49 73 51 74 48 75 70 76
REMARK SMILES IDX 71 77 76 78 72 79 73 80 75 81 77 82 74 83 58 84 59 85 64 86
REMARK SMILES IDX 60 87 61 88 63 89 65 90 62 91
REMARK H PARENT 4 20 82 53 56 64
REMARK Flexibility Score: inf
ROOT
ATOM      1  O   UNL A   1      37.556  21.131  25.194  1.00  0.00    -0.374 OA
ENDROOT
BRANCH   1   2
ATOM      2  C   UNL A   1      37.282  22.385  24.561  1.00  0.00     0.202 C 
BRANCH   2   3
ATOM      3  C   UNL A   1      36.862  23.495  25.533  1.00  0.00     0.261 C 
BRANCH   3   4
ATOM      4  O   UNL A   1      35.632  24.115  25.102  1.00  0.00    -0.460 OA
BRANCH   4   5
ATOM      5  C   UNL A   1      34.516  23.592  25.633  1.00  0.00     0.339 C 
ATOM      6  O   UNL A   1      34.197  23.673  26.811  1.00  0.00    -0.246 OA
BRANCH   5   7
ATOM      7  C   UNL A   1      33.631  22.918  24.637  1.00  0.00     0.081 A 
ATOM      8  C   UNL A   1      32.760  23.483  23.691  1.00  0.00     0.102 A 
ATOM      9  C   UNL A   1      32.089  22.647  22.771  1.00  0.00     0.024 A 
ATOM     10  C   UNL A   1      32.158  21.256  22.880  1.00  0.00     0.010 A 
ATOM     11  C   UNL A   1      33.680  21.512  24.723  1.00  0.00     0.025 A 
ATOM     12  C   UNL A   1      32.919  20.684  23.893  1.00  0.00    -0.017 A 
BRANCH   8  13
ATOM     13  S   UNL A   1      32.276  25.192  23.735  1.00  0.00     0.264 S 
ATOM     14  O   UNL A   1      30.996  25.301  23.080  1.00  0.00    -0.201 OA
ATOM     15  O   UNL A   1      33.409  26.024  23.399  1.00  0.00    -0.201 OA
BRANCH  13  16
ATOM     16  N   UNL A   1      31.996  25.510  25.362  1.00  0.00    -0.249 N 
ATOM     17  C   UNL A   1      31.342  27.918  25.313  1.00  0.00     0.115 C 
ATOM     18  C   UNL A   1      31.100  26.511  25.796  1.00  0.00     0.230 C 
ATOM     19  O   UNL A   1      30.287  26.252  26.670  1.00  0.00    -0.274 OA
ATOM     20  H   UNL A   1      32.474  24.979  26.038  1.00  0.00     0.183 HD
ENDBRANCH  13  16
ENDBRANCH   8  13
BRANCH  12  21
ATOM     21  C   UNL A   1      32.903  19.243  24.178  1.00  0.00    -0.011 A 
ATOM     22  C   UNL A   1      32.439  18.726  25.453  1.00  0.00     0.027 A 
ATOM     23  C   UNL A   1      33.422  18.399  23.273  1.00  0.00     0.080 A 
ATOM     24  C   UNL A   1      32.573  17.429  25.747  1.00  0.00     0.095 A 
ATOM     25  C   UNL A   1      33.550  16.945  23.577  1.00  0.00     0.255 A 
ATOM     26  N   UNL A   1      33.127  16.549  24.836  1.00  0.00    -0.258 N 
ATOM     27  O   UNL A   1      34.028  16.212  22.719  1.00  0.00    -0.269 OA
BRANCH  26  28
ATOM     28  C   UNL A   1      33.310  15.163  25.181  1.00  0.00     0.451 C 
ATOM     29  F   UNL A   1      34.613  14.890  25.434  1.00  0.00    -0.185 F 
ATOM     30  F   UNL A   1      32.588  14.839  26.281  1.00  0.00    -0.185 F 
ENDBRANCH  26  28
ENDBRANCH  12  21
ENDBRANCH   5   7
ENDBRANCH   4   5
ENDBRANCH   3   4
ENDBRANCH   2   3
ENDBRANCH   1   2
BRANCH   1  31
ATOM     31  C   UNL A   1      38.867  20.979  25.741  1.00  0.00     0.202 C 
BRANCH  31  32
ATOM     32  C   UNL A   1      39.511  19.612  25.482  1.00  0.00     0.261 C 
BRANCH  32  33
ATOM     33  O   UNL A   1      40.397  19.245  26.552  1.00  0.00    -0.460 OA
BRANCH  33  34
ATOM     34  C   UNL A   1      41.713  19.252  26.233  1.00  0.00     0.338 C 
ATOM     35  O   UNL A   1      42.327  18.380  25.640  1.00  0.00    -0.246 OA
BRANCH  34  36
ATOM     36  C   UNL A   1      42.315  20.563  26.568  1.00  0.00     0.060 A 
ATOM     37  C   UNL A   1      42.190  20.998  27.894  1.00  0.00     0.016 A 
ATOM     38  C   UNL A   1      42.962  21.365  25.623  1.00  0.00     0.016 A 
ATOM     39  C   UNL A   1      42.662  22.255  28.267  1.00  0.00     0.010 A 
ATOM     40  C   UNL A   1      43.429  22.632  25.997  1.00  0.00     0.010 A 
ATOM     41  C   UNL A   1      43.251  23.093  27.312  1.00  0.00    -0.014 A 
BRANCH  41  42
ATOM     42  C   UNL A   1      43.535  24.502  27.673  1.00  0.00     0.031 A 
ATOM     43  C   UNL A   1      44.957  24.987  27.642  1.00  0.00     0.074 A 
ATOM     44  C   UNL A   1      42.538  25.355  27.970  1.00  0.00     0.049 A 
ATOM     45  N   UNL A   1      45.431  26.184  27.880  1.00  0.00    -0.248 NA
ATOM     46  C   UNL A   1      45.982  23.991  27.288  1.00  0.00     0.031 C 
ATOM     47  C   UNL A   1      41.117  25.017  28.003  1.00  0.00     0.029 A 
ATOM     48  N   UNL A   1      42.579  26.687  28.296  1.00  0.00    -0.354 N 
ATOM     49  C   UNL A   1      46.804  26.087  27.699  1.00  0.00     0.074 A 
ATOM     50  C   UNL A   1      47.093  24.710  27.359  1.00  0.00     0.031 C 
ATOM     51  C   UNL A   1      40.418  26.117  28.336  1.00  0.00     0.029 A 
ATOM     52  C   UNL A   1      41.344  27.227  28.554  1.00  0.00     0.049 A 
ATOM     53  H   UNL A   1      43.414  27.207  28.340  1.00  0.00     0.167 HD
ATOM     54  C   UNL A   1      47.741  27.060  27.796  1.00  0.00     0.037 A 
ATOM     55  C   UNL A   1      41.004  28.474  28.932  1.00  0.00     0.037 A 
ATOM     56  C   UNL A   1      47.464  28.428  28.138  1.00  0.00     0.049 A 
ATOM     57  C   UNL A   1      42.071  29.521  29.099  1.00  0.00     0.074 A 
ATOM     58  C   UNL A   1      48.349  29.487  28.243  1.00  0.00     0.029 A 
ATOM     59  N   UNL A   1      46.206  28.924  28.435  1.00  0.00    -0.354 N 
ATOM     60  N   UNL A   1      43.362  29.425  28.897  1.00  0.00    -0.248 NA
ATOM     61  C   UNL A   1      41.632  30.851  29.548  1.00  0.00     0.031 C 
ATOM     62  C   UNL A   1      47.629  30.619  28.640  1.00  0.00     0.029 A 
ATOM     63  C   UNL A   1      46.293  30.270  28.749  1.00  0.00     0.049 A 
ATOM     64  H   UNL A   1      45.373  28.398  28.426  1.00  0.00     0.167 HD
ATOM     65  C   UNL A   1      43.886  30.682  29.174  1.00  0.00     0.074 A 
ATOM     66  C   UNL A   1      42.772  31.527  29.550  1.00  0.00     0.031 C 
ATOM     67  C   UNL A   1      45.174  31.097  29.121  1.00  0.00     0.037 A 
BRANCH  54  68
ATOM     68  C   UNL A   1      49.162  26.664  27.542  1.00  0.00     0.057 A 
ATOM     69  C   UNL A   1      49.986  26.188  28.570  1.00  0.00     0.134 A 
ATOM     70  C   UNL A   1      49.706  26.738  26.255  1.00  0.00     0.134 A 
ATOM     71  F   UNL A   1      49.526  26.110  29.828  1.00  0.00    -0.206 F 
ATOM     72  C   UNL A   1      51.309  25.815  28.329  1.00  0.00     0.040 A 
ATOM     73  C   UNL A   1      51.022  26.351  25.997  1.00  0.00     0.040 A 
ATOM     74  F   UNL A   1      48.967  27.185  25.228  1.00  0.00    -0.206 F 
ATOM     75  C   UNL A   1      51.828  25.891  27.037  1.00  0.00     0.006 A 
ENDBRANCH  54  68
BRANCH  55  76
ATOM     76  C   UNL A   1      39.582  28.807  29.191  1.00  0.00     0.057 A 
ATOM     77  C   UNL A   1      39.002  28.585  30.444  1.00  0.00     0.134 A 
ATOM     78  C   UNL A   1      38.766  29.331  28.182  1.00  0.00     0.134 A 
ATOM     79  F   UNL A   1      39.729  28.060  31.441  1.00  0.00    -0.206 F 
ATOM     80  C   UNL A   1      37.655  28.864  30.683  1.00  0.00     0.040 A 
ATOM     81  C   UNL A   1      37.423  29.631  28.412  1.00  0.00     0.040 A 
ATOM     82  F   UNL A   1      39.265  29.559  26.958  1.00  0.00    -0.206 F 
ATOM     83  C   UNL A   1      36.863  29.392  29.666  1.00  0.00     0.006 A 
ENDBRANCH  55  76
BRANCH  67  84
ATOM     84  C   UNL A   1      45.448  32.532  29.459  1.00  0.00     0.057 A 
ATOM     85  C   UNL A   1      45.407  33.534  28.484  1.00  0.00     0.134 A 
ATOM     86  C   UNL A   1      45.712  32.917  30.779  1.00  0.00     0.134 A 
ATOM     87  F   UNL A   1      45.171  33.225  27.200  1.00  0.00    -0.206 F 
ATOM     88  C   UNL A   1      45.633  34.874  28.808  1.00  0.00     0.040 A 
ATOM     89  C   UNL A   1      45.922  34.255  31.117  1.00  0.00     0.040 A 
ATOM     90  F   UNL A   1      45.759  32.004  31.760  1.00  0.00    -0.206 F 
ATOM     91  C   UNL A   1      45.886  35.237  30.130  1.00  0.00     0.006 A 
ENDBRANCH  67  84
ENDBRANCH  41  42
ENDBRANCH  34  36
ENDBRANCH  33  34
ENDBRANCH  32  33
ENDBRANCH  31  32
ENDBRANCH   1  31
TORSDOF 18
ENDMDL
