MODEL 1
REMARK VINA RESULT:     -10.6      0.000      0.000
REMARK SMILES CC(=O)c1ccc(NC(=O)C[C@H](C(=O)OCCOCCOC(=O)c2ccc(-c3c4nc(c(-c5c(F)cccc5F)c5ccc([nH]5)c(-c5c(F)cccc5F)c5nc(c(-c6c(F)cccc6F)c6ccc3[nH]6)C=C5)C=C4)cc2)[NH+](C)C)cc1
REMARK SMILES IDX 17 1 16 2 15 3 13 4 14 5 12 6 11 7 9 8 8 9 10 11 7 12 4 13
REMARK SMILES IDX 5 14 82 15 6 16 81 17 2 18 1 19 3 20 78 21 79 22 80 23 18 25
REMARK SMILES IDX 19 26 20 27 21 28 22 29 23 30 24 31 25 32 77 33 26 34 76 35
REMARK SMILES IDX 27 36 28 37 29 38 70 39 30 40 75 41 69 42 71 43 31 44 74 45
REMARK SMILES IDX 68 46 67 47 32 49 58 50 41 51 57 52 42 53 45 54 56 55 72 56
REMARK SMILES IDX 43 57 44 58 55 60 73 61 46 62 33 63 34 64 39 65 35 66 36 67
REMARK SMILES IDX 38 68 40 69 37 70 59 71 60 72 65 73 61 74 62 75 64 76 66 77
REMARK SMILES IDX 63 78 47 79 48 80 53 81 49 82 50 83 52 84 54 85 51 86
REMARK H PARENT 8 10 78 24 71 48 45 59
REMARK Flexibility Score: inf
ROOT
ATOM      1  C   UNL A   1      36.805  23.504  25.063  1.00  0.00     0.202 C 
ENDROOT
BRANCH   1   2
ATOM      2  C   UNL A   1      35.500  24.360  25.363  1.00  0.00     0.261 C 
BRANCH   2   3
ATOM      3  O   UNL A   1      34.352  23.937  24.546  1.00  0.00    -0.459 OA
BRANCH   3   4
ATOM      4  C   UNL A   1      33.275  24.758  24.259  1.00  0.00     0.365 C 
ATOM      5  O   UNL A   1      32.966  25.050  23.109  1.00  0.00    -0.245 OA
BRANCH   4   6
ATOM      6  C   UNL A   1      32.364  25.030  25.551  1.00  0.00     0.304 C 
BRANCH   6   7
ATOM      7  C   UNL A   1      32.421  23.966  26.656  1.00  0.00     0.177 C 
BRANCH   7   8
ATOM      8  C   UNL A   1      31.214  23.090  26.651  1.00  0.00     0.231 C 
ATOM      9  N   UNL A   1      31.265  21.878  26.038  1.00  0.00    -0.326 N 
ATOM     10  H   UNL A   1      30.437  21.358  26.155  1.00  0.00     0.169 HD
ATOM     11  O   UNL A   1      30.190  23.422  27.253  1.00  0.00    -0.274 OA
BRANCH   9  12
ATOM     12  C   UNL A   1      32.234  21.192  25.272  1.00  0.00     0.041 A 
ATOM     13  C   UNL A   1      33.015  19.034  23.714  1.00  0.00     0.017 A 
ATOM     14  C   UNL A   1      32.532  20.202  23.109  1.00  0.00     0.014 A 
ATOM     15  C   UNL A   1      33.311  19.006  25.063  1.00  0.00     0.014 A 
ATOM     16  C   UNL A   1      32.139  21.291  23.894  1.00  0.00     0.027 A 
ATOM     17  C   UNL A   1      32.916  20.089  25.828  1.00  0.00     0.027 A 
BRANCH  13  18
ATOM     18  C   UNL A   1      32.955  17.757  22.980  1.00  0.00     0.159 C 
ATOM     19  C   UNL A   1      33.648  16.579  23.637  1.00  0.00     0.093 C 
ATOM     20  O   UNL A   1      32.263  17.658  21.976  1.00  0.00    -0.295 OA
ENDBRANCH  13  18
ENDBRANCH   9  12
ENDBRANCH   7   8
ENDBRANCH   6   7
BRANCH   6  21
ATOM     21  N   UNL A   1      32.216  26.437  26.039  1.00  0.00    -0.328 N 
ATOM     22  C   UNL A   1      33.504  27.145  26.106  1.00  0.00     0.333 C 
ATOM     23  C   UNL A   1      31.212  27.239  25.374  1.00  0.00     0.333 C 
ATOM     24  H   UNL A   1      31.858  26.316  26.987  1.00  0.00     0.348 HD
ENDBRANCH   6  21
ENDBRANCH   4   6
ENDBRANCH   3   4
ENDBRANCH   2   3
ENDBRANCH   1   2
BRANCH   1  25
ATOM     25  O   UNL A   1      36.482  22.279  24.397  1.00  0.00    -0.374 OA
BRANCH  25  26
ATOM     26  C   UNL A   1      36.574  20.984  25.014  1.00  0.00     0.202 C 
BRANCH  26  27
ATOM     27  C   UNL A   1      37.969  20.308  25.006  1.00  0.00     0.261 C 
BRANCH  27  28
ATOM     28  O   UNL A   1      38.747  20.804  26.085  1.00  0.00    -0.460 OA
BRANCH  28  29
ATOM     29  C   UNL A   1      39.925  20.144  26.170  1.00  0.00     0.338 C 
ATOM     30  O   UNL A   1      40.198  19.045  25.734  1.00  0.00    -0.246 OA
BRANCH  29  31
ATOM     31  C   UNL A   1      40.907  21.179  26.468  1.00  0.00     0.060 A 
ATOM     32  C   UNL A   1      41.138  21.446  27.823  1.00  0.00     0.016 A 
ATOM     33  C   UNL A   1      41.630  21.798  25.449  1.00  0.00     0.016 A 
ATOM     34  C   UNL A   1      42.059  22.412  28.171  1.00  0.00     0.010 A 
ATOM     35  C   UNL A   1      42.534  22.788  25.795  1.00  0.00     0.010 A 
ATOM     36  C   UNL A   1      42.694  23.128  27.150  1.00  0.00    -0.014 A 
BRANCH  36  37
ATOM     37  C   UNL A   1      43.251  24.442  27.486  1.00  0.00     0.031 A 
ATOM     38  C   UNL A   1      42.273  25.491  27.925  1.00  0.00     0.074 A 
ATOM     39  C   UNL A   1      44.573  24.651  27.434  1.00  0.00     0.049 A 
ATOM     40  N   UNL A   1      42.478  26.745  28.214  1.00  0.00    -0.248 NA
ATOM     41  C   UNL A   1      40.864  25.066  28.057  1.00  0.00     0.031 C 
ATOM     42  C   UNL A   1      45.574  23.650  27.068  1.00  0.00     0.029 A 
ATOM     43  N   UNL A   1      45.292  25.784  27.680  1.00  0.00    -0.354 N 
ATOM     44  C   UNL A   1      41.233  27.254  28.559  1.00  0.00     0.074 A 
ATOM     45  C   UNL A   1      40.268  26.191  28.412  1.00  0.00     0.031 C 
ATOM     46  C   UNL A   1      46.788  24.228  27.089  1.00  0.00     0.029 A 
ATOM     47  C   UNL A   1      46.632  25.639  27.432  1.00  0.00     0.049 A 
ATOM     48  H   UNL A   1      44.889  26.621  28.004  1.00  0.00     0.167 HD
ATOM     49  C   UNL A   1      40.931  28.502  28.972  1.00  0.00     0.037 A 
ATOM     50  C   UNL A   1      47.603  26.571  27.447  1.00  0.00     0.037 A 
ATOM     51  C   UNL A   1      41.914  29.542  29.085  1.00  0.00     0.049 A 
ATOM     52  C   UNL A   1      47.222  27.980  27.821  1.00  0.00     0.074 A 
ATOM     53  C   UNL A   1      41.741  30.858  29.466  1.00  0.00     0.029 A 
ATOM     54  N   UNL A   1      43.264  29.370  28.806  1.00  0.00    -0.354 N 
ATOM     55  N   UNL A   1      46.045  28.462  28.152  1.00  0.00    -0.248 NA
ATOM     56  C   UNL A   1      48.300  28.974  27.830  1.00  0.00     0.031 C 
ATOM     57  C   UNL A   1      42.982  31.496  29.371  1.00  0.00     0.029 A 
ATOM     58  C   UNL A   1      43.936  30.563  28.990  1.00  0.00     0.049 A 
ATOM     59  H   UNL A   1      43.679  28.525  28.519  1.00  0.00     0.167 HD
ATOM     60  C   UNL A   1      46.248  29.806  28.438  1.00  0.00     0.074 A 
ATOM     61  C   UNL A   1      47.664  30.055  28.258  1.00  0.00     0.031 C 
ATOM     62  C   UNL A   1      45.353  30.754  28.813  1.00  0.00     0.037 A 
BRANCH  49  63
ATOM     63  C   UNL A   1      39.499  28.804  29.294  1.00  0.00     0.057 A 
ATOM     64  C   UNL A   1      38.985  28.658  30.590  1.00  0.00     0.134 A 
ATOM     65  C   UNL A   1      38.624  29.260  28.301  1.00  0.00     0.134 A 
ATOM     66  F   UNL A   1      39.762  28.195  31.582  1.00  0.00    -0.206 F 
ATOM     67  C   UNL A   1      37.652  28.949  30.885  1.00  0.00     0.040 A 
ATOM     68  C   UNL A   1      37.296  29.579  28.588  1.00  0.00     0.040 A 
ATOM     69  F   UNL A   1      39.046  29.409  27.037  1.00  0.00    -0.206 F 
ATOM     70  C   UNL A   1      36.805  29.421  29.883  1.00  0.00     0.006 A 
ENDBRANCH  49  63
BRANCH  50  71
ATOM     71  C   UNL A   1      48.994  26.216  27.070  1.00  0.00     0.057 A 
ATOM     72  C   UNL A   1      49.937  25.839  28.031  1.00  0.00     0.134 A 
ATOM     73  C   UNL A   1      49.422  26.278  25.737  1.00  0.00     0.134 A 
ATOM     74  F   UNL A   1      49.593  25.773  29.325  1.00  0.00    -0.206 F 
ATOM     75  C   UNL A   1      51.263  25.568  27.688  1.00  0.00     0.040 A 
ATOM     76  C   UNL A   1      50.737  25.979  25.375  1.00  0.00     0.040 A 
ATOM     77  F   UNL A   1      48.567  26.623  24.763  1.00  0.00    -0.206 F 
ATOM     78  C   UNL A   1      51.665  25.636  26.355  1.00  0.00     0.006 A 
ENDBRANCH  50  71
BRANCH  62  79
ATOM     79  C   UNL A   1      45.896  32.123  29.098  1.00  0.00     0.057 A 
ATOM     80  C   UNL A   1      45.970  33.111  28.110  1.00  0.00     0.134 A 
ATOM     81  C   UNL A   1      46.304  32.464  30.394  1.00  0.00     0.134 A 
ATOM     82  F   UNL A   1      45.603  32.841  26.848  1.00  0.00    -0.206 F 
ATOM     83  C   UNL A   1      46.458  34.386  28.395  1.00  0.00     0.040 A 
ATOM     84  C   UNL A   1      46.761  33.745  30.698  1.00  0.00     0.040 A 
ATOM     85  F   UNL A   1      46.242  31.565  31.388  1.00  0.00    -0.206 F 
ATOM     86  C   UNL A   1      46.848  34.707  29.694  1.00  0.00     0.006 A 
ENDBRANCH  62  79
ENDBRANCH  36  37
ENDBRANCH  29  31
ENDBRANCH  28  29
ENDBRANCH  27  28
ENDBRANCH  26  27
ENDBRANCH  25  26
ENDBRANCH   1  25
TORSDOF 19
ENDMDL
MODEL 2
REMARK VINA RESULT:     -10.5      2.185      7.400
REMARK SMILES CC(=O)c1ccc(NC(=O)C[C@H](C(=O)OCCOCCOC(=O)c2ccc(-c3c4nc(c(-c5c(F)cccc5F)c5ccc([nH]5)c(-c5c(F)cccc5F)c5nc(c(-c6c(F)cccc6F)c6ccc3[nH]6)C=C5)C=C4)cc2)[NH+](C)C)cc1
REMARK SMILES IDX 17 1 16 2 15 3 13 4 14 5 12 6 11 7 9 8 8 9 10 11 7 12 4 13
REMARK SMILES IDX 5 14 82 15 6 16 81 17 2 18 1 19 3 20 78 21 79 22 80 23 18 25
REMARK SMILES IDX 19 26 20 27 21 28 22 29 23 30 24 31 25 32 77 33 26 34 76 35
REMARK SMILES IDX 27 36 28 37 29 38 70 39 30 40 75 41 69 42 71 43 31 44 74 45
REMARK SMILES IDX 68 46 67 47 32 49 58 50 41 51 57 52 42 53 45 54 56 55 72 56
REMARK SMILES IDX 43 57 44 58 55 60 73 61 46 62 33 63 34 64 39 65 35 66 36 67
REMARK SMILES IDX 38 68 40 69 37 70 59 71 60 72 65 73 61 74 62 75 64 76 66 77
REMARK SMILES IDX 63 78 47 79 48 80 53 81 49 82 50 83 52 84 54 85 51 86
REMARK H PARENT 8 10 78 24 71 48 45 59
REMARK Flexibility Score: inf
ROOT
ATOM      1  C   UNL A   1      36.195  22.520  24.161  1.00  0.00     0.202 C 
ENDROOT
BRANCH   1   2
ATOM      2  C   UNL A   1      36.213  23.721  25.203  1.00  0.00     0.261 C 
BRANCH   2   3
ATOM      3  O   UNL A   1      34.993  24.539  25.135  1.00  0.00    -0.459 OA
BRANCH   3   4
ATOM      4  C   UNL A   1      33.724  24.007  24.978  1.00  0.00     0.365 C 
ATOM      5  O   UNL A   1      33.180  23.349  25.856  1.00  0.00    -0.245 OA
BRANCH   4   6
ATOM      6  C   UNL A   1      32.990  24.579  23.671  1.00  0.00     0.304 C 
BRANCH   6   7
ATOM      7  C   UNL A   1      33.837  25.475  22.756  1.00  0.00     0.177 C 
BRANCH   7   8
ATOM      8  C   UNL A   1      33.063  25.959  21.577  1.00  0.00     0.231 C 
ATOM      9  N   UNL A   1      32.300  27.079  21.687  1.00  0.00    -0.326 N 
ATOM     10  H   UNL A   1      31.889  27.345  20.832  1.00  0.00     0.169 HD
ATOM     11  O   UNL A   1      33.160  25.397  20.483  1.00  0.00    -0.274 OA
BRANCH   9  12
ATOM     12  C   UNL A   1      31.960  27.949  22.747  1.00  0.00     0.041 A 
ATOM     13  C   UNL A   1      32.103  28.697  25.414  1.00  0.00     0.017 A 
ATOM     14  C   UNL A   1      32.983  29.257  24.477  1.00  0.00     0.014 A 
ATOM     15  C   UNL A   1      31.024  27.936  25.007  1.00  0.00     0.014 A 
ATOM     16  C   UNL A   1      32.910  28.881  23.131  1.00  0.00     0.027 A 
ATOM     17  C   UNL A   1      30.966  27.571  23.674  1.00  0.00     0.027 A 
BRANCH  13  18
ATOM     18  C   UNL A   1      32.472  28.688  26.841  1.00  0.00     0.159 C 
ATOM     19  C   UNL A   1      31.403  28.204  27.801  1.00  0.00     0.093 C 
ATOM     20  O   UNL A   1      33.623  28.932  27.179  1.00  0.00    -0.295 OA
ENDBRANCH  13  18
ENDBRANCH   9  12
ENDBRANCH   7   8
ENDBRANCH   6   7
BRANCH   6  21
ATOM     21  N   UNL A   1      32.009  23.702  22.960  1.00  0.00    -0.328 N 
ATOM     22  C   UNL A   1      32.514  22.332  22.775  1.00  0.00     0.333 C 
ATOM     23  C   UNL A   1      30.661  23.697  23.486  1.00  0.00     0.333 C 
ATOM     24  H   UNL A   1      31.922  24.146  22.045  1.00  0.00     0.348 HD
ENDBRANCH   6  21
ENDBRANCH   4   6
ENDBRANCH   3   4
ENDBRANCH   2   3
ENDBRANCH   1   2
BRANCH   1  25
ATOM     25  O   UNL A   1      37.333  21.668  24.329  1.00  0.00    -0.374 OA
BRANCH  25  26
ATOM     26  C   UNL A   1      37.263  20.334  24.859  1.00  0.00     0.202 C 
BRANCH  26  27
ATOM     27  C   UNL A   1      38.591  19.722  25.376  1.00  0.00     0.261 C 
BRANCH  27  28
ATOM     28  O   UNL A   1      39.589  20.730  25.437  1.00  0.00    -0.460 OA
BRANCH  28  29
ATOM     29  C   UNL A   1      40.403  20.534  26.500  1.00  0.00     0.338 C 
ATOM     30  O   UNL A   1      41.113  19.577  26.730  1.00  0.00    -0.246 OA
BRANCH  29  31
ATOM     31  C   UNL A   1      40.608  21.865  27.058  1.00  0.00     0.060 A 
ATOM     32  C   UNL A   1      39.787  22.883  26.557  1.00  0.00     0.016 A 
ATOM     33  C   UNL A   1      41.516  22.077  28.094  1.00  0.00     0.016 A 
ATOM     34  C   UNL A   1      39.929  24.164  27.048  1.00  0.00     0.010 A 
ATOM     35  C   UNL A   1      41.680  23.368  28.569  1.00  0.00     0.010 A 
ATOM     36  C   UNL A   1      40.928  24.409  27.996  1.00  0.00    -0.014 A 
BRANCH  36  37
ATOM     37  C   UNL A   1      41.414  25.786  28.132  1.00  0.00     0.031 A 
ATOM     38  C   UNL A   1      42.783  26.069  27.587  1.00  0.00     0.074 A 
ATOM     39  C   UNL A   1      40.636  26.728  28.679  1.00  0.00     0.049 A 
ATOM     40  N   UNL A   1      43.480  27.169  27.632  1.00  0.00    -0.248 NA
ATOM     41  C   UNL A   1      43.461  24.954  26.895  1.00  0.00     0.031 C 
ATOM     42  C   UNL A   1      39.276  26.521  29.174  1.00  0.00     0.029 A 
ATOM     43  N   UNL A   1      40.892  28.047  28.919  1.00  0.00    -0.354 N 
ATOM     44  C   UNL A   1      44.671  26.878  26.978  1.00  0.00     0.074 A 
ATOM     45  C   UNL A   1      44.625  25.494  26.576  1.00  0.00     0.031 C 
ATOM     46  C   UNL A   1      38.823  27.679  29.687  1.00  0.00     0.029 A 
ATOM     47  C   UNL A   1      39.878  28.683  29.586  1.00  0.00     0.049 A 
ATOM     48  H   UNL A   1      41.722  28.496  28.640  1.00  0.00     0.167 HD
ATOM     49  C   UNL A   1      45.707  27.707  26.731  1.00  0.00     0.037 A 
ATOM     50  C   UNL A   1      39.844  29.931  30.087  1.00  0.00     0.037 A 
ATOM     51  C   UNL A   1      45.728  29.075  27.167  1.00  0.00     0.049 A 
ATOM     52  C   UNL A   1      41.052  30.808  29.878  1.00  0.00     0.074 A 
ATOM     53  C   UNL A   1      46.723  30.018  27.007  1.00  0.00     0.029 A 
ATOM     54  N   UNL A   1      44.692  29.687  27.860  1.00  0.00    -0.354 N 
ATOM     55  N   UNL A   1      42.178  30.536  29.256  1.00  0.00    -0.248 NA
ATOM     56  C   UNL A   1      40.988  32.163  30.435  1.00  0.00     0.031 C 
ATOM     57  C   UNL A   1      46.308  31.190  27.648  1.00  0.00     0.029 A 
ATOM     58  C   UNL A   1      45.030  30.994  28.152  1.00  0.00     0.049 A 
ATOM     59  H   UNL A   1      43.843  29.253  28.108  1.00  0.00     0.167 HD
ATOM     60  C   UNL A   1      42.941  31.695  29.320  1.00  0.00     0.074 A 
ATOM     61  C   UNL A   1      42.140  32.675  30.026  1.00  0.00     0.031 C 
ATOM     62  C   UNL A   1      44.188  31.936  28.844  1.00  0.00     0.037 A 
BRANCH  49  63
ATOM     63  C   UNL A   1      46.887  27.150  25.994  1.00  0.00     0.057 A 
ATOM     64  C   UNL A   1      47.009  27.259  24.602  1.00  0.00     0.134 A 
ATOM     65  C   UNL A   1      47.922  26.509  26.684  1.00  0.00     0.134 A 
ATOM     66  F   UNL A   1      46.036  27.834  23.877  1.00  0.00    -0.206 F 
ATOM     67  C   UNL A   1      48.114  26.745  23.923  1.00  0.00     0.040 A 
ATOM     68  C   UNL A   1      49.045  26.014  26.019  1.00  0.00     0.040 A 
ATOM     69  F   UNL A   1      47.863  26.358  28.015  1.00  0.00    -0.206 F 
ATOM     70  C   UNL A   1      49.143  26.129  24.635  1.00  0.00     0.006 A 
ENDBRANCH  49  63
BRANCH  50  71
ATOM     71  C   UNL A   1      38.663  30.406  30.850  1.00  0.00     0.057 A 
ATOM     72  C   UNL A   1      37.628  31.110  30.228  1.00  0.00     0.134 A 
ATOM     73  C   UNL A   1      38.558  30.192  32.231  1.00  0.00     0.134 A 
ATOM     74  F   UNL A   1      37.675  31.359  28.911  1.00  0.00    -0.206 F 
ATOM     75  C   UNL A   1      36.547  31.616  30.955  1.00  0.00     0.040 A 
ATOM     76  C   UNL A   1      37.467  30.663  32.964  1.00  0.00     0.040 A 
ATOM     77  F   UNL A   1      39.511  29.516  32.889  1.00  0.00    -0.206 F 
ATOM     78  C   UNL A   1      36.465  31.389  32.327  1.00  0.00     0.006 A 
ENDBRANCH  50  71
BRANCH  62  79
ATOM     79  C   UNL A   1      44.729  33.322  29.032  1.00  0.00     0.057 A 
ATOM     80  C   UNL A   1      44.480  34.346  28.111  1.00  0.00     0.134 A 
ATOM     81  C   UNL A   1      45.469  33.641  30.178  1.00  0.00     0.134 A 
ATOM     82  F   UNL A   1      43.786  34.100  26.990  1.00  0.00    -0.206 F 
ATOM     83  C   UNL A   1      44.973  35.635  28.310  1.00  0.00     0.040 A 
ATOM     84  C   UNL A   1      45.937  34.934  30.404  1.00  0.00     0.040 A 
ATOM     85  F   UNL A   1      45.727  32.706  31.105  1.00  0.00    -0.206 F 
ATOM     86  C   UNL A   1      45.698  35.933  29.463  1.00  0.00     0.006 A 
ENDBRANCH  62  79
ENDBRANCH  36  37
ENDBRANCH  29  31
ENDBRANCH  28  29
ENDBRANCH  27  28
ENDBRANCH  26  27
ENDBRANCH  25  26
ENDBRANCH   1  25
TORSDOF 19
ENDMDL
MODEL 3
REMARK VINA RESULT:     -10.4      1.803      2.380
REMARK SMILES CC(=O)c1ccc(NC(=O)C[C@H](C(=O)OCCOCCOC(=O)c2ccc(-c3c4nc(c(-c5c(F)cccc5F)c5ccc([nH]5)c(-c5c(F)cccc5F)c5nc(c(-c6c(F)cccc6F)c6ccc3[nH]6)C=C5)C=C4)cc2)[NH+](C)C)cc1
REMARK SMILES IDX 17 1 16 2 15 3 13 4 14 5 12 6 11 7 9 8 8 9 10 11 7 12 4 13
REMARK SMILES IDX 5 14 82 15 6 16 81 17 2 18 1 19 3 20 78 21 79 22 80 23 18 25
REMARK SMILES IDX 19 26 20 27 21 28 22 29 23 30 24 31 25 32 77 33 26 34 76 35
REMARK SMILES IDX 27 36 28 37 29 38 70 39 30 40 75 41 69 42 71 43 31 44 74 45
REMARK SMILES IDX 68 46 67 47 32 49 58 50 41 51 57 52 42 53 45 54 56 55 72 56
REMARK SMILES IDX 43 57 44 58 55 60 73 61 46 62 33 63 34 64 39 65 35 66 36 67
REMARK SMILES IDX 38 68 40 69 37 70 59 71 60 72 65 73 61 74 62 75 64 76 66 77
REMARK SMILES IDX 63 78 47 79 48 80 53 81 49 82 50 83 52 84 54 85 51 86
REMARK H PARENT 8 10 78 24 71 48 45 59
REMARK Flexibility Score: inf
ROOT
ATOM      1  C   UNL A   1      34.914  22.975  25.568  1.00  0.00     0.202 C 
ENDROOT
BRANCH   1   2
ATOM      2  C   UNL A   1      35.366  24.453  25.198  1.00  0.00     0.261 C 
BRANCH   2   3
ATOM      3  O   UNL A   1      34.286  25.228  24.568  1.00  0.00    -0.459 OA
BRANCH   3   4
ATOM      4  C   UNL A   1      33.605  26.249  25.209  1.00  0.00     0.365 C 
ATOM      5  O   UNL A   1      34.104  26.890  26.126  1.00  0.00    -0.245 OA
BRANCH   4   6
ATOM      6  C   UNL A   1      32.255  26.647  24.439  1.00  0.00     0.304 C 
BRANCH   6   7
ATOM      7  C   UNL A   1      30.944  26.174  25.083  1.00  0.00     0.177 C 
BRANCH   7   8
ATOM      8  C   UNL A   1      30.051  25.497  24.098  1.00  0.00     0.231 C 
ATOM      9  N   UNL A   1      30.302  24.211  23.737  1.00  0.00    -0.326 N 
ATOM     10  H   UNL A   1      29.613  23.844  23.136  1.00  0.00     0.169 HD
ATOM     11  O   UNL A   1      29.049  26.066  23.658  1.00  0.00    -0.274 OA
BRANCH   9  12
ATOM     12  C   UNL A   1      31.324  23.279  24.024  1.00  0.00     0.041 A 
ATOM     13  C   UNL A   1      32.230  20.670  24.277  1.00  0.00     0.017 A 
ATOM     14  C   UNL A   1      32.416  21.368  23.075  1.00  0.00     0.014 A 
ATOM     15  C   UNL A   1      31.792  21.321  25.414  1.00  0.00     0.014 A 
ATOM     16  C   UNL A   1      31.960  22.684  22.948  1.00  0.00     0.027 A 
ATOM     17  C   UNL A   1      31.343  22.622  25.273  1.00  0.00     0.027 A 
BRANCH  13  18
ATOM     18  C   UNL A   1      32.238  19.196  24.269  1.00  0.00     0.159 C 
ATOM     19  C   UNL A   1      32.494  18.539  22.927  1.00  0.00     0.093 C 
ATOM     20  O   UNL A   1      32.177  18.576  25.323  1.00  0.00    -0.295 OA
ENDBRANCH  13  18
ENDBRANCH   9  12
ENDBRANCH   7   8
ENDBRANCH   6   7
BRANCH   6  21
ATOM     21  N   UNL A   1      32.181  27.983  23.768  1.00  0.00    -0.328 N 
ATOM     22  C   UNL A   1      31.765  29.051  24.691  1.00  0.00     0.333 C 
ATOM     23  C   UNL A   1      33.344  28.376  23.003  1.00  0.00     0.333 C 
ATOM     24  H   UNL A   1      31.450  27.849  23.069  1.00  0.00     0.348 HD
ENDBRANCH   6  21
ENDBRANCH   4   6
ENDBRANCH   3   4
ENDBRANCH   2   3
ENDBRANCH   1   2
BRANCH   1  25
ATOM     25  O   UNL A   1      35.412  22.025  24.621  1.00  0.00    -0.374 OA
BRANCH  25  26
ATOM     26  C   UNL A   1      35.838  20.696  24.967  1.00  0.00     0.202 C 
BRANCH  26  27
ATOM     27  C   UNL A   1      37.367  20.439  24.978  1.00  0.00     0.261 C 
BRANCH  27  28
ATOM     28  O   UNL A   1      38.034  21.551  25.559  1.00  0.00    -0.460 OA
BRANCH  28  29
ATOM     29  C   UNL A   1      39.219  21.173  26.091  1.00  0.00     0.338 C 
ATOM     30  O   UNL A   1      39.895  20.208  25.801  1.00  0.00    -0.246 OA
BRANCH  29  31
ATOM     31  C   UNL A   1      39.734  22.376  26.733  1.00  0.00     0.060 A 
ATOM     32  C   UNL A   1      39.088  23.577  26.414  1.00  0.00     0.016 A 
ATOM     33  C   UNL A   1      40.759  22.305  27.676  1.00  0.00     0.016 A 
ATOM     34  C   UNL A   1      39.526  24.751  26.992  1.00  0.00     0.010 A 
ATOM     35  C   UNL A   1      41.218  23.485  28.236  1.00  0.00     0.010 A 
ATOM     36  C   UNL A   1      40.637  24.703  27.841  1.00  0.00    -0.014 A 
BRANCH  36  37
ATOM     37  C   UNL A   1      41.397  25.942  28.037  1.00  0.00     0.031 A 
ATOM     38  C   UNL A   1      40.695  27.049  28.765  1.00  0.00     0.074 A 
ATOM     39  C   UNL A   1      42.665  26.033  27.614  1.00  0.00     0.049 A 
ATOM     40  N   UNL A   1      41.100  28.263  29.015  1.00  0.00    -0.248 NA
ATOM     41  C   UNL A   1      39.345  26.746  29.283  1.00  0.00     0.031 C 
ATOM     42  C   UNL A   1      43.415  24.968  26.951  1.00  0.00     0.029 A 
ATOM     43  N   UNL A   1      43.536  27.083  27.673  1.00  0.00    -0.354 N 
ATOM     44  C   UNL A   1      40.060  28.862  29.715  1.00  0.00     0.074 A 
ATOM     45  C   UNL A   1      38.991  27.900  29.823  1.00  0.00     0.031 C 
ATOM     46  C   UNL A   1      44.638  25.432  26.638  1.00  0.00     0.029 A 
ATOM     47  C   UNL A   1      44.729  26.831  27.048  1.00  0.00     0.049 A 
ATOM     48  H   UNL A   1      43.327  27.933  28.121  1.00  0.00     0.167 HD
ATOM     49  C   UNL A   1      40.016  30.109  30.229  1.00  0.00     0.037 A 
ATOM     50  C   UNL A   1      45.754  27.669  26.809  1.00  0.00     0.037 A 
ATOM     51  C   UNL A   1      41.092  31.048  30.083  1.00  0.00     0.049 A 
ATOM     52  C   UNL A   1      45.639  29.085  27.313  1.00  0.00     0.074 A 
ATOM     53  C   UNL A   1      41.168  32.352  30.532  1.00  0.00     0.029 A 
ATOM     54  N   UNL A   1      42.283  30.771  29.426  1.00  0.00    -0.354 N 
ATOM     55  N   UNL A   1      44.659  29.652  27.980  1.00  0.00    -0.248 NA
ATOM     56  C   UNL A   1      46.771  29.976  27.038  1.00  0.00     0.031 C 
ATOM     57  C   UNL A   1      42.390  32.880  30.102  1.00  0.00     0.029 A 
ATOM     58  C   UNL A   1      43.097  31.886  29.441  1.00  0.00     0.049 A 
ATOM     59  H   UNL A   1      42.512  29.908  29.010  1.00  0.00     0.167 HD
ATOM     60  C   UNL A   1      45.069  30.956  28.230  1.00  0.00     0.074 A 
ATOM     61  C   UNL A   1      46.395  31.085  27.659  1.00  0.00     0.031 C 
ATOM     62  C   UNL A   1      44.419  31.959  28.870  1.00  0.00     0.037 A 
BRANCH  49  63
ATOM     63  C   UNL A   1      38.772  30.520  30.956  1.00  0.00     0.057 A 
ATOM     64  C   UNL A   1      38.613  30.307  32.333  1.00  0.00     0.134 A 
ATOM     65  C   UNL A   1      37.723  31.152  30.276  1.00  0.00     0.134 A 
ATOM     66  F   UNL A   1      39.566  29.678  33.038  1.00  0.00    -0.206 F 
ATOM     67  C   UNL A   1      37.454  30.700  33.004  1.00  0.00     0.040 A 
ATOM     68  C   UNL A   1      36.571  31.572  30.941  1.00  0.00     0.040 A 
ATOM     69  F   UNL A   1      37.803  31.374  28.956  1.00  0.00    -0.206 F 
ATOM     70  C   UNL A   1      36.433  31.345  32.309  1.00  0.00     0.006 A 
ENDBRANCH  49  63
BRANCH  50  71
ATOM     71  C   UNL A   1      46.938  27.212  26.041  1.00  0.00     0.057 A 
ATOM     72  C   UNL A   1      48.036  26.623  26.675  1.00  0.00     0.134 A 
ATOM     73  C   UNL A   1      47.012  27.383  24.651  1.00  0.00     0.134 A 
ATOM     74  F   UNL A   1      48.033  26.442  28.003  1.00  0.00    -0.206 F 
ATOM     75  C   UNL A   1      49.180  26.251  25.963  1.00  0.00     0.040 A 
ATOM     76  C   UNL A   1      48.135  26.987  23.923  1.00  0.00     0.040 A 
ATOM     77  F   UNL A   1      45.990  27.933  23.979  1.00  0.00    -0.206 F 
ATOM     78  C   UNL A   1      49.229  26.431  24.582  1.00  0.00     0.006 A 
ENDBRANCH  50  71
BRANCH  62  79
ATOM     79  C   UNL A   1      45.156  33.256  29.023  1.00  0.00     0.057 A 
ATOM     80  C   UNL A   1      45.021  34.298  28.099  1.00  0.00     0.134 A 
ATOM     81  C   UNL A   1      45.973  33.475  30.139  1.00  0.00     0.134 A 
ATOM     82  F   UNL A   1      44.261  34.144  27.005  1.00  0.00    -0.206 F 
ATOM     83  C   UNL A   1      45.698  35.506  28.265  1.00  0.00     0.040 A 
ATOM     84  C   UNL A   1      46.626  34.690  30.334  1.00  0.00     0.040 A 
ATOM     85  F   UNL A   1      46.129  32.520  31.069  1.00  0.00    -0.206 F 
ATOM     86  C   UNL A   1      46.497  35.707  29.390  1.00  0.00     0.006 A 
ENDBRANCH  62  79
ENDBRANCH  36  37
ENDBRANCH  29  31
ENDBRANCH  28  29
ENDBRANCH  27  28
ENDBRANCH  26  27
ENDBRANCH  25  26
ENDBRANCH   1  25
TORSDOF 19
ENDMDL
