MODEL 1
REMARK VINA RESULT:     -11.5      0.000      0.000
REMARK SMILES O=C(OCCOCCOC(=O)c1cc(NC(=S)NC(=O)c2ccccc2F)ccc1Cl)c1ccc(-c2c3nc(c(-c4c(F)cccc4F)c4ccc([nH]4)c(-c4c(F)cccc4F)c4nc(c(-c5c(F)cccc5F)c5ccc2[nH]5)C=C4)C=C3)cc1
REMARK SMILES IDX 7 1 6 2 5 3 4 4 3 5 2 6 1 7 32 8 33 9 85 10 34 11 84 12
REMARK SMILES IDX 35 13 36 14 37 15 78 16 38 17 83 18 77 19 79 20 39 21 82 22
REMARK SMILES IDX 76 23 75 24 40 26 66 27 49 28 65 29 50 30 53 31 64 32 80 33
REMARK SMILES IDX 51 34 52 35 63 37 81 38 54 39 41 40 42 41 47 42 43 43 44 44
REMARK SMILES IDX 46 45 48 46 45 47 67 48 68 49 73 50 69 51 70 52 72 53 74 54
REMARK SMILES IDX 71 55 55 56 56 57 61 58 57 59 58 60 60 61 62 62 59 63 8 64
REMARK SMILES IDX 9 65 10 66 11 67 12 68 13 69 30 70 14 71 29 72 31 73 28 74
REMARK SMILES IDX 15 75 16 77 17 78 18 79 19 80 20 82 21 83 22 84 26 85 23 86
REMARK SMILES IDX 25 87 27 88 24 89
REMARK H PARENT 79 25 53 36 15 76 18 81
REMARK Flexibility Score: inf
ROOT
ATOM      1  C   UNL A   1      39.909  20.568  26.248  1.00  0.00     0.202 C 
ENDROOT
BRANCH   1   2
ATOM      2  O   UNL A   1      41.174  20.512  26.885  1.00  0.00    -0.374 OA
BRANCH   2   3
ATOM      3  C   UNL A   1      42.257  20.020  26.100  1.00  0.00     0.202 C 
BRANCH   3   4
ATOM      4  C   UNL A   1      43.366  20.997  25.718  1.00  0.00     0.261 C 
BRANCH   4   5
ATOM      5  O   UNL A   1      43.275  22.187  26.499  1.00  0.00    -0.460 OA
BRANCH   5   6
ATOM      6  C   UNL A   1      42.975  23.406  25.986  1.00  0.00     0.338 C 
ATOM      7  O   UNL A   1      42.984  23.578  24.771  1.00  0.00    -0.246 OA
BRANCH   6   8
ATOM      8  C   UNL A   1      42.549  24.527  26.866  1.00  0.00     0.060 A 
ATOM      9  C   UNL A   1      41.669  24.381  27.937  1.00  0.00     0.016 A 
ATOM     10  C   UNL A   1      43.115  25.783  26.647  1.00  0.00     0.016 A 
ATOM     11  C   UNL A   1      41.300  25.416  28.746  1.00  0.00     0.010 A 
ATOM     12  C   UNL A   1      42.831  26.830  27.524  1.00  0.00     0.010 A 
ATOM     13  C   UNL A   1      41.946  26.619  28.590  1.00  0.00    -0.014 A 
BRANCH  13  14
ATOM     14  C   UNL A   1      41.601  27.633  29.576  1.00  0.00     0.031 A 
ATOM     15  C   UNL A   1      42.479  27.752  30.762  1.00  0.00     0.074 A 
ATOM     16  C   UNL A   1      40.608  28.496  29.291  1.00  0.00     0.049 A 
ATOM     17  N   UNL A   1      42.274  28.420  31.855  1.00  0.00    -0.248 NA
ATOM     18  C   UNL A   1      43.759  27.017  30.718  1.00  0.00     0.031 C 
ATOM     19  C   UNL A   1      39.854  28.542  28.028  1.00  0.00     0.029 A 
ATOM     20  N   UNL A   1      40.075  29.515  30.025  1.00  0.00    -0.354 N 
ATOM     21  C   UNL A   1      43.358  28.128  32.662  1.00  0.00     0.074 A 
ATOM     22  C   UNL A   1      44.236  27.247  31.931  1.00  0.00     0.031 C 
ATOM     23  C   UNL A   1      38.957  29.536  28.084  1.00  0.00     0.029 A 
ATOM     24  C   UNL A   1      38.995  30.109  29.420  1.00  0.00     0.049 A 
ATOM     25  H   UNL A   1      40.429  29.795  30.900  1.00  0.00     0.167 HD
ATOM     26  C   UNL A   1      43.551  28.559  33.924  1.00  0.00     0.037 A 
ATOM     27  C   UNL A   1      38.088  30.955  29.937  1.00  0.00     0.037 A 
ATOM     28  C   UNL A   1      42.640  29.459  34.570  1.00  0.00     0.049 A 
ATOM     29  C   UNL A   1      38.272  31.335  31.379  1.00  0.00     0.074 A 
ATOM     30  C   UNL A   1      42.686  29.952  35.856  1.00  0.00     0.029 A 
ATOM     31  N   UNL A   1      41.514  30.000  33.959  1.00  0.00    -0.354 N 
ATOM     32  N   UNL A   1      39.241  30.995  32.197  1.00  0.00    -0.248 NA
ATOM     33  C   UNL A   1      37.238  32.178  31.984  1.00  0.00     0.031 C 
ATOM     34  C   UNL A   1      41.554  30.747  36.043  1.00  0.00     0.029 A 
ATOM     35  C   UNL A   1      40.836  30.802  34.854  1.00  0.00     0.049 A 
ATOM     36  H   UNL A   1      41.240  29.837  33.028  1.00  0.00     0.167 HD
ATOM     37  C   UNL A   1      38.945  31.591  33.411  1.00  0.00     0.074 A 
ATOM     38  C   UNL A   1      37.711  32.330  33.214  1.00  0.00     0.031 C 
ATOM     39  C   UNL A   1      39.618  31.530  34.586  1.00  0.00     0.037 A 
BRANCH  26  40
ATOM     40  C   UNL A   1      44.711  28.002  34.680  1.00  0.00     0.057 A 
ATOM     41  C   UNL A   1      44.554  26.826  35.426  1.00  0.00     0.134 A 
ATOM     42  C   UNL A   1      45.966  28.619  34.696  1.00  0.00     0.134 A 
ATOM     43  F   UNL A   1      43.383  26.172  35.429  1.00  0.00    -0.206 F 
ATOM     44  C   UNL A   1      45.597  26.302  36.188  1.00  0.00     0.040 A 
ATOM     45  C   UNL A   1      47.025  28.091  35.436  1.00  0.00     0.040 A 
ATOM     46  F   UNL A   1      46.190  29.723  33.968  1.00  0.00    -0.206 F 
ATOM     47  C   UNL A   1      46.837  26.937  36.196  1.00  0.00     0.006 A 
ENDBRANCH  26  40
BRANCH  27  48
ATOM     48  C   UNL A   1      36.919  31.393  29.133  1.00  0.00     0.057 A 
ATOM     49  C   UNL A   1      36.833  32.690  28.605  1.00  0.00     0.134 A 
ATOM     50  C   UNL A   1      35.844  30.533  28.884  1.00  0.00     0.134 A 
ATOM     51  F   UNL A   1      37.823  33.572  28.806  1.00  0.00    -0.206 F 
ATOM     52  C   UNL A   1      35.719  33.121  27.881  1.00  0.00     0.040 A 
ATOM     53  C   UNL A   1      34.736  30.940  28.135  1.00  0.00     0.040 A 
ATOM     54  F   UNL A   1      35.865  29.275  29.349  1.00  0.00    -0.206 F 
ATOM     55  C   UNL A   1      34.669  32.240  27.637  1.00  0.00     0.006 A 
ENDBRANCH  27  48
BRANCH  39  56
ATOM     56  C   UNL A   1      39.053  32.299  35.736  1.00  0.00     0.057 A 
ATOM     57  C   UNL A   1      39.431  33.631  35.944  1.00  0.00     0.134 A 
ATOM     58  C   UNL A   1      38.267  31.677  36.711  1.00  0.00     0.134 A 
ATOM     59  F   UNL A   1      40.199  34.269  35.047  1.00  0.00    -0.206 F 
ATOM     60  C   UNL A   1      39.083  34.307  37.109  1.00  0.00     0.040 A 
ATOM     61  C   UNL A   1      37.886  32.354  37.867  1.00  0.00     0.040 A 
ATOM     62  F   UNL A   1      37.868  30.405  36.556  1.00  0.00    -0.206 F 
ATOM     63  C   UNL A   1      38.310  33.666  38.077  1.00  0.00     0.006 A 
ENDBRANCH  39  56
ENDBRANCH  13  14
ENDBRANCH   6   8
ENDBRANCH   5   6
ENDBRANCH   4   5
ENDBRANCH   3   4
ENDBRANCH   2   3
ENDBRANCH   1   2
BRANCH   1  64
ATOM     64  C   UNL A   1      39.469  22.021  26.184  1.00  0.00     0.261 C 
BRANCH  64  65
ATOM     65  O   UNL A   1      38.042  22.035  25.968  1.00  0.00    -0.460 OA
BRANCH  65  66
ATOM     66  C   UNL A   1      37.410  23.233  26.086  1.00  0.00     0.339 C 
ATOM     67  O   UNL A   1      37.958  24.283  26.366  1.00  0.00    -0.246 OA
BRANCH  66  68
ATOM     68  C   UNL A   1      35.902  22.958  25.837  1.00  0.00     0.080 A 
ATOM     69  C   UNL A   1      34.248  22.499  26.915  1.00  0.00     0.043 A 
ATOM     70  C   UNL A   1      35.686  22.812  24.030  1.00  0.00     0.055 A 
ATOM     71  C   UNL A   1      32.736  22.177  26.209  1.00  0.00     0.041 A 
ATOM     72  C   UNL A   1      34.082  22.334  23.405  1.00  0.00     0.023 A 
ATOM     73  Cl  UNL A   1      36.941  22.980  22.861  1.00  0.00    -0.083 Cl
ATOM     74  C   UNL A   1      32.665  22.041  24.469  1.00  0.00     0.028 A 
BRANCH  71  75
ATOM     75  N   UNL A   1      31.709  22.611  27.070  1.00  0.00    -0.332 N 
ATOM     76  H   UNL A   1      31.861  22.407  28.021  1.00  0.00     0.169 HD
BRANCH  75  77
ATOM     77  C   UNL A   1      30.526  23.274  26.812  1.00  0.00     0.177 C 
ATOM     78  S   UNL A   1      29.128  22.520  27.375  1.00  0.00    -0.040 S 
BRANCH  77  79
ATOM     79  N   UNL A   1      30.305  24.500  26.104  1.00  0.00    -0.299 N 
ATOM     80  C   UNL A   1      30.725  25.790  25.484  1.00  0.00     0.260 C 
ATOM     81  H   UNL A   1      29.337  24.479  25.927  1.00  0.00     0.172 HD
ATOM     82  O   UNL A   1      29.889  26.528  24.969  1.00  0.00    -0.269 OA
BRANCH  80  83
ATOM     83  C   UNL A   1      32.179  26.206  25.445  1.00  0.00     0.075 A 
ATOM     84  C   UNL A   1      32.946  25.968  23.836  1.00  0.00     0.017 A 
ATOM     85  C   UNL A   1      32.146  27.719  26.287  1.00  0.00     0.135 A 
ATOM     86  C   UNL A   1      33.527  27.338  22.837  1.00  0.00     0.001 A 
ATOM     87  C   UNL A   1      32.656  29.159  25.430  1.00  0.00     0.040 A 
ATOM     88  F   UNL A   1      31.433  27.859  27.415  1.00  0.00    -0.206 F 
ATOM     89  C   UNL A   1      33.354  29.014  23.526  1.00  0.00     0.003 A 
ENDBRANCH  80  83
ENDBRANCH  77  79
ENDBRANCH  75  77
ENDBRANCH  71  75
ENDBRANCH  66  68
ENDBRANCH  65  66
ENDBRANCH  64  65
ENDBRANCH   1  64
TORSDOF 18
ENDMDL
MODEL 2
REMARK VINA RESULT:     -11.1      2.976      8.261
REMARK SMILES O=C(OCCOCCOC(=O)c1cc(NC(=S)NC(=O)c2ccccc2F)ccc1Cl)c1ccc(-c2c3nc(c(-c4c(F)cccc4F)c4ccc([nH]4)c(-c4c(F)cccc4F)c4nc(c(-c5c(F)cccc5F)c5ccc2[nH]5)C=C4)C=C3)cc1
REMARK SMILES IDX 7 1 6 2 5 3 4 4 3 5 2 6 1 7 32 8 33 9 85 10 34 11 84 12
REMARK SMILES IDX 35 13 36 14 37 15 78 16 38 17 83 18 77 19 79 20 39 21 82 22
REMARK SMILES IDX 76 23 75 24 40 26 66 27 49 28 65 29 50 30 53 31 64 32 80 33
REMARK SMILES IDX 51 34 52 35 63 37 81 38 54 39 41 40 42 41 47 42 43 43 44 44
REMARK SMILES IDX 46 45 48 46 45 47 67 48 68 49 73 50 69 51 70 52 72 53 74 54
REMARK SMILES IDX 71 55 55 56 56 57 61 58 57 59 58 60 60 61 62 62 59 63 8 64
REMARK SMILES IDX 9 65 10 66 11 67 12 68 13 69 30 70 14 71 29 72 31 73 28 74
REMARK SMILES IDX 15 75 16 77 17 78 18 79 19 80 20 82 21 83 22 84 26 85 23 86
REMARK SMILES IDX 25 87 27 88 24 89
REMARK H PARENT 79 25 53 36 15 76 18 81
REMARK Flexibility Score: inf
ROOT
ATOM      1  C   UNL A   1      31.860  30.715  26.377  1.00  0.00     0.202 C 
ENDROOT
BRANCH   1   2
ATOM      2  O   UNL A   1      30.957  31.799  26.239  1.00  0.00    -0.374 OA
BRANCH   2   3
ATOM      3  C   UNL A   1      31.481  33.097  26.499  1.00  0.00     0.202 C 
BRANCH   3   4
ATOM      4  C   UNL A   1      32.534  33.238  27.596  1.00  0.00     0.261 C 
BRANCH   4   5
ATOM      5  O   UNL A   1      32.697  34.607  27.960  1.00  0.00    -0.460 OA
BRANCH   5   6
ATOM      6  C   UNL A   1      33.188  35.017  29.155  1.00  0.00     0.338 C 
ATOM      7  O   UNL A   1      32.656  35.948  29.750  1.00  0.00    -0.246 OA
BRANCH   6   8
ATOM      8  C   UNL A   1      34.318  34.302  29.808  1.00  0.00     0.060 A 
ATOM      9  C   UNL A   1      34.162  33.399  30.858  1.00  0.00     0.016 A 
ATOM     10  C   UNL A   1      35.601  34.497  29.294  1.00  0.00     0.016 A 
ATOM     11  C   UNL A   1      35.206  32.738  31.436  1.00  0.00     0.010 A 
ATOM     12  C   UNL A   1      36.667  33.755  29.802  1.00  0.00     0.010 A 
ATOM     13  C   UNL A   1      36.446  32.854  30.852  1.00  0.00    -0.014 A 
BRANCH  13  14
ATOM     14  C   UNL A   1      37.480  32.014  31.438  1.00  0.00     0.031 A 
ATOM     15  C   UNL A   1      37.828  32.255  32.857  1.00  0.00     0.074 A 
ATOM     16  C   UNL A   1      37.952  30.978  30.718  1.00  0.00     0.049 A 
ATOM     17  N   UNL A   1      38.833  31.791  33.532  1.00  0.00    -0.248 NA
ATOM     18  C   UNL A   1      36.928  33.143  33.619  1.00  0.00     0.031 C 
ATOM     19  C   UNL A   1      37.475  30.579  29.384  1.00  0.00     0.029 A 
ATOM     20  N   UNL A   1      38.914  30.056  31.009  1.00  0.00    -0.354 N 
ATOM     21  C   UNL A   1      38.735  32.387  34.776  1.00  0.00     0.074 A 
ATOM     22  C   UNL A   1      37.560  33.225  34.780  1.00  0.00     0.031 C 
ATOM     23  C   UNL A   1      38.153  29.497  28.978  1.00  0.00     0.029 A 
ATOM     24  C   UNL A   1      39.181  29.207  29.963  1.00  0.00     0.049 A 
ATOM     25  H   UNL A   1      39.371  30.006  31.880  1.00  0.00     0.167 HD
ATOM     26  C   UNL A   1      39.599  32.243  35.799  1.00  0.00     0.037 A 
ATOM     27  C   UNL A   1      40.209  28.357  29.798  1.00  0.00     0.037 A 
ATOM     28  C   UNL A   1      40.731  31.365  35.723  1.00  0.00     0.049 A 
ATOM     29  C   UNL A   1      41.214  28.295  30.913  1.00  0.00     0.074 A 
ATOM     30  C   UNL A   1      41.711  31.143  36.665  1.00  0.00     0.029 A 
ATOM     31  N   UNL A   1      41.021  30.559  34.627  1.00  0.00    -0.354 N 
ATOM     32  N   UNL A   1      41.195  28.924  32.067  1.00  0.00    -0.248 NA
ATOM     33  C   UNL A   1      42.389  27.447  30.707  1.00  0.00     0.031 C 
ATOM     34  C   UNL A   1      42.629  30.247  36.116  1.00  0.00     0.029 A 
ATOM     35  C   UNL A   1      42.187  29.858  34.857  1.00  0.00     0.049 A 
ATOM     36  H   UNL A   1      40.476  30.497  33.810  1.00  0.00     0.167 HD
ATOM     37  C   UNL A   1      42.348  28.541  32.731  1.00  0.00     0.074 A 
ATOM     38  C   UNL A   1      43.034  27.608  31.856  1.00  0.00     0.031 C 
ATOM     39  C   UNL A   1      42.808  28.925  33.947  1.00  0.00     0.037 A 
BRANCH  26  40
ATOM     40  C   UNL A   1      39.398  33.097  37.006  1.00  0.00     0.057 A 
ATOM     41  C   UNL A   1      38.488  32.699  37.995  1.00  0.00     0.134 A 
ATOM     42  C   UNL A   1      40.072  34.308  37.192  1.00  0.00     0.134 A 
ATOM     43  F   UNL A   1      37.831  31.535  37.888  1.00  0.00    -0.206 F 
ATOM     44  C   UNL A   1      38.233  33.494  39.111  1.00  0.00     0.040 A 
ATOM     45  C   UNL A   1      39.843  35.101  38.318  1.00  0.00     0.040 A 
ATOM     46  F   UNL A   1      40.987  34.722  36.302  1.00  0.00    -0.206 F 
ATOM     47  C   UNL A   1      38.910  34.700  39.274  1.00  0.00     0.006 A 
ENDBRANCH  26  40
BRANCH  27  48
ATOM     48  C   UNL A   1      40.373  27.608  28.527  1.00  0.00     0.057 A 
ATOM     49  C   UNL A   1      39.816  26.332  28.347  1.00  0.00     0.134 A 
ATOM     50  C   UNL A   1      41.107  28.136  27.460  1.00  0.00     0.134 A 
ATOM     51  F   UNL A   1      39.102  25.758  29.327  1.00  0.00    -0.206 F 
ATOM     52  C   UNL A   1      39.998  25.606  27.168  1.00  0.00     0.040 A 
ATOM     53  C   UNL A   1      41.272  27.434  26.263  1.00  0.00     0.040 A 
ATOM     54  F   UNL A   1      41.657  29.355  27.559  1.00  0.00    -0.206 F 
ATOM     55  C   UNL A   1      40.723  26.162  26.118  1.00  0.00     0.006 A 
ENDBRANCH  27  48
BRANCH  39  56
ATOM     56  C   UNL A   1      44.094  28.322  34.410  1.00  0.00     0.057 A 
ATOM     57  C   UNL A   1      45.313  28.920  34.067  1.00  0.00     0.134 A 
ATOM     58  C   UNL A   1      44.125  27.081  35.054  1.00  0.00     0.134 A 
ATOM     59  F   UNL A   1      45.338  30.102  33.433  1.00  0.00    -0.206 F 
ATOM     60  C   UNL A   1      46.525  28.278  34.310  1.00  0.00     0.040 A 
ATOM     61  C   UNL A   1      45.333  26.445  35.330  1.00  0.00     0.040 A 
ATOM     62  F   UNL A   1      42.986  26.471  35.414  1.00  0.00    -0.206 F 
ATOM     63  C   UNL A   1      46.536  27.035  34.940  1.00  0.00     0.006 A 
ENDBRANCH  39  56
ENDBRANCH  13  14
ENDBRANCH   6   8
ENDBRANCH   5   6
ENDBRANCH   4   5
ENDBRANCH   3   4
ENDBRANCH   2   3
ENDBRANCH   1   2
BRANCH   1  64
ATOM     64  C   UNL A   1      31.971  30.009  25.037  1.00  0.00     0.261 C 
BRANCH  64  65
ATOM     65  O   UNL A   1      33.330  29.542  24.901  1.00  0.00    -0.460 OA
BRANCH  65  66
ATOM     66  C   UNL A   1      33.691  28.462  25.644  1.00  0.00     0.339 C 
ATOM     67  O   UNL A   1      34.539  28.472  26.517  1.00  0.00    -0.246 OA
BRANCH  66  68
ATOM     68  C   UNL A   1      32.847  27.269  25.120  1.00  0.00     0.080 A 
ATOM     69  C   UNL A   1      32.647  26.186  23.418  1.00  0.00     0.043 A 
ATOM     70  C   UNL A   1      31.552  26.953  26.368  1.00  0.00     0.055 A 
ATOM     71  C   UNL A   1      31.485  24.962  23.224  1.00  0.00     0.041 A 
ATOM     72  C   UNL A   1      30.300  25.734  25.998  1.00  0.00     0.023 A 
ATOM     73  Cl  UNL A   1      31.358  27.823  27.843  1.00  0.00    -0.083 Cl
ATOM     74  C   UNL A   1      30.286  24.774  24.481  1.00  0.00     0.028 A 
BRANCH  71  75
ATOM     75  N   UNL A   1      31.992  23.957  22.377  1.00  0.00    -0.332 N 
ATOM     76  H   UNL A   1      31.671  24.007  21.448  1.00  0.00     0.169 HD
BRANCH  75  77
ATOM     77  C   UNL A   1      32.864  22.915  22.622  1.00  0.00     0.177 C 
ATOM     78  S   UNL A   1      32.148  21.420  22.923  1.00  0.00    -0.040 S 
BRANCH  77  79
ATOM     79  N   UNL A   1      34.295  22.922  22.693  1.00  0.00    -0.299 N 
ATOM     80  C   UNL A   1      35.606  22.943  23.402  1.00  0.00     0.260 C 
ATOM     81  H   UNL A   1      34.560  22.902  21.745  1.00  0.00     0.172 HD
ATOM     82  O   UNL A   1      36.654  22.976  22.761  1.00  0.00    -0.269 OA
BRANCH  80  83
ATOM     83  C   UNL A   1      35.684  22.895  24.912  1.00  0.00     0.075 A 
ATOM     84  C   UNL A   1      34.790  24.232  25.716  1.00  0.00     0.017 A 
ATOM     85  C   UNL A   1      35.411  21.215  25.236  1.00  0.00     0.135 A 
ATOM     86  C   UNL A   1      33.350  23.942  26.744  1.00  0.00     0.001 A 
ATOM     87  C   UNL A   1      34.021  20.771  26.204  1.00  0.00     0.040 A 
ATOM     88  F   UNL A   1      36.012  20.270  24.498  1.00  0.00    -0.206 F 
ATOM     89  C   UNL A   1      32.830  22.216  26.994  1.00  0.00     0.003 A 
ENDBRANCH  80  83
ENDBRANCH  77  79
ENDBRANCH  75  77
ENDBRANCH  71  75
ENDBRANCH  66  68
ENDBRANCH  65  66
ENDBRANCH  64  65
ENDBRANCH   1  64
TORSDOF 18
ENDMDL
MODEL 3
REMARK VINA RESULT:     -11.0      5.305     10.467
REMARK SMILES O=C(OCCOCCOC(=O)c1cc(NC(=S)NC(=O)c2ccccc2F)ccc1Cl)c1ccc(-c2c3nc(c(-c4c(F)cccc4F)c4ccc([nH]4)c(-c4c(F)cccc4F)c4nc(c(-c5c(F)cccc5F)c5ccc2[nH]5)C=C4)C=C3)cc1
REMARK SMILES IDX 7 1 6 2 5 3 4 4 3 5 2 6 1 7 32 8 33 9 85 10 34 11 84 12
REMARK SMILES IDX 35 13 36 14 37 15 78 16 38 17 83 18 77 19 79 20 39 21 82 22
REMARK SMILES IDX 76 23 75 24 40 26 66 27 49 28 65 29 50 30 53 31 64 32 80 33
REMARK SMILES IDX 51 34 52 35 63 37 81 38 54 39 41 40 42 41 47 42 43 43 44 44
REMARK SMILES IDX 46 45 48 46 45 47 67 48 68 49 73 50 69 51 70 52 72 53 74 54
REMARK SMILES IDX 71 55 55 56 56 57 61 58 57 59 58 60 60 61 62 62 59 63 8 64
REMARK SMILES IDX 9 65 10 66 11 67 12 68 13 69 30 70 14 71 29 72 31 73 28 74
REMARK SMILES IDX 15 75 16 77 17 78 18 79 19 80 20 82 21 83 22 84 26 85 23 86
REMARK SMILES IDX 25 87 27 88 24 89
REMARK H PARENT 79 25 53 36 15 76 18 81
REMARK Flexibility Score: inf
ROOT
ATOM      1  C   UNL A   1      32.993  35.732  32.099  1.00  0.00     0.202 C 
ENDROOT
BRANCH   1   2
ATOM      2  O   UNL A   1      34.169  34.941  32.146  1.00  0.00    -0.374 OA
BRANCH   2   3
ATOM      3  C   UNL A   1      34.091  33.735  32.900  1.00  0.00     0.202 C 
BRANCH   3   4
ATOM      4  C   UNL A   1      35.303  33.336  33.739  1.00  0.00     0.261 C 
BRANCH   4   5
ATOM      5  O   UNL A   1      35.932  32.180  33.190  1.00  0.00    -0.460 OA
BRANCH   5   6
ATOM      6  C   UNL A   1      37.116  31.685  33.627  1.00  0.00     0.338 C 
ATOM      7  O   UNL A   1      37.328  31.577  34.831  1.00  0.00    -0.246 OA
BRANCH   6   8
ATOM      8  C   UNL A   1      38.143  31.189  32.671  1.00  0.00     0.060 A 
ATOM      9  C   UNL A   1      38.103  31.425  31.298  1.00  0.00     0.016 A 
ATOM     10  C   UNL A   1      39.243  30.504  33.189  1.00  0.00     0.016 A 
ATOM     11  C   UNL A   1      39.061  30.978  30.436  1.00  0.00     0.010 A 
ATOM     12  C   UNL A   1      40.283  30.128  32.339  1.00  0.00     0.010 A 
ATOM     13  C   UNL A   1      40.191  30.403  30.968  1.00  0.00    -0.014 A 
BRANCH  13  14
ATOM     14  C   UNL A   1      41.227  30.078  29.999  1.00  0.00     0.031 A 
ATOM     15  C   UNL A   1      41.158  28.746  29.354  1.00  0.00     0.074 A 
ATOM     16  C   UNL A   1      42.091  31.042  29.632  1.00  0.00     0.049 A 
ATOM     17  N   UNL A   1      42.055  28.154  28.628  1.00  0.00    -0.248 NA
ATOM     18  C   UNL A   1      39.917  27.974  29.554  1.00  0.00     0.031 C 
ATOM     19  C   UNL A   1      42.056  32.440  30.094  1.00  0.00     0.029 A 
ATOM     20  N   UNL A   1      43.149  31.011  28.772  1.00  0.00    -0.354 N 
ATOM     21  C   UNL A   1      41.523  26.908  28.348  1.00  0.00     0.074 A 
ATOM     22  C   UNL A   1      40.216  26.833  28.953  1.00  0.00     0.031 C 
ATOM     23  C   UNL A   1      43.051  33.123  29.512  1.00  0.00     0.029 A 
ATOM     24  C   UNL A   1      43.853  32.190  28.740  1.00  0.00     0.049 A 
ATOM     25  H   UNL A   1      43.384  30.223  28.230  1.00  0.00     0.167 HD
ATOM     26  C   UNL A   1      42.128  25.920  27.661  1.00  0.00     0.037 A 
ATOM     27  C   UNL A   1      45.064  32.444  28.215  1.00  0.00     0.037 A 
ATOM     28  C   UNL A   1      43.423  26.087  27.065  1.00  0.00     0.049 A 
ATOM     29  C   UNL A   1      45.759  31.292  27.545  1.00  0.00     0.074 A 
ATOM     30  C   UNL A   1      44.174  25.164  26.371  1.00  0.00     0.029 A 
ATOM     31  N   UNL A   1      44.150  27.272  27.099  1.00  0.00    -0.354 N 
ATOM     32  N   UNL A   1      45.317  30.071  27.350  1.00  0.00    -0.248 NA
ATOM     33  C   UNL A   1      47.119  31.527  27.055  1.00  0.00     0.031 C 
ATOM     34  C   UNL A   1      45.385  25.774  26.036  1.00  0.00     0.029 A 
ATOM     35  C   UNL A   1      45.361  27.096  26.462  1.00  0.00     0.049 A 
ATOM     36  H   UNL A   1      43.846  28.111  27.514  1.00  0.00     0.167 HD
ATOM     37  C   UNL A   1      46.335  29.393  26.703  1.00  0.00     0.074 A 
ATOM     38  C   UNL A   1      47.414  30.347  26.523  1.00  0.00     0.031 C 
ATOM     39  C   UNL A   1      46.387  28.099  26.300  1.00  0.00     0.037 A 
BRANCH  26  40
ATOM     40  C   UNL A   1      41.446  24.594  27.603  1.00  0.00     0.057 A 
ATOM     41  C   UNL A   1      41.911  23.538  28.398  1.00  0.00     0.134 A 
ATOM     42  C   UNL A   1      40.356  24.344  26.763  1.00  0.00     0.134 A 
ATOM     43  F   UNL A   1      42.935  23.722  29.244  1.00  0.00    -0.206 F 
ATOM     44  C   UNL A   1      41.336  22.270  28.334  1.00  0.00     0.040 A 
ATOM     45  C   UNL A   1      39.756  23.085  26.708  1.00  0.00     0.040 A 
ATOM     46  F   UNL A   1      39.837  25.326  26.010  1.00  0.00    -0.206 F 
ATOM     47  C   UNL A   1      40.255  22.040  27.485  1.00  0.00     0.006 A 
ENDBRANCH  26  40
BRANCH  27  48
ATOM     48  C   UNL A   1      45.701  33.773  28.393  1.00  0.00     0.057 A 
ATOM     49  C   UNL A   1      46.506  34.059  29.507  1.00  0.00     0.134 A 
ATOM     50  C   UNL A   1      45.509  34.802  27.467  1.00  0.00     0.134 A 
ATOM     51  F   UNL A   1      46.732  33.123  30.440  1.00  0.00    -0.206 F 
ATOM     52  C   UNL A   1      47.077  35.319  29.702  1.00  0.00     0.040 A 
ATOM     53  C   UNL A   1      46.099  36.059  27.632  1.00  0.00     0.040 A 
ATOM     54  F   UNL A   1      44.761  34.595  26.373  1.00  0.00    -0.206 F 
ATOM     55  C   UNL A   1      46.880  36.322  28.756  1.00  0.00     0.006 A 
ENDBRANCH  27  48
BRANCH  39  56
ATOM     56  C   UNL A   1      47.632  27.651  25.606  1.00  0.00     0.057 A 
ATOM     57  C   UNL A   1      47.690  27.635  24.207  1.00  0.00     0.134 A 
ATOM     58  C   UNL A   1      48.700  27.094  26.317  1.00  0.00     0.134 A 
ATOM     59  F   UNL A   1      46.684  28.141  23.478  1.00  0.00    -0.206 F 
ATOM     60  C   UNL A   1      48.753  27.038  23.535  1.00  0.00     0.040 A 
ATOM     61  C   UNL A   1      49.784  26.523  25.655  1.00  0.00     0.040 A 
ATOM     62  F   UNL A   1      48.699  27.094  27.659  1.00  0.00    -0.206 F 
ATOM     63  C   UNL A   1      49.802  26.477  24.261  1.00  0.00     0.006 A 
ENDBRANCH  39  56
ENDBRANCH  13  14
ENDBRANCH   6   8
ENDBRANCH   5   6
ENDBRANCH   4   5
ENDBRANCH   3   4
ENDBRANCH   2   3
ENDBRANCH   1   2
BRANCH   1  64
ATOM     64  C   UNL A   1      32.758  36.158  30.660  1.00  0.00     0.261 C 
BRANCH  64  65
ATOM     65  O   UNL A   1      32.845  34.976  29.836  1.00  0.00    -0.460 OA
BRANCH  65  66
ATOM     66  C   UNL A   1      33.592  35.065  28.704  1.00  0.00     0.339 C 
ATOM     67  O   UNL A   1      34.073  36.095  28.267  1.00  0.00    -0.246 OA
BRANCH  66  68
ATOM     68  C   UNL A   1      33.651  33.633  28.106  1.00  0.00     0.080 A 
ATOM     69  C   UNL A   1      32.379  32.269  27.312  1.00  0.00     0.043 A 
ATOM     70  C   UNL A   1      35.325  32.989  28.449  1.00  0.00     0.055 A 
ATOM     71  C   UNL A   1      32.861  30.710  26.839  1.00  0.00     0.041 A 
ATOM     72  C   UNL A   1      35.680  31.289  28.030  1.00  0.00     0.023 A 
ATOM     73  Cl  UNL A   1      36.575  33.852  29.262  1.00  0.00    -0.083 Cl
ATOM     74  C   UNL A   1      34.484  30.205  27.244  1.00  0.00     0.028 A 
BRANCH  71  75
ATOM     75  N   UNL A   1      32.090  30.290  25.737  1.00  0.00    -0.332 N 
ATOM     76  H   UNL A   1      31.550  31.001  25.323  1.00  0.00     0.169 HD
BRANCH  75  77
ATOM     77  C   UNL A   1      31.962  29.054  25.134  1.00  0.00     0.177 C 
ATOM     78  S   UNL A   1      32.493  28.962  23.538  1.00  0.00    -0.040 S 
BRANCH  77  79
ATOM     79  N   UNL A   1      31.411  27.840  25.657  1.00  0.00    -0.299 N 
ATOM     80  C   UNL A   1      31.326  26.359  25.815  1.00  0.00     0.260 C 
ATOM     81  H   UNL A   1      30.681  28.162  26.235  1.00  0.00     0.172 HD
ATOM     82  O   UNL A   1      30.444  25.862  26.511  1.00  0.00    -0.269 OA
BRANCH  80  83
ATOM     83  C   UNL A   1      32.330  25.440  25.155  1.00  0.00     0.075 A 
ATOM     84  C   UNL A   1      33.116  24.300  26.303  1.00  0.00     0.017 A 
ATOM     85  C   UNL A   1      31.486  24.946  23.726  1.00  0.00     0.135 A 
ATOM     86  C   UNL A   1      32.878  22.526  26.208  1.00  0.00     0.001 A 
ATOM     87  C   UNL A   1      31.151  23.241  23.507  1.00  0.00     0.040 A 
ATOM     88  F   UNL A   1      30.803  25.837  22.993  1.00  0.00    -0.206 F 
ATOM     89  C   UNL A   1      31.830  21.889  24.864  1.00  0.00     0.003 A 
ENDBRANCH  80  83
ENDBRANCH  77  79
ENDBRANCH  75  77
ENDBRANCH  71  75
ENDBRANCH  66  68
ENDBRANCH  65  66
ENDBRANCH  64  65
ENDBRANCH   1  64
TORSDOF 18
ENDMDL
