MODEL 1
REMARK VINA RESULT:     -10.7      0.000      0.000
REMARK SMILES CC(C)(C[N@H+]1C[C@@H]2C[NH2+]C[C@H]2C1(C)C)C(=O)OCCOCCOC(=O)c1ccc(-c2c3nc(c(-c4c(F)cccc4F)c4ccc([nH]4)c(-c4c(F)cccc4F)c4nc(c(-c5c(F)cccc5F)c5ccc2[nH]5)C=C4)C=C3)cc1
REMARK SMILES IDX 20 1 19 2 18 3 17 4 15 5 16 6 2 7 1 8 3 9 4 10 5 11 6 12
REMARK SMILES IDX 12 13 7 15 11 16 13 17 14 18 8 19 10 20 9 21 21 24 22 25
REMARK SMILES IDX 23 26 24 27 25 28 26 29 27 30 79 31 28 32 78 33 29 34 30 35
REMARK SMILES IDX 31 36 72 37 32 38 77 39 71 40 73 41 33 42 76 43 70 44 69 45
REMARK SMILES IDX 34 47 60 48 43 49 59 50 44 51 47 52 58 53 74 54 45 55 46 56
REMARK SMILES IDX 57 58 75 59 48 60 35 61 36 62 41 63 37 64 38 65 40 66 42 67
REMARK SMILES IDX 39 68 61 69 62 70 67 71 63 72 64 73 66 74 68 75 65 76 49 77
REMARK SMILES IDX 50 78 55 79 51 80 52 81 54 82 56 83 53 84
REMARK H PARENT 5 14 9 22 9 23 73 46 47 57
REMARK Flexibility Score: inf
ROOT
ATOM      1  O   UNL A   1      32.550  30.595  26.299  1.00  0.00    -0.374 OA
ENDROOT
BRANCH   1   2
ATOM      2  C   UNL A   1      32.592  29.470  27.176  1.00  0.00     0.202 C 
BRANCH   2   3
ATOM      3  C   UNL A   1      31.604  28.323  26.868  1.00  0.00     0.261 C 
BRANCH   3   4
ATOM      4  O   UNL A   1      31.929  27.630  25.628  1.00  0.00    -0.463 OA
BRANCH   4   5
ATOM      5  C   UNL A   1      31.085  27.789  24.566  1.00  0.00     0.317 C 
ATOM      6  O   UNL A   1      30.677  28.888  24.208  1.00  0.00    -0.251 OA
BRANCH   5   7
ATOM      7  C   UNL A   1      30.624  26.446  23.928  1.00  0.00     0.111 C 
ATOM      8  C   UNL A   1      31.172  26.340  22.496  1.00  0.00     0.029 C 
ATOM      9  C   UNL A   1      29.081  26.630  23.790  1.00  0.00     0.029 C 
BRANCH   7  10
ATOM     10  C   UNL A   1      30.898  25.098  24.717  1.00  0.00     0.280 C 
BRANCH  10  11
ATOM     11  N   UNL A   1      32.101  24.686  25.487  1.00  0.00    -0.329 N 
ATOM     12  C   UNL A   1      31.845  24.149  26.853  1.00  0.00     0.272 C 
ATOM     13  C   UNL A   1      33.438  24.210  25.009  1.00  0.00     0.101 C 
ATOM     14  H   UNL A   1      32.316  25.663  25.289  1.00  0.00     0.348 HD
ATOM     15  C   UNL A   1      32.648  22.873  26.837  1.00  0.00     0.114 C 
ATOM     16  C   UNL A   1      33.902  23.361  26.186  1.00  0.00     0.119 C 
ATOM     17  C   UNL A   1      33.390  23.381  23.736  1.00  0.00     0.079 C 
ATOM     18  C   UNL A   1      34.577  25.269  24.964  1.00  0.00     0.079 C 
ATOM     19  C   UNL A   1      33.282  22.186  28.023  1.00  0.00     0.270 C 
ATOM     20  C   UNL A   1      34.719  22.105  26.092  1.00  0.00     0.271 C 
ATOM     21  N   UNL A   1      34.470  21.494  27.422  1.00  0.00    -0.345 N 
ATOM     22  H   UNL A   1      34.275  20.498  27.316  1.00  0.00     0.346 HD
ATOM     23  H   UNL A   1      35.287  21.597  28.023  1.00  0.00     0.346 HD
ENDBRANCH  10  11
ENDBRANCH   7  10
ENDBRANCH   5   7
ENDBRANCH   4   5
ENDBRANCH   3   4
ENDBRANCH   2   3
ENDBRANCH   1   2
BRANCH   1  24
ATOM     24  C   UNL A   1      31.468  31.494  26.499  1.00  0.00     0.202 C 
BRANCH  24  25
ATOM     25  C   UNL A   1      31.868  32.902  26.964  1.00  0.00     0.261 C 
BRANCH  25  26
ATOM     26  O   UNL A   1      33.197  33.064  27.389  1.00  0.00    -0.460 OA
BRANCH  26  27
ATOM     27  C   UNL A   1      33.497  34.030  28.267  1.00  0.00     0.338 C 
ATOM     28  O   UNL A   1      32.892  35.025  28.597  1.00  0.00    -0.246 OA
BRANCH  27  29
ATOM     29  C   UNL A   1      34.578  33.329  28.938  1.00  0.00     0.060 A 
ATOM     30  C   UNL A   1      34.380  31.972  29.204  1.00  0.00     0.016 A 
ATOM     31  C   UNL A   1      35.848  33.925  28.896  1.00  0.00     0.016 A 
ATOM     32  C   UNL A   1      35.485  31.195  29.485  1.00  0.00     0.010 A 
ATOM     33  C   UNL A   1      36.950  33.136  29.114  1.00  0.00     0.010 A 
ATOM     34  C   UNL A   1      36.753  31.791  29.463  1.00  0.00    -0.014 A 
BRANCH  34  35
ATOM     35  C   UNL A   1      37.874  31.098  30.092  1.00  0.00     0.031 A 
ATOM     36  C   UNL A   1      38.113  31.426  31.532  1.00  0.00     0.074 A 
ATOM     37  C   UNL A   1      38.621  30.250  29.375  1.00  0.00     0.049 A 
ATOM     38  N   UNL A   1      39.073  31.040  32.319  1.00  0.00    -0.248 NA
ATOM     39  C   UNL A   1      37.147  32.349  32.165  1.00  0.00     0.031 C 
ATOM     40  C   UNL A   1      38.409  29.911  27.967  1.00  0.00     0.029 A 
ATOM     41  N   UNL A   1      39.717  29.525  29.739  1.00  0.00    -0.354 N 
ATOM     42  C   UNL A   1      38.834  31.682  33.526  1.00  0.00     0.074 A 
ATOM     43  C   UNL A   1      37.684  32.532  33.358  1.00  0.00     0.031 C 
ATOM     44  C   UNL A   1      39.352  29.032  27.586  1.00  0.00     0.029 A 
ATOM     45  C   UNL A   1      40.243  28.782  28.715  1.00  0.00     0.049 A 
ATOM     46  H   UNL A   1      40.094  29.535  30.649  1.00  0.00     0.167 HD
ATOM     47  C   UNL A   1      39.516  31.543  34.682  1.00  0.00     0.037 A 
ATOM     48  C   UNL A   1      41.337  28.002  28.718  1.00  0.00     0.037 A 
ATOM     49  C   UNL A   1      40.652  30.675  34.796  1.00  0.00     0.049 A 
ATOM     50  C   UNL A   1      42.096  27.885  30.012  1.00  0.00     0.074 A 
ATOM     51  C   UNL A   1      41.438  30.415  35.898  1.00  0.00     0.029 A 
ATOM     52  N   UNL A   1      41.159  29.920  33.743  1.00  0.00    -0.354 N 
ATOM     53  N   UNL A   1      41.856  28.465  31.168  1.00  0.00    -0.248 NA
ATOM     54  C   UNL A   1      43.268  27.004  30.013  1.00  0.00     0.031 C 
ATOM     55  C   UNL A   1      42.453  29.539  35.499  1.00  0.00     0.029 A 
ATOM     56  C   UNL A   1      42.262  29.206  34.163  1.00  0.00     0.049 A 
ATOM     57  H   UNL A   1      40.786  29.899  32.831  1.00  0.00     0.167 HD
ATOM     58  C   UNL A   1      42.827  27.999  32.042  1.00  0.00     0.074 A 
ATOM     59  C   UNL A   1      43.649  27.074  31.281  1.00  0.00     0.031 C 
ATOM     60  C   UNL A   1      43.033  28.297  33.350  1.00  0.00     0.037 A 
BRANCH  47  61
ATOM     61  C   UNL A   1      39.057  32.355  35.856  1.00  0.00     0.057 A 
ATOM     62  C   UNL A   1      39.474  33.680  36.056  1.00  0.00     0.134 A 
ATOM     63  C   UNL A   1      38.211  31.796  36.820  1.00  0.00     0.134 A 
ATOM     64  F   UNL A   1      40.315  34.266  35.191  1.00  0.00    -0.206 F 
ATOM     65  C   UNL A   1      39.088  34.407  37.184  1.00  0.00     0.040 A 
ATOM     66  C   UNL A   1      37.792  32.523  37.936  1.00  0.00     0.040 A 
ATOM     67  F   UNL A   1      37.786  30.529  36.702  1.00  0.00    -0.206 F 
ATOM     68  C   UNL A   1      38.237  33.830  38.124  1.00  0.00     0.006 A 
ENDBRANCH  47  61
BRANCH  48  69
ATOM     69  C   UNL A   1      41.749  27.283  27.487  1.00  0.00     0.057 A 
ATOM     70  C   UNL A   1      41.354  25.961  27.251  1.00  0.00     0.134 A 
ATOM     71  C   UNL A   1      42.531  27.903  26.504  1.00  0.00     0.134 A 
ATOM     72  F   UNL A   1      40.608  25.309  28.155  1.00  0.00    -0.206 F 
ATOM     73  C   UNL A   1      41.737  25.276  26.097  1.00  0.00     0.040 A 
ATOM     74  C   UNL A   1      42.900  27.238  25.332  1.00  0.00     0.040 A 
ATOM     75  F   UNL A   1      42.931  29.174  26.658  1.00  0.00    -0.206 F 
ATOM     76  C   UNL A   1      42.510  25.917  25.130  1.00  0.00     0.006 A 
ENDBRANCH  48  69
BRANCH  60  77
ATOM     77  C   UNL A   1      44.164  27.586  34.027  1.00  0.00     0.057 A 
ATOM     78  C   UNL A   1      45.447  28.142  34.100  1.00  0.00     0.134 A 
ATOM     79  C   UNL A   1      43.945  26.357  34.661  1.00  0.00     0.134 A 
ATOM     80  F   UNL A   1      45.716  29.313  33.503  1.00  0.00    -0.206 F 
ATOM     81  C   UNL A   1      46.483  27.483  34.756  1.00  0.00     0.040 A 
ATOM     82  C   UNL A   1      44.966  25.706  35.350  1.00  0.00     0.040 A 
ATOM     83  F   UNL A   1      42.733  25.785  34.640  1.00  0.00    -0.206 F 
ATOM     84  C   UNL A   1      46.242  26.264  35.391  1.00  0.00     0.006 A 
ENDBRANCH  60  77
ENDBRANCH  34  35
ENDBRANCH  27  29
ENDBRANCH  26  27
ENDBRANCH  25  26
ENDBRANCH  24  25
ENDBRANCH   1  24
TORSDOF 16
ENDMDL
MODEL 2
REMARK VINA RESULT:     -10.6      0.832      1.688
REMARK SMILES CC(C)(C[N@H+]1C[C@@H]2C[NH2+]C[C@H]2C1(C)C)C(=O)OCCOCCOC(=O)c1ccc(-c2c3nc(c(-c4c(F)cccc4F)c4ccc([nH]4)c(-c4c(F)cccc4F)c4nc(c(-c5c(F)cccc5F)c5ccc2[nH]5)C=C4)C=C3)cc1
REMARK SMILES IDX 20 1 19 2 18 3 17 4 15 5 16 6 2 7 1 8 3 9 4 10 5 11 6 12
REMARK SMILES IDX 12 13 7 15 11 16 13 17 14 18 8 19 10 20 9 21 21 24 22 25
REMARK SMILES IDX 23 26 24 27 25 28 26 29 27 30 79 31 28 32 78 33 29 34 30 35
REMARK SMILES IDX 31 36 72 37 32 38 77 39 71 40 73 41 33 42 76 43 70 44 69 45
REMARK SMILES IDX 34 47 60 48 43 49 59 50 44 51 47 52 58 53 74 54 45 55 46 56
REMARK SMILES IDX 57 58 75 59 48 60 35 61 36 62 41 63 37 64 38 65 40 66 42 67
REMARK SMILES IDX 39 68 61 69 62 70 67 71 63 72 64 73 66 74 68 75 65 76 49 77
REMARK SMILES IDX 50 78 55 79 51 80 52 81 54 82 56 83 53 84
REMARK H PARENT 5 14 9 22 9 23 73 46 47 57
REMARK Flexibility Score: inf
ROOT
ATOM      1  O   UNL A   1      31.966  30.843  27.153  1.00  0.00    -0.374 OA
ENDROOT
BRANCH   1   2
ATOM      2  C   UNL A   1      32.968  30.098  26.462  1.00  0.00     0.202 C 
BRANCH   2   3
ATOM      3  C   UNL A   1      33.660  28.973  27.263  1.00  0.00     0.261 C 
BRANCH   3   4
ATOM      4  O   UNL A   1      33.328  27.647  26.757  1.00  0.00    -0.463 OA
BRANCH   4   5
ATOM      5  C   UNL A   1      32.013  27.277  26.747  1.00  0.00     0.317 C 
ATOM      6  O   UNL A   1      31.273  27.453  27.708  1.00  0.00    -0.251 OA
BRANCH   5   7
ATOM      7  C   UNL A   1      31.584  26.533  25.450  1.00  0.00     0.111 C 
ATOM      8  C   UNL A   1      30.771  27.483  24.555  1.00  0.00     0.029 C 
ATOM      9  C   UNL A   1      30.578  25.461  25.972  1.00  0.00     0.029 C 
BRANCH   7  10
ATOM     10  C   UNL A   1      32.697  25.797  24.593  1.00  0.00     0.280 C 
BRANCH  10  11
ATOM     11  N   UNL A   1      33.330  24.471  24.812  1.00  0.00    -0.329 N 
ATOM     12  C   UNL A   1      33.857  24.220  26.184  1.00  0.00     0.272 C 
ATOM     13  C   UNL A   1      33.093  23.161  24.125  1.00  0.00     0.101 C 
ATOM     14  H   UNL A   1      33.892  24.836  24.043  1.00  0.00     0.348 HD
ATOM     15  C   UNL A   1      33.260  22.873  26.501  1.00  0.00     0.114 C 
ATOM     16  C   UNL A   1      33.503  22.168  25.205  1.00  0.00     0.119 C 
ATOM     17  C   UNL A   1      31.652  22.928  23.702  1.00  0.00     0.079 C 
ATOM     18  C   UNL A   1      34.094  22.777  22.998  1.00  0.00     0.079 C 
ATOM     19  C   UNL A   1      33.833  21.822  27.421  1.00  0.00     0.270 C 
ATOM     20  C   UNL A   1      32.869  20.829  25.449  1.00  0.00     0.271 C 
ATOM     21  N   UNL A   1      33.324  20.539  26.833  1.00  0.00    -0.345 N 
ATOM     22  H   UNL A   1      32.544  20.186  27.389  1.00  0.00     0.346 HD
ATOM     23  H   UNL A   1      34.058  19.830  26.828  1.00  0.00     0.346 HD
ENDBRANCH  10  11
ENDBRANCH   7  10
ENDBRANCH   5   7
ENDBRANCH   4   5
ENDBRANCH   3   4
ENDBRANCH   2   3
ENDBRANCH   1   2
BRANCH   1  24
ATOM     24  C   UNL A   1      31.466  31.985  26.472  1.00  0.00     0.202 C 
BRANCH  24  25
ATOM     25  C   UNL A   1      31.896  33.336  27.061  1.00  0.00     0.261 C 
BRANCH  25  26
ATOM     26  O   UNL A   1      33.195  33.401  27.591  1.00  0.00    -0.460 OA
BRANCH  26  27
ATOM     27  C   UNL A   1      33.486  34.322  28.518  1.00  0.00     0.338 C 
ATOM     28  O   UNL A   1      32.875  35.298  28.893  1.00  0.00    -0.246 OA
BRANCH  27  29
ATOM     29  C   UNL A   1      34.566  33.593  29.160  1.00  0.00     0.060 A 
ATOM     30  C   UNL A   1      34.325  32.252  29.468  1.00  0.00     0.016 A 
ATOM     31  C   UNL A   1      35.856  34.134  29.047  1.00  0.00     0.016 A 
ATOM     32  C   UNL A   1      35.408  31.436  29.721  1.00  0.00     0.010 A 
ATOM     33  C   UNL A   1      36.934  33.305  29.238  1.00  0.00     0.010 A 
ATOM     34  C   UNL A   1      36.698  31.978  29.629  1.00  0.00    -0.014 A 
BRANCH  34  35
ATOM     35  C   UNL A   1      37.816  31.254  30.226  1.00  0.00     0.031 A 
ATOM     36  C   UNL A   1      38.093  31.562  31.664  1.00  0.00     0.074 A 
ATOM     37  C   UNL A   1      38.528  30.397  29.486  1.00  0.00     0.049 A 
ATOM     38  N   UNL A   1      39.062  31.147  32.426  1.00  0.00    -0.248 NA
ATOM     39  C   UNL A   1      37.162  32.500  32.327  1.00  0.00     0.031 C 
ATOM     40  C   UNL A   1      38.278  30.076  28.079  1.00  0.00     0.029 A 
ATOM     41  N   UNL A   1      39.614  29.644  29.818  1.00  0.00    -0.354 N 
ATOM     42  C   UNL A   1      38.863  31.782  33.644  1.00  0.00     0.074 A 
ATOM     43  C   UNL A   1      37.729  32.659  33.509  1.00  0.00     0.031 C 
ATOM     44  C   UNL A   1      39.192  29.181  27.669  1.00  0.00     0.029 A 
ATOM     45  C   UNL A   1      40.101  28.900  28.775  1.00  0.00     0.049 A 
ATOM     46  H   UNL A   1      40.011  29.637  30.720  1.00  0.00     0.167 HD
ATOM     47  C   UNL A   1      39.567  31.615  34.784  1.00  0.00     0.037 A 
ATOM     48  C   UNL A   1      41.178  28.096  28.747  1.00  0.00     0.037 A 
ATOM     49  C   UNL A   1      40.685  30.721  34.864  1.00  0.00     0.049 A 
ATOM     50  C   UNL A   1      41.961  27.948  30.023  1.00  0.00     0.074 A 
ATOM     51  C   UNL A   1      41.489  30.433  35.947  1.00  0.00     0.029 A 
ATOM     52  N   UNL A   1      41.152  29.966  33.793  1.00  0.00    -0.354 N 
ATOM     53  N   UNL A   1      41.760  28.521  31.190  1.00  0.00    -0.248 NA
ATOM     54  C   UNL A   1      43.113  27.042  29.990  1.00  0.00     0.031 C 
ATOM     55  C   UNL A   1      42.474  29.539  35.517  1.00  0.00     0.029 A 
ATOM     56  C   UNL A   1      42.248  29.223  34.182  1.00  0.00     0.049 A 
ATOM     57  H   UNL A   1      40.759  29.963  32.890  1.00  0.00     0.167 HD
ATOM     58  C   UNL A   1      42.739  28.025  32.037  1.00  0.00     0.074 A 
ATOM     59  C   UNL A   1      43.523  27.090  31.250  1.00  0.00     0.031 C 
ATOM     60  C   UNL A   1      42.980  28.306  33.344  1.00  0.00     0.037 A 
BRANCH  47  61
ATOM     61  C   UNL A   1      39.152  32.426  35.975  1.00  0.00     0.057 A 
ATOM     62  C   UNL A   1      38.250  31.936  36.933  1.00  0.00     0.134 A 
ATOM     63  C   UNL A   1      39.633  33.727  36.152  1.00  0.00     0.134 A 
ATOM     64  F   UNL A   1      37.721  30.711  36.807  1.00  0.00    -0.206 F 
ATOM     65  C   UNL A   1      37.825  32.722  38.007  1.00  0.00     0.040 A 
ATOM     66  C   UNL A   1      39.239  34.512  37.239  1.00  0.00     0.040 A 
ATOM     67  F   UNL A   1      40.484  34.265  35.266  1.00  0.00    -0.206 F 
ATOM     68  C   UNL A   1      38.327  34.011  38.165  1.00  0.00     0.006 A 
ENDBRANCH  47  61
BRANCH  48  69
ATOM     69  C   UNL A   1      41.546  27.380  27.501  1.00  0.00     0.057 A 
ATOM     70  C   UNL A   1      42.333  27.992  26.518  1.00  0.00     0.134 A 
ATOM     71  C   UNL A   1      41.141  26.060  27.267  1.00  0.00     0.134 A 
ATOM     72  F   UNL A   1      42.751  29.256  26.677  1.00  0.00    -0.206 F 
ATOM     73  C   UNL A   1      42.685  27.327  25.341  1.00  0.00     0.040 A 
ATOM     74  C   UNL A   1      41.507  25.373  26.106  1.00  0.00     0.040 A 
ATOM     75  F   UNL A   1      40.399  25.408  28.174  1.00  0.00    -0.206 F 
ATOM     76  C   UNL A   1      42.275  26.011  25.135  1.00  0.00     0.006 A 
ENDBRANCH  48  69
BRANCH  60  77
ATOM     77  C   UNL A   1      44.109  27.563  33.989  1.00  0.00     0.057 A 
ATOM     78  C   UNL A   1      45.406  28.088  34.037  1.00  0.00     0.134 A 
ATOM     79  C   UNL A   1      43.876  26.334  34.617  1.00  0.00     0.134 A 
ATOM     80  F   UNL A   1      45.688  29.258  33.444  1.00  0.00    -0.206 F 
ATOM     81  C   UNL A   1      46.441  27.399  34.664  1.00  0.00     0.040 A 
ATOM     82  C   UNL A   1      44.897  25.653  35.277  1.00  0.00     0.040 A 
ATOM     83  F   UNL A   1      42.650  25.790  34.619  1.00  0.00    -0.206 F 
ATOM     84  C   UNL A   1      46.186  26.181  35.294  1.00  0.00     0.006 A 
ENDBRANCH  60  77
ENDBRANCH  34  35
ENDBRANCH  27  29
ENDBRANCH  26  27
ENDBRANCH  25  26
ENDBRANCH  24  25
ENDBRANCH   1  24
TORSDOF 16
ENDMDL
MODEL 3
REMARK VINA RESULT:     -10.4      3.241      8.228
REMARK SMILES CC(C)(C[N@H+]1C[C@@H]2C[NH2+]C[C@H]2C1(C)C)C(=O)OCCOCCOC(=O)c1ccc(-c2c3nc(c(-c4c(F)cccc4F)c4ccc([nH]4)c(-c4c(F)cccc4F)c4nc(c(-c5c(F)cccc5F)c5ccc2[nH]5)C=C4)C=C3)cc1
REMARK SMILES IDX 20 1 19 2 18 3 17 4 15 5 16 6 2 7 1 8 3 9 4 10 5 11 6 12
REMARK SMILES IDX 12 13 7 15 11 16 13 17 14 18 8 19 10 20 9 21 21 24 22 25
REMARK SMILES IDX 23 26 24 27 25 28 26 29 27 30 79 31 28 32 78 33 29 34 30 35
REMARK SMILES IDX 31 36 72 37 32 38 77 39 71 40 73 41 33 42 76 43 70 44 69 45
REMARK SMILES IDX 34 47 60 48 43 49 59 50 44 51 47 52 58 53 74 54 45 55 46 56
REMARK SMILES IDX 57 58 75 59 48 60 35 61 36 62 41 63 37 64 38 65 40 66 42 67
REMARK SMILES IDX 39 68 61 69 62 70 67 71 63 72 64 73 66 74 68 75 65 76 49 77
REMARK SMILES IDX 50 78 55 79 51 80 52 81 54 82 56 83 53 84
REMARK H PARENT 5 14 9 22 9 23 73 46 47 57
REMARK Flexibility Score: inf
ROOT
ATOM      1  O   UNL A   1      41.705  21.171  27.392  1.00  0.00    -0.374 OA
ENDROOT
BRANCH   1   2
ATOM      2  C   UNL A   1      40.365  21.659  27.338  1.00  0.00     0.202 C 
BRANCH   2   3
ATOM      3  C   UNL A   1      39.745  21.806  25.930  1.00  0.00     0.261 C 
BRANCH   3   4
ATOM      4  O   UNL A   1      38.289  21.746  25.956  1.00  0.00    -0.463 OA
BRANCH   4   5
ATOM      5  C   UNL A   1      37.597  22.903  25.734  1.00  0.00     0.317 C 
ATOM      6  O   UNL A   1      37.985  23.991  26.143  1.00  0.00    -0.251 OA
BRANCH   5   7
ATOM      7  C   UNL A   1      36.239  22.687  25.005  1.00  0.00     0.111 C 
ATOM      8  C   UNL A   1      35.660  21.315  25.388  1.00  0.00     0.029 C 
ATOM      9  C   UNL A   1      36.656  22.578  23.506  1.00  0.00     0.029 C 
BRANCH   7  10
ATOM     10  C   UNL A   1      35.122  23.804  25.134  1.00  0.00     0.280 C 
BRANCH  10  11
ATOM     11  N   UNL A   1      33.645  23.675  25.036  1.00  0.00    -0.329 N 
ATOM     12  C   UNL A   1      32.863  24.307  26.136  1.00  0.00     0.272 C 
ATOM     13  C   UNL A   1      32.766  23.508  23.835  1.00  0.00     0.101 C 
ATOM     14  H   UNL A   1      33.932  22.696  25.031  1.00  0.00     0.348 HD
ATOM     15  C   UNL A   1      31.842  25.106  25.367  1.00  0.00     0.114 C 
ATOM     16  C   UNL A   1      31.453  24.103  24.329  1.00  0.00     0.119 C 
ATOM     17  C   UNL A   1      33.254  24.239  22.596  1.00  0.00     0.079 C 
ATOM     18  C   UNL A   1      32.308  22.058  23.506  1.00  0.00     0.079 C 
ATOM     19  C   UNL A   1      30.453  25.482  25.825  1.00  0.00     0.270 C 
ATOM     20  C   UNL A   1      30.474  24.875  23.494  1.00  0.00     0.271 C 
ATOM     21  N   UNL A   1      29.683  25.571  24.540  1.00  0.00    -0.345 N 
ATOM     22  H   UNL A   1      29.549  26.550  24.282  1.00  0.00     0.346 HD
ATOM     23  H   UNL A   1      28.764  25.140  24.642  1.00  0.00     0.346 HD
ENDBRANCH  10  11
ENDBRANCH   7  10
ENDBRANCH   5   7
ENDBRANCH   4   5
ENDBRANCH   3   4
ENDBRANCH   2   3
ENDBRANCH   1   2
BRANCH   1  24
ATOM     24  C   UNL A   1      42.285  20.822  26.143  1.00  0.00     0.202 C 
BRANCH  24  25
ATOM     25  C   UNL A   1      43.342  21.805  25.618  1.00  0.00     0.261 C 
BRANCH  25  26
ATOM     26  O   UNL A   1      43.566  22.953  26.394  1.00  0.00    -0.460 OA
BRANCH  26  27
ATOM     27  C   UNL A   1      43.857  24.113  25.791  1.00  0.00     0.338 C 
ATOM     28  O   UNL A   1      44.110  24.370  24.636  1.00  0.00    -0.246 OA
BRANCH  27  29
ATOM     29  C   UNL A   1      43.429  24.986  26.870  1.00  0.00     0.060 A 
ATOM     30  C   UNL A   1      43.874  26.310  26.823  1.00  0.00     0.016 A 
ATOM     31  C   UNL A   1      42.313  24.578  27.616  1.00  0.00     0.016 A 
ATOM     32  C   UNL A   1      43.210  27.248  27.587  1.00  0.00     0.010 A 
ATOM     33  C   UNL A   1      41.616  25.525  28.326  1.00  0.00     0.010 A 
ATOM     34  C   UNL A   1      42.106  26.840  28.349  1.00  0.00    -0.014 A 
BRANCH  34  35
ATOM     35  C   UNL A   1      41.621  27.710  29.417  1.00  0.00     0.031 A 
ATOM     36  C   UNL A   1      42.352  27.610  30.718  1.00  0.00     0.074 A 
ATOM     37  C   UNL A   1      40.571  28.511  29.199  1.00  0.00     0.049 A 
ATOM     38  N   UNL A   1      42.097  28.185  31.855  1.00  0.00    -0.248 NA
ATOM     39  C   UNL A   1      43.520  26.703  30.747  1.00  0.00     0.031 C 
ATOM     40  C   UNL A   1      39.838  28.629  27.937  1.00  0.00     0.029 A 
ATOM     41  N   UNL A   1      39.936  29.373  30.043  1.00  0.00    -0.354 N 
ATOM     42  C   UNL A   1      43.059  27.700  32.731  1.00  0.00     0.074 A 
ATOM     43  C   UNL A   1      43.862  26.738  32.023  1.00  0.00     0.031 C 
ATOM     44  C   UNL A   1      38.848  29.524  28.092  1.00  0.00     0.029 A 
ATOM     45  C   UNL A   1      38.866  30.007  29.469  1.00  0.00     0.049 A 
ATOM     46  H   UNL A   1      40.220  29.524  30.974  1.00  0.00     0.167 HD
ATOM     47  C   UNL A   1      43.258  28.060  34.017  1.00  0.00     0.037 A 
ATOM     48  C   UNL A   1      38.003  30.873  30.029  1.00  0.00     0.037 A 
ATOM     49  C   UNL A   1      42.431  29.031  34.672  1.00  0.00     0.049 A 
ATOM     50  C   UNL A   1      38.231  31.237  31.471  1.00  0.00     0.074 A 
ATOM     51  C   UNL A   1      42.513  29.512  35.962  1.00  0.00     0.029 A 
ATOM     52  N   UNL A   1      41.357  29.672  34.063  1.00  0.00    -0.354 N 
ATOM     53  N   UNL A   1      39.159  30.807  32.297  1.00  0.00    -0.248 NA
ATOM     54  C   UNL A   1      37.305  32.208  32.061  1.00  0.00     0.031 C 
ATOM     55  C   UNL A   1      41.456  30.408  36.149  1.00  0.00     0.029 A 
ATOM     56  C   UNL A   1      40.753  30.533  34.957  1.00  0.00     0.049 A 
ATOM     57  H   UNL A   1      41.070  29.532  33.131  1.00  0.00     0.167 HD
ATOM     58  C   UNL A   1      38.949  31.474  33.495  1.00  0.00     0.074 A 
ATOM     59  C   UNL A   1      37.812  32.351  33.277  1.00  0.00     0.031 C 
ATOM     60  C   UNL A   1      39.622  31.382  34.671  1.00  0.00     0.037 A 
BRANCH  47  61
ATOM     61  C   UNL A   1      44.372  27.384  34.757  1.00  0.00     0.057 A 
ATOM     62  C   UNL A   1      44.177  26.196  35.478  1.00  0.00     0.134 A 
ATOM     63  C   UNL A   1      45.654  27.944  34.780  1.00  0.00     0.134 A 
ATOM     64  F   UNL A   1      42.965  25.623  35.530  1.00  0.00    -0.206 F 
ATOM     65  C   UNL A   1      45.208  25.607  36.214  1.00  0.00     0.040 A 
ATOM     66  C   UNL A   1      46.701  27.348  35.486  1.00  0.00     0.040 A 
ATOM     67  F   UNL A   1      45.909  29.089  34.128  1.00  0.00    -0.206 F 
ATOM     68  C   UNL A   1      46.477  26.180  36.211  1.00  0.00     0.006 A 
ENDBRANCH  47  61
BRANCH  48  69
ATOM     69  C   UNL A   1      36.891  31.445  29.231  1.00  0.00     0.057 A 
ATOM     70  C   UNL A   1      36.942  32.760  28.752  1.00  0.00     0.134 A 
ATOM     71  C   UNL A   1      35.758  30.689  28.906  1.00  0.00     0.134 A 
ATOM     72  F   UNL A   1      37.997  33.539  29.031  1.00  0.00    -0.206 F 
ATOM     73  C   UNL A   1      35.901  33.307  28.001  1.00  0.00     0.040 A 
ATOM     74  C   UNL A   1      34.720  31.215  28.134  1.00  0.00     0.040 A 
ATOM     75  F   UNL A   1      35.651  29.417  29.318  1.00  0.00    -0.206 F 
ATOM     76  C   UNL A   1      34.786  32.532  27.685  1.00  0.00     0.006 A 
ENDBRANCH  48  69
BRANCH  60  77
ATOM     77  C   UNL A   1      39.158  32.277  35.778  1.00  0.00     0.057 A 
ATOM     78  C   UNL A   1      38.282  31.827  36.772  1.00  0.00     0.134 A 
ATOM     79  C   UNL A   1      39.645  33.586  35.875  1.00  0.00     0.134 A 
ATOM     80  F   UNL A   1      37.778  30.584  36.723  1.00  0.00    -0.206 F 
ATOM     81  C   UNL A   1      37.880  32.662  37.812  1.00  0.00     0.040 A 
ATOM     82  C   UNL A   1      39.276  34.419  36.930  1.00  0.00     0.040 A 
ATOM     83  F   UNL A   1      40.501  34.067  34.962  1.00  0.00    -0.206 F 
ATOM     84  C   UNL A   1      38.384  33.960  37.897  1.00  0.00     0.006 A 
ENDBRANCH  60  77
ENDBRANCH  34  35
ENDBRANCH  27  29
ENDBRANCH  26  27
ENDBRANCH  25  26
ENDBRANCH  24  25
ENDBRANCH   1  24
TORSDOF 16
ENDMDL
