MODEL 1
REMARK VINA RESULT:     -10.4      0.000      0.000
REMARK SMILES C[C@@H](CNc1cccc(F)c1C(=O)OCCOCCOC(=O)c1ccc(-c2c3nc(c(-c4c(F)cccc4F)c4ccc([nH]4)c(-c4c(F)cccc4F)c4nc(c(-c5c(F)cccc5F)c5ccc2[nH]5)C=C4)C=C3)cc1)[NH+]1CCCCC1
REMARK SMILES IDX 16 1 15 2 14 3 12 4 13 5 11 6 5 7 6 8 7 9 9 10 8 11 10 12
REMARK SMILES IDX 4 13 3 15 2 16 1 17 77 18 78 19 82 20 79 22 81 23 80 24
REMARK SMILES IDX 17 25 18 26 19 27 20 28 21 29 22 30 23 31 24 32 76 33 25 34
REMARK SMILES IDX 75 35 26 36 27 37 28 38 69 39 29 40 74 41 68 42 70 43 30 44
REMARK SMILES IDX 73 45 67 46 66 47 31 49 57 50 40 51 56 52 41 53 44 54 55 55
REMARK SMILES IDX 71 56 42 57 43 58 54 60 72 61 45 62 32 63 33 64 38 65 34 66
REMARK SMILES IDX 35 67 37 68 39 69 36 70 58 71 59 72 64 73 60 74 61 75 63 76
REMARK SMILES IDX 65 77 62 78 46 79 47 80 52 81 48 82 49 83 51 84 53 85 50 86
REMARK H PARENT 4 14 77 21 70 48 44 59
REMARK Flexibility Score: inf
ROOT
ATOM      1  C   UNL A   1      36.874  21.541  24.492  1.00  0.00     0.202 C 
ENDROOT
BRANCH   1   2
ATOM      2  C   UNL A   1      36.707  22.950  23.889  1.00  0.00     0.261 C 
BRANCH   2   3
ATOM      3  O   UNL A   1      35.934  23.883  24.655  1.00  0.00    -0.460 OA
BRANCH   3   4
ATOM      4  C   UNL A   1      34.860  24.306  23.955  1.00  0.00     0.343 C 
ATOM      5  O   UNL A   1      34.729  24.075  22.758  1.00  0.00    -0.246 OA
BRANCH   4   6
ATOM      6  C   UNL A   1      33.782  24.967  24.726  1.00  0.00     0.118 A 
ATOM      7  C   UNL A   1      33.146  24.220  25.759  1.00  0.00     0.052 A 
ATOM      8  C   UNL A   1      32.168  24.863  26.531  1.00  0.00     0.027 A 
ATOM      9  C   UNL A   1      31.805  26.190  26.284  1.00  0.00     0.005 A 
ATOM     10  C   UNL A   1      33.388  26.282  24.468  1.00  0.00     0.139 A 
ATOM     11  C   UNL A   1      32.404  26.893  25.243  1.00  0.00     0.040 A 
ATOM     12  F   UNL A   1      33.930  27.001  23.475  1.00  0.00    -0.206 F 
BRANCH   7  13
ATOM     13  N   UNL A   1      33.463  22.883  25.989  1.00  0.00    -0.378 N 
ATOM     14  H   UNL A   1      34.338  22.689  26.398  1.00  0.00     0.160 HD
BRANCH  13  15
ATOM     15  C   UNL A   1      32.603  21.749  25.671  1.00  0.00     0.177 C 
BRANCH  15  16
ATOM     16  C   UNL A   1      33.008  20.987  24.343  1.00  0.00     0.200 C 
ATOM     17  C   UNL A   1      32.259  21.614  23.144  1.00  0.00     0.077 C 
BRANCH  16  18
ATOM     18  N   UNL A   1      33.033  19.479  24.321  1.00  0.00    -0.331 N 
ATOM     19  C   UNL A   1      32.463  18.938  23.079  1.00  0.00     0.262 C 
ATOM     20  C   UNL A   1      34.345  18.915  24.646  1.00  0.00     0.262 C 
ATOM     21  H   UNL A   1      32.422  19.173  25.079  1.00  0.00     0.348 HD
ATOM     22  C   UNL A   1      32.609  17.424  22.915  1.00  0.00     0.062 C 
ATOM     23  C   UNL A   1      34.550  17.418  24.429  1.00  0.00     0.062 C 
ATOM     24  C   UNL A   1      34.064  17.004  23.053  1.00  0.00     0.012 C 
ENDBRANCH  16  18
ENDBRANCH  15  16
ENDBRANCH  13  15
ENDBRANCH   7  13
ENDBRANCH   4   6
ENDBRANCH   3   4
ENDBRANCH   2   3
ENDBRANCH   1   2
BRANCH   1  25
ATOM     25  O   UNL A   1      38.069  21.108  25.132  1.00  0.00    -0.374 OA
BRANCH  25  26
ATOM     26  C   UNL A   1      38.516  19.757  25.020  1.00  0.00     0.202 C 
BRANCH  26  27
ATOM     27  C   UNL A   1      39.548  19.216  26.003  1.00  0.00     0.261 C 
BRANCH  27  28
ATOM     28  O   UNL A   1      40.823  19.004  25.387  1.00  0.00    -0.460 OA
BRANCH  28  29
ATOM     29  C   UNL A   1      41.870  19.194  26.218  1.00  0.00     0.338 C 
ATOM     30  O   UNL A   1      42.787  18.413  26.453  1.00  0.00    -0.246 OA
BRANCH  29  31
ATOM     31  C   UNL A   1      41.892  20.593  26.668  1.00  0.00     0.060 A 
ATOM     32  C   UNL A   1      41.971  21.589  25.683  1.00  0.00     0.016 A 
ATOM     33  C   UNL A   1      41.898  20.916  28.024  1.00  0.00     0.016 A 
ATOM     34  C   UNL A   1      42.135  22.915  26.054  1.00  0.00     0.010 A 
ATOM     35  C   UNL A   1      42.087  22.245  28.396  1.00  0.00     0.010 A 
ATOM     36  C   UNL A   1      42.259  23.234  27.410  1.00  0.00    -0.014 A 
BRANCH  36  37
ATOM     37  C   UNL A   1      42.799  24.555  27.789  1.00  0.00     0.031 A 
ATOM     38  C   UNL A   1      41.826  25.618  28.212  1.00  0.00     0.074 A 
ATOM     39  C   UNL A   1      44.123  24.780  27.799  1.00  0.00     0.049 A 
ATOM     40  N   UNL A   1      42.046  26.872  28.505  1.00  0.00    -0.248 NA
ATOM     41  C   UNL A   1      40.411  25.214  28.321  1.00  0.00     0.031 C 
ATOM     42  C   UNL A   1      45.152  23.790  27.486  1.00  0.00     0.029 A 
ATOM     43  N   UNL A   1      44.824  25.920  28.085  1.00  0.00    -0.354 N 
ATOM     44  C   UNL A   1      40.805  27.404  28.832  1.00  0.00     0.074 A 
ATOM     45  C   UNL A   1      39.828  26.352  28.668  1.00  0.00     0.031 C 
ATOM     46  C   UNL A   1      46.359  24.371  27.593  1.00  0.00     0.029 A 
ATOM     47  C   UNL A   1      46.181  25.780  27.938  1.00  0.00     0.049 A 
ATOM     48  H   UNL A   1      44.396  26.760  28.370  1.00  0.00     0.167 HD
ATOM     49  C   UNL A   1      40.514  28.656  29.245  1.00  0.00     0.037 A 
ATOM     50  C   UNL A   1      47.160  26.698  28.047  1.00  0.00     0.037 A 
ATOM     51  C   UNL A   1      41.496  29.692  29.410  1.00  0.00     0.049 A 
ATOM     52  C   UNL A   1      46.792  28.117  28.398  1.00  0.00     0.074 A 
ATOM     53  C   UNL A   1      41.305  31.003  29.803  1.00  0.00     0.029 A 
ATOM     54  N   UNL A   1      42.857  29.528  29.195  1.00  0.00    -0.354 N 
ATOM     55  N   UNL A   1      45.615  28.621  28.682  1.00  0.00    -0.248 NA
ATOM     56  C   UNL A   1      47.887  29.098  28.437  1.00  0.00     0.031 C 
ATOM     57  C   UNL A   1      42.545  31.646  29.784  1.00  0.00     0.029 A 
ATOM     58  C   UNL A   1      43.514  30.720  29.435  1.00  0.00     0.049 A 
ATOM     59  H   UNL A   1      43.288  28.689  28.916  1.00  0.00     0.167 HD
ATOM     60  C   UNL A   1      45.832  29.962  28.973  1.00  0.00     0.074 A 
ATOM     61  C   UNL A   1      47.255  30.193  28.836  1.00  0.00     0.031 C 
ATOM     62  C   UNL A   1      44.937  30.917  29.323  1.00  0.00     0.037 A 
BRANCH  49  63
ATOM     63  C   UNL A   1      39.085  28.987  29.552  1.00  0.00     0.057 A 
ATOM     64  C   UNL A   1      38.255  29.551  28.575  1.00  0.00     0.134 A 
ATOM     65  C   UNL A   1      38.558  28.837  30.841  1.00  0.00     0.134 A 
ATOM     66  F   UNL A   1      38.699  29.722  27.321  1.00  0.00    -0.206 F 
ATOM     67  C   UNL A   1      36.963  29.984  28.876  1.00  0.00     0.040 A 
ATOM     68  C   UNL A   1      37.259  29.243  31.149  1.00  0.00     0.040 A 
ATOM     69  F   UNL A   1      39.296  28.287  31.817  1.00  0.00    -0.206 F 
ATOM     70  C   UNL A   1      36.463  29.832  30.168  1.00  0.00     0.006 A 
ENDBRANCH  49  63
BRANCH  50  71
ATOM     71  C   UNL A   1      48.576  26.316  27.822  1.00  0.00     0.057 A 
ATOM     72  C   UNL A   1      49.402  25.900  28.874  1.00  0.00     0.134 A 
ATOM     73  C   UNL A   1      49.134  26.339  26.538  1.00  0.00     0.134 A 
ATOM     74  F   UNL A   1      48.933  25.856  30.129  1.00  0.00    -0.206 F 
ATOM     75  C   UNL A   1      50.732  25.532  28.659  1.00  0.00     0.040 A 
ATOM     76  C   UNL A   1      50.452  25.947  26.304  1.00  0.00     0.040 A 
ATOM     77  F   UNL A   1      48.387  26.709  25.486  1.00  0.00    -0.206 F 
ATOM     78  C   UNL A   1      51.258  25.545  27.369  1.00  0.00     0.006 A 
ENDBRANCH  50  71
BRANCH  62  79
ATOM     79  C   UNL A   1      45.460  32.288  29.636  1.00  0.00     0.057 A 
ATOM     80  C   UNL A   1      45.784  32.638  30.954  1.00  0.00     0.134 A 
ATOM     81  C   UNL A   1      45.547  33.287  28.660  1.00  0.00     0.134 A 
ATOM     82  F   UNL A   1      45.706  31.730  31.939  1.00  0.00    -0.206 F 
ATOM     83  C   UNL A   1      46.157  33.939  31.293  1.00  0.00     0.040 A 
ATOM     84  C   UNL A   1      45.948  34.585  28.982  1.00  0.00     0.040 A 
ATOM     85  F   UNL A   1      45.258  33.014  27.379  1.00  0.00    -0.206 F 
ATOM     86  C   UNL A   1      46.241  34.916  30.304  1.00  0.00     0.006 A 
ENDBRANCH  62  79
ENDBRANCH  36  37
ENDBRANCH  29  31
ENDBRANCH  28  29
ENDBRANCH  27  28
ENDBRANCH  26  27
ENDBRANCH  25  26
ENDBRANCH   1  25
TORSDOF 18
ENDMDL
MODEL 2
REMARK VINA RESULT:     -10.3      3.933      8.203
REMARK SMILES C[C@@H](CNc1cccc(F)c1C(=O)OCCOCCOC(=O)c1ccc(-c2c3nc(c(-c4c(F)cccc4F)c4ccc([nH]4)c(-c4c(F)cccc4F)c4nc(c(-c5c(F)cccc5F)c5ccc2[nH]5)C=C4)C=C3)cc1)[NH+]1CCCCC1
REMARK SMILES IDX 16 1 15 2 14 3 12 4 13 5 11 6 5 7 6 8 7 9 9 10 8 11 10 12
REMARK SMILES IDX 4 13 3 15 2 16 1 17 77 18 78 19 82 20 79 22 81 23 80 24
REMARK SMILES IDX 17 25 18 26 19 27 20 28 21 29 22 30 23 31 24 32 76 33 25 34
REMARK SMILES IDX 75 35 26 36 27 37 28 38 69 39 29 40 74 41 68 42 70 43 30 44
REMARK SMILES IDX 73 45 67 46 66 47 31 49 57 50 40 51 56 52 41 53 44 54 55 55
REMARK SMILES IDX 71 56 42 57 43 58 54 60 72 61 45 62 32 63 33 64 38 65 34 66
REMARK SMILES IDX 35 67 37 68 39 69 36 70 58 71 59 72 64 73 60 74 61 75 63 76
REMARK SMILES IDX 65 77 62 78 46 79 47 80 52 81 48 82 49 83 51 84 53 85 50 86
REMARK H PARENT 4 14 77 21 70 48 44 59
REMARK Flexibility Score: inf
ROOT
ATOM      1  C   UNL A   1      38.676  21.904  26.125  1.00  0.00     0.202 C 
ENDROOT
BRANCH   1   2
ATOM      2  C   UNL A   1      38.001  23.223  25.697  1.00  0.00     0.261 C 
BRANCH   2   3
ATOM      3  O   UNL A   1      37.088  23.142  24.596  1.00  0.00    -0.460 OA
BRANCH   3   4
ATOM      4  C   UNL A   1      35.850  23.535  24.968  1.00  0.00     0.343 C 
ATOM      5  O   UNL A   1      35.653  24.588  25.564  1.00  0.00    -0.246 OA
BRANCH   4   6
ATOM      6  C   UNL A   1      34.721  22.689  24.519  1.00  0.00     0.118 A 
ATOM      7  C   UNL A   1      33.772  23.261  23.623  1.00  0.00     0.052 A 
ATOM      8  C   UNL A   1      32.737  22.443  23.149  1.00  0.00     0.027 A 
ATOM      9  C   UNL A   1      32.618  21.113  23.557  1.00  0.00     0.005 A 
ATOM     10  C   UNL A   1      34.573  21.367  24.945  1.00  0.00     0.139 A 
ATOM     11  C   UNL A   1      33.527  20.580  24.467  1.00  0.00     0.040 A 
ATOM     12  F   UNL A   1      35.418  20.809  25.823  1.00  0.00    -0.206 F 
BRANCH   7  13
ATOM     13  N   UNL A   1      33.851  24.599  23.241  1.00  0.00    -0.378 N 
ATOM     14  H   UNL A   1      34.668  25.093  23.484  1.00  0.00     0.160 HD
BRANCH  13  15
ATOM     15  C   UNL A   1      32.819  25.325  22.510  1.00  0.00     0.177 C 
BRANCH  15  16
ATOM     16  C   UNL A   1      32.053  26.405  23.380  1.00  0.00     0.200 C 
ATOM     17  C   UNL A   1      31.876  27.698  22.551  1.00  0.00     0.077 C 
BRANCH  16  18
ATOM     18  N   UNL A   1      32.472  26.653  24.808  1.00  0.00    -0.331 N 
ATOM     19  C   UNL A   1      33.574  27.620  24.897  1.00  0.00     0.262 C 
ATOM     20  C   UNL A   1      31.351  26.973  25.694  1.00  0.00     0.262 C 
ATOM     21  H   UNL A   1      32.835  25.765  25.157  1.00  0.00     0.348 HD
ATOM     22  C   UNL A   1      33.938  28.046  26.321  1.00  0.00     0.062 C 
ATOM     23  C   UNL A   1      31.676  27.468  27.102  1.00  0.00     0.062 C 
ATOM     24  C   UNL A   1      32.715  28.573  27.056  1.00  0.00     0.012 C 
ENDBRANCH  16  18
ENDBRANCH  15  16
ENDBRANCH  13  15
ENDBRANCH   7  13
ENDBRANCH   4   6
ENDBRANCH   3   4
ENDBRANCH   2   3
ENDBRANCH   1   2
BRANCH   1  25
ATOM     25  O   UNL A   1      39.868  21.413  25.523  1.00  0.00    -0.374 OA
BRANCH  25  26
ATOM     26  C   UNL A   1      40.975  20.991  26.320  1.00  0.00     0.202 C 
BRANCH  26  27
ATOM     27  C   UNL A   1      42.384  21.458  25.968  1.00  0.00     0.261 C 
BRANCH  27  28
ATOM     28  O   UNL A   1      42.376  22.593  25.095  1.00  0.00    -0.460 OA
BRANCH  28  29
ATOM     29  C   UNL A   1      43.301  23.527  25.404  1.00  0.00     0.338 C 
ATOM     30  O   UNL A   1      44.461  23.587  25.011  1.00  0.00    -0.246 OA
BRANCH  29  31
ATOM     31  C   UNL A   1      42.659  24.629  26.135  1.00  0.00     0.060 A 
ATOM     32  C   UNL A   1      43.393  25.815  26.295  1.00  0.00     0.016 A 
ATOM     33  C   UNL A   1      41.394  24.481  26.702  1.00  0.00     0.016 A 
ATOM     34  C   UNL A   1      42.894  26.834  27.093  1.00  0.00     0.010 A 
ATOM     35  C   UNL A   1      40.905  25.495  27.523  1.00  0.00     0.010 A 
ATOM     36  C   UNL A   1      41.679  26.645  27.759  1.00  0.00    -0.014 A 
BRANCH  36  37
ATOM     37  C   UNL A   1      41.331  27.541  28.880  1.00  0.00     0.031 A 
ATOM     38  C   UNL A   1      42.162  27.461  30.129  1.00  0.00     0.074 A 
ATOM     39  C   UNL A   1      40.332  28.431  28.765  1.00  0.00     0.049 A 
ATOM     40  N   UNL A   1      42.003  28.077  31.270  1.00  0.00    -0.248 NA
ATOM     41  C   UNL A   1      43.334  26.565  30.087  1.00  0.00     0.031 C 
ATOM     42  C   UNL A   1      39.522  28.644  27.568  1.00  0.00     0.029 A 
ATOM     43  N   UNL A   1      39.833  29.323  29.676  1.00  0.00    -0.354 N 
ATOM     44  C   UNL A   1      43.048  27.645  32.077  1.00  0.00     0.074 A 
ATOM     45  C   UNL A   1      43.817  26.690  31.314  1.00  0.00     0.031 C 
ATOM     46  C   UNL A   1      38.619  29.607  27.821  1.00  0.00     0.029 A 
ATOM     47  C   UNL A   1      38.761  30.042  29.209  1.00  0.00     0.049 A 
ATOM     48  H   UNL A   1      40.207  29.438  30.580  1.00  0.00     0.167 HD
ATOM     49  C   UNL A   1      43.343  28.028  33.338  1.00  0.00     0.037 A 
ATOM     50  C   UNL A   1      37.976  30.931  29.845  1.00  0.00     0.037 A 
ATOM     51  C   UNL A   1      42.573  28.985  34.085  1.00  0.00     0.049 A 
ATOM     52  C   UNL A   1      38.260  31.252  31.290  1.00  0.00     0.074 A 
ATOM     53  C   UNL A   1      42.772  29.427  35.379  1.00  0.00     0.029 A 
ATOM     54  N   UNL A   1      41.458  29.650  33.596  1.00  0.00    -0.354 N 
ATOM     55  N   UNL A   1      39.234  30.824  32.057  1.00  0.00    -0.248 NA
ATOM     56  C   UNL A   1      37.333  32.175  31.961  1.00  0.00     0.031 C 
ATOM     57  C   UNL A   1      41.752  30.329  35.690  1.00  0.00     0.029 A 
ATOM     58  C   UNL A   1      40.953  30.490  34.571  1.00  0.00     0.049 A 
ATOM     59  H   UNL A   1      41.085  29.542  32.692  1.00  0.00     0.167 HD
ATOM     60  C   UNL A   1      39.062  31.454  33.283  1.00  0.00     0.074 A 
ATOM     61  C   UNL A   1      37.893  32.299  33.156  1.00  0.00     0.031 C 
ATOM     62  C   UNL A   1      39.805  31.346  34.411  1.00  0.00     0.037 A 
BRANCH  49  63
ATOM     63  C   UNL A   1      44.544  27.422  34.000  1.00  0.00     0.057 A 
ATOM     64  C   UNL A   1      45.805  28.020  33.877  1.00  0.00     0.134 A 
ATOM     65  C   UNL A   1      44.469  26.198  34.676  1.00  0.00     0.134 A 
ATOM     66  F   UNL A   1      45.944  29.193  33.242  1.00  0.00    -0.206 F 
ATOM     67  C   UNL A   1      46.954  27.406  34.376  1.00  0.00     0.040 A 
ATOM     68  C   UNL A   1      45.609  25.585  35.200  1.00  0.00     0.040 A 
ATOM     69  F   UNL A   1      43.289  25.584  34.842  1.00  0.00    -0.206 F 
ATOM     70  C   UNL A   1      46.858  26.183  35.038  1.00  0.00     0.006 A 
ENDBRANCH  49  63
BRANCH  50  71
ATOM     71  C   UNL A   1      36.846  31.579  29.132  1.00  0.00     0.057 A 
ATOM     72  C   UNL A   1      36.920  32.906  28.692  1.00  0.00     0.134 A 
ATOM     73  C   UNL A   1      35.668  30.875  28.858  1.00  0.00     0.134 A 
ATOM     74  F   UNL A   1      38.018  33.639  28.923  1.00  0.00    -0.206 F 
ATOM     75  C   UNL A   1      35.859  33.511  28.013  1.00  0.00     0.040 A 
ATOM     76  C   UNL A   1      34.612  31.458  28.156  1.00  0.00     0.040 A 
ATOM     77  F   UNL A   1      35.545  29.594  29.236  1.00  0.00    -0.206 F 
ATOM     78  C   UNL A   1      34.705  32.784  27.735  1.00  0.00     0.006 A 
ENDBRANCH  50  71
BRANCH  62  79
ATOM     79  C   UNL A   1      39.418  32.192  35.588  1.00  0.00     0.057 A 
ATOM     80  C   UNL A   1      38.511  31.708  36.541  1.00  0.00     0.134 A 
ATOM     81  C   UNL A   1      39.858  33.514  35.725  1.00  0.00     0.134 A 
ATOM     82  F   UNL A   1      38.039  30.454  36.456  1.00  0.00    -0.206 F 
ATOM     83  C   UNL A   1      38.040  32.515  37.577  1.00  0.00     0.040 A 
ATOM     84  C   UNL A   1      39.417  34.321  36.776  1.00  0.00     0.040 A 
ATOM     85  F   UNL A   1      40.732  34.034  34.851  1.00  0.00    -0.206 F 
ATOM     86  C   UNL A   1      38.496  33.825  37.697  1.00  0.00     0.006 A 
ENDBRANCH  62  79
ENDBRANCH  36  37
ENDBRANCH  29  31
ENDBRANCH  28  29
ENDBRANCH  27  28
ENDBRANCH  26  27
ENDBRANCH  25  26
ENDBRANCH   1  25
TORSDOF 18
ENDMDL
MODEL 3
REMARK VINA RESULT:     -10.3      1.188      6.407
REMARK SMILES C[C@@H](CNc1cccc(F)c1C(=O)OCCOCCOC(=O)c1ccc(-c2c3nc(c(-c4c(F)cccc4F)c4ccc([nH]4)c(-c4c(F)cccc4F)c4nc(c(-c5c(F)cccc5F)c5ccc2[nH]5)C=C4)C=C3)cc1)[NH+]1CCCCC1
REMARK SMILES IDX 16 1 15 2 14 3 12 4 13 5 11 6 5 7 6 8 7 9 9 10 8 11 10 12
REMARK SMILES IDX 4 13 3 15 2 16 1 17 77 18 78 19 82 20 79 22 81 23 80 24
REMARK SMILES IDX 17 25 18 26 19 27 20 28 21 29 22 30 23 31 24 32 76 33 25 34
REMARK SMILES IDX 75 35 26 36 27 37 28 38 69 39 29 40 74 41 68 42 70 43 30 44
REMARK SMILES IDX 73 45 67 46 66 47 31 49 57 50 40 51 56 52 41 53 44 54 55 55
REMARK SMILES IDX 71 56 42 57 43 58 54 60 72 61 45 62 32 63 33 64 38 65 34 66
REMARK SMILES IDX 35 67 37 68 39 69 36 70 58 71 59 72 64 73 60 74 61 75 63 76
REMARK SMILES IDX 65 77 62 78 46 79 47 80 52 81 48 82 49 83 51 84 53 85 50 86
REMARK H PARENT 4 14 77 21 70 48 44 59
REMARK Flexibility Score: inf
ROOT
ATOM      1  C   UNL A   1      36.845  22.271  25.501  1.00  0.00     0.202 C 
ENDROOT
BRANCH   1   2
ATOM      2  C   UNL A   1      36.667  23.737  25.056  1.00  0.00     0.261 C 
BRANCH   2   3
ATOM      3  O   UNL A   1      35.320  24.217  24.973  1.00  0.00    -0.460 OA
BRANCH   3   4
ATOM      4  C   UNL A   1      34.837  24.078  23.719  1.00  0.00     0.343 C 
ATOM      5  O   UNL A   1      35.529  23.666  22.795  1.00  0.00    -0.246 OA
BRANCH   4   6
ATOM      6  C   UNL A   1      33.390  24.335  23.532  1.00  0.00     0.118 A 
ATOM      7  C   UNL A   1      32.509  23.215  23.520  1.00  0.00     0.052 A 
ATOM      8  C   UNL A   1      31.134  23.460  23.404  1.00  0.00     0.027 A 
ATOM      9  C   UNL A   1      30.636  24.760  23.280  1.00  0.00     0.005 A 
ATOM     10  C   UNL A   1      32.883  25.626  23.374  1.00  0.00     0.139 A 
ATOM     11  C   UNL A   1      31.512  25.841  23.248  1.00  0.00     0.040 A 
ATOM     12  F   UNL A   1      33.685  26.700  23.333  1.00  0.00    -0.206 F 
BRANCH   7  13
ATOM     13  N   UNL A   1      32.992  21.911  23.598  1.00  0.00    -0.378 N 
ATOM     14  H   UNL A   1      33.966  21.793  23.695  1.00  0.00     0.160 HD
BRANCH  13  15
ATOM     15  C   UNL A   1      32.172  20.706  23.548  1.00  0.00     0.177 C 
BRANCH  15  16
ATOM     16  C   UNL A   1      32.393  19.725  24.772  1.00  0.00     0.200 C 
ATOM     17  C   UNL A   1      33.437  20.336  25.735  1.00  0.00     0.077 C 
BRANCH  16  18
ATOM     18  N   UNL A   1      32.585  18.250  24.525  1.00  0.00    -0.331 N 
ATOM     19  C   UNL A   1      33.747  17.983  23.667  1.00  0.00     0.262 C 
ATOM     20  C   UNL A   1      32.580  17.451  25.752  1.00  0.00     0.262 C 
ATOM     21  H   UNL A   1      31.763  17.938  24.008  1.00  0.00     0.348 HD
ATOM     22  C   UNL A   1      34.101  16.502  23.513  1.00  0.00     0.062 C 
ATOM     23  C   UNL A   1      32.995  15.985  25.650  1.00  0.00     0.062 C 
ATOM     24  C   UNL A   1      34.290  15.848  24.873  1.00  0.00     0.012 C 
ENDBRANCH  16  18
ENDBRANCH  15  16
ENDBRANCH  13  15
ENDBRANCH   7  13
ENDBRANCH   4   6
ENDBRANCH   3   4
ENDBRANCH   2   3
ENDBRANCH   1   2
BRANCH   1  25
ATOM     25  O   UNL A   1      38.023  21.518  25.236  1.00  0.00    -0.374 OA
BRANCH  25  26
ATOM     26  C   UNL A   1      37.959  20.113  24.991  1.00  0.00     0.202 C 
BRANCH  26  27
ATOM     27  C   UNL A   1      39.115  19.215  25.419  1.00  0.00     0.261 C 
BRANCH  27  28
ATOM     28  O   UNL A   1      39.939  19.832  26.414  1.00  0.00    -0.460 OA
BRANCH  28  29
ATOM     29  C   UNL A   1      41.261  19.610  26.243  1.00  0.00     0.338 C 
ATOM     30  O   UNL A   1      41.796  18.605  25.788  1.00  0.00    -0.246 OA
BRANCH  29  31
ATOM     31  C   UNL A   1      42.002  20.856  26.486  1.00  0.00     0.060 A 
ATOM     32  C   UNL A   1      42.201  21.244  27.819  1.00  0.00     0.016 A 
ATOM     33  C   UNL A   1      42.436  21.656  25.429  1.00  0.00     0.016 A 
ATOM     34  C   UNL A   1      42.770  22.476  28.103  1.00  0.00     0.010 A 
ATOM     35  C   UNL A   1      42.984  22.905  25.715  1.00  0.00     0.010 A 
ATOM     36  C   UNL A   1      43.101  23.334  27.049  1.00  0.00    -0.014 A 
BRANCH  36  37
ATOM     37  C   UNL A   1      43.346  24.761  27.338  1.00  0.00     0.031 A 
ATOM     38  C   UNL A   1      44.729  25.299  27.099  1.00  0.00     0.074 A 
ATOM     39  C   UNL A   1      42.352  25.560  27.755  1.00  0.00     0.049 A 
ATOM     40  N   UNL A   1      45.211  26.486  27.355  1.00  0.00    -0.248 NA
ATOM     41  C   UNL A   1      45.702  24.374  26.486  1.00  0.00     0.031 C 
ATOM     42  C   UNL A   1      40.960  25.154  27.937  1.00  0.00     0.029 A 
ATOM     43  N   UNL A   1      42.367  26.885  28.100  1.00  0.00    -0.354 N 
ATOM     44  C   UNL A   1      46.535  26.450  26.938  1.00  0.00     0.074 A 
ATOM     45  C   UNL A   1      46.797  25.118  26.443  1.00  0.00     0.031 C 
ATOM     46  C   UNL A   1      40.252  26.212  28.368  1.00  0.00     0.029 A 
ATOM     47  C   UNL A   1      41.151  27.353  28.532  1.00  0.00     0.049 A 
ATOM     48  H   UNL A   1      43.173  27.448  28.044  1.00  0.00     0.167 HD
ATOM     49  C   UNL A   1      47.444  27.449  26.955  1.00  0.00     0.037 A 
ATOM     50  C   UNL A   1      40.817  28.560  29.026  1.00  0.00     0.037 A 
ATOM     51  C   UNL A   1      47.169  28.772  27.444  1.00  0.00     0.049 A 
ATOM     52  C   UNL A   1      41.882  29.620  29.140  1.00  0.00     0.074 A 
ATOM     53  C   UNL A   1      48.026  29.853  27.526  1.00  0.00     0.029 A 
ATOM     54  N   UNL A   1      45.939  29.193  27.927  1.00  0.00    -0.354 N 
ATOM     55  N   UNL A   1      43.139  29.575  28.767  1.00  0.00    -0.248 NA
ATOM     56  C   UNL A   1      41.486  30.898  29.750  1.00  0.00     0.031 C 
ATOM     57  C   UNL A   1      47.327  30.917  28.100  1.00  0.00     0.029 A 
ATOM     58  C   UNL A   1      46.020  30.515  28.322  1.00  0.00     0.049 A 
ATOM     59  H   UNL A   1      45.131  28.634  27.979  1.00  0.00     0.167 HD
ATOM     60  C   UNL A   1      43.670  30.826  29.057  1.00  0.00     0.074 A 
ATOM     61  C   UNL A   1      42.598  31.610  29.633  1.00  0.00     0.031 C 
ATOM     62  C   UNL A   1      44.930  31.285  28.863  1.00  0.00     0.037 A 
BRANCH  49  63
ATOM     63  C   UNL A   1      48.819  27.164  26.431  1.00  0.00     0.057 A 
ATOM     64  C   UNL A   1      49.838  26.738  27.293  1.00  0.00     0.134 A 
ATOM     65  C   UNL A   1      49.159  27.404  25.094  1.00  0.00     0.134 A 
ATOM     66  F   UNL A   1      49.578  26.490  28.585  1.00  0.00    -0.206 F 
ATOM     67  C   UNL A   1      51.153  26.591  26.851  1.00  0.00     0.040 A 
ATOM     68  C   UNL A   1      50.467  27.238  24.634  1.00  0.00     0.040 A 
ATOM     69  F   UNL A   1      48.226  27.797  24.215  1.00  0.00    -0.206 F 
ATOM     70  C   UNL A   1      51.471  26.844  25.517  1.00  0.00     0.006 A 
ENDBRANCH  49  63
BRANCH  50  71
ATOM     71  C   UNL A   1      39.423  28.836  29.454  1.00  0.00     0.057 A 
ATOM     72  C   UNL A   1      38.443  29.250  28.543  1.00  0.00     0.134 A 
ATOM     73  C   UNL A   1      39.033  28.673  30.788  1.00  0.00     0.134 A 
ATOM     74  F   UNL A   1      38.749  29.427  27.249  1.00  0.00    -0.206 F 
ATOM     75  C   UNL A   1      37.129  29.500  28.945  1.00  0.00     0.040 A 
ATOM     76  C   UNL A   1      37.717  28.892  31.199  1.00  0.00     0.040 A 
ATOM     77  F   UNL A   1      39.921  28.259  31.704  1.00  0.00    -0.206 F 
ATOM     78  C   UNL A   1      36.761  29.313  30.275  1.00  0.00     0.006 A 
ENDBRANCH  50  71
BRANCH  62  79
ATOM     79  C   UNL A   1      45.218  32.712  29.224  1.00  0.00     0.057 A 
ATOM     80  C   UNL A   1      45.093  33.725  28.263  1.00  0.00     0.134 A 
ATOM     81  C   UNL A   1      45.715  33.071  30.483  1.00  0.00     0.134 A 
ATOM     82  F   UNL A   1      44.638  33.443  27.032  1.00  0.00    -0.206 F 
ATOM     83  C   UNL A   1      45.470  35.040  28.535  1.00  0.00     0.040 A 
ATOM     84  C   UNL A   1      46.067  34.390  30.776  1.00  0.00     0.040 A 
ATOM     85  F   UNL A   1      45.850  32.151  31.448  1.00  0.00    -0.206 F 
ATOM     86  C   UNL A   1      45.957  35.375  29.796  1.00  0.00     0.006 A 
ENDBRANCH  62  79
ENDBRANCH  36  37
ENDBRANCH  29  31
ENDBRANCH  28  29
ENDBRANCH  27  28
ENDBRANCH  26  27
ENDBRANCH  25  26
ENDBRANCH   1  25
TORSDOF 18
ENDMDL
