MODEL 1
REMARK VINA RESULT:     -10.8      0.000      0.000
REMARK SMILES O=C(CCC(=O)c1c[nH]c2ccccc12)OCCOCCOC(=O)c1ccc(-c2c3nc(c(-c4c(F)cccc4F)c4ccc([nH]4)c(-c4c(F)cccc4F)c4nc(c(-c5c(F)cccc5F)c5ccc2[nH]5)C=C4)C=C3)cc1
REMARK SMILES IDX 18 1 17 2 16 3 2 4 1 5 3 6 4 7 5 8 6 9 7 10 8 11 15 12 9 13
REMARK SMILES IDX 10 14 14 15 11 17 13 18 12 19 19 20 20 21 21 22 22 23 23 24
REMARK SMILES IDX 24 25 25 26 26 27 78 28 27 29 77 30 28 31 29 32 30 33 71 34
REMARK SMILES IDX 31 35 76 36 70 37 72 38 32 39 75 40 69 41 68 42 33 44 59 45
REMARK SMILES IDX 42 46 58 47 43 48 46 49 57 50 73 51 44 52 45 53 56 55 74 56
REMARK SMILES IDX 47 57 34 58 35 59 40 60 36 61 37 62 39 63 41 64 38 65 60 66
REMARK SMILES IDX 61 67 66 68 62 69 63 70 65 71 67 72 64 73 48 74 49 75 54 76
REMARK SMILES IDX 50 77 51 78 53 79 55 80 52 81
REMARK H PARENT 9 16 72 43 46 54
REMARK Flexibility Score: inf
ROOT
ATOM      1  C   UNL A   1      40.563  19.845  26.131  1.00  0.00     0.202 C 
ENDROOT
BRANCH   1   2
ATOM      2  C   UNL A   1      40.052  21.251  26.415  1.00  0.00     0.261 C 
BRANCH   2   3
ATOM      3  O   UNL A   1      38.820  21.481  25.714  1.00  0.00    -0.463 OA
BRANCH   3   4
ATOM      4  C   UNL A   1      38.138  22.625  25.950  1.00  0.00     0.306 C 
ATOM      5  O   UNL A   1      38.599  23.721  26.233  1.00  0.00    -0.252 OA
BRANCH   4   6
ATOM      6  C   UNL A   1      36.685  22.409  25.667  1.00  0.00     0.131 C 
BRANCH   6   7
ATOM      7  C   UNL A   1      35.855  23.653  25.970  1.00  0.00     0.093 C 
BRANCH   7   8
ATOM      8  C   UNL A   1      34.355  23.438  26.067  1.00  0.00     0.165 C 
ATOM      9  O   UNL A   1      33.630  24.436  26.140  1.00  0.00    -0.294 OA
BRANCH   8  10
ATOM     10  C   UNL A   1      33.732  22.106  25.975  1.00  0.00     0.043 A 
ATOM     11  C   UNL A   1      33.814  21.241  27.056  1.00  0.00     0.095 A 
ATOM     12  C   UNL A   1      33.104  21.348  24.911  1.00  0.00     0.010 A 
ATOM     13  N   UNL A   1      33.296  20.032  26.709  1.00  0.00    -0.360 N 
ATOM     14  C   UNL A   1      32.919  20.042  25.390  1.00  0.00     0.046 A 
ATOM     15  C   UNL A   1      32.730  21.568  23.565  1.00  0.00     0.011 A 
ATOM     16  H   UNL A   1      33.205  19.261  27.316  1.00  0.00     0.166 HD
ATOM     17  C   UNL A   1      32.447  18.980  24.604  1.00  0.00     0.027 A 
ATOM     18  C   UNL A   1      32.306  20.506  22.747  1.00  0.00     0.001 A 
ATOM     19  C   UNL A   1      32.176  19.224  23.261  1.00  0.00     0.002 A 
ENDBRANCH   8  10
ENDBRANCH   7   8
ENDBRANCH   6   7
ENDBRANCH   4   6
ENDBRANCH   3   4
ENDBRANCH   2   3
ENDBRANCH   1   2
BRANCH   1  20
ATOM     20  O   UNL A   1      41.978  19.670  26.135  1.00  0.00    -0.374 OA
BRANCH  20  21
ATOM     21  C   UNL A   1      42.794  20.769  26.529  1.00  0.00     0.202 C 
BRANCH  21  22
ATOM     22  C   UNL A   1      43.546  21.520  25.432  1.00  0.00     0.261 C 
BRANCH  22  23
ATOM     23  O   UNL A   1      42.839  22.683  24.960  1.00  0.00    -0.460 OA
BRANCH  23  24
ATOM     24  C   UNL A   1      43.557  23.829  24.976  1.00  0.00     0.338 C 
ATOM     25  O   UNL A   1      44.592  24.069  24.378  1.00  0.00    -0.246 OA
BRANCH  24  26
ATOM     26  C   UNL A   1      42.885  24.841  25.803  1.00  0.00     0.060 A 
ATOM     27  C   UNL A   1      43.297  26.175  25.712  1.00  0.00     0.016 A 
ATOM     28  C   UNL A   1      41.997  24.432  26.797  1.00  0.00     0.016 A 
ATOM     29  C   UNL A   1      42.856  27.100  26.658  1.00  0.00     0.010 A 
ATOM     30  C   UNL A   1      41.556  25.361  27.742  1.00  0.00     0.010 A 
ATOM     31  C   UNL A   1      42.013  26.690  27.701  1.00  0.00    -0.014 A 
BRANCH  31  32
ATOM     32  C   UNL A   1      41.673  27.614  28.811  1.00  0.00     0.031 A 
ATOM     33  C   UNL A   1      42.435  27.532  30.105  1.00  0.00     0.074 A 
ATOM     34  C   UNL A   1      40.665  28.493  28.674  1.00  0.00     0.049 A 
ATOM     35  N   UNL A   1      42.209  28.145  31.238  1.00  0.00    -0.248 NA
ATOM     36  C   UNL A   1      43.605  26.639  30.126  1.00  0.00     0.031 C 
ATOM     37  C   UNL A   1      39.884  28.695  27.455  1.00  0.00     0.029 A 
ATOM     38  N   UNL A   1      40.106  29.360  29.580  1.00  0.00    -0.354 N 
ATOM     39  C   UNL A   1      43.197  27.704  32.111  1.00  0.00     0.074 A 
ATOM     40  C   UNL A   1      44.013  26.756  31.383  1.00  0.00     0.031 C 
ATOM     41  C   UNL A   1      38.919  29.596  27.700  1.00  0.00     0.029 A 
ATOM     42  C   UNL A   1      38.996  30.010  29.098  1.00  0.00     0.049 A 
ATOM     43  H   UNL A   1      40.466  29.501  30.485  1.00  0.00     0.167 HD
ATOM     44  C   UNL A   1      43.404  28.063  33.400  1.00  0.00     0.037 A 
ATOM     45  C   UNL A   1      38.120  30.816  29.727  1.00  0.00     0.037 A 
ATOM     46  C   UNL A   1      42.594  29.014  34.116  1.00  0.00     0.049 A 
ATOM     47  C   UNL A   1      38.329  31.137  31.184  1.00  0.00     0.074 A 
ATOM     48  C   UNL A   1      42.749  29.476  35.413  1.00  0.00     0.029 A 
ATOM     49  N   UNL A   1      41.470  29.642  33.602  1.00  0.00    -0.354 N 
ATOM     50  N   UNL A   1      39.288  30.747  31.988  1.00  0.00    -0.248 NA
ATOM     51  C   UNL A   1      37.334  32.012  31.820  1.00  0.00     0.031 C 
ATOM     52  C   UNL A   1      41.686  30.336  35.702  1.00  0.00     0.029 A 
ATOM     53  C   UNL A   1      40.901  30.456  34.566  1.00  0.00     0.049 A 
ATOM     54  H   UNL A   1      41.127  29.526  32.686  1.00  0.00     0.167 HD
ATOM     55  C   UNL A   1      39.026  31.348  33.214  1.00  0.00     0.074 A 
ATOM     56  C   UNL A   1      37.831  32.146  33.041  1.00  0.00     0.031 C 
ATOM     57  C   UNL A   1      39.712  31.249  34.378  1.00  0.00     0.037 A 
BRANCH  44  58
ATOM     58  C   UNL A   1      44.538  27.414  34.140  1.00  0.00     0.057 A 
ATOM     59  C   UNL A   1      44.383  26.200  34.820  1.00  0.00     0.134 A 
ATOM     60  C   UNL A   1      45.822  27.973  34.100  1.00  0.00     0.134 A 
ATOM     61  F   UNL A   1      43.178  25.616  34.902  1.00  0.00    -0.206 F 
ATOM     62  C   UNL A   1      45.463  25.571  35.444  1.00  0.00     0.040 A 
ATOM     63  C   UNL A   1      46.914  27.342  34.699  1.00  0.00     0.040 A 
ATOM     64  F   UNL A   1      46.042  29.131  33.458  1.00  0.00    -0.206 F 
ATOM     65  C   UNL A   1      46.734  26.136  35.375  1.00  0.00     0.006 A 
ENDBRANCH  44  58
BRANCH  45  66
ATOM     66  C   UNL A   1      36.941  31.354  29.000  1.00  0.00     0.057 A 
ATOM     67  C   UNL A   1      36.904  32.681  28.558  1.00  0.00     0.134 A 
ATOM     68  C   UNL A   1      35.806  30.566  28.770  1.00  0.00     0.134 A 
ATOM     69  F   UNL A   1      37.952  33.491  28.767  1.00  0.00    -0.206 F 
ATOM     70  C   UNL A   1      35.771  33.215  27.942  1.00  0.00     0.040 A 
ATOM     71  C   UNL A   1      34.678  31.079  28.127  1.00  0.00     0.040 A 
ATOM     72  F   UNL A   1      35.781  29.283  29.159  1.00  0.00    -0.206 F 
ATOM     73  C   UNL A   1      34.654  32.411  27.723  1.00  0.00     0.006 A 
ENDBRANCH  45  66
BRANCH  57  74
ATOM     74  C   UNL A   1      39.203  32.043  35.547  1.00  0.00     0.057 A 
ATOM     75  C   UNL A   1      38.353  31.480  36.509  1.00  0.00     0.134 A 
ATOM     76  C   UNL A   1      39.597  33.375  35.731  1.00  0.00     0.134 A 
ATOM     77  F   UNL A   1      37.927  30.214  36.383  1.00  0.00    -0.206 F 
ATOM     78  C   UNL A   1      37.892  32.223  37.596  1.00  0.00     0.040 A 
ATOM     79  C   UNL A   1      39.167  34.117  36.831  1.00  0.00     0.040 A 
ATOM     80  F   UNL A   1      40.417  33.971  34.854  1.00  0.00    -0.206 F 
ATOM     81  C   UNL A   1      38.305  33.543  37.764  1.00  0.00     0.006 A 
ENDBRANCH  57  74
ENDBRANCH  31  32
ENDBRANCH  24  26
ENDBRANCH  23  24
ENDBRANCH  22  23
ENDBRANCH  21  22
ENDBRANCH  20  21
ENDBRANCH   1  20
TORSDOF 17
ENDMDL
MODEL 2
REMARK VINA RESULT:     -10.7      1.532      2.562
REMARK SMILES O=C(CCC(=O)c1c[nH]c2ccccc12)OCCOCCOC(=O)c1ccc(-c2c3nc(c(-c4c(F)cccc4F)c4ccc([nH]4)c(-c4c(F)cccc4F)c4nc(c(-c5c(F)cccc5F)c5ccc2[nH]5)C=C4)C=C3)cc1
REMARK SMILES IDX 18 1 17 2 16 3 2 4 1 5 3 6 4 7 5 8 6 9 7 10 8 11 15 12 9 13
REMARK SMILES IDX 10 14 14 15 11 17 13 18 12 19 19 20 20 21 21 22 22 23 23 24
REMARK SMILES IDX 24 25 25 26 26 27 78 28 27 29 77 30 28 31 29 32 30 33 71 34
REMARK SMILES IDX 31 35 76 36 70 37 72 38 32 39 75 40 69 41 68 42 33 44 59 45
REMARK SMILES IDX 42 46 58 47 43 48 46 49 57 50 73 51 44 52 45 53 56 55 74 56
REMARK SMILES IDX 47 57 34 58 35 59 40 60 36 61 37 62 39 63 41 64 38 65 60 66
REMARK SMILES IDX 61 67 66 68 62 69 63 70 65 71 67 72 64 73 48 74 49 75 54 76
REMARK SMILES IDX 50 77 51 78 53 79 55 80 52 81
REMARK H PARENT 9 16 72 43 46 54
REMARK Flexibility Score: inf
ROOT
ATOM      1  C   UNL A   1      40.115  21.502  26.663  1.00  0.00     0.202 C 
ENDROOT
BRANCH   1   2
ATOM      2  C   UNL A   1      39.088  20.883  25.726  1.00  0.00     0.261 C 
BRANCH   2   3
ATOM      3  O   UNL A   1      38.104  21.861  25.354  1.00  0.00    -0.463 OA
BRANCH   3   4
ATOM      4  C   UNL A   1      36.980  21.452  24.724  1.00  0.00     0.306 C 
ATOM      5  O   UNL A   1      36.371  20.406  24.894  1.00  0.00    -0.252 OA
BRANCH   4   6
ATOM      6  C   UNL A   1      36.466  22.551  23.851  1.00  0.00     0.131 C 
BRANCH   6   7
ATOM      7  C   UNL A   1      35.958  23.737  24.666  1.00  0.00     0.093 C 
BRANCH   7   8
ATOM      8  C   UNL A   1      34.687  24.394  24.156  1.00  0.00     0.165 C 
ATOM      9  O   UNL A   1      34.522  24.465  22.934  1.00  0.00    -0.294 OA
BRANCH   8  10
ATOM     10  C   UNL A   1      33.610  24.849  25.053  1.00  0.00     0.043 A 
ATOM     11  C   UNL A   1      32.515  24.027  25.271  1.00  0.00     0.095 A 
ATOM     12  C   UNL A   1      33.310  26.093  25.733  1.00  0.00     0.010 A 
ATOM     13  N   UNL A   1      31.590  24.693  26.014  1.00  0.00    -0.360 N 
ATOM     14  C   UNL A   1      32.012  25.975  26.253  1.00  0.00     0.046 A 
ATOM     15  C   UNL A   1      33.936  27.348  25.919  1.00  0.00     0.011 A 
ATOM     16  H   UNL A   1      30.740  24.309  26.333  1.00  0.00     0.166 HD
ATOM     17  C   UNL A   1      31.321  27.025  26.876  1.00  0.00     0.027 A 
ATOM     18  C   UNL A   1      33.241  28.426  26.494  1.00  0.00     0.001 A 
ATOM     19  C   UNL A   1      31.943  28.267  26.958  1.00  0.00     0.002 A 
ENDBRANCH   8  10
ENDBRANCH   7   8
ENDBRANCH   6   7
ENDBRANCH   4   6
ENDBRANCH   3   4
ENDBRANCH   2   3
ENDBRANCH   1   2
BRANCH   1  20
ATOM     20  O   UNL A   1      41.219  20.678  27.029  1.00  0.00    -0.374 OA
BRANCH  20  21
ATOM     21  C   UNL A   1      42.229  20.429  26.056  1.00  0.00     0.202 C 
BRANCH  21  22
ATOM     22  C   UNL A   1      43.232  21.546  25.776  1.00  0.00     0.261 C 
BRANCH  22  23
ATOM     23  O   UNL A   1      42.658  22.650  25.050  1.00  0.00    -0.460 OA
BRANCH  23  24
ATOM     24  C   UNL A   1      43.413  23.772  25.032  1.00  0.00     0.338 C 
ATOM     25  O   UNL A   1      44.448  23.965  24.419  1.00  0.00    -0.246 OA
BRANCH  24  26
ATOM     26  C   UNL A   1      42.781  24.823  25.842  1.00  0.00     0.060 A 
ATOM     27  C   UNL A   1      43.329  26.110  25.830  1.00  0.00     0.016 A 
ATOM     28  C   UNL A   1      41.781  24.479  26.751  1.00  0.00     0.016 A 
ATOM     29  C   UNL A   1      42.910  27.049  26.773  1.00  0.00     0.010 A 
ATOM     30  C   UNL A   1      41.362  25.421  27.693  1.00  0.00     0.010 A 
ATOM     31  C   UNL A   1      41.951  26.698  27.734  1.00  0.00    -0.014 A 
BRANCH  31  32
ATOM     32  C   UNL A   1      41.619  27.619  28.848  1.00  0.00     0.031 A 
ATOM     33  C   UNL A   1      42.372  27.518  30.145  1.00  0.00     0.074 A 
ATOM     34  C   UNL A   1      40.624  28.514  28.711  1.00  0.00     0.049 A 
ATOM     35  N   UNL A   1      42.150  28.128  31.281  1.00  0.00    -0.248 NA
ATOM     36  C   UNL A   1      43.529  26.609  30.167  1.00  0.00     0.031 C 
ATOM     37  C   UNL A   1      39.853  28.734  27.490  1.00  0.00     0.029 A 
ATOM     38  N   UNL A   1      40.073  29.383  29.619  1.00  0.00    -0.354 N 
ATOM     39  C   UNL A   1      43.126  27.668  32.156  1.00  0.00     0.074 A 
ATOM     40  C   UNL A   1      43.932  26.713  31.427  1.00  0.00     0.031 C 
ATOM     41  C   UNL A   1      38.899  29.647  27.734  1.00  0.00     0.029 A 
ATOM     42  C   UNL A   1      38.974  30.051  29.136  1.00  0.00     0.049 A 
ATOM     43  H   UNL A   1      40.430  29.514  30.527  1.00  0.00     0.167 HD
ATOM     44  C   UNL A   1      43.331  28.016  33.449  1.00  0.00     0.037 A 
ATOM     45  C   UNL A   1      38.107  30.867  29.765  1.00  0.00     0.037 A 
ATOM     46  C   UNL A   1      42.531  28.975  34.167  1.00  0.00     0.049 A 
ATOM     47  C   UNL A   1      38.313  31.176  31.225  1.00  0.00     0.074 A 
ATOM     48  C   UNL A   1      42.686  29.426  35.467  1.00  0.00     0.029 A 
ATOM     49  N   UNL A   1      41.420  29.622  33.650  1.00  0.00    -0.354 N 
ATOM     50  N   UNL A   1      39.261  30.767  32.032  1.00  0.00    -0.248 NA
ATOM     51  C   UNL A   1      37.327  32.062  31.861  1.00  0.00     0.031 C 
ATOM     52  C   UNL A   1      41.634  30.300  35.755  1.00  0.00     0.029 A 
ATOM     53  C   UNL A   1      40.856  30.438  34.616  1.00  0.00     0.049 A 
ATOM     54  H   UNL A   1      41.080  29.516  32.731  1.00  0.00     0.167 HD
ATOM     55  C   UNL A   1      39.002  31.365  33.259  1.00  0.00     0.074 A 
ATOM     56  C   UNL A   1      37.819  32.181  33.085  1.00  0.00     0.031 C 
ATOM     57  C   UNL A   1      39.680  31.249  34.427  1.00  0.00     0.037 A 
BRANCH  44  58
ATOM     58  C   UNL A   1      44.452  27.347  34.190  1.00  0.00     0.057 A 
ATOM     59  C   UNL A   1      45.736  27.901  34.252  1.00  0.00     0.134 A 
ATOM     60  C   UNL A   1      44.219  26.173  34.918  1.00  0.00     0.134 A 
ATOM     61  F   UNL A   1      46.028  29.020  33.571  1.00  0.00    -0.206 F 
ATOM     62  C   UNL A   1      46.752  27.305  35.003  1.00  0.00     0.040 A 
ATOM     63  C   UNL A   1      45.219  25.581  35.693  1.00  0.00     0.040 A 
ATOM     64  F   UNL A   1      43.009  25.594  34.909  1.00  0.00    -0.206 F 
ATOM     65  C   UNL A   1      46.491  26.148  35.734  1.00  0.00     0.006 A 
ENDBRANCH  44  58
BRANCH  45  66
ATOM     66  C   UNL A   1      36.940  31.426  29.034  1.00  0.00     0.057 A 
ATOM     67  C   UNL A   1      36.928  32.753  28.589  1.00  0.00     0.134 A 
ATOM     68  C   UNL A   1      35.790  30.660  28.804  1.00  0.00     0.134 A 
ATOM     69  F   UNL A   1      37.992  33.542  28.798  1.00  0.00    -0.206 F 
ATOM     70  C   UNL A   1      35.807  33.307  27.970  1.00  0.00     0.040 A 
ATOM     71  C   UNL A   1      34.673  31.192  28.159  1.00  0.00     0.040 A 
ATOM     72  F   UNL A   1      35.739  29.378  29.196  1.00  0.00    -0.206 F 
ATOM     73  C   UNL A   1      34.675  32.524  27.752  1.00  0.00     0.006 A 
ENDBRANCH  45  66
BRANCH  57  74
ATOM     74  C   UNL A   1      39.176  32.043  35.597  1.00  0.00     0.057 A 
ATOM     75  C   UNL A   1      38.331  31.481  36.563  1.00  0.00     0.134 A 
ATOM     76  C   UNL A   1      39.570  33.376  35.779  1.00  0.00     0.134 A 
ATOM     77  F   UNL A   1      37.906  30.214  36.440  1.00  0.00    -0.206 F 
ATOM     78  C   UNL A   1      37.876  32.224  37.653  1.00  0.00     0.040 A 
ATOM     79  C   UNL A   1      39.145  34.118  36.881  1.00  0.00     0.040 A 
ATOM     80  F   UNL A   1      40.385  33.972  34.897  1.00  0.00    -0.206 F 
ATOM     81  C   UNL A   1      38.288  33.545  37.818  1.00  0.00     0.006 A 
ENDBRANCH  57  74
ENDBRANCH  31  32
ENDBRANCH  24  26
ENDBRANCH  23  24
ENDBRANCH  22  23
ENDBRANCH  21  22
ENDBRANCH  20  21
ENDBRANCH   1  20
TORSDOF 17
ENDMDL
MODEL 3
REMARK VINA RESULT:     -10.5      4.118      8.217
REMARK SMILES O=C(CCC(=O)c1c[nH]c2ccccc12)OCCOCCOC(=O)c1ccc(-c2c3nc(c(-c4c(F)cccc4F)c4ccc([nH]4)c(-c4c(F)cccc4F)c4nc(c(-c5c(F)cccc5F)c5ccc2[nH]5)C=C4)C=C3)cc1
REMARK SMILES IDX 18 1 17 2 16 3 2 4 1 5 3 6 4 7 5 8 6 9 7 10 8 11 15 12 9 13
REMARK SMILES IDX 10 14 14 15 11 17 13 18 12 19 19 20 20 21 21 22 22 23 23 24
REMARK SMILES IDX 24 25 25 26 26 27 78 28 27 29 77 30 28 31 29 32 30 33 71 34
REMARK SMILES IDX 31 35 76 36 70 37 72 38 32 39 75 40 69 41 68 42 33 44 59 45
REMARK SMILES IDX 42 46 58 47 43 48 46 49 57 50 73 51 44 52 45 53 56 55 74 56
REMARK SMILES IDX 47 57 34 58 35 59 40 60 36 61 37 62 39 63 41 64 38 65 60 66
REMARK SMILES IDX 61 67 66 68 62 69 63 70 65 71 67 72 64 73 48 74 49 75 54 76
REMARK SMILES IDX 50 77 51 78 53 79 55 80 52 81
REMARK H PARENT 9 16 72 43 46 54
REMARK Flexibility Score: inf
ROOT
ATOM      1  C   UNL A   1      38.002  22.003  25.738  1.00  0.00     0.202 C 
ENDROOT
BRANCH   1   2
ATOM      2  C   UNL A   1      37.442  23.349  25.302  1.00  0.00     0.261 C 
BRANCH   2   3
ATOM      3  O   UNL A   1      36.101  23.193  24.813  1.00  0.00    -0.463 OA
BRANCH   3   4
ATOM      4  C   UNL A   1      35.878  23.263  23.481  1.00  0.00     0.306 C 
ATOM      5  O   UNL A   1      36.675  23.040  22.581  1.00  0.00    -0.252 OA
BRANCH   4   6
ATOM      6  C   UNL A   1      34.426  23.518  23.228  1.00  0.00     0.131 C 
BRANCH   6   7
ATOM      7  C   UNL A   1      33.934  24.770  23.948  1.00  0.00     0.093 C 
BRANCH   7   8
ATOM      8  C   UNL A   1      33.740  26.000  23.079  1.00  0.00     0.165 C 
ATOM      9  O   UNL A   1      33.760  25.852  21.852  1.00  0.00    -0.294 OA
BRANCH   8  10
ATOM     10  C   UNL A   1      33.429  27.328  23.635  1.00  0.00     0.043 A 
ATOM     11  C   UNL A   1      33.930  28.460  23.010  1.00  0.00     0.095 A 
ATOM     12  C   UNL A   1      32.778  27.800  24.841  1.00  0.00     0.010 A 
ATOM     13  N   UNL A   1      33.637  29.558  23.759  1.00  0.00    -0.360 N 
ATOM     14  C   UNL A   1      32.998  29.184  24.913  1.00  0.00     0.046 A 
ATOM     15  C   UNL A   1      32.088  27.229  25.936  1.00  0.00     0.011 A 
ATOM     16  H   UNL A   1      33.853  30.486  23.508  1.00  0.00     0.166 HD
ATOM     17  C   UNL A   1      32.623  29.980  26.006  1.00  0.00     0.027 A 
ATOM     18  C   UNL A   1      31.752  28.000  27.062  1.00  0.00     0.001 A 
ATOM     19  C   UNL A   1      32.026  29.359  27.099  1.00  0.00     0.002 A 
ENDBRANCH   8  10
ENDBRANCH   7   8
ENDBRANCH   6   7
ENDBRANCH   4   6
ENDBRANCH   3   4
ENDBRANCH   2   3
ENDBRANCH   1   2
BRANCH   1  20
ATOM     20  O   UNL A   1      37.465  20.851  25.092  1.00  0.00    -0.374 OA
BRANCH  20  21
ATOM     21  C   UNL A   1      38.312  19.722  24.907  1.00  0.00     0.202 C 
BRANCH  21  22
ATOM     22  C   UNL A   1      39.400  19.476  25.951  1.00  0.00     0.261 C 
BRANCH  22  23
ATOM     23  O   UNL A   1      40.669  19.119  25.369  1.00  0.00    -0.460 OA
BRANCH  23  24
ATOM     24  C   UNL A   1      41.742  19.359  26.156  1.00  0.00     0.338 C 
ATOM     25  O   UNL A   1      42.652  18.596  26.428  1.00  0.00    -0.246 OA
BRANCH  24  26
ATOM     26  C   UNL A   1      41.722  20.747  26.637  1.00  0.00     0.060 A 
ATOM     27  C   UNL A   1      42.042  21.778  25.748  1.00  0.00     0.016 A 
ATOM     28  C   UNL A   1      41.582  20.996  28.002  1.00  0.00     0.016 A 
ATOM     29  C   UNL A   1      42.276  23.064  26.235  1.00  0.00     0.010 A 
ATOM     30  C   UNL A   1      41.815  22.285  28.487  1.00  0.00     0.010 A 
ATOM     31  C   UNL A   1      42.201  23.316  27.612  1.00  0.00    -0.014 A 
BRANCH  31  32
ATOM     32  C   UNL A   1      42.614  24.629  28.168  1.00  0.00     0.031 A 
ATOM     33  C   UNL A   1      41.581  25.699  28.390  1.00  0.00     0.074 A 
ATOM     34  C   UNL A   1      43.909  24.872  28.436  1.00  0.00     0.049 A 
ATOM     35  N   UNL A   1      41.747  26.950  28.733  1.00  0.00    -0.248 NA
ATOM     36  C   UNL A   1      40.175  25.308  28.199  1.00  0.00     0.031 C 
ATOM     37  C   UNL A   1      44.993  23.901  28.303  1.00  0.00     0.029 A 
ATOM     38  N   UNL A   1      44.535  26.022  28.848  1.00  0.00    -0.354 N 
ATOM     39  C   UNL A   1      40.473  27.501  28.785  1.00  0.00     0.074 A 
ATOM     40  C   UNL A   1      39.544  26.454  28.420  1.00  0.00     0.031 C 
ATOM     41  C   UNL A   1      46.158  24.505  28.586  1.00  0.00     0.029 A 
ATOM     42  C   UNL A   1      45.904  25.911  28.889  1.00  0.00     0.049 A 
ATOM     43  H   UNL A   1      44.051  26.844  29.089  1.00  0.00     0.167 HD
ATOM     44  C   UNL A   1      40.113  28.765  29.113  1.00  0.00     0.037 A 
ATOM     45  C   UNL A   1      46.845  26.849  29.109  1.00  0.00     0.037 A 
ATOM     46  C   UNL A   1      41.042  29.801  29.485  1.00  0.00     0.049 A 
ATOM     47  C   UNL A   1      46.421  28.266  29.395  1.00  0.00     0.074 A 
ATOM     48  C   UNL A   1      40.772  31.102  29.876  1.00  0.00     0.029 A 
ATOM     49  N   UNL A   1      42.421  29.657  29.504  1.00  0.00    -0.354 N 
ATOM     50  N   UNL A   1      45.213  28.767  29.480  1.00  0.00    -0.248 NA
ATOM     51  C   UNL A   1      47.493  29.248  29.614  1.00  0.00     0.031 C 
ATOM     52  C   UNL A   1      41.989  31.762  30.072  1.00  0.00     0.029 A 
ATOM     53  C   UNL A   1      43.016  30.856  29.861  1.00  0.00     0.049 A 
ATOM     54  H   UNL A   1      42.906  28.826  29.293  1.00  0.00     0.167 HD
ATOM     55  C   UNL A   1      45.378  30.112  29.789  1.00  0.00     0.074 A 
ATOM     56  C   UNL A   1      46.803  30.343  29.896  1.00  0.00     0.031 C 
ATOM     57  C   UNL A   1      44.436  31.070  29.967  1.00  0.00     0.037 A 
BRANCH  44  58
ATOM     58  C   UNL A   1      38.654  29.118  29.067  1.00  0.00     0.057 A 
ATOM     59  C   UNL A   1      37.836  29.038  30.200  1.00  0.00     0.134 A 
ATOM     60  C   UNL A   1      38.084  29.622  27.891  1.00  0.00     0.134 A 
ATOM     61  F   UNL A   1      38.318  28.556  31.356  1.00  0.00    -0.206 F 
ATOM     62  C   UNL A   1      36.497  29.436  30.162  1.00  0.00     0.040 A 
ATOM     63  C   UNL A   1      36.754  30.046  27.847  1.00  0.00     0.040 A 
ATOM     64  F   UNL A   1      38.815  29.733  26.772  1.00  0.00    -0.206 F 
ATOM     65  C   UNL A   1      35.957  29.952  28.986  1.00  0.00     0.006 A 
ENDBRANCH  44  58
BRANCH  45  66
ATOM     66  C   UNL A   1      48.287  26.495  29.036  1.00  0.00     0.057 A 
ATOM     67  C   UNL A   1      48.962  25.966  30.142  1.00  0.00     0.134 A 
ATOM     68  C   UNL A   1      49.034  26.720  27.873  1.00  0.00     0.134 A 
ATOM     69  F   UNL A   1      48.306  25.747  31.291  1.00  0.00    -0.206 F 
ATOM     70  C   UNL A   1      50.332  25.702  30.105  1.00  0.00     0.040 A 
ATOM     71  C   UNL A   1      50.398  26.432  27.812  1.00  0.00     0.040 A 
ATOM     72  F   UNL A   1      48.445  27.216  26.775  1.00  0.00    -0.206 F 
ATOM     73  C   UNL A   1      51.053  25.934  28.935  1.00  0.00     0.006 A 
ENDBRANCH  45  66
BRANCH  57  74
ATOM     74  C   UNL A   1      44.916  32.448  30.323  1.00  0.00     0.057 A 
ATOM     75  C   UNL A   1      45.147  32.830  31.651  1.00  0.00     0.134 A 
ATOM     76  C   UNL A   1      45.184  33.392  29.323  1.00  0.00     0.134 A 
ATOM     77  F   UNL A   1      44.897  31.978  32.657  1.00  0.00    -0.206 F 
ATOM     78  C   UNL A   1      45.602  34.109  31.972  1.00  0.00     0.040 A 
ATOM     79  C   UNL A   1      45.668  34.663  29.630  1.00  0.00     0.040 A 
ATOM     80  F   UNL A   1      44.994  33.088  28.030  1.00  0.00    -0.206 F 
ATOM     81  C   UNL A   1      45.871  35.028  30.960  1.00  0.00     0.006 A 
ENDBRANCH  57  74
ENDBRANCH  31  32
ENDBRANCH  24  26
ENDBRANCH  23  24
ENDBRANCH  22  23
ENDBRANCH  21  22
ENDBRANCH  20  21
ENDBRANCH   1  20
TORSDOF 17
ENDMDL
