MODEL 1
REMARK VINA RESULT:      -9.3      0.000      0.000
REMARK SMILES C[C@H](CCCO)Nc1ccc2c(C(=O)OCCOCCOC(=O)c3ccc(-c4c5nc(c(-c6c(F)cccc6F)c6ccc([nH]6)c(-c6c(F)cccc6F)c6nc(c(-c7c(F)cccc7F)c7ccc4[nH]7)C=C6)C=C5)cc3)cccc2n1
REMARK SMILES IDX 16 1 15 2 13 3 14 4 12 5 8 6 9 7 82 8 10 9 81 10 11 11 80 12
REMARK SMILES IDX 79 13 78 14 7 15 2 17 1 18 3 19 4 20 5 21 6 22 17 24 18 25
REMARK SMILES IDX 19 26 20 27 21 28 22 29 23 30 24 31 25 32 77 33 26 34 76 35
REMARK SMILES IDX 27 36 28 37 29 38 70 39 30 40 75 41 69 42 71 43 31 44 74 45
REMARK SMILES IDX 68 46 67 47 32 49 58 50 41 51 57 52 42 53 45 54 56 55 72 56
REMARK SMILES IDX 43 57 44 58 55 60 73 61 46 62 33 63 34 64 39 65 35 66 36 67
REMARK SMILES IDX 38 68 40 69 37 70 59 71 60 72 65 73 61 74 62 75 64 76 66 77
REMARK SMILES IDX 63 78 47 79 48 80 53 81 49 82 50 83 52 84 54 85 51 86
REMARK H PARENT 7 16 6 23 71 48 45 59
REMARK Flexibility Score: inf
ROOT
ATOM      1  C   UNL A   1      35.489  35.298  32.703  1.00  0.00     0.261 C 
ENDROOT
BRANCH   1   2
ATOM      2  O   UNL A   1      36.297  34.840  33.799  1.00  0.00    -0.460 OA
BRANCH   2   3
ATOM      3  C   UNL A   1      35.965  33.617  34.272  1.00  0.00     0.338 C 
ATOM      4  O   UNL A   1      35.124  32.858  33.817  1.00  0.00    -0.246 OA
BRANCH   3   5
ATOM      5  C   UNL A   1      36.870  33.249  35.382  1.00  0.00     0.069 A 
ATOM      6  C   UNL A   1      39.720  30.206  35.011  1.00  0.00     0.126 A 
ATOM      7  C   UNL A   1      39.148  30.685  33.847  1.00  0.00     0.047 A 
ATOM      8  N   UNL A   1      39.445  30.747  36.213  1.00  0.00    -0.231 NA
ATOM      9  C   UNL A   1      38.197  31.692  33.934  1.00  0.00     0.015 A 
ATOM     10  C   UNL A   1      38.572  31.766  36.295  1.00  0.00     0.073 A 
ATOM     11  C   UNL A   1      37.857  32.246  35.183  1.00  0.00     0.015 A 
ATOM     12  C   UNL A   1      38.366  32.368  37.531  1.00  0.00     0.029 A 
ATOM     13  C   UNL A   1      37.462  33.420  37.706  1.00  0.00     0.003 A 
ATOM     14  C   UNL A   1      36.696  33.854  36.632  1.00  0.00     0.016 A 
BRANCH   6  15
ATOM     15  N   UNL A   1      40.509  29.076  34.947  1.00  0.00    -0.368 N 
ATOM     16  H   UNL A   1      40.369  28.403  34.241  1.00  0.00     0.162 HD
BRANCH  15  17
ATOM     17  C   UNL A   1      41.548  28.900  35.945  1.00  0.00     0.077 C 
ATOM     18  C   UNL A   1      42.867  29.451  35.426  1.00  0.00     0.031 C 
BRANCH  17  19
ATOM     19  C   UNL A   1      41.593  27.427  36.401  1.00  0.00     0.027 C 
BRANCH  19  20
ATOM     20  C   UNL A   1      42.176  26.379  35.440  1.00  0.00     0.030 C 
BRANCH  20  21
ATOM     21  C   UNL A   1      41.600  24.972  35.542  1.00  0.00     0.156 C 
BRANCH  21  22
ATOM     22  O   UNL A   1      40.425  24.956  36.337  1.00  0.00    -0.396 OA
ATOM     23  H   UNL A   1      40.119  25.866  36.480  1.00  0.00     0.210 HD
ENDBRANCH  21  22
ENDBRANCH  20  21
ENDBRANCH  19  20
ENDBRANCH  17  19
ENDBRANCH  15  17
ENDBRANCH   6  15
ENDBRANCH   3   5
ENDBRANCH   2   3
ENDBRANCH   1   2
BRANCH   1  24
ATOM     24  C   UNL A   1      34.355  36.196  33.204  1.00  0.00     0.202 C 
BRANCH  24  25
ATOM     25  O   UNL A   1      33.190  36.256  32.379  1.00  0.00    -0.374 OA
BRANCH  25  26
ATOM     26  C   UNL A   1      33.250  37.090  31.220  1.00  0.00     0.202 C 
BRANCH  26  27
ATOM     27  C   UNL A   1      33.162  36.389  29.859  1.00  0.00     0.261 C 
BRANCH  27  28
ATOM     28  O   UNL A   1      32.769  35.010  29.983  1.00  0.00    -0.460 OA
BRANCH  28  29
ATOM     29  C   UNL A   1      33.016  34.243  28.894  1.00  0.00     0.338 C 
ATOM     30  O   UNL A   1      32.364  34.188  27.862  1.00  0.00    -0.246 OA
BRANCH  29  31
ATOM     31  C   UNL A   1      34.327  33.585  29.037  1.00  0.00     0.060 A 
ATOM     32  C   UNL A   1      34.532  32.782  30.166  1.00  0.00     0.016 A 
ATOM     33  C   UNL A   1      35.355  33.795  28.117  1.00  0.00     0.016 A 
ATOM     34  C   UNL A   1      35.782  32.212  30.399  1.00  0.00     0.010 A 
ATOM     35  C   UNL A   1      36.612  33.233  28.359  1.00  0.00     0.010 A 
ATOM     36  C   UNL A   1      36.838  32.462  29.514  1.00  0.00    -0.014 A 
BRANCH  36  37
ATOM     37  C   UNL A   1      38.211  32.022  29.856  1.00  0.00     0.031 A 
ATOM     38  C   UNL A   1      38.702  30.698  29.341  1.00  0.00     0.074 A 
ATOM     39  C   UNL A   1      39.011  32.793  30.613  1.00  0.00     0.049 A 
ATOM     40  N   UNL A   1      39.831  30.082  29.581  1.00  0.00    -0.248 NA
ATOM     41  C   UNL A   1      37.797  29.971  28.437  1.00  0.00     0.031 C 
ATOM     42  C   UNL A   1      38.663  34.114  31.134  1.00  0.00     0.029 A 
ATOM     43  N   UNL A   1      40.278  32.565  31.087  1.00  0.00    -0.354 N 
ATOM     44  C   UNL A   1      39.769  28.892  28.866  1.00  0.00     0.074 A 
ATOM     45  C   UNL A   1      38.482  28.861  28.204  1.00  0.00     0.031 C 
ATOM     46  C   UNL A   1      39.688  34.573  31.872  1.00  0.00     0.029 A 
ATOM     47  C   UNL A   1      40.745  33.564  31.903  1.00  0.00     0.049 A 
ATOM     48  H   UNL A   1      40.802  31.762  30.862  1.00  0.00     0.167 HD
ATOM     49  C   UNL A   1      40.703  27.917  28.768  1.00  0.00     0.037 A 
ATOM     50  C   UNL A   1      41.885  33.640  32.619  1.00  0.00     0.037 A 
ATOM     51  C   UNL A   1      41.982  27.951  29.428  1.00  0.00     0.049 A 
ATOM     52  C   UNL A   1      42.872  32.506  32.558  1.00  0.00     0.074 A 
ATOM     53  C   UNL A   1      43.007  27.023  29.372  1.00  0.00     0.029 A 
ATOM     54  N   UNL A   1      42.406  28.966  30.273  1.00  0.00    -0.354 N 
ATOM     55  N   UNL A   1      42.816  31.396  31.863  1.00  0.00    -0.248 NA
ATOM     56  C   UNL A   1      44.081  32.633  33.385  1.00  0.00     0.031 C 
ATOM     57  C   UNL A   1      44.031  27.451  30.222  1.00  0.00     0.029 A 
ATOM     58  C   UNL A   1      43.664  28.671  30.769  1.00  0.00     0.049 A 
ATOM     59  H   UNL A   1      41.888  29.775  30.489  1.00  0.00     0.167 HD
ATOM     60  C   UNL A   1      43.989  30.707  32.146  1.00  0.00     0.074 A 
ATOM     61  C   UNL A   1      44.743  31.528  33.071  1.00  0.00     0.031 C 
ATOM     62  C   UNL A   1      44.405  29.503  31.684  1.00  0.00     0.037 A 
BRANCH  49  63
ATOM     63  C   UNL A   1      40.365  26.718  27.934  1.00  0.00     0.057 A 
ATOM     64  C   UNL A   1      40.884  26.543  26.644  1.00  0.00     0.134 A 
ATOM     65  C   UNL A   1      39.537  25.708  28.440  1.00  0.00     0.134 A 
ATOM     66  F   UNL A   1      41.671  27.479  26.095  1.00  0.00    -0.206 F 
ATOM     67  C   UNL A   1      40.572  25.416  25.881  1.00  0.00     0.040 A 
ATOM     68  C   UNL A   1      39.239  24.566  27.696  1.00  0.00     0.040 A 
ATOM     69  F   UNL A   1      39.011  25.812  29.670  1.00  0.00    -0.206 F 
ATOM     70  C   UNL A   1      39.753  24.420  26.410  1.00  0.00     0.006 A 
ENDBRANCH  49  63
BRANCH  50  71
ATOM     71  C   UNL A   1      42.146  34.823  33.476  1.00  0.00     0.057 A 
ATOM     72  C   UNL A   1      42.863  35.923  32.994  1.00  0.00     0.134 A 
ATOM     73  C   UNL A   1      41.699  34.874  34.803  1.00  0.00     0.134 A 
ATOM     74  F   UNL A   1      43.337  35.923  31.740  1.00  0.00    -0.206 F 
ATOM     75  C   UNL A   1      43.141  37.026  33.805  1.00  0.00     0.040 A 
ATOM     76  C   UNL A   1      41.949  35.980  35.616  1.00  0.00     0.040 A 
ATOM     77  F   UNL A   1      41.006  33.850  35.324  1.00  0.00    -0.206 F 
ATOM     78  C   UNL A   1      42.678  37.058  35.118  1.00  0.00     0.006 A 
ENDBRANCH  50  71
BRANCH  62  79
ATOM     79  C   UNL A   1      45.747  29.013  32.141  1.00  0.00     0.057 A 
ATOM     80  C   UNL A   1      45.880  28.080  33.177  1.00  0.00     0.134 A 
ATOM     81  C   UNL A   1      46.918  29.441  31.501  1.00  0.00     0.134 A 
ATOM     82  F   UNL A   1      44.800  27.640  33.837  1.00  0.00    -0.206 F 
ATOM     83  C   UNL A   1      47.132  27.602  33.570  1.00  0.00     0.040 A 
ATOM     84  C   UNL A   1      48.172  28.953  31.870  1.00  0.00     0.040 A 
ATOM     85  F   UNL A   1      46.860  30.328  30.495  1.00  0.00    -0.206 F 
ATOM     86  C   UNL A   1      48.281  28.033  32.910  1.00  0.00     0.006 A 
ENDBRANCH  62  79
ENDBRANCH  36  37
ENDBRANCH  29  31
ENDBRANCH  28  29
ENDBRANCH  27  28
ENDBRANCH  26  27
ENDBRANCH  25  26
ENDBRANCH  24  25
ENDBRANCH   1  24
TORSDOF 20
ENDMDL
MODEL 2
REMARK VINA RESULT:      -8.5      0.811      6.250
REMARK SMILES C[C@H](CCCO)Nc1ccc2c(C(=O)OCCOCCOC(=O)c3ccc(-c4c5nc(c(-c6c(F)cccc6F)c6ccc([nH]6)c(-c6c(F)cccc6F)c6nc(c(-c7c(F)cccc7F)c7ccc4[nH]7)C=C6)C=C5)cc3)cccc2n1
REMARK SMILES IDX 16 1 15 2 13 3 14 4 12 5 8 6 9 7 82 8 10 9 81 10 11 11 80 12
REMARK SMILES IDX 79 13 78 14 7 15 2 17 1 18 3 19 4 20 5 21 6 22 17 24 18 25
REMARK SMILES IDX 19 26 20 27 21 28 22 29 23 30 24 31 25 32 77 33 26 34 76 35
REMARK SMILES IDX 27 36 28 37 29 38 70 39 30 40 75 41 69 42 71 43 31 44 74 45
REMARK SMILES IDX 68 46 67 47 32 49 58 50 41 51 57 52 42 53 45 54 56 55 72 56
REMARK SMILES IDX 43 57 44 58 55 60 73 61 46 62 33 63 34 64 39 65 35 66 36 67
REMARK SMILES IDX 38 68 40 69 37 70 59 71 60 72 65 73 61 74 62 75 64 76 66 77
REMARK SMILES IDX 63 78 47 79 48 80 53 81 49 82 50 83 52 84 54 85 51 86
REMARK H PARENT 7 16 6 23 71 48 45 59
REMARK Flexibility Score: inf
ROOT
ATOM      1  C   UNL A   1      35.052  35.293  33.174  1.00  0.00     0.261 C 
ENDROOT
BRANCH   1   2
ATOM      2  O   UNL A   1      36.025  34.896  34.153  1.00  0.00    -0.460 OA
BRANCH   2   3
ATOM      3  C   UNL A   1      36.085  33.564  34.381  1.00  0.00     0.338 C 
ATOM      4  O   UNL A   1      35.325  32.711  33.950  1.00  0.00    -0.246 OA
BRANCH   3   5
ATOM      5  C   UNL A   1      37.305  33.244  35.152  1.00  0.00     0.069 A 
ATOM      6  C   UNL A   1      39.612  29.844  34.352  1.00  0.00     0.126 A 
ATOM      7  C   UNL A   1      38.688  30.224  33.396  1.00  0.00     0.047 A 
ATOM      8  N   UNL A   1      39.831  30.578  35.460  1.00  0.00    -0.231 NA
ATOM      9  C   UNL A   1      37.905  31.345  33.631  1.00  0.00     0.015 A 
ATOM     10  C   UNL A   1      39.118  31.700  35.660  1.00  0.00     0.073 A 
ATOM     11  C   UNL A   1      38.081  32.107  34.802  1.00  0.00     0.015 A 
ATOM     12  C   UNL A   1      39.418  32.490  36.765  1.00  0.00     0.029 A 
ATOM     13  C   UNL A   1      38.713  33.662  37.056  1.00  0.00     0.003 A 
ATOM     14  C   UNL A   1      37.639  34.035  36.257  1.00  0.00     0.016 A 
BRANCH   6  15
ATOM     15  N   UNL A   1      40.245  28.626  34.217  1.00  0.00    -0.368 N 
ATOM     16  H   UNL A   1      39.770  27.850  33.839  1.00  0.00     0.162 HD
BRANCH  15  17
ATOM     17  C   UNL A   1      41.627  28.513  34.646  1.00  0.00     0.077 C 
ATOM     18  C   UNL A   1      42.559  28.917  33.514  1.00  0.00     0.031 C 
BRANCH  17  19
ATOM     19  C   UNL A   1      41.883  27.107  35.229  1.00  0.00     0.027 C 
BRANCH  19  20
ATOM     20  C   UNL A   1      41.786  26.916  36.750  1.00  0.00     0.030 C 
BRANCH  20  21
ATOM     21  C   UNL A   1      40.832  25.833  37.237  1.00  0.00     0.156 C 
BRANCH  21  22
ATOM     22  O   UNL A   1      40.349  25.051  36.156  1.00  0.00    -0.396 OA
ATOM     23  H   UNL A   1      39.718  24.393  36.490  1.00  0.00     0.210 HD
ENDBRANCH  21  22
ENDBRANCH  20  21
ENDBRANCH  19  20
ENDBRANCH  17  19
ENDBRANCH  15  17
ENDBRANCH   6  15
ENDBRANCH   3   5
ENDBRANCH   2   3
ENDBRANCH   1   2
BRANCH   1  24
ATOM     24  C   UNL A   1      34.228  36.480  33.679  1.00  0.00     0.202 C 
BRANCH  24  25
ATOM     25  O   UNL A   1      33.074  36.817  32.909  1.00  0.00    -0.374 OA
BRANCH  25  26
ATOM     26  C   UNL A   1      33.278  37.586  31.723  1.00  0.00     0.202 C 
BRANCH  26  27
ATOM     27  C   UNL A   1      33.090  36.858  30.386  1.00  0.00     0.261 C 
BRANCH  27  28
ATOM     28  O   UNL A   1      33.030  35.429  30.550  1.00  0.00    -0.460 OA
BRANCH  28  29
ATOM     29  C   UNL A   1      33.152  34.716  29.405  1.00  0.00     0.338 C 
ATOM     30  O   UNL A   1      32.446  34.780  28.410  1.00  0.00    -0.246 OA
BRANCH  29  31
ATOM     31  C   UNL A   1      34.407  33.942  29.435  1.00  0.00     0.060 A 
ATOM     32  C   UNL A   1      34.614  33.080  30.520  1.00  0.00     0.016 A 
ATOM     33  C   UNL A   1      35.386  34.099  28.453  1.00  0.00     0.016 A 
ATOM     34  C   UNL A   1      35.822  32.396  30.646  1.00  0.00     0.010 A 
ATOM     35  C   UNL A   1      36.602  33.421  28.589  1.00  0.00     0.010 A 
ATOM     36  C   UNL A   1      36.835  32.589  29.699  1.00  0.00    -0.014 A 
BRANCH  36  37
ATOM     37  C   UNL A   1      38.183  32.020  29.929  1.00  0.00     0.031 A 
ATOM     38  C   UNL A   1      39.196  32.826  30.692  1.00  0.00     0.074 A 
ATOM     39  C   UNL A   1      38.501  30.799  29.465  1.00  0.00     0.049 A 
ATOM     40  N   UNL A   1      40.452  32.560  30.939  1.00  0.00    -0.248 NA
ATOM     41  C   UNL A   1      38.727  34.106  31.249  1.00  0.00     0.031 C 
ATOM     42  C   UNL A   1      37.592  29.905  28.749  1.00  0.00     0.029 A 
ATOM     43  N   UNL A   1      39.684  30.107  29.517  1.00  0.00    -0.354 N 
ATOM     44  C   UNL A   1      40.929  33.641  31.671  1.00  0.00     0.074 A 
ATOM     45  C   UNL A   1      39.833  34.578  31.807  1.00  0.00     0.031 C 
ATOM     46  C   UNL A   1      38.258  28.788  28.412  1.00  0.00     0.029 A 
ATOM     47  C   UNL A   1      39.646  28.904  28.856  1.00  0.00     0.049 A 
ATOM     48  H   UNL A   1      40.485  30.441  29.983  1.00  0.00     0.167 HD
ATOM     49  C   UNL A   1      42.165  33.832  32.187  1.00  0.00     0.037 A 
ATOM     50  C   UNL A   1      40.628  28.015  28.613  1.00  0.00     0.037 A 
ATOM     51  C   UNL A   1      43.253  32.898  32.050  1.00  0.00     0.049 A 
ATOM     52  C   UNL A   1      42.016  28.288  29.127  1.00  0.00     0.074 A 
ATOM     53  C   UNL A   1      44.537  32.990  32.557  1.00  0.00     0.029 A 
ATOM     54  N   UNL A   1      43.184  31.706  31.346  1.00  0.00    -0.354 N 
ATOM     55  N   UNL A   1      42.452  29.300  29.836  1.00  0.00    -0.248 NA
ATOM     56  C   UNL A   1      43.052  27.296  28.801  1.00  0.00     0.031 C 
ATOM     57  C   UNL A   1      45.260  31.876  32.118  1.00  0.00     0.029 A 
ATOM     58  C   UNL A   1      44.411  31.067  31.379  1.00  0.00     0.049 A 
ATOM     59  H   UNL A   1      42.381  31.364  30.889  1.00  0.00     0.167 HD
ATOM     60  C   UNL A   1      43.800  29.055  30.065  1.00  0.00     0.074 A 
ATOM     61  C   UNL A   1      44.110  27.793  29.425  1.00  0.00     0.031 C 
ATOM     62  C   UNL A   1      44.702  29.806  30.743  1.00  0.00     0.037 A 
BRANCH  49  63
ATOM     63  C   UNL A   1      42.416  35.112  32.928  1.00  0.00     0.057 A 
ATOM     64  C   UNL A   1      41.986  35.300  34.247  1.00  0.00     0.134 A 
ATOM     65  C   UNL A   1      43.126  36.157  32.323  1.00  0.00     0.134 A 
ATOM     66  F   UNL A   1      41.288  34.344  34.877  1.00  0.00    -0.206 F 
ATOM     67  C   UNL A   1      42.235  36.491  34.932  1.00  0.00     0.040 A 
ATOM     68  C   UNL A   1      43.403  37.342  33.006  1.00  0.00     0.040 A 
ATOM     69  F   UNL A   1      43.571  36.038  31.063  1.00  0.00    -0.206 F 
ATOM     70  C   UNL A   1      42.952  37.514  34.313  1.00  0.00     0.006 A 
ENDBRANCH  49  63
BRANCH  50  71
ATOM     71  C   UNL A   1      40.342  26.791  27.823  1.00  0.00     0.057 A 
ATOM     72  C   UNL A   1      39.615  25.729  28.371  1.00  0.00     0.134 A 
ATOM     73  C   UNL A   1      40.804  26.647  26.509  1.00  0.00     0.134 A 
ATOM     74  F   UNL A   1      39.167  25.797  29.633  1.00  0.00    -0.206 F 
ATOM     75  C   UNL A   1      39.370  24.560  27.646  1.00  0.00     0.040 A 
ATOM     76  C   UNL A   1      40.546  25.496  25.765  1.00  0.00     0.040 A 
ATOM     77  F   UNL A   1      41.508  27.630  25.927  1.00  0.00    -0.206 F 
ATOM     78  C   UNL A   1      39.832  24.445  26.337  1.00  0.00     0.006 A 
ENDBRANCH  50  71
BRANCH  62  79
ATOM     79  C   UNL A   1      46.099  29.273  30.859  1.00  0.00     0.057 A 
ATOM     80  C   UNL A   1      46.478  28.414  31.899  1.00  0.00     0.134 A 
ATOM     81  C   UNL A   1      47.062  29.580  29.888  1.00  0.00     0.134 A 
ATOM     82  F   UNL A   1      45.607  28.091  32.865  1.00  0.00    -0.206 F 
ATOM     83  C   UNL A   1      47.771  27.893  31.977  1.00  0.00     0.040 A 
ATOM     84  C   UNL A   1      48.350  29.046  29.944  1.00  0.00     0.040 A 
ATOM     85  F   UNL A   1      46.761  30.389  28.862  1.00  0.00    -0.206 F 
ATOM     86  C   UNL A   1      48.708  28.203  30.994  1.00  0.00     0.006 A 
ENDBRANCH  62  79
ENDBRANCH  36  37
ENDBRANCH  29  31
ENDBRANCH  28  29
ENDBRANCH  27  28
ENDBRANCH  26  27
ENDBRANCH  25  26
ENDBRANCH  24  25
ENDBRANCH   1  24
TORSDOF 20
ENDMDL
MODEL 3
REMARK VINA RESULT:      -8.5      4.679     11.559
REMARK SMILES C[C@H](CCCO)Nc1ccc2c(C(=O)OCCOCCOC(=O)c3ccc(-c4c5nc(c(-c6c(F)cccc6F)c6ccc([nH]6)c(-c6c(F)cccc6F)c6nc(c(-c7c(F)cccc7F)c7ccc4[nH]7)C=C6)C=C5)cc3)cccc2n1
REMARK SMILES IDX 16 1 15 2 13 3 14 4 12 5 8 6 9 7 82 8 10 9 81 10 11 11 80 12
REMARK SMILES IDX 79 13 78 14 7 15 2 17 1 18 3 19 4 20 5 21 6 22 17 24 18 25
REMARK SMILES IDX 19 26 20 27 21 28 22 29 23 30 24 31 25 32 77 33 26 34 76 35
REMARK SMILES IDX 27 36 28 37 29 38 70 39 30 40 75 41 69 42 71 43 31 44 74 45
REMARK SMILES IDX 68 46 67 47 32 49 58 50 41 51 57 52 42 53 45 54 56 55 72 56
REMARK SMILES IDX 43 57 44 58 55 60 73 61 46 62 33 63 34 64 39 65 35 66 36 67
REMARK SMILES IDX 38 68 40 69 37 70 59 71 60 72 65 73 61 74 62 75 64 76 66 77
REMARK SMILES IDX 63 78 47 79 48 80 53 81 49 82 50 83 52 84 54 85 51 86
REMARK H PARENT 7 16 6 23 71 48 45 59
REMARK Flexibility Score: inf
ROOT
ATOM      1  C   UNL A   1      42.523  19.145  25.762  1.00  0.00     0.261 C 
ENDROOT
BRANCH   1   2
ATOM      2  O   UNL A   1      41.736  20.339  25.619  1.00  0.00    -0.460 OA
BRANCH   2   3
ATOM      3  C   UNL A   1      40.410  20.169  25.830  1.00  0.00     0.338 C 
ATOM      4  O   UNL A   1      39.781  19.127  25.739  1.00  0.00    -0.246 OA
BRANCH   3   5
ATOM      5  C   UNL A   1      39.819  21.431  26.323  1.00  0.00     0.069 A 
ATOM      6  C   UNL A   1      36.323  23.038  24.674  1.00  0.00     0.126 A 
ATOM      7  C   UNL A   1      36.620  21.722  24.372  1.00  0.00     0.047 A 
ATOM      8  N   UNL A   1      37.072  23.757  25.531  1.00  0.00    -0.231 NA
ATOM      9  C   UNL A   1      37.774  21.158  24.900  1.00  0.00     0.015 A 
ATOM     10  C   UNL A   1      38.155  23.195  26.095  1.00  0.00     0.073 A 
ATOM     11  C   UNL A   1      38.600  21.902  25.765  1.00  0.00     0.015 A 
ATOM     12  C   UNL A   1      38.866  23.923  27.042  1.00  0.00     0.029 A 
ATOM     13  C   UNL A   1      40.014  23.419  27.662  1.00  0.00     0.003 A 
ATOM     14  C   UNL A   1      40.505  22.173  27.290  1.00  0.00     0.016 A 
BRANCH   6  15
ATOM     15  N   UNL A   1      35.295  23.660  23.995  1.00  0.00    -0.368 N 
ATOM     16  H   UNL A   1      35.419  24.556  23.605  1.00  0.00     0.162 HD
BRANCH  15  17
ATOM     17  C   UNL A   1      34.029  22.964  23.869  1.00  0.00     0.077 C 
ATOM     18  C   UNL A   1      33.389  23.284  22.527  1.00  0.00     0.031 C 
BRANCH  17  19
ATOM     19  C   UNL A   1      33.143  23.259  25.098  1.00  0.00     0.027 C 
BRANCH  19  20
ATOM     20  C   UNL A   1      32.600  24.684  25.283  1.00  0.00     0.030 C 
BRANCH  20  21
ATOM     21  C   UNL A   1      31.316  24.819  26.093  1.00  0.00     0.156 C 
BRANCH  21  22
ATOM     22  O   UNL A   1      31.388  24.070  27.297  1.00  0.00    -0.396 OA
ATOM     23  H   UNL A   1      31.721  24.638  28.011  1.00  0.00     0.210 HD
ENDBRANCH  21  22
ENDBRANCH  20  21
ENDBRANCH  19  20
ENDBRANCH  17  19
ENDBRANCH  15  17
ENDBRANCH   6  15
ENDBRANCH   3   5
ENDBRANCH   2   3
ENDBRANCH   1   2
BRANCH   1  24
ATOM     24  C   UNL A   1      43.996  19.427  25.455  1.00  0.00     0.202 C 
BRANCH  24  25
ATOM     25  O   UNL A   1      44.263  20.110  24.230  1.00  0.00    -0.374 OA
BRANCH  25  26
ATOM     26  C   UNL A   1      45.042  21.305  24.301  1.00  0.00     0.202 C 
BRANCH  26  27
ATOM     27  C   UNL A   1      44.277  22.633  24.246  1.00  0.00     0.261 C 
BRANCH  27  28
ATOM     28  O   UNL A   1      44.281  23.315  25.514  1.00  0.00    -0.460 OA
BRANCH  28  29
ATOM     29  C   UNL A   1      44.762  24.581  25.482  1.00  0.00     0.338 C 
ATOM     30  O   UNL A   1      45.594  25.041  24.714  1.00  0.00    -0.246 OA
BRANCH  29  31
ATOM     31  C   UNL A   1      43.995  25.426  26.415  1.00  0.00     0.060 A 
ATOM     32  C   UNL A   1      44.225  26.807  26.381  1.00  0.00     0.016 A 
ATOM     33  C   UNL A   1      43.112  24.874  27.344  1.00  0.00     0.016 A 
ATOM     34  C   UNL A   1      43.597  27.642  27.304  1.00  0.00     0.010 A 
ATOM     35  C   UNL A   1      42.493  25.711  28.277  1.00  0.00     0.010 A 
ATOM     36  C   UNL A   1      42.753  27.094  28.278  1.00  0.00    -0.014 A 
BRANCH  36  37
ATOM     37  C   UNL A   1      42.238  27.945  29.376  1.00  0.00     0.031 A 
ATOM     38  C   UNL A   1      42.947  27.935  30.701  1.00  0.00     0.074 A 
ATOM     39  C   UNL A   1      41.153  28.717  29.194  1.00  0.00     0.049 A 
ATOM     40  N   UNL A   1      42.625  28.536  31.818  1.00  0.00    -0.248 NA
ATOM     41  C   UNL A   1      44.183  27.140  30.776  1.00  0.00     0.031 C 
ATOM     42  C   UNL A   1      40.407  28.844  27.943  1.00  0.00     0.029 A 
ATOM     43  N   UNL A   1      40.483  29.532  30.071  1.00  0.00    -0.354 N 
ATOM     44  C   UNL A   1      43.613  28.185  32.731  1.00  0.00     0.074 A 
ATOM     45  C   UNL A   1      44.530  27.299  32.045  1.00  0.00     0.031 C 
ATOM     46  C   UNL A   1      39.369  29.674  28.139  1.00  0.00     0.029 A 
ATOM     47  C   UNL A   1      39.358  30.108  29.535  1.00  0.00     0.049 A 
ATOM     48  H   UNL A   1      40.781  29.688  30.997  1.00  0.00     0.167 HD
ATOM     49  C   UNL A   1      43.743  28.570  34.022  1.00  0.00     0.037 A 
ATOM     50  C   UNL A   1      38.413  30.872  30.115  1.00  0.00     0.037 A 
ATOM     51  C   UNL A   1      42.829  29.451  34.701  1.00  0.00     0.049 A 
ATOM     52  C   UNL A   1      38.537  31.220  31.574  1.00  0.00     0.074 A 
ATOM     53  C   UNL A   1      42.889  29.920  36.002  1.00  0.00     0.029 A 
ATOM     54  N   UNL A   1      41.684  29.988  34.133  1.00  0.00    -0.354 N 
ATOM     55  N   UNL A   1      39.483  30.903  32.423  1.00  0.00    -0.248 NA
ATOM     56  C   UNL A   1      37.457  32.031  32.157  1.00  0.00     0.031 C 
ATOM     57  C   UNL A   1      41.753  30.701  36.236  1.00  0.00     0.029 A 
ATOM     58  C   UNL A   1      41.012  30.758  35.066  1.00  0.00     0.049 A 
ATOM     59  H   UNL A   1      41.391  29.842  33.204  1.00  0.00     0.167 HD
ATOM     60  C   UNL A   1      39.130  31.494  33.630  1.00  0.00     0.074 A 
ATOM     61  C   UNL A   1      37.884  32.198  33.401  1.00  0.00     0.031 C 
ATOM     62  C   UNL A   1      39.776  31.459  34.820  1.00  0.00     0.037 A 
BRANCH  49  63
ATOM     63  C   UNL A   1      44.906  28.020  34.793  1.00  0.00     0.057 A 
ATOM     64  C   UNL A   1      46.148  28.668  34.823  1.00  0.00     0.134 A 
ATOM     65  C   UNL A   1      44.772  26.844  35.542  1.00  0.00     0.134 A 
ATOM     66  F   UNL A   1      46.346  29.790  34.116  1.00  0.00    -0.206 F 
ATOM     67  C   UNL A   1      47.220  28.154  35.555  1.00  0.00     0.040 A 
ATOM     68  C   UNL A   1      45.830  26.335  36.297  1.00  0.00     0.040 A 
ATOM     69  F   UNL A   1      43.608  26.178  35.560  1.00  0.00    -0.206 F 
ATOM     70  C   UNL A   1      47.060  26.987  36.300  1.00  0.00     0.006 A 
ENDBRANCH  49  63
BRANCH  50  71
ATOM     71  C   UNL A   1      37.249  31.343  29.323  1.00  0.00     0.057 A 
ATOM     72  C   UNL A   1      37.225  32.624  28.762  1.00  0.00     0.134 A 
ATOM     73  C   UNL A   1      36.127  30.529  29.123  1.00  0.00     0.134 A 
ATOM     74  F   UNL A   1      38.260  33.458  28.940  1.00  0.00    -0.206 F 
ATOM     75  C   UNL A   1      36.121  33.086  28.043  1.00  0.00     0.040 A 
ATOM     76  C   UNL A   1      35.027  30.969  28.385  1.00  0.00     0.040 A 
ATOM     77  F   UNL A   1      36.089  29.289  29.635  1.00  0.00    -0.206 F 
ATOM     78  C   UNL A   1      35.020  32.255  27.849  1.00  0.00     0.006 A 
ENDBRANCH  50  71
BRANCH  62  79
ATOM     79  C   UNL A   1      39.171  32.226  35.959  1.00  0.00     0.057 A 
ATOM     80  C   UNL A   1      39.471  33.576  36.182  1.00  0.00     0.134 A 
ATOM     81  C   UNL A   1      38.238  31.620  36.810  1.00  0.00     0.134 A 
ATOM     82  F   UNL A   1      40.365  34.210  35.410  1.00  0.00    -0.206 F 
ATOM     83  C   UNL A   1      38.874  34.292  37.222  1.00  0.00     0.040 A 
ATOM     84  C   UNL A   1      37.618  32.332  37.838  1.00  0.00     0.040 A 
ATOM     85  F   UNL A   1      37.900  30.332  36.645  1.00  0.00    -0.206 F 
ATOM     86  C   UNL A   1      37.939  33.671  38.048  1.00  0.00     0.006 A 
ENDBRANCH  62  79
ENDBRANCH  36  37
ENDBRANCH  29  31
ENDBRANCH  28  29
ENDBRANCH  27  28
ENDBRANCH  26  27
ENDBRANCH  25  26
ENDBRANCH  24  25
ENDBRANCH   1  24
TORSDOF 20
ENDMDL
