MODEL 1
REMARK VINA RESULT:     -11.1      0.000      0.000
REMARK SMILES O=C(OCCOCCOC(=O)c1ccc(-c2ccc(F)c(C(F)(F)F)c2)cc1[N+](=O)[O-])c1ccc(-c2c3nc(c(-c4c(F)cccc4F)c4ccc([nH]4)c(-c4c(F)cccc4F)c4nc(c(-c5c(F)cccc5F)c5ccc2[nH]5)C=C4)C=C3)cc1
REMARK SMILES IDX 6 1 5 2 4 3 3 4 2 5 1 6 32 7 33 8 85 9 34 10 84 11 35 12
REMARK SMILES IDX 36 13 37 14 78 15 38 16 83 17 77 18 79 19 39 20 82 21 76 22
REMARK SMILES IDX 75 23 40 25 66 26 49 27 65 28 50 29 53 30 64 31 80 32 51 33
REMARK SMILES IDX 52 34 63 36 81 37 54 38 41 39 42 40 47 41 43 42 44 43 46 44
REMARK SMILES IDX 48 45 45 46 67 47 68 48 73 49 69 50 70 51 72 52 74 53 71 54
REMARK SMILES IDX 55 55 56 56 61 57 57 58 58 59 60 60 62 61 59 62 7 63 8 64
REMARK SMILES IDX 9 65 10 66 11 67 12 68 13 69 28 70 14 71 27 72 15 73 29 74
REMARK SMILES IDX 30 75 31 76 16 77 17 78 26 79 18 80 21 81 19 82 20 83 22 84
REMARK SMILES IDX 23 85 24 86 25 87
REMARK H PARENT 79 24 53 35
REMARK Flexibility Score: inf
ROOT
ATOM      1  O   UNL A   1      29.929  28.948  23.635  1.00  0.00    -0.374 OA
ENDROOT
BRANCH   1   2
ATOM      2  C   UNL A   1      30.826  29.856  24.277  1.00  0.00     0.202 C 
BRANCH   2   3
ATOM      3  C   UNL A   1      31.750  29.233  25.330  1.00  0.00     0.261 C 
BRANCH   3   4
ATOM      4  O   UNL A   1      32.879  30.080  25.590  1.00  0.00    -0.460 OA
BRANCH   4   5
ATOM      5  C   UNL A   1      33.143  30.810  26.699  1.00  0.00     0.338 C 
ATOM      6  O   UNL A   1      32.352  31.694  27.022  1.00  0.00    -0.246 OA
BRANCH   5   7
ATOM      7  C   UNL A   1      34.360  30.621  27.546  1.00  0.00     0.060 A 
ATOM      8  C   UNL A   1      34.776  29.402  28.080  1.00  0.00     0.016 A 
ATOM      9  C   UNL A   1      35.201  31.735  27.723  1.00  0.00     0.016 A 
ATOM     10  C   UNL A   1      35.959  29.274  28.781  1.00  0.00     0.010 A 
ATOM     11  C   UNL A   1      36.416  31.614  28.405  1.00  0.00     0.010 A 
ATOM     12  C   UNL A   1      36.791  30.374  28.931  1.00  0.00    -0.014 A 
BRANCH  12  13
ATOM     13  C   UNL A   1      38.003  30.172  29.732  1.00  0.00     0.031 A 
ATOM     14  C   UNL A   1      39.154  29.466  29.096  1.00  0.00     0.074 A 
ATOM     15  C   UNL A   1      38.102  30.782  30.927  1.00  0.00     0.049 A 
ATOM     16  N   UNL A   1      40.312  29.153  29.605  1.00  0.00    -0.248 NA
ATOM     17  C   UNL A   1      38.987  29.079  27.683  1.00  0.00     0.031 C 
ATOM     18  C   UNL A   1      37.066  31.629  31.530  1.00  0.00     0.029 A 
ATOM     19  N   UNL A   1      39.128  30.821  31.828  1.00  0.00    -0.354 N 
ATOM     20  C   UNL A   1      40.998  28.502  28.589  1.00  0.00     0.074 A 
ATOM     21  C   UNL A   1      40.138  28.475  27.429  1.00  0.00     0.031 C 
ATOM     22  C   UNL A   1      37.518  32.111  32.698  1.00  0.00     0.029 A 
ATOM     23  C   UNL A   1      38.835  31.545  32.959  1.00  0.00     0.049 A 
ATOM     24  H   UNL A   1      39.993  30.373  31.683  1.00  0.00     0.167 HD
ATOM     25  C   UNL A   1      42.235  27.964  28.647  1.00  0.00     0.037 A 
ATOM     26  C   UNL A   1      39.545  31.683  34.093  1.00  0.00     0.037 A 
ATOM     27  C   UNL A   1      43.055  28.017  29.825  1.00  0.00     0.049 A 
ATOM     28  C   UNL A   1      40.870  30.972  34.166  1.00  0.00     0.074 A 
ATOM     29  C   UNL A   1      44.297  27.457  30.043  1.00  0.00     0.029 A 
ATOM     30  N   UNL A   1      42.698  28.682  30.993  1.00  0.00    -0.354 N 
ATOM     31  N   UNL A   1      41.494  30.288  33.233  1.00  0.00    -0.248 NA
ATOM     32  C   UNL A   1      41.583  31.030  35.447  1.00  0.00     0.031 C 
ATOM     33  C   UNL A   1      44.668  27.738  31.362  1.00  0.00     0.029 A 
ATOM     34  C   UNL A   1      43.685  28.523  31.947  1.00  0.00     0.049 A 
ATOM     35  H   UNL A   1      41.864  29.190  31.122  1.00  0.00     0.167 HD
ATOM     36  C   UNL A   1      42.676  29.847  33.807  1.00  0.00     0.074 A 
ATOM     37  C   UNL A   1      42.694  30.366  35.163  1.00  0.00     0.031 C 
ATOM     38  C   UNL A   1      43.657  29.075  33.277  1.00  0.00     0.037 A 
BRANCH  25  39
ATOM     39  C   UNL A   1      42.710  27.205  27.447  1.00  0.00     0.057 A 
ATOM     40  C   UNL A   1      42.627  25.810  27.356  1.00  0.00     0.134 A 
ATOM     41  C   UNL A   1      43.282  27.890  26.367  1.00  0.00     0.134 A 
ATOM     42  F   UNL A   1      42.123  25.091  28.370  1.00  0.00    -0.206 F 
ATOM     43  C   UNL A   1      43.107  25.122  26.239  1.00  0.00     0.040 A 
ATOM     44  C   UNL A   1      43.746  27.216  25.236  1.00  0.00     0.040 A 
ATOM     45  F   UNL A   1      43.406  29.225  26.397  1.00  0.00    -0.206 F 
ATOM     46  C   UNL A   1      43.664  25.827  25.172  1.00  0.00     0.006 A 
ENDBRANCH  25  39
BRANCH  26  47
ATOM     47  C   UNL A   1      38.997  32.426  35.258  1.00  0.00     0.057 A 
ATOM     48  C   UNL A   1      39.217  33.798  35.426  1.00  0.00     0.134 A 
ATOM     49  C   UNL A   1      38.280  31.767  36.269  1.00  0.00     0.134 A 
ATOM     50  F   UNL A   1      39.911  34.488  34.510  1.00  0.00    -0.206 F 
ATOM     51  C   UNL A   1      38.775  34.479  36.565  1.00  0.00     0.040 A 
ATOM     52  C   UNL A   1      37.804  32.441  37.395  1.00  0.00     0.040 A 
ATOM     53  F   UNL A   1      38.031  30.453  36.177  1.00  0.00    -0.206 F 
ATOM     54  C   UNL A   1      38.065  33.799  37.552  1.00  0.00     0.006 A 
ENDBRANCH  26  47
BRANCH  38  55
ATOM     55  C   UNL A   1      44.834  28.789  34.158  1.00  0.00     0.057 A 
ATOM     56  C   UNL A   1      45.935  29.651  34.222  1.00  0.00     0.134 A 
ATOM     57  C   UNL A   1      44.835  27.662  34.990  1.00  0.00     0.134 A 
ATOM     58  F   UNL A   1      45.994  30.737  33.438  1.00  0.00    -0.206 F 
ATOM     59  C   UNL A   1      47.010  29.390  35.070  1.00  0.00     0.040 A 
ATOM     60  C   UNL A   1      45.890  27.408  35.864  1.00  0.00     0.040 A 
ATOM     61  F   UNL A   1      43.802  26.806  34.981  1.00  0.00    -0.206 F 
ATOM     62  C   UNL A   1      46.984  28.270  35.901  1.00  0.00     0.006 A 
ENDBRANCH  38  55
ENDBRANCH  12  13
ENDBRANCH   5   7
ENDBRANCH   4   5
ENDBRANCH   3   4
ENDBRANCH   2   3
ENDBRANCH   1   2
BRANCH   1  63
ATOM     63  C   UNL A   1      30.463  27.654  23.321  1.00  0.00     0.202 C 
BRANCH  63  64
ATOM     64  C   UNL A   1      29.465  26.577  23.741  1.00  0.00     0.261 C 
BRANCH  64  65
ATOM     65  O   UNL A   1      30.225  25.487  24.276  1.00  0.00    -0.459 OA
BRANCH  65  66
ATOM     66  C   UNL A   1      30.530  25.610  25.593  1.00  0.00     0.345 C 
ATOM     67  O   UNL A   1      29.813  25.948  26.505  1.00  0.00    -0.246 OA
BRANCH  66  68
ATOM     68  C   UNL A   1      31.851  24.987  25.782  1.00  0.00     0.137 A 
ATOM     69  C   UNL A   1      32.970  25.767  25.449  1.00  0.00     0.023 A 
ATOM     70  C   UNL A   1      32.041  23.710  26.302  1.00  0.00     0.284 A 
ATOM     71  C   UNL A   1      34.260  25.251  25.596  1.00  0.00     0.010 A 
ATOM     72  C   UNL A   1      33.328  23.189  26.457  1.00  0.00     0.095 A 
ATOM     73  C   UNL A   1      34.445  23.938  26.051  1.00  0.00    -0.011 A 
BRANCH  70  74
ATOM     74  N   UNL A   1      30.919  22.831  26.578  1.00  0.00     0.063 N 
ATOM     75  O   UNL A   1      30.333  22.993  27.656  1.00  0.00    -0.258 OA
ATOM     76  O   UNL A   1      30.672  21.947  25.750  1.00  0.00    -0.258 OA
ENDBRANCH  70  74
BRANCH  73  77
ATOM     77  C   UNL A   1      35.727  23.263  25.859  1.00  0.00    -0.017 A 
ATOM     78  C   UNL A   1      35.869  22.004  25.269  1.00  0.00     0.012 A 
ATOM     79  C   UNL A   1      36.875  23.923  26.337  1.00  0.00     0.025 A 
ATOM     80  C   UNL A   1      37.141  21.432  25.154  1.00  0.00     0.040 A 
ATOM     81  C   UNL A   1      38.148  23.360  26.228  1.00  0.00     0.092 A 
ATOM     82  C   UNL A   1      38.263  22.113  25.631  1.00  0.00     0.135 A 
ATOM     83  F   UNL A   1      39.467  21.541  25.510  1.00  0.00    -0.206 F 
BRANCH  81  84
ATOM     84  C   UNL A   1      39.353  24.081  26.746  1.00  0.00     0.419 C 
ATOM     85  F   UNL A   1      40.423  23.263  26.935  1.00  0.00    -0.166 F 
ATOM     86  F   UNL A   1      39.767  25.084  25.929  1.00  0.00    -0.166 F 
ATOM     87  F   UNL A   1      39.130  24.671  27.959  1.00  0.00    -0.166 F 
ENDBRANCH  81  84
ENDBRANCH  73  77
ENDBRANCH  66  68
ENDBRANCH  65  66
ENDBRANCH  64  65
ENDBRANCH  63  64
ENDBRANCH   1  63
TORSDOF 17
ENDMDL
MODEL 2
REMARK VINA RESULT:     -11.1      2.773      4.086
REMARK SMILES O=C(OCCOCCOC(=O)c1ccc(-c2ccc(F)c(C(F)(F)F)c2)cc1[N+](=O)[O-])c1ccc(-c2c3nc(c(-c4c(F)cccc4F)c4ccc([nH]4)c(-c4c(F)cccc4F)c4nc(c(-c5c(F)cccc5F)c5ccc2[nH]5)C=C4)C=C3)cc1
REMARK SMILES IDX 6 1 5 2 4 3 3 4 2 5 1 6 32 7 33 8 85 9 34 10 84 11 35 12
REMARK SMILES IDX 36 13 37 14 78 15 38 16 83 17 77 18 79 19 39 20 82 21 76 22
REMARK SMILES IDX 75 23 40 25 66 26 49 27 65 28 50 29 53 30 64 31 80 32 51 33
REMARK SMILES IDX 52 34 63 36 81 37 54 38 41 39 42 40 47 41 43 42 44 43 46 44
REMARK SMILES IDX 48 45 45 46 67 47 68 48 73 49 69 50 70 51 72 52 74 53 71 54
REMARK SMILES IDX 55 55 56 56 61 57 57 58 58 59 60 60 62 61 59 62 7 63 8 64
REMARK SMILES IDX 9 65 10 66 11 67 12 68 13 69 28 70 14 71 27 72 15 73 29 74
REMARK SMILES IDX 30 75 31 76 16 77 17 78 26 79 18 80 21 81 19 82 20 83 22 84
REMARK SMILES IDX 23 85 24 86 25 87
REMARK H PARENT 79 24 53 35
REMARK Flexibility Score: inf
ROOT
ATOM      1  O   UNL A   1      31.679  30.317  25.997  1.00  0.00    -0.374 OA
ENDROOT
BRANCH   1   2
ATOM      2  C   UNL A   1      31.380  31.624  26.492  1.00  0.00     0.202 C 
BRANCH   2   3
ATOM      3  C   UNL A   1      32.596  32.479  26.866  1.00  0.00     0.261 C 
BRANCH   3   4
ATOM      4  O   UNL A   1      32.196  33.654  27.588  1.00  0.00    -0.460 OA
BRANCH   4   5
ATOM      5  C   UNL A   1      32.903  34.359  28.503  1.00  0.00     0.338 C 
ATOM      6  O   UNL A   1      32.550  35.509  28.758  1.00  0.00    -0.246 OA
BRANCH   5   7
ATOM      7  C   UNL A   1      34.112  33.829  29.205  1.00  0.00     0.060 A 
ATOM      8  C   UNL A   1      34.090  32.842  30.190  1.00  0.00     0.016 A 
ATOM      9  C   UNL A   1      35.367  34.282  28.760  1.00  0.00     0.016 A 
ATOM     10  C   UNL A   1      35.248  32.329  30.738  1.00  0.00     0.010 A 
ATOM     11  C   UNL A   1      36.548  33.750  29.285  1.00  0.00     0.010 A 
ATOM     12  C   UNL A   1      36.481  32.767  30.276  1.00  0.00    -0.014 A 
BRANCH  12  13
ATOM     13  C   UNL A   1      37.664  32.215  30.944  1.00  0.00     0.031 A 
ATOM     14  C   UNL A   1      38.424  31.137  30.246  1.00  0.00     0.074 A 
ATOM     15  C   UNL A   1      38.121  32.815  32.058  1.00  0.00     0.049 A 
ATOM     16  N   UNL A   1      39.479  30.483  30.642  1.00  0.00    -0.248 NA
ATOM     17  C   UNL A   1      37.943  30.759  28.904  1.00  0.00     0.031 C 
ATOM     18  C   UNL A   1      37.510  33.986  32.697  1.00  0.00     0.029 A 
ATOM     19  N   UNL A   1      39.222  32.555  32.825  1.00  0.00    -0.354 N 
ATOM     20  C   UNL A   1      39.768  29.593  29.617  1.00  0.00     0.074 A 
ATOM     21  C   UNL A   1      38.791  29.796  28.574  1.00  0.00     0.031 C 
ATOM     22  C   UNL A   1      38.253  34.347  33.755  1.00  0.00     0.029 A 
ATOM     23  C   UNL A   1      39.341  33.390  33.911  1.00  0.00     0.049 A 
ATOM     24  H   UNL A   1      39.867  31.839  32.621  1.00  0.00     0.167 HD
ATOM     25  C   UNL A   1      40.761  28.679  29.578  1.00  0.00     0.037 A 
ATOM     26  C   UNL A   1      40.211  33.340  34.935  1.00  0.00     0.037 A 
ATOM     27  C   UNL A   1      41.713  28.515  30.642  1.00  0.00     0.049 A 
ATOM     28  C   UNL A   1      41.233  32.235  34.918  1.00  0.00     0.074 A 
ATOM     29  C   UNL A   1      42.726  27.586  30.763  1.00  0.00     0.029 A 
ATOM     30  N   UNL A   1      41.758  29.316  31.778  1.00  0.00    -0.354 N 
ATOM     31  N   UNL A   1      41.464  31.338  33.986  1.00  0.00    -0.248 NA
ATOM     32  C   UNL A   1      42.100  32.116  36.095  1.00  0.00     0.031 C 
ATOM     33  C   UNL A   1      43.351  27.792  31.997  1.00  0.00     0.029 A 
ATOM     34  C   UNL A   1      42.765  28.886  32.619  1.00  0.00     0.049 A 
ATOM     35  H   UNL A   1      41.159  30.078  31.955  1.00  0.00     0.167 HD
ATOM     36  C   UNL A   1      42.510  30.559  34.455  1.00  0.00     0.074 A 
ATOM     37  C   UNL A   1      42.886  31.108  35.745  1.00  0.00     0.031 C 
ATOM     38  C   UNL A   1      43.106  29.481  33.887  1.00  0.00     0.037 A 
BRANCH  25  39
ATOM     39  C   UNL A   1      40.792  27.748  28.406  1.00  0.00     0.057 A 
ATOM     40  C   UNL A   1      41.543  28.012  27.254  1.00  0.00     0.134 A 
ATOM     41  C   UNL A   1      40.034  26.570  28.427  1.00  0.00     0.134 A 
ATOM     42  F   UNL A   1      42.262  29.140  27.154  1.00  0.00    -0.206 F 
ATOM     43  C   UNL A   1      41.528  27.144  26.160  1.00  0.00     0.040 A 
ATOM     44  C   UNL A   1      40.028  25.684  27.349  1.00  0.00     0.040 A 
ATOM     45  F   UNL A   1      39.281  26.266  29.494  1.00  0.00    -0.206 F 
ATOM     46  C   UNL A   1      40.773  25.972  26.209  1.00  0.00     0.006 A 
ENDBRANCH  25  39
BRANCH  26  47
ATOM     47  C   UNL A   1      40.101  34.279  36.083  1.00  0.00     0.057 A 
ATOM     48  C   UNL A   1      39.335  33.975  37.213  1.00  0.00     0.134 A 
ATOM     49  C   UNL A   1      40.720  35.538  36.052  1.00  0.00     0.134 A 
ATOM     50  F   UNL A   1      38.699  32.798  37.301  1.00  0.00    -0.206 F 
ATOM     51  C   UNL A   1      39.162  34.894  38.253  1.00  0.00     0.040 A 
ATOM     52  C   UNL A   1      40.584  36.453  37.098  1.00  0.00     0.040 A 
ATOM     53  F   UNL A   1      41.471  35.900  35.002  1.00  0.00    -0.206 F 
ATOM     54  C   UNL A   1      39.790  36.137  38.197  1.00  0.00     0.006 A 
ENDBRANCH  26  47
BRANCH  38  55
ATOM     55  C   UNL A   1      44.239  28.864  34.646  1.00  0.00     0.057 A 
ATOM     56  C   UNL A   1      44.028  27.876  35.614  1.00  0.00     0.134 A 
ATOM     57  C   UNL A   1      45.561  29.230  34.362  1.00  0.00     0.134 A 
ATOM     58  F   UNL A   1      42.783  27.495  35.937  1.00  0.00    -0.206 F 
ATOM     59  C   UNL A   1      45.094  27.287  36.292  1.00  0.00     0.040 A 
ATOM     60  C   UNL A   1      46.636  28.626  35.010  1.00  0.00     0.040 A 
ATOM     61  F   UNL A   1      45.826  30.164  33.435  1.00  0.00    -0.206 F 
ATOM     62  C   UNL A   1      46.403  27.655  35.983  1.00  0.00     0.006 A 
ENDBRANCH  38  55
ENDBRANCH  12  13
ENDBRANCH   5   7
ENDBRANCH   4   5
ENDBRANCH   3   4
ENDBRANCH   2   3
ENDBRANCH   1   2
BRANCH   1  63
ATOM     63  C   UNL A   1      31.020  29.941  24.779  1.00  0.00     0.202 C 
BRANCH  63  64
ATOM     64  C   UNL A   1      31.866  28.905  24.042  1.00  0.00     0.261 C 
BRANCH  64  65
ATOM     65  O   UNL A   1      31.217  27.639  24.207  1.00  0.00    -0.459 OA
BRANCH  65  66
ATOM     66  C   UNL A   1      30.935  26.999  23.044  1.00  0.00     0.345 C 
ATOM     67  O   UNL A   1      30.533  27.465  22.005  1.00  0.00    -0.246 OA
BRANCH  66  68
ATOM     68  C   UNL A   1      31.471  25.633  23.173  1.00  0.00     0.137 A 
ATOM     69  C   UNL A   1      30.929  24.836  24.193  1.00  0.00     0.023 A 
ATOM     70  C   UNL A   1      32.433  25.093  22.325  1.00  0.00     0.284 A 
ATOM     71  C   UNL A   1      31.382  23.529  24.385  1.00  0.00     0.010 A 
ATOM     72  C   UNL A   1      32.888  23.784  22.507  1.00  0.00     0.095 A 
ATOM     73  C   UNL A   1      32.404  23.012  23.576  1.00  0.00    -0.011 A 
BRANCH  70  74
ATOM     74  N   UNL A   1      33.089  25.901  21.313  1.00  0.00     0.063 N 
ATOM     75  O   UNL A   1      32.904  25.578  20.132  1.00  0.00    -0.258 OA
ATOM     76  O   UNL A   1      33.834  26.808  21.703  1.00  0.00    -0.258 OA
ENDBRANCH  70  74
BRANCH  73  77
ATOM     77  C   UNL A   1      33.140  21.818  23.986  1.00  0.00    -0.017 A 
ATOM     78  C   UNL A   1      34.313  21.842  24.745  1.00  0.00     0.012 A 
ATOM     79  C   UNL A   1      32.638  20.577  23.550  1.00  0.00     0.025 A 
ATOM     80  C   UNL A   1      34.957  20.642  25.065  1.00  0.00     0.040 A 
ATOM     81  C   UNL A   1      33.273  19.374  23.863  1.00  0.00     0.092 A 
ATOM     82  C   UNL A   1      34.433  19.425  24.625  1.00  0.00     0.135 A 
ATOM     83  F   UNL A   1      35.071  18.292  24.944  1.00  0.00    -0.206 F 
BRANCH  81  84
ATOM     84  C   UNL A   1      32.722  18.067  23.385  1.00  0.00     0.419 C 
ATOM     85  F   UNL A   1      31.667  18.211  22.540  1.00  0.00    -0.166 F 
ATOM     86  F   UNL A   1      33.642  17.306  22.737  1.00  0.00    -0.166 F 
ATOM     87  F   UNL A   1      32.264  17.286  24.409  1.00  0.00    -0.166 F 
ENDBRANCH  81  84
ENDBRANCH  73  77
ENDBRANCH  66  68
ENDBRANCH  65  66
ENDBRANCH  64  65
ENDBRANCH  63  64
ENDBRANCH   1  63
TORSDOF 17
ENDMDL
MODEL 3
REMARK VINA RESULT:     -11.0      2.695      7.030
REMARK SMILES O=C(OCCOCCOC(=O)c1ccc(-c2ccc(F)c(C(F)(F)F)c2)cc1[N+](=O)[O-])c1ccc(-c2c3nc(c(-c4c(F)cccc4F)c4ccc([nH]4)c(-c4c(F)cccc4F)c4nc(c(-c5c(F)cccc5F)c5ccc2[nH]5)C=C4)C=C3)cc1
REMARK SMILES IDX 6 1 5 2 4 3 3 4 2 5 1 6 32 7 33 8 85 9 34 10 84 11 35 12
REMARK SMILES IDX 36 13 37 14 78 15 38 16 83 17 77 18 79 19 39 20 82 21 76 22
REMARK SMILES IDX 75 23 40 25 66 26 49 27 65 28 50 29 53 30 64 31 80 32 51 33
REMARK SMILES IDX 52 34 63 36 81 37 54 38 41 39 42 40 47 41 43 42 44 43 46 44
REMARK SMILES IDX 48 45 45 46 67 47 68 48 73 49 69 50 70 51 72 52 74 53 71 54
REMARK SMILES IDX 55 55 56 56 61 57 57 58 58 59 60 60 62 61 59 62 7 63 8 64
REMARK SMILES IDX 9 65 10 66 11 67 12 68 13 69 28 70 14 71 27 72 15 73 29 74
REMARK SMILES IDX 30 75 31 76 16 77 17 78 26 79 18 80 21 81 19 82 20 83 22 84
REMARK SMILES IDX 23 85 24 86 25 87
REMARK H PARENT 79 24 53 35
REMARK Flexibility Score: inf
ROOT
ATOM      1  O   UNL A   1      32.028  30.744  25.611  1.00  0.00    -0.374 OA
ENDROOT
BRANCH   1   2
ATOM      2  C   UNL A   1      31.755  31.493  26.798  1.00  0.00     0.202 C 
BRANCH   2   3
ATOM      3  C   UNL A   1      31.822  33.017  26.644  1.00  0.00     0.261 C 
BRANCH   3   4
ATOM      4  O   UNL A   1      32.128  33.648  27.896  1.00  0.00    -0.460 OA
BRANCH   4   5
ATOM      5  C   UNL A   1      33.274  34.268  28.266  1.00  0.00     0.338 C 
ATOM      6  O   UNL A   1      33.386  35.472  28.043  1.00  0.00    -0.246 OA
BRANCH   5   7
ATOM      7  C   UNL A   1      34.428  33.567  28.907  1.00  0.00     0.060 A 
ATOM      8  C   UNL A   1      34.344  32.347  29.577  1.00  0.00     0.016 A 
ATOM      9  C   UNL A   1      35.705  34.128  28.725  1.00  0.00     0.016 A 
ATOM     10  C   UNL A   1      35.461  31.704  30.071  1.00  0.00     0.010 A 
ATOM     11  C   UNL A   1      36.848  33.474  29.194  1.00  0.00     0.010 A 
ATOM     12  C   UNL A   1      36.718  32.255  29.867  1.00  0.00    -0.014 A 
BRANCH  12  13
ATOM     13  C   UNL A   1      37.850  31.542  30.467  1.00  0.00     0.031 A 
ATOM     14  C   UNL A   1      38.122  31.755  31.919  1.00  0.00     0.074 A 
ATOM     15  C   UNL A   1      38.479  30.596  29.746  1.00  0.00     0.049 A 
ATOM     16  N   UNL A   1      39.070  31.257  32.662  1.00  0.00    -0.248 NA
ATOM     17  C   UNL A   1      37.182  32.631  32.642  1.00  0.00     0.031 C 
ATOM     18  C   UNL A   1      38.144  30.226  28.366  1.00  0.00     0.029 A 
ATOM     19  N   UNL A   1      39.498  29.748  30.079  1.00  0.00    -0.354 N 
ATOM     20  C   UNL A   1      38.863  31.785  33.928  1.00  0.00     0.074 A 
ATOM     21  C   UNL A   1      37.694  32.630  33.863  1.00  0.00     0.031 C 
ATOM     22  C   UNL A   1      38.939  29.216  27.978  1.00  0.00     0.029 A 
ATOM     23  C   UNL A   1      39.885  28.927  29.048  1.00  0.00     0.049 A 
ATOM     24  H   UNL A   1      39.914  29.728  30.972  1.00  0.00     0.167 HD
ATOM     25  C   UNL A   1      39.610  31.583  35.035  1.00  0.00     0.037 A 
ATOM     26  C   UNL A   1      40.924  28.077  28.977  1.00  0.00     0.037 A 
ATOM     27  C   UNL A   1      40.766  30.730  35.052  1.00  0.00     0.049 A 
ATOM     28  C   UNL A   1      41.805  27.963  30.193  1.00  0.00     0.074 A 
ATOM     29  C   UNL A   1      41.650  30.489  36.084  1.00  0.00     0.029 A 
ATOM     30  N   UNL A   1      41.193  29.976  33.964  1.00  0.00    -0.354 N 
ATOM     31  N   UNL A   1      41.660  28.521  31.374  1.00  0.00    -0.248 NA
ATOM     32  C   UNL A   1      43.002  27.125  30.067  1.00  0.00     0.031 C 
ATOM     33  C   UNL A   1      42.642  29.628  35.603  1.00  0.00     0.029 A 
ATOM     34  C   UNL A   1      42.345  29.287  34.292  1.00  0.00     0.049 A 
ATOM     35  H   UNL A   1      40.741  29.939  33.091  1.00  0.00     0.167 HD
ATOM     36  C   UNL A   1      42.735  28.091  32.135  1.00  0.00     0.074 A 
ATOM     37  C   UNL A   1      43.509  27.202  31.289  1.00  0.00     0.031 C 
ATOM     38  C   UNL A   1      43.067  28.403  33.413  1.00  0.00     0.037 A 
BRANCH  25  39
ATOM     39  C   UNL A   1      39.248  32.366  36.259  1.00  0.00     0.057 A 
ATOM     40  C   UNL A   1      38.311  31.911  37.195  1.00  0.00     0.134 A 
ATOM     41  C   UNL A   1      39.840  33.614  36.492  1.00  0.00     0.134 A 
ATOM     42  F   UNL A   1      37.681  30.741  37.013  1.00  0.00    -0.206 F 
ATOM     43  C   UNL A   1      37.966  32.675  38.312  1.00  0.00     0.040 A 
ATOM     44  C   UNL A   1      39.520  34.378  37.616  1.00  0.00     0.040 A 
ATOM     45  F   UNL A   1      40.734  34.115  35.627  1.00  0.00    -0.206 F 
ATOM     46  C   UNL A   1      38.576  33.911  38.527  1.00  0.00     0.006 A 
ENDBRANCH  25  39
BRANCH  26  47
ATOM     47  C   UNL A   1      41.242  27.354  27.717  1.00  0.00     0.057 A 
ATOM     48  C   UNL A   1      40.990  25.986  27.568  1.00  0.00     0.134 A 
ATOM     49  C   UNL A   1      41.862  28.009  26.641  1.00  0.00     0.134 A 
ATOM     50  F   UNL A   1      40.418  25.293  28.563  1.00  0.00    -0.206 F 
ATOM     51  C   UNL A   1      41.369  25.290  26.416  1.00  0.00     0.040 A 
ATOM     52  C   UNL A   1      42.216  27.333  25.471  1.00  0.00     0.040 A 
ATOM     53  F   UNL A   1      42.136  29.320  26.711  1.00  0.00    -0.206 F 
ATOM     54  C   UNL A   1      41.982  25.966  25.363  1.00  0.00     0.006 A 
ENDBRANCH  26  47
BRANCH  38  55
ATOM     55  C   UNL A   1      44.295  27.747  33.965  1.00  0.00     0.057 A 
ATOM     56  C   UNL A   1      45.557  28.345  33.868  1.00  0.00     0.134 A 
ATOM     57  C   UNL A   1      44.198  26.528  34.647  1.00  0.00     0.134 A 
ATOM     58  F   UNL A   1      45.712  29.505  33.214  1.00  0.00    -0.206 F 
ATOM     59  C   UNL A   1      46.688  27.739  34.414  1.00  0.00     0.040 A 
ATOM     60  C   UNL A   1      45.315  25.929  35.224  1.00  0.00     0.040 A 
ATOM     61  F   UNL A   1      43.012  25.914  34.781  1.00  0.00    -0.206 F 
ATOM     62  C   UNL A   1      46.566  26.533  35.103  1.00  0.00     0.006 A 
ENDBRANCH  38  55
ENDBRANCH  12  13
ENDBRANCH   5   7
ENDBRANCH   4   5
ENDBRANCH   3   4
ENDBRANCH   2   3
ENDBRANCH   1   2
BRANCH   1  63
ATOM     63  C   UNL A   1      31.595  29.377  25.619  1.00  0.00     0.202 C 
BRANCH  63  64
ATOM     64  C   UNL A   1      31.543  28.852  24.186  1.00  0.00     0.261 C 
BRANCH  64  65
ATOM     65  O   UNL A   1      31.165  27.472  24.258  1.00  0.00    -0.459 OA
BRANCH  65  66
ATOM     66  C   UNL A   1      30.984  26.878  23.051  1.00  0.00     0.345 C 
ATOM     67  O   UNL A   1      30.684  27.386  21.997  1.00  0.00    -0.246 OA
BRANCH  66  68
ATOM     68  C   UNL A   1      31.489  25.500  23.178  1.00  0.00     0.137 A 
ATOM     69  C   UNL A   1      30.901  24.701  24.171  1.00  0.00     0.023 A 
ATOM     70  C   UNL A   1      32.466  24.951  22.352  1.00  0.00     0.284 A 
ATOM     71  C   UNL A   1      31.323  23.383  24.359  1.00  0.00     0.010 A 
ATOM     72  C   UNL A   1      32.890  23.632  22.531  1.00  0.00     0.095 A 
ATOM     73  C   UNL A   1      32.358  22.856  23.575  1.00  0.00    -0.011 A 
BRANCH  70  74
ATOM     74  N   UNL A   1      33.168  25.759  21.371  1.00  0.00     0.063 N 
ATOM     75  O   UNL A   1      33.967  26.598  21.805  1.00  0.00    -0.258 OA
ATOM     76  O   UNL A   1      32.870  25.597  20.182  1.00  0.00    -0.258 OA
ENDBRANCH  70  74
BRANCH  73  77
ATOM     77  C   UNL A   1      33.058  21.644  23.991  1.00  0.00    -0.017 A 
ATOM     78  C   UNL A   1      34.139  21.626  24.878  1.00  0.00     0.012 A 
ATOM     79  C   UNL A   1      32.625  20.429  23.426  1.00  0.00     0.025 A 
ATOM     80  C   UNL A   1      34.758  20.412  25.195  1.00  0.00     0.040 A 
ATOM     81  C   UNL A   1      33.236  19.213  23.734  1.00  0.00     0.092 A 
ATOM     82  C   UNL A   1      34.302  19.222  24.624  1.00  0.00     0.135 A 
ATOM     83  F   UNL A   1      34.914  18.075  24.942  1.00  0.00    -0.206 F 
BRANCH  81  84
ATOM     84  C   UNL A   1      32.759  17.935  23.117  1.00  0.00     0.419 C 
ATOM     85  F   UNL A   1      31.722  18.114  22.256  1.00  0.00    -0.166 F 
ATOM     86  F   UNL A   1      33.730  17.280  22.429  1.00  0.00    -0.166 F 
ATOM     87  F   UNL A   1      32.308  17.041  24.047  1.00  0.00    -0.166 F 
ENDBRANCH  81  84
ENDBRANCH  73  77
ENDBRANCH  66  68
ENDBRANCH  65  66
ENDBRANCH  64  65
ENDBRANCH  63  64
ENDBRANCH   1  63
TORSDOF 17
ENDMDL
