MODEL 1
REMARK VINA RESULT:     -12.2      0.000      0.000
REMARK SMILES Cc1ccc(C(=O)N2CCC3(CCC(=O)N(CC(=O)OCCOCCOC(=O)c4ccc(-c5c6nc(c(-c7c(F)cccc7F)c7ccc([nH]7)c(-c7c(F)cccc7F)c7nc(c(-c8c(F)cccc8F)c8ccc5[nH]8)C=C7)C=C6)cc4)C3)CC2)cc1O
REMARK SMILES IDX 22 1 21 2 20 3 18 4 19 5 17 6 16 7 6 8 7 9 8 10 9 11 85 12
REMARK SMILES IDX 10 13 84 14 11 15 12 16 83 17 13 18 14 19 15 20 5 21 1 22
REMARK SMILES IDX 2 23 3 24 87 25 4 26 86 27 88 28 23 30 24 31 25 32 26 33
REMARK SMILES IDX 27 34 28 35 29 36 30 37 82 38 31 39 81 40 32 41 33 42 34 43
REMARK SMILES IDX 75 44 35 45 80 46 74 47 76 48 36 49 79 50 73 51 72 52 37 54
REMARK SMILES IDX 63 55 46 56 62 57 47 58 50 59 61 60 77 61 48 62 49 63 60 65
REMARK SMILES IDX 78 66 51 67 38 68 39 69 44 70 40 71 41 72 43 73 45 74 42 75
REMARK SMILES IDX 64 76 65 77 70 78 66 79 67 80 69 81 71 82 68 83 52 84 53 85
REMARK SMILES IDX 58 86 54 87 55 88 57 89 59 90 56 91
REMARK H PARENT 88 29 76 53 50 64
REMARK Flexibility Score: inf
ROOT
ATOM      1  C   UNL A   1      32.763  28.704  26.677  1.00  0.00     0.202 C 
ENDROOT
BRANCH   1   2
ATOM      2  C   UNL A   1      33.697  29.111  25.531  1.00  0.00     0.261 C 
BRANCH   2   3
ATOM      3  O   UNL A   1      33.891  28.071  24.554  1.00  0.00    -0.462 OA
BRANCH   3   4
ATOM      4  C   UNL A   1      33.654  28.431  23.266  1.00  0.00     0.325 C 
ATOM      5  O   UNL A   1      33.779  29.569  22.821  1.00  0.00    -0.250 OA
BRANCH   4   6
ATOM      6  C   UNL A   1      33.349  27.260  22.334  1.00  0.00     0.242 C 
BRANCH   6   7
ATOM      7  N   UNL A   1      31.998  26.703  22.239  1.00  0.00    -0.331 N 
ATOM      8  C   UNL A   1      33.009  21.656  26.249  1.00  0.00     0.253 C 
ATOM      9  O   UNL A   1      33.484  21.804  27.374  1.00  0.00    -0.269 OA
ATOM     10  N   UNL A   1      32.308  22.667  25.606  1.00  0.00    -0.339 N 
ATOM     11  C   UNL A   1      32.663  24.041  25.899  1.00  0.00     0.120 C 
ATOM     12  C   UNL A   1      31.064  22.472  24.872  1.00  0.00     0.120 C 
ATOM     13  C   UNL A   1      32.809  24.798  24.581  1.00  0.00     0.030 C 
ATOM     14  C   UNL A   1      31.068  23.253  23.559  1.00  0.00     0.030 C 
ATOM     15  C   UNL A   1      31.529  24.730  23.703  1.00  0.00    -0.008 C 
ATOM     16  C   UNL A   1      30.385  25.583  24.321  1.00  0.00     0.019 C 
ATOM     17  C   UNL A   1      31.831  25.264  22.274  1.00  0.00     0.127 C 
ATOM     18  C   UNL A   1      30.645  27.081  24.199  1.00  0.00     0.101 C 
ATOM     19  C   UNL A   1      30.927  27.416  22.754  1.00  0.00     0.223 C 
ATOM     20  O   UNL A   1      30.242  28.195  22.111  1.00  0.00    -0.275 OA
BRANCH   8  21
ATOM     21  C   UNL A   1      33.354  20.425  25.482  1.00  0.00     0.043 A 
ATOM     22  C   UNL A   1      34.475  16.567  23.883  1.00  0.00     0.048 C 
ATOM     23  C   UNL A   1      34.053  17.910  24.403  1.00  0.00    -0.009 A 
ATOM     24  C   UNL A   1      35.011  18.922  24.531  1.00  0.00     0.008 A 
ATOM     25  C   UNL A   1      32.744  18.178  24.826  1.00  0.00     0.119 A 
ATOM     26  C   UNL A   1      34.669  20.158  25.084  1.00  0.00     0.014 A 
ATOM     27  C   UNL A   1      32.390  19.423  25.346  1.00  0.00     0.060 A 
BRANCH  25  28
ATOM     28  O   UNL A   1      31.753  17.238  24.790  1.00  0.00    -0.508 OA
ATOM     29  H   UNL A   1      31.135  17.182  25.492  1.00  0.00     0.293 HD
ENDBRANCH  25  28
ENDBRANCH   8  21
ENDBRANCH   6   7
ENDBRANCH   4   6
ENDBRANCH   3   4
ENDBRANCH   2   3
ENDBRANCH   1   2
BRANCH   1  30
ATOM     30  O   UNL A   1      31.782  29.668  27.060  1.00  0.00    -0.374 OA
BRANCH  30  31
ATOM     31  C   UNL A   1      31.572  30.779  26.181  1.00  0.00     0.202 C 
BRANCH  31  32
ATOM     32  C   UNL A   1      31.417  32.140  26.861  1.00  0.00     0.261 C 
BRANCH  32  33
ATOM     33  O   UNL A   1      32.600  32.922  26.656  1.00  0.00    -0.460 OA
BRANCH  33  34
ATOM     34  C   UNL A   1      33.093  33.518  27.753  1.00  0.00     0.338 C 
ATOM     35  O   UNL A   1      32.560  34.369  28.449  1.00  0.00    -0.246 OA
BRANCH  34  36
ATOM     36  C   UNL A   1      34.366  32.869  28.100  1.00  0.00     0.060 A 
ATOM     37  C   UNL A   1      34.350  31.516  28.456  1.00  0.00     0.016 A 
ATOM     38  C   UNL A   1      35.536  33.621  28.198  1.00  0.00     0.016 A 
ATOM     39  C   UNL A   1      35.500  30.927  28.983  1.00  0.00     0.010 A 
ATOM     40  C   UNL A   1      36.688  33.029  28.728  1.00  0.00     0.010 A 
ATOM     41  C   UNL A   1      36.661  31.691  29.167  1.00  0.00    -0.014 A 
BRANCH  41  42
ATOM     42  C   UNL A   1      37.787  31.147  29.966  1.00  0.00     0.031 A 
ATOM     43  C   UNL A   1      38.728  30.162  29.324  1.00  0.00     0.074 A 
ATOM     44  C   UNL A   1      37.992  31.534  31.237  1.00  0.00     0.049 A 
ATOM     45  N   UNL A   1      39.751  29.531  29.843  1.00  0.00    -0.248 NA
ATOM     46  C   UNL A   1      38.484  29.848  27.907  1.00  0.00     0.031 C 
ATOM     47  C   UNL A   1      37.183  32.509  31.966  1.00  0.00     0.029 A 
ATOM     48  N   UNL A   1      38.946  31.143  32.144  1.00  0.00    -0.354 N 
ATOM     49  C   UNL A   1      40.268  28.745  28.822  1.00  0.00     0.074 A 
ATOM     50  C   UNL A   1      39.435  28.959  27.658  1.00  0.00     0.031 C 
ATOM     51  C   UNL A   1      37.667  32.629  33.213  1.00  0.00     0.029 A 
ATOM     52  C   UNL A   1      38.802  31.722  33.380  1.00  0.00     0.049 A 
ATOM     53  H   UNL A   1      39.666  30.507  31.927  1.00  0.00     0.167 HD
ATOM     54  C   UNL A   1      41.344  27.924  28.845  1.00  0.00     0.037 A 
ATOM     55  C   UNL A   1      39.493  31.527  34.520  1.00  0.00     0.037 A 
ATOM     56  C   UNL A   1      42.181  27.708  29.995  1.00  0.00     0.049 A 
ATOM     57  C   UNL A   1      40.645  30.556  34.541  1.00  0.00     0.074 A 
ATOM     58  C   UNL A   1      43.303  26.903  30.106  1.00  0.00     0.029 A 
ATOM     59  N   UNL A   1      41.985  28.296  31.234  1.00  0.00    -0.354 N 
ATOM     60  N   UNL A   1      41.135  29.834  33.563  1.00  0.00    -0.248 NA
ATOM     61  C   UNL A   1      41.338  30.374  35.825  1.00  0.00     0.031 C 
ATOM     62  C   UNL A   1      43.764  26.977  31.424  1.00  0.00     0.029 A 
ATOM     63  C   UNL A   1      42.953  27.856  32.122  1.00  0.00     0.049 A 
ATOM     64  H   UNL A   1      41.265  28.931  31.451  1.00  0.00     0.167 HD
ATOM     65  C   UNL A   1      42.209  29.138  34.105  1.00  0.00     0.074 A 
ATOM     66  C   UNL A   1      42.301  29.523  35.497  1.00  0.00     0.031 C 
ATOM     67  C   UNL A   1      43.046  28.261  33.500  1.00  0.00     0.037 A 
BRANCH  54  68
ATOM     68  C   UNL A   1      41.671  27.178  27.589  1.00  0.00     0.057 A 
ATOM     69  C   UNL A   1      42.430  27.758  26.564  1.00  0.00     0.134 A 
ATOM     70  C   UNL A   1      41.261  25.849  27.421  1.00  0.00     0.134 A 
ATOM     71  F   UNL A   1      42.841  29.031  26.661  1.00  0.00    -0.206 F 
ATOM     72  C   UNL A   1      42.758  27.046  25.410  1.00  0.00     0.040 A 
ATOM     73  C   UNL A   1      41.599  25.121  26.280  1.00  0.00     0.040 A 
ATOM     74  F   UNL A   1      40.536  25.235  28.368  1.00  0.00    -0.206 F 
ATOM     75  C   UNL A   1      42.347  25.721  25.268  1.00  0.00     0.006 A 
ENDBRANCH  54  68
BRANCH  55  76
ATOM     76  C   UNL A   1      39.107  32.255  35.754  1.00  0.00     0.057 A 
ATOM     77  C   UNL A   1      39.584  33.543  36.016  1.00  0.00     0.134 A 
ATOM     78  C   UNL A   1      38.268  31.668  36.709  1.00  0.00     0.134 A 
ATOM     79  F   UNL A   1      40.411  34.146  35.150  1.00  0.00    -0.206 F 
ATOM     80  C   UNL A   1      39.253  34.218  37.192  1.00  0.00     0.040 A 
ATOM     81  C   UNL A   1      37.913  32.339  37.879  1.00  0.00     0.040 A 
ATOM     82  F   UNL A   1      37.781  30.433  36.516  1.00  0.00    -0.206 F 
ATOM     83  C   UNL A   1      38.411  33.617  38.125  1.00  0.00     0.006 A 
ENDBRANCH  55  76
BRANCH  67  84
ATOM     84  C   UNL A   1      44.162  27.687  34.319  1.00  0.00     0.057 A 
ATOM     85  C   UNL A   1      44.041  26.454  34.969  1.00  0.00     0.134 A 
ATOM     86  C   UNL A   1      45.394  28.347  34.403  1.00  0.00     0.134 A 
ATOM     87  F   UNL A   1      42.883  25.777  34.935  1.00  0.00    -0.206 F 
ATOM     88  C   UNL A   1      45.105  25.901  35.685  1.00  0.00     0.040 A 
ATOM     89  C   UNL A   1      46.471  27.797  35.099  1.00  0.00     0.040 A 
ATOM     90  F   UNL A   1      45.576  29.530  33.795  1.00  0.00    -0.206 F 
ATOM     91  C   UNL A   1      46.327  26.570  35.743  1.00  0.00     0.006 A 
ENDBRANCH  67  84
ENDBRANCH  41  42
ENDBRANCH  34  36
ENDBRANCH  33  34
ENDBRANCH  32  33
ENDBRANCH  31  32
ENDBRANCH  30  31
ENDBRANCH   1  30
TORSDOF 17
ENDMDL
MODEL 2
REMARK VINA RESULT:     -12.1      0.249      5.966
REMARK SMILES Cc1ccc(C(=O)N2CCC3(CCC(=O)N(CC(=O)OCCOCCOC(=O)c4ccc(-c5c6nc(c(-c7c(F)cccc7F)c7ccc([nH]7)c(-c7c(F)cccc7F)c7nc(c(-c8c(F)cccc8F)c8ccc5[nH]8)C=C7)C=C6)cc4)C3)CC2)cc1O
REMARK SMILES IDX 22 1 21 2 20 3 18 4 19 5 17 6 16 7 6 8 7 9 8 10 9 11 85 12
REMARK SMILES IDX 10 13 84 14 11 15 12 16 83 17 13 18 14 19 15 20 5 21 1 22
REMARK SMILES IDX 2 23 3 24 87 25 4 26 86 27 88 28 23 30 24 31 25 32 26 33
REMARK SMILES IDX 27 34 28 35 29 36 30 37 82 38 31 39 81 40 32 41 33 42 34 43
REMARK SMILES IDX 75 44 35 45 80 46 74 47 76 48 36 49 79 50 73 51 72 52 37 54
REMARK SMILES IDX 63 55 46 56 62 57 47 58 50 59 61 60 77 61 48 62 49 63 60 65
REMARK SMILES IDX 78 66 51 67 38 68 39 69 44 70 40 71 41 72 43 73 45 74 42 75
REMARK SMILES IDX 64 76 65 77 70 78 66 79 67 80 69 81 71 82 68 83 52 84 53 85
REMARK SMILES IDX 58 86 54 87 55 88 57 89 59 90 56 91
REMARK H PARENT 88 29 76 53 50 64
REMARK Flexibility Score: inf
ROOT
ATOM      1  C   UNL A   1      32.610  28.834  26.580  1.00  0.00     0.202 C 
ENDROOT
BRANCH   1   2
ATOM      2  C   UNL A   1      33.634  29.257  25.521  1.00  0.00     0.261 C 
BRANCH   2   3
ATOM      3  O   UNL A   1      33.907  28.232  24.548  1.00  0.00    -0.462 OA
BRANCH   3   4
ATOM      4  C   UNL A   1      33.638  28.565  23.259  1.00  0.00     0.325 C 
ATOM      5  O   UNL A   1      33.703  29.704  22.801  1.00  0.00    -0.250 OA
BRANCH   4   6
ATOM      6  C   UNL A   1      33.380  27.371  22.343  1.00  0.00     0.242 C 
BRANCH   6   7
ATOM      7  N   UNL A   1      32.036  26.806  22.201  1.00  0.00    -0.331 N 
ATOM      8  C   UNL A   1      32.925  21.790  26.279  1.00  0.00     0.253 C 
ATOM      9  O   UNL A   1      33.356  21.947  27.419  1.00  0.00    -0.269 OA
ATOM     10  N   UNL A   1      32.242  22.793  25.603  1.00  0.00    -0.339 N 
ATOM     11  C   UNL A   1      32.578  24.170  25.901  1.00  0.00     0.120 C 
ATOM     12  C   UNL A   1      31.028  22.586  24.825  1.00  0.00     0.120 C 
ATOM     13  C   UNL A   1      32.769  24.920  24.584  1.00  0.00     0.030 C 
ATOM     14  C   UNL A   1      31.077  23.358  23.508  1.00  0.00     0.030 C 
ATOM     15  C   UNL A   1      31.524  24.839  23.659  1.00  0.00    -0.008 C 
ATOM     16  C   UNL A   1      30.353  25.689  24.228  1.00  0.00     0.019 C 
ATOM     17  C   UNL A   1      31.876  25.366  22.239  1.00  0.00     0.127 C 
ATOM     18  C   UNL A   1      30.608  27.188  24.106  1.00  0.00     0.101 C 
ATOM     19  C   UNL A   1      30.943  27.515  22.671  1.00  0.00     0.223 C 
ATOM     20  O   UNL A   1      30.278  28.286  21.998  1.00  0.00    -0.275 OA
BRANCH   8  21
ATOM     21  C   UNL A   1      33.305  20.556  25.533  1.00  0.00     0.043 A 
ATOM     22  C   UNL A   1      34.527  16.701  24.001  1.00  0.00     0.048 C 
ATOM     23  C   UNL A   1      34.070  18.042  24.498  1.00  0.00    -0.009 A 
ATOM     24  C   UNL A   1      35.005  19.075  24.625  1.00  0.00     0.008 A 
ATOM     25  C   UNL A   1      32.750  18.289  24.899  1.00  0.00     0.119 A 
ATOM     26  C   UNL A   1      34.631  20.311  25.156  1.00  0.00     0.014 A 
ATOM     27  C   UNL A   1      32.364  19.533  25.398  1.00  0.00     0.060 A 
BRANCH  25  28
ATOM     28  O   UNL A   1      31.779  17.328  24.863  1.00  0.00    -0.508 OA
ATOM     29  H   UNL A   1      31.728  16.741  24.135  1.00  0.00     0.293 HD
ENDBRANCH  25  28
ENDBRANCH   8  21
ENDBRANCH   6   7
ENDBRANCH   4   6
ENDBRANCH   3   4
ENDBRANCH   2   3
ENDBRANCH   1   2
BRANCH   1  30
ATOM     30  O   UNL A   1      31.755  29.865  27.075  1.00  0.00    -0.374 OA
BRANCH  30  31
ATOM     31  C   UNL A   1      31.618  31.047  26.278  1.00  0.00     0.202 C 
BRANCH  31  32
ATOM     32  C   UNL A   1      31.490  32.357  27.055  1.00  0.00     0.261 C 
BRANCH  32  33
ATOM     33  O   UNL A   1      32.668  33.152  26.863  1.00  0.00    -0.460 OA
BRANCH  33  34
ATOM     34  C   UNL A   1      33.215  33.647  27.984  1.00  0.00     0.338 C 
ATOM     35  O   UNL A   1      32.734  34.459  28.760  1.00  0.00    -0.246 OA
BRANCH  34  36
ATOM     36  C   UNL A   1      34.477  32.935  28.236  1.00  0.00     0.060 A 
ATOM     37  C   UNL A   1      34.439  31.547  28.402  1.00  0.00     0.016 A 
ATOM     38  C   UNL A   1      35.660  33.648  28.435  1.00  0.00     0.016 A 
ATOM     39  C   UNL A   1      35.578  30.872  28.841  1.00  0.00     0.010 A 
ATOM     40  C   UNL A   1      36.801  32.969  28.875  1.00  0.00     0.010 A 
ATOM     41  C   UNL A   1      36.752  31.584  29.126  1.00  0.00    -0.014 A 
BRANCH  41  42
ATOM     42  C   UNL A   1      37.869  30.917  29.841  1.00  0.00     0.031 A 
ATOM     43  C   UNL A   1      38.113  31.253  31.288  1.00  0.00     0.074 A 
ATOM     44  C   UNL A   1      38.645  30.007  29.227  1.00  0.00     0.049 A 
ATOM     45  N   UNL A   1      39.050  30.823  32.094  1.00  0.00    -0.248 NA
ATOM     46  C   UNL A   1      37.172  32.199  31.911  1.00  0.00     0.031 C 
ATOM     47  C   UNL A   1      38.494  29.560  27.844  1.00  0.00     0.029 A 
ATOM     48  N   UNL A   1      39.726  29.300  29.694  1.00  0.00    -0.354 N 
ATOM     49  C   UNL A   1      38.816  31.447  33.312  1.00  0.00     0.074 A 
ATOM     50  C   UNL A   1      37.663  32.302  33.137  1.00  0.00     0.031 C 
ATOM     51  C   UNL A   1      39.456  28.663  27.570  1.00  0.00     0.029 A 
ATOM     52  C   UNL A   1      40.308  28.494  28.747  1.00  0.00     0.049 A 
ATOM     53  H   UNL A   1      40.054  29.366  30.620  1.00  0.00     0.167 HD
ATOM     54  C   UNL A   1      39.495  31.316  34.477  1.00  0.00     0.037 A 
ATOM     55  C   UNL A   1      41.411  27.724  28.816  1.00  0.00     0.037 A 
ATOM     56  C   UNL A   1      40.640  30.465  34.663  1.00  0.00     0.049 A 
ATOM     57  C   UNL A   1      42.191  27.646  30.103  1.00  0.00     0.074 A 
ATOM     58  C   UNL A   1      41.384  30.258  35.813  1.00  0.00     0.029 A 
ATOM     59  N   UNL A   1      41.211  29.683  33.671  1.00  0.00    -0.354 N 
ATOM     60  N   UNL A   1      41.947  28.226  31.253  1.00  0.00    -0.248 NA
ATOM     61  C   UNL A   1      43.398  26.807  30.100  1.00  0.00     0.031 C 
ATOM     62  C   UNL A   1      42.426  29.378  35.507  1.00  0.00     0.029 A 
ATOM     63  C   UNL A   1      42.309  29.009  34.177  1.00  0.00     0.049 A 
ATOM     64  H   UNL A   1      40.884  29.618  32.744  1.00  0.00     0.167 HD
ATOM     65  C   UNL A   1      42.950  27.799  32.115  1.00  0.00     0.074 A 
ATOM     66  C   UNL A   1      43.806  26.910  31.357  1.00  0.00     0.031 C 
ATOM     67  C   UNL A   1      43.141  28.112  33.419  1.00  0.00     0.037 A 
BRANCH  54  68
ATOM     68  C   UNL A   1      39.028  32.128  35.644  1.00  0.00     0.057 A 
ATOM     69  C   UNL A   1      39.389  33.473  35.799  1.00  0.00     0.134 A 
ATOM     70  C   UNL A   1      38.169  31.573  36.602  1.00  0.00     0.134 A 
ATOM     71  F   UNL A   1      40.219  34.058  34.922  1.00  0.00    -0.206 F 
ATOM     72  C   UNL A   1      38.924  34.233  36.872  1.00  0.00     0.040 A 
ATOM     73  C   UNL A   1      37.681  32.328  37.668  1.00  0.00     0.040 A 
ATOM     74  F   UNL A   1      37.781  30.292  36.507  1.00  0.00    -0.206 F 
ATOM     75  C   UNL A   1      38.062  33.661  37.808  1.00  0.00     0.006 A 
ENDBRANCH  54  68
BRANCH  55  76
ATOM     76  C   UNL A   1      41.864  26.970  27.622  1.00  0.00     0.057 A 
ATOM     77  C   UNL A   1      41.540  25.620  27.449  1.00  0.00     0.134 A 
ATOM     78  C   UNL A   1      42.650  27.578  26.636  1.00  0.00     0.134 A 
ATOM     79  F   UNL A   1      40.811  24.977  28.374  1.00  0.00    -0.206 F 
ATOM     80  C   UNL A   1      41.993  24.896  26.346  1.00  0.00     0.040 A 
ATOM     81  C   UNL A   1      43.093  26.872  25.518  1.00  0.00     0.040 A 
ATOM     82  F   UNL A   1      42.996  28.869  26.746  1.00  0.00    -0.206 F 
ATOM     83  C   UNL A   1      42.769  25.524  25.374  1.00  0.00     0.006 A 
ENDBRANCH  55  76
BRANCH  67  84
ATOM     84  C   UNL A   1      44.291  27.463  34.129  1.00  0.00     0.057 A 
ATOM     85  C   UNL A   1      45.540  28.085  34.233  1.00  0.00     0.134 A 
ATOM     86  C   UNL A   1      44.124  26.230  34.772  1.00  0.00     0.134 A 
ATOM     87  F   UNL A   1      45.767  29.261  33.630  1.00  0.00    -0.206 F 
ATOM     88  C   UNL A   1      46.589  27.496  34.943  1.00  0.00     0.040 A 
ATOM     89  C   UNL A   1      45.157  25.641  35.501  1.00  0.00     0.040 A 
ATOM     90  F   UNL A   1      42.946  25.587  34.717  1.00  0.00    -0.206 F 
ATOM     91  C   UNL A   1      46.395  26.275  35.587  1.00  0.00     0.006 A 
ENDBRANCH  67  84
ENDBRANCH  41  42
ENDBRANCH  34  36
ENDBRANCH  33  34
ENDBRANCH  32  33
ENDBRANCH  31  32
ENDBRANCH  30  31
ENDBRANCH   1  30
TORSDOF 17
ENDMDL
MODEL 3
REMARK VINA RESULT:     -12.0      2.697      8.569
REMARK SMILES Cc1ccc(C(=O)N2CCC3(CCC(=O)N(CC(=O)OCCOCCOC(=O)c4ccc(-c5c6nc(c(-c7c(F)cccc7F)c7ccc([nH]7)c(-c7c(F)cccc7F)c7nc(c(-c8c(F)cccc8F)c8ccc5[nH]8)C=C7)C=C6)cc4)C3)CC2)cc1O
REMARK SMILES IDX 22 1 21 2 20 3 18 4 19 5 17 6 16 7 6 8 7 9 8 10 9 11 85 12
REMARK SMILES IDX 10 13 84 14 11 15 12 16 83 17 13 18 14 19 15 20 5 21 1 22
REMARK SMILES IDX 2 23 3 24 87 25 4 26 86 27 88 28 23 30 24 31 25 32 26 33
REMARK SMILES IDX 27 34 28 35 29 36 30 37 82 38 31 39 81 40 32 41 33 42 34 43
REMARK SMILES IDX 75 44 35 45 80 46 74 47 76 48 36 49 79 50 73 51 72 52 37 54
REMARK SMILES IDX 63 55 46 56 62 57 47 58 50 59 61 60 77 61 48 62 49 63 60 65
REMARK SMILES IDX 78 66 51 67 38 68 39 69 44 70 40 71 41 72 43 73 45 74 42 75
REMARK SMILES IDX 64 76 65 77 70 78 66 79 67 80 69 81 71 82 68 83 52 84 53 85
REMARK SMILES IDX 58 86 54 87 55 88 57 89 59 90 56 91
REMARK H PARENT 88 29 76 53 50 64
REMARK Flexibility Score: inf
ROOT
ATOM      1  C   UNL A   1      40.428  19.911  26.117  1.00  0.00     0.202 C 
ENDROOT
BRANCH   1   2
ATOM      2  C   UNL A   1      39.484  21.119  26.086  1.00  0.00     0.261 C 
BRANCH   2   3
ATOM      3  O   UNL A   1      38.264  20.874  25.361  1.00  0.00    -0.462 OA
BRANCH   3   4
ATOM      4  C   UNL A   1      37.390  21.912  25.324  1.00  0.00     0.325 C 
ATOM      5  O   UNL A   1      37.619  23.037  25.761  1.00  0.00    -0.250 OA
BRANCH   4   6
ATOM      6  C   UNL A   1      36.108  21.624  24.546  1.00  0.00     0.242 C 
BRANCH   6   7
ATOM      7  N   UNL A   1      34.830  21.443  25.237  1.00  0.00    -0.331 N 
ATOM      8  C   UNL A   1      31.725  26.391  22.329  1.00  0.00     0.253 C 
ATOM      9  O   UNL A   1      31.696  26.511  21.106  1.00  0.00    -0.269 OA
ATOM     10  N   UNL A   1      31.884  25.157  22.945  1.00  0.00    -0.339 N 
ATOM     11  C   UNL A   1      32.650  24.139  22.253  1.00  0.00     0.120 C 
ATOM     12  C   UNL A   1      31.118  24.705  24.099  1.00  0.00     0.120 C 
ATOM     13  C   UNL A   1      33.651  23.534  23.234  1.00  0.00     0.030 C 
ATOM     14  C   UNL A   1      32.016  24.008  25.120  1.00  0.00     0.030 C 
ATOM     15  C   UNL A   1      32.974  22.951  24.504  1.00  0.00    -0.008 C 
ATOM     16  C   UNL A   1      32.184  21.654  24.167  1.00  0.00     0.019 C 
ATOM     17  C   UNL A   1      34.047  22.615  25.578  1.00  0.00     0.127 C 
ATOM     18  C   UNL A   1      33.102  20.476  23.860  1.00  0.00     0.101 C 
ATOM     19  C   UNL A   1      34.079  20.303  24.998  1.00  0.00     0.223 C 
ATOM     20  O   UNL A   1      34.149  19.279  25.658  1.00  0.00    -0.275 OA
BRANCH   8  21
ATOM     21  C   UNL A   1      31.776  27.622  23.169  1.00  0.00     0.043 A 
ATOM     22  C   UNL A   1      31.783  30.765  26.139  1.00  0.00     0.048 C 
ATOM     23  C   UNL A   1      31.817  29.696  25.085  1.00  0.00    -0.009 A 
ATOM     24  C   UNL A   1      30.649  29.411  24.368  1.00  0.00     0.008 A 
ATOM     25  C   UNL A   1      32.959  28.926  24.828  1.00  0.00     0.119 A 
ATOM     26  C   UNL A   1      30.624  28.371  23.436  1.00  0.00     0.014 A 
ATOM     27  C   UNL A   1      32.948  27.909  23.873  1.00  0.00     0.060 A 
BRANCH  25  28
ATOM     28  O   UNL A   1      34.129  29.093  25.514  1.00  0.00    -0.508 OA
ATOM     29  H   UNL A   1      34.784  28.425  25.493  1.00  0.00     0.293 HD
ENDBRANCH  25  28
ENDBRANCH   8  21
ENDBRANCH   6   7
ENDBRANCH   4   6
ENDBRANCH   3   4
ENDBRANCH   2   3
ENDBRANCH   1   2
BRANCH   1  30
ATOM     30  O   UNL A   1      41.817  20.195  25.947  1.00  0.00    -0.374 OA
BRANCH  30  31
ATOM     31  C   UNL A   1      42.192  21.564  25.757  1.00  0.00     0.202 C 
BRANCH  31  32
ATOM     32  C   UNL A   1      43.660  21.805  25.408  1.00  0.00     0.261 C 
BRANCH  32  33
ATOM     33  O   UNL A   1      44.187  22.858  26.226  1.00  0.00    -0.460 OA
BRANCH  33  34
ATOM     34  C   UNL A   1      44.277  24.057  25.630  1.00  0.00     0.338 C 
ATOM     35  O   UNL A   1      44.828  24.332  24.574  1.00  0.00    -0.246 OA
BRANCH  34  36
ATOM     36  C   UNL A   1      43.460  25.014  26.392  1.00  0.00     0.060 A 
ATOM     37  C   UNL A   1      43.868  26.351  26.437  1.00  0.00     0.016 A 
ATOM     38  C   UNL A   1      42.382  24.567  27.156  1.00  0.00     0.016 A 
ATOM     39  C   UNL A   1      43.235  27.237  27.311  1.00  0.00     0.010 A 
ATOM     40  C   UNL A   1      41.749  25.457  28.031  1.00  0.00     0.010 A 
ATOM     41  C   UNL A   1      42.204  26.784  28.147  1.00  0.00    -0.014 A 
BRANCH  41  42
ATOM     42  C   UNL A   1      41.717  27.645  29.254  1.00  0.00     0.031 A 
ATOM     43  C   UNL A   1      42.416  27.585  30.587  1.00  0.00     0.074 A 
ATOM     44  C   UNL A   1      40.684  28.487  29.081  1.00  0.00     0.049 A 
ATOM     45  N   UNL A   1      42.138  28.214  31.699  1.00  0.00    -0.248 NA
ATOM     46  C   UNL A   1      43.588  26.696  30.674  1.00  0.00     0.031 C 
ATOM     47  C   UNL A   1      39.945  28.674  27.834  1.00  0.00     0.029 A 
ATOM     48  N   UNL A   1      40.073  29.340  29.966  1.00  0.00    -0.354 N 
ATOM     49  C   UNL A   1      43.093  27.797  32.618  1.00  0.00     0.074 A 
ATOM     50  C   UNL A   1      43.945  26.844  31.942  1.00  0.00     0.031 C 
ATOM     51  C   UNL A   1      38.969  29.576  28.039  1.00  0.00     0.029 A 
ATOM     52  C   UNL A   1      38.998  30.008  29.435  1.00  0.00     0.049 A 
ATOM     53  H   UNL A   1      40.377  29.460  30.895  1.00  0.00     0.167 HD
ATOM     54  C   UNL A   1      43.252  28.178  33.908  1.00  0.00     0.037 A 
ATOM     55  C   UNL A   1      38.125  30.856  30.014  1.00  0.00     0.037 A 
ATOM     56  C   UNL A   1      42.413  29.128  34.588  1.00  0.00     0.049 A 
ATOM     57  C   UNL A   1      38.281  31.213  31.470  1.00  0.00     0.074 A 
ATOM     58  C   UNL A   1      42.509  29.585  35.892  1.00  0.00     0.029 A 
ATOM     59  N   UNL A   1      41.321  29.764  34.020  1.00  0.00    -0.354 N 
ATOM     60  N   UNL A   1      39.199  30.826  32.321  1.00  0.00    -0.248 NA
ATOM     61  C   UNL A   1      37.279  32.123  32.043  1.00  0.00     0.031 C 
ATOM     62  C   UNL A   1      41.452  30.471  36.123  1.00  0.00     0.029 A 
ATOM     63  C   UNL A   1      40.721  30.593  34.953  1.00  0.00     0.049 A 
ATOM     64  H   UNL A   1      41.016  29.642  33.092  1.00  0.00     0.167 HD
ATOM     65  C   UNL A   1      38.904  31.468  33.518  1.00  0.00     0.074 A 
ATOM     66  C   UNL A   1      37.721  32.270  33.285  1.00  0.00     0.031 C 
ATOM     67  C   UNL A   1      39.557  31.401  34.703  1.00  0.00     0.037 A 
BRANCH  54  68
ATOM     68  C   UNL A   1      44.371  27.550  34.680  1.00  0.00     0.057 A 
ATOM     69  C   UNL A   1      44.204  26.341  35.367  1.00  0.00     0.134 A 
ATOM     70  C   UNL A   1      45.642  28.139  34.700  1.00  0.00     0.134 A 
ATOM     71  F   UNL A   1      43.008  25.735  35.395  1.00  0.00    -0.206 F 
ATOM     72  C   UNL A   1      45.260  25.745  36.058  1.00  0.00     0.040 A 
ATOM     73  C   UNL A   1      46.710  27.543  35.371  1.00  0.00     0.040 A 
ATOM     74  F   UNL A   1      45.867  29.295  34.057  1.00  0.00    -0.206 F 
ATOM     75  C   UNL A   1      46.519  26.344  36.056  1.00  0.00     0.006 A 
ENDBRANCH  54  68
BRANCH  55  76
ATOM     76  C   UNL A   1      37.005  31.420  29.223  1.00  0.00     0.057 A 
ATOM     77  C   UNL A   1      37.052  32.728  28.729  1.00  0.00     0.134 A 
ATOM     78  C   UNL A   1      35.852  30.671  28.962  1.00  0.00     0.134 A 
ATOM     79  F   UNL A   1      38.120  33.503  28.969  1.00  0.00    -0.206 F 
ATOM     80  C   UNL A   1      35.986  33.277  28.015  1.00  0.00     0.040 A 
ATOM     81  C   UNL A   1      34.787  31.199  28.232  1.00  0.00     0.040 A 
ATOM     82  F   UNL A   1      35.746  29.412  29.412  1.00  0.00    -0.206 F 
ATOM     83  C   UNL A   1      34.851  32.510  27.761  1.00  0.00     0.006 A 
ENDBRANCH  55  76
BRANCH  67  84
ATOM     84  C   UNL A   1      39.042  32.245  35.830  1.00  0.00     0.057 A 
ATOM     85  C   UNL A   1      38.203  31.722  36.819  1.00  0.00     0.134 A 
ATOM     86  C   UNL A   1      39.445  33.580  35.959  1.00  0.00     0.134 A 
ATOM     87  F   UNL A   1      37.773  30.454  36.746  1.00  0.00    -0.206 F 
ATOM     88  C   UNL A   1      37.772  32.502  37.895  1.00  0.00     0.040 A 
ATOM     89  C   UNL A   1      39.038  34.364  37.039  1.00  0.00     0.040 A 
ATOM     90  F   UNL A   1      40.256  34.139  35.047  1.00  0.00    -0.206 F 
ATOM     91  C   UNL A   1      38.198  33.824  38.011  1.00  0.00     0.006 A 
ENDBRANCH  67  84
ENDBRANCH  41  42
ENDBRANCH  34  36
ENDBRANCH  33  34
ENDBRANCH  32  33
ENDBRANCH  31  32
ENDBRANCH  30  31
ENDBRANCH   1  30
TORSDOF 17
ENDMDL
