MODEL 1
REMARK VINA RESULT:     -10.4      0.000      0.000
REMARK SMILES CCN(C(=O)[C@H]1C=C[C@@H]([NH3+])C1)[C@H](C)CC(=O)OCCOCCOC(=O)c1ccc(-c2c3nc(c(-c4c(F)cccc4F)c4ccc([nH]4)c(-c4c(F)cccc4F)c4nc(c(-c5c(F)cccc5F)c5ccc2[nH]5)C=C4)C=C3)cc1
REMARK SMILES IDX 18 1 17 2 15 3 16 4 14 5 12 6 13 7 3 8 2 9 1 10 4 11 5 12
REMARK SMILES IDX 6 13 7 14 11 15 8 16 9 17 10 18 19 22 20 23 21 24 22 25
REMARK SMILES IDX 23 26 24 27 25 28 26 29 27 30 79 31 28 32 78 33 29 34 30 35
REMARK SMILES IDX 31 36 72 37 32 38 77 39 71 40 73 41 33 42 76 43 70 44 69 45
REMARK SMILES IDX 34 47 60 48 43 49 59 50 44 51 47 52 58 53 74 54 45 55 46 56
REMARK SMILES IDX 57 58 75 59 48 60 35 61 36 62 41 63 37 64 38 65 40 66 42 67
REMARK SMILES IDX 39 68 61 69 62 70 67 71 63 72 64 73 66 74 68 75 65 76 49 77
REMARK SMILES IDX 50 78 55 79 51 80 52 81 54 82 56 83 53 84
REMARK H PARENT 10 19 10 20 10 21 73 46 47 57
REMARK Flexibility Score: inf
ROOT
ATOM      1  C   UNL A   1      38.543  21.947  25.777  1.00  0.00     0.261 C 
ENDROOT
BRANCH   1   2
ATOM      2  O   UNL A   1      37.776  21.368  24.705  1.00  0.00    -0.463 OA
BRANCH   2   3
ATOM      3  C   UNL A   1      36.821  22.142  24.141  1.00  0.00     0.307 C 
ATOM      4  O   UNL A   1      36.925  22.656  23.032  1.00  0.00    -0.252 OA
BRANCH   3   5
ATOM      5  C   UNL A   1      35.621  22.394  25.037  1.00  0.00     0.147 C 
BRANCH   5   6
ATOM      6  C   UNL A   1      34.662  21.226  25.413  1.00  0.00     0.093 C 
ATOM      7  C   UNL A   1      34.236  21.352  26.892  1.00  0.00     0.031 C 
BRANCH   6   8
ATOM      8  N   UNL A   1      33.468  21.175  24.483  1.00  0.00    -0.339 N 
BRANCH   8   9
ATOM      9  C   UNL A   1      33.206  22.333  23.617  1.00  0.00     0.116 C 
ATOM     10  C   UNL A   1      32.418  21.933  22.372  1.00  0.00     0.027 C 
ENDBRANCH   8   9
BRANCH   8  11
ATOM     11  C   UNL A   1      32.359  20.402  24.869  1.00  0.00     0.229 C 
ATOM     12  O   UNL A   1      31.399  20.917  25.452  1.00  0.00    -0.274 OA
BRANCH  11  13
ATOM     13  C   UNL A   1      32.331  18.882  24.580  1.00  0.00     0.107 C 
ATOM     14  C   UNL A   1      33.024  18.430  23.329  1.00  0.00    -0.012 C 
ATOM     15  C   UNL A   1      32.955  18.003  25.674  1.00  0.00     0.087 C 
ATOM     16  C   UNL A   1      33.733  17.312  23.536  1.00  0.00     0.033 C 
ATOM     17  C   UNL A   1      33.598  16.817  24.938  1.00  0.00     0.205 C 
BRANCH  17  18
ATOM     18  N   UNL A   1      34.871  16.451  25.528  1.00  0.00    -0.352 N 
ATOM     19  H   UNL A   1      35.360  15.806  24.907  1.00  0.00     0.345 HD
ATOM     20  H   UNL A   1      34.711  16.001  26.429  1.00  0.00     0.345 HD
ATOM     21  H   UNL A   1      35.437  17.289  25.662  1.00  0.00     0.345 HD
ENDBRANCH  17  18
ENDBRANCH  11  13
ENDBRANCH   8  11
ENDBRANCH   6   8
ENDBRANCH   5   6
ENDBRANCH   3   5
ENDBRANCH   2   3
ENDBRANCH   1   2
BRANCH   1  22
ATOM     22  C   UNL A   1      39.786  21.098  26.059  1.00  0.00     0.202 C 
BRANCH  22  23
ATOM     23  O   UNL A   1      41.013  21.821  26.167  1.00  0.00    -0.374 OA
BRANCH  23  24
ATOM     24  C   UNL A   1      42.222  21.066  26.080  1.00  0.00     0.202 C 
BRANCH  24  25
ATOM     25  C   UNL A   1      43.381  21.749  25.346  1.00  0.00     0.261 C 
BRANCH  25  26
ATOM     26  O   UNL A   1      42.974  22.982  24.721  1.00  0.00    -0.460 OA
BRANCH  26  27
ATOM     27  C   UNL A   1      43.773  24.042  24.982  1.00  0.00     0.338 C 
ATOM     28  O   UNL A   1      44.858  24.298  24.474  1.00  0.00    -0.246 OA
BRANCH  27  29
ATOM     29  C   UNL A   1      43.085  24.997  25.871  1.00  0.00     0.060 A 
ATOM     30  C   UNL A   1      43.737  26.205  26.146  1.00  0.00     0.016 A 
ATOM     31  C   UNL A   1      41.869  24.691  26.486  1.00  0.00     0.016 A 
ATOM     32  C   UNL A   1      43.203  27.092  27.078  1.00  0.00     0.010 A 
ATOM     33  C   UNL A   1      41.337  25.579  27.429  1.00  0.00     0.010 A 
ATOM     34  C   UNL A   1      42.021  26.765  27.756  1.00  0.00    -0.014 A 
BRANCH  34  35
ATOM     35  C   UNL A   1      41.593  27.595  28.909  1.00  0.00     0.031 A 
ATOM     36  C   UNL A   1      42.344  27.487  30.207  1.00  0.00     0.074 A 
ATOM     37  C   UNL A   1      40.572  28.463  28.793  1.00  0.00     0.049 A 
ATOM     38  N   UNL A   1      42.139  28.109  31.339  1.00  0.00    -0.248 NA
ATOM     39  C   UNL A   1      43.474  26.547  30.231  1.00  0.00     0.031 C 
ATOM     40  C   UNL A   1      39.783  28.683  27.584  1.00  0.00     0.029 A 
ATOM     41  N   UNL A   1      40.022  29.317  29.717  1.00  0.00    -0.354 N 
ATOM     42  C   UNL A   1      43.111  27.635  32.210  1.00  0.00     0.074 A 
ATOM     43  C   UNL A   1      43.883  26.648  31.486  1.00  0.00     0.031 C 
ATOM     44  C   UNL A   1      38.836  29.600  27.845  1.00  0.00     0.029 A 
ATOM     45  C   UNL A   1      38.939  30.014  29.243  1.00  0.00     0.049 A 
ATOM     46  H   UNL A   1      40.373  29.419  30.632  1.00  0.00     0.167 HD
ATOM     47  C   UNL A   1      43.349  27.997  33.494  1.00  0.00     0.037 A 
ATOM     48  C   UNL A   1      38.113  30.872  29.872  1.00  0.00     0.037 A 
ATOM     49  C   UNL A   1      42.583  28.979  34.216  1.00  0.00     0.049 A 
ATOM     50  C   UNL A   1      38.360  31.220  31.316  1.00  0.00     0.074 A 
ATOM     51  C   UNL A   1      42.765  29.435  35.511  1.00  0.00     0.029 A 
ATOM     52  N   UNL A   1      41.480  29.648  33.708  1.00  0.00    -0.354 N 
ATOM     53  N   UNL A   1      39.307  30.795  32.118  1.00  0.00    -0.248 NA
ATOM     54  C   UNL A   1      37.429  32.173  31.938  1.00  0.00     0.031 C 
ATOM     55  C   UNL A   1      41.743  30.345  35.802  1.00  0.00     0.029 A 
ATOM     56  C   UNL A   1      40.953  30.492  34.673  1.00  0.00     0.049 A 
ATOM     57  H   UNL A   1      41.124  29.540  32.797  1.00  0.00     0.167 HD
ATOM     58  C   UNL A   1      39.097  31.442  33.331  1.00  0.00     0.074 A 
ATOM     59  C   UNL A   1      37.943  32.298  33.155  1.00  0.00     0.031 C 
ATOM     60  C   UNL A   1      39.800  31.336  34.485  1.00  0.00     0.037 A 
BRANCH  47  61
ATOM     61  C   UNL A   1      44.471  27.299  34.206  1.00  0.00     0.057 A 
ATOM     62  C   UNL A   1      44.272  26.105  34.911  1.00  0.00     0.134 A 
ATOM     63  C   UNL A   1      45.770  27.823  34.176  1.00  0.00     0.134 A 
ATOM     64  F   UNL A   1      43.050  25.558  34.992  1.00  0.00    -0.206 F 
ATOM     65  C   UNL A   1      45.318  25.474  35.589  1.00  0.00     0.040 A 
ATOM     66  C   UNL A   1      46.828  27.188  34.827  1.00  0.00     0.040 A 
ATOM     67  F   UNL A   1      46.030  28.960  33.514  1.00  0.00    -0.206 F 
ATOM     68  C   UNL A   1      46.602  26.015  35.544  1.00  0.00     0.006 A 
ENDBRANCH  47  61
BRANCH  48  69
ATOM     69  C   UNL A   1      36.960  31.449  29.139  1.00  0.00     0.057 A 
ATOM     70  C   UNL A   1      36.984  32.761  28.655  1.00  0.00     0.134 A 
ATOM     71  C   UNL A   1      35.802  30.695  28.905  1.00  0.00     0.134 A 
ATOM     72  F   UNL A   1      38.055  33.539  28.868  1.00  0.00    -0.206 F 
ATOM     73  C   UNL A   1      35.897  33.307  27.971  1.00  0.00     0.040 A 
ATOM     74  C   UNL A   1      34.717  31.220  28.204  1.00  0.00     0.040 A 
ATOM     75  F   UNL A   1      35.719  29.430  29.344  1.00  0.00    -0.206 F 
ATOM     76  C   UNL A   1      34.761  32.532  27.738  1.00  0.00     0.006 A 
ENDBRANCH  48  69
BRANCH  60  77
ATOM     77  C   UNL A   1      39.355  32.182  35.644  1.00  0.00     0.057 A 
ATOM     78  C   UNL A   1      38.456  31.703  36.605  1.00  0.00     0.134 A 
ATOM     79  C   UNL A   1      39.864  33.474  35.821  1.00  0.00     0.134 A 
ATOM     80  F   UNL A   1      37.922  30.479  36.487  1.00  0.00    -0.206 F 
ATOM     81  C   UNL A   1      38.065  32.488  37.692  1.00  0.00     0.040 A 
ATOM     82  C   UNL A   1      39.500  34.259  36.917  1.00  0.00     0.040 A 
ATOM     83  F   UNL A   1      40.736  33.991  34.941  1.00  0.00    -0.206 F 
ATOM     84  C   UNL A   1      38.592  33.767  37.853  1.00  0.00     0.006 A 
ENDBRANCH  60  77
ENDBRANCH  34  35
ENDBRANCH  27  29
ENDBRANCH  26  27
ENDBRANCH  25  26
ENDBRANCH  24  25
ENDBRANCH  23  24
ENDBRANCH  22  23
ENDBRANCH   1  22
TORSDOF 20
ENDMDL
MODEL 2
REMARK VINA RESULT:      -9.9      5.803     10.655
REMARK SMILES CCN(C(=O)[C@H]1C=C[C@@H]([NH3+])C1)[C@H](C)CC(=O)OCCOCCOC(=O)c1ccc(-c2c3nc(c(-c4c(F)cccc4F)c4ccc([nH]4)c(-c4c(F)cccc4F)c4nc(c(-c5c(F)cccc5F)c5ccc2[nH]5)C=C4)C=C3)cc1
REMARK SMILES IDX 18 1 17 2 15 3 16 4 14 5 12 6 13 7 3 8 2 9 1 10 4 11 5 12
REMARK SMILES IDX 6 13 7 14 11 15 8 16 9 17 10 18 19 22 20 23 21 24 22 25
REMARK SMILES IDX 23 26 24 27 25 28 26 29 27 30 79 31 28 32 78 33 29 34 30 35
REMARK SMILES IDX 31 36 72 37 32 38 77 39 71 40 73 41 33 42 76 43 70 44 69 45
REMARK SMILES IDX 34 47 60 48 43 49 59 50 44 51 47 52 58 53 74 54 45 55 46 56
REMARK SMILES IDX 57 58 75 59 48 60 35 61 36 62 41 63 37 64 38 65 40 66 42 67
REMARK SMILES IDX 39 68 61 69 62 70 67 71 63 72 64 73 66 74 68 75 65 76 49 77
REMARK SMILES IDX 50 78 55 79 51 80 52 81 54 82 56 83 53 84
REMARK H PARENT 10 19 10 20 10 21 73 46 47 57
REMARK Flexibility Score: inf
ROOT
ATOM      1  C   UNL A   1      33.689  32.421  27.777  1.00  0.00     0.261 C 
ENDROOT
BRANCH   1   2
ATOM      2  O   UNL A   1      33.343  31.051  27.503  1.00  0.00    -0.463 OA
BRANCH   2   3
ATOM      3  C   UNL A   1      32.207  30.827  26.805  1.00  0.00     0.307 C 
ATOM      4  O   UNL A   1      31.408  31.706  26.500  1.00  0.00    -0.252 OA
BRANCH   3   5
ATOM      5  C   UNL A   1      31.952  29.363  26.492  1.00  0.00     0.147 C 
BRANCH   5   6
ATOM      6  C   UNL A   1      32.552  28.717  25.209  1.00  0.00     0.093 C 
ATOM      7  C   UNL A   1      33.594  27.646  25.596  1.00  0.00     0.031 C 
BRANCH   6   8
ATOM      8  N   UNL A   1      31.465  28.154  24.318  1.00  0.00    -0.339 N 
BRANCH   8   9
ATOM      9  C   UNL A   1      31.265  26.698  24.294  1.00  0.00     0.116 C 
ATOM     10  C   UNL A   1      30.196  26.264  25.294  1.00  0.00     0.027 C 
ENDBRANCH   8   9
BRANCH   8  11
ATOM     11  C   UNL A   1      31.127  28.863  23.152  1.00  0.00     0.229 C 
ATOM     12  O   UNL A   1      31.976  29.101  22.286  1.00  0.00    -0.274 OA
BRANCH  11  13
ATOM     13  C   UNL A   1      29.681  29.374  22.943  1.00  0.00     0.107 C 
ATOM     14  C   UNL A   1      29.240  30.501  23.828  1.00  0.00    -0.012 C 
ATOM     15  C   UNL A   1      29.373  29.886  21.529  1.00  0.00     0.087 C 
ATOM     16  C   UNL A   1      28.542  31.419  23.146  1.00  0.00     0.033 C 
ATOM     17  C   UNL A   1      28.371  31.037  21.712  1.00  0.00     0.205 C 
BRANCH  17  18
ATOM     18  N   UNL A   1      28.647  32.133  20.803  1.00  0.00    -0.352 N 
ATOM     19  H   UNL A   1      27.936  32.856  20.918  1.00  0.00     0.345 HD
ATOM     20  H   UNL A   1      28.631  31.790  19.843  1.00  0.00     0.345 HD
ATOM     21  H   UNL A   1      29.566  32.523  21.011  1.00  0.00     0.345 HD
ENDBRANCH  17  18
ENDBRANCH  11  13
ENDBRANCH   8  11
ENDBRANCH   6   8
ENDBRANCH   5   6
ENDBRANCH   3   5
ENDBRANCH   2   3
ENDBRANCH   1   2
BRANCH   1  22
ATOM     22  C   UNL A   1      34.463  32.521  29.095  1.00  0.00     0.202 C 
BRANCH  22  23
ATOM     23  O   UNL A   1      34.732  33.846  29.551  1.00  0.00    -0.374 OA
BRANCH  23  24
ATOM     24  C   UNL A   1      34.126  34.246  30.781  1.00  0.00     0.202 C 
BRANCH  24  25
ATOM     25  C   UNL A   1      34.949  33.975  32.046  1.00  0.00     0.261 C 
BRANCH  25  26
ATOM     26  O   UNL A   1      35.091  32.566  32.307  1.00  0.00    -0.460 OA
BRANCH  26  27
ATOM     27  C   UNL A   1      36.183  32.230  33.033  1.00  0.00     0.338 C 
ATOM     28  O   UNL A   1      36.353  32.387  34.236  1.00  0.00    -0.246 OA
BRANCH  27  29
ATOM     29  C   UNL A   1      37.132  31.462  32.206  1.00  0.00     0.060 A 
ATOM     30  C   UNL A   1      38.158  30.778  32.871  1.00  0.00     0.016 A 
ATOM     31  C   UNL A   1      37.074  31.471  30.811  1.00  0.00     0.016 A 
ATOM     32  C   UNL A   1      39.161  30.143  32.143  1.00  0.00     0.010 A 
ATOM     33  C   UNL A   1      38.088  30.838  30.080  1.00  0.00     0.010 A 
ATOM     34  C   UNL A   1      39.154  30.203  30.743  1.00  0.00    -0.014 A 
BRANCH  34  35
ATOM     35  C   UNL A   1      40.344  29.735  29.992  1.00  0.00     0.031 A 
ATOM     36  C   UNL A   1      41.473  30.695  29.734  1.00  0.00     0.074 A 
ATOM     37  C   UNL A   1      40.439  28.460  29.574  1.00  0.00     0.049 A 
ATOM     38  N   UNL A   1      42.598  30.502  29.096  1.00  0.00    -0.248 NA
ATOM     39  C   UNL A   1      41.306  32.056  30.266  1.00  0.00     0.031 C 
ATOM     40  C   UNL A   1      39.429  27.425  29.783  1.00  0.00     0.029 A 
ATOM     41  N   UNL A   1      41.436  27.824  28.877  1.00  0.00    -0.354 N 
ATOM     42  C   UNL A   1      43.272  31.716  29.146  1.00  0.00     0.074 A 
ATOM     43  C   UNL A   1      42.414  32.648  29.846  1.00  0.00     0.031 C 
ATOM     44  C   UNL A   1      39.851  26.285  29.210  1.00  0.00     0.029 A 
ATOM     45  C   UNL A   1      41.147  26.517  28.575  1.00  0.00     0.049 A 
ATOM     46  H   UNL A   1      42.278  28.265  28.618  1.00  0.00     0.167 HD
ATOM     47  C   UNL A   1      44.500  32.025  28.663  1.00  0.00     0.037 A 
ATOM     48  C   UNL A   1      41.840  25.616  27.852  1.00  0.00     0.037 A 
ATOM     49  C   UNL A   1      45.354  31.100  27.967  1.00  0.00     0.049 A 
ATOM     50  C   UNL A   1      43.178  25.995  27.276  1.00  0.00     0.074 A 
ATOM     51  C   UNL A   1      46.628  31.311  27.466  1.00  0.00     0.029 A 
ATOM     52  N   UNL A   1      45.017  29.790  27.662  1.00  0.00    -0.354 N 
ATOM     53  N   UNL A   1      43.823  27.134  27.363  1.00  0.00    -0.248 NA
ATOM     54  C   UNL A   1      43.889  24.962  26.509  1.00  0.00     0.031 C 
ATOM     55  C   UNL A   1      47.041  30.142  26.816  1.00  0.00     0.029 A 
ATOM     56  C   UNL A   1      46.046  29.189  26.954  1.00  0.00     0.049 A 
ATOM     57  H   UNL A   1      44.172  29.352  27.912  1.00  0.00     0.167 HD
ATOM     58  C   UNL A   1      45.019  26.948  26.681  1.00  0.00     0.074 A 
ATOM     59  C   UNL A   1      45.018  25.584  26.197  1.00  0.00     0.031 C 
ATOM     60  C   UNL A   1      46.029  27.829  26.475  1.00  0.00     0.037 A 
BRANCH  47  61
ATOM     61  C   UNL A   1      44.973  33.436  28.850  1.00  0.00     0.057 A 
ATOM     62  C   UNL A   1      45.664  33.841  30.000  1.00  0.00     0.134 A 
ATOM     63  C   UNL A   1      44.742  34.402  27.862  1.00  0.00     0.134 A 
ATOM     64  F   UNL A   1      45.904  32.969  30.991  1.00  0.00    -0.206 F 
ATOM     65  C   UNL A   1      46.081  35.162  30.174  1.00  0.00     0.040 A 
ATOM     66  C   UNL A   1      45.177  35.719  28.013  1.00  0.00     0.040 A 
ATOM     67  F   UNL A   1      44.091  34.081  26.734  1.00  0.00    -0.206 F 
ATOM     68  C   UNL A   1      45.841  36.105  29.176  1.00  0.00     0.006 A 
ENDBRANCH  47  61
BRANCH  48  69
ATOM     69  C   UNL A   1      41.267  24.268  27.617  1.00  0.00     0.057 A 
ATOM     70  C   UNL A   1      40.242  24.062  26.689  1.00  0.00     0.134 A 
ATOM     71  C   UNL A   1      41.739  23.150  28.319  1.00  0.00     0.134 A 
ATOM     72  F   UNL A   1      39.734  25.097  26.003  1.00  0.00    -0.206 F 
ATOM     73  C   UNL A   1      39.698  22.795  26.471  1.00  0.00     0.040 A 
ATOM     74  C   UNL A   1      41.220  21.876  28.095  1.00  0.00     0.040 A 
ATOM     75  F   UNL A   1      42.721  23.284  29.221  1.00  0.00    -0.206 F 
ATOM     76  C   UNL A   1      40.193  21.695  27.171  1.00  0.00     0.006 A 
ENDBRANCH  48  69
BRANCH  60  77
ATOM     77  C   UNL A   1      47.227  27.341  25.712  1.00  0.00     0.057 A 
ATOM     78  C   UNL A   1      47.350  27.531  24.330  1.00  0.00     0.134 A 
ATOM     79  C   UNL A   1      48.288  26.711  26.376  1.00  0.00     0.134 A 
ATOM     80  F   UNL A   1      46.365  28.116  23.634  1.00  0.00    -0.206 F 
ATOM     81  C   UNL A   1      48.477  27.093  23.632  1.00  0.00     0.040 A 
ATOM     82  C   UNL A   1      49.430  26.291  25.693  1.00  0.00     0.040 A 
ATOM     83  F   UNL A   1      48.237  26.505  27.701  1.00  0.00    -0.206 F 
ATOM     84  C   UNL A   1      49.524  26.478  24.314  1.00  0.00     0.006 A 
ENDBRANCH  60  77
ENDBRANCH  34  35
ENDBRANCH  27  29
ENDBRANCH  26  27
ENDBRANCH  25  26
ENDBRANCH  24  25
ENDBRANCH  23  24
ENDBRANCH  22  23
ENDBRANCH   1  22
TORSDOF 20
ENDMDL
MODEL 3
REMARK VINA RESULT:      -9.9      5.190     10.012
REMARK SMILES CCN(C(=O)[C@H]1C=C[C@@H]([NH3+])C1)[C@H](C)CC(=O)OCCOCCOC(=O)c1ccc(-c2c3nc(c(-c4c(F)cccc4F)c4ccc([nH]4)c(-c4c(F)cccc4F)c4nc(c(-c5c(F)cccc5F)c5ccc2[nH]5)C=C4)C=C3)cc1
REMARK SMILES IDX 18 1 17 2 15 3 16 4 14 5 12 6 13 7 3 8 2 9 1 10 4 11 5 12
REMARK SMILES IDX 6 13 7 14 11 15 8 16 9 17 10 18 19 22 20 23 21 24 22 25
REMARK SMILES IDX 23 26 24 27 25 28 26 29 27 30 79 31 28 32 78 33 29 34 30 35
REMARK SMILES IDX 31 36 72 37 32 38 77 39 71 40 73 41 33 42 76 43 70 44 69 45
REMARK SMILES IDX 34 47 60 48 43 49 59 50 44 51 47 52 58 53 74 54 45 55 46 56
REMARK SMILES IDX 57 58 75 59 48 60 35 61 36 62 41 63 37 64 38 65 40 66 42 67
REMARK SMILES IDX 39 68 61 69 62 70 67 71 63 72 64 73 66 74 68 75 65 76 49 77
REMARK SMILES IDX 50 78 55 79 51 80 52 81 54 82 56 83 53 84
REMARK H PARENT 10 19 10 20 10 21 73 46 47 57
REMARK Flexibility Score: inf
ROOT
ATOM      1  C   UNL A   1      33.539  32.764  27.845  1.00  0.00     0.261 C 
ENDROOT
BRANCH   1   2
ATOM      2  O   UNL A   1      33.369  31.363  27.562  1.00  0.00    -0.463 OA
BRANCH   2   3
ATOM      3  C   UNL A   1      32.254  30.999  26.888  1.00  0.00     0.307 C 
ATOM      4  O   UNL A   1      31.431  31.794  26.449  1.00  0.00    -0.252 OA
BRANCH   3   5
ATOM      5  C   UNL A   1      32.059  29.496  26.785  1.00  0.00     0.147 C 
BRANCH   5   6
ATOM      6  C   UNL A   1      32.741  28.691  25.640  1.00  0.00     0.093 C 
ATOM      7  C   UNL A   1      34.064  28.077  26.145  1.00  0.00     0.031 C 
BRANCH   6   8
ATOM      8  N   UNL A   1      31.808  27.640  25.076  1.00  0.00    -0.339 N 
BRANCH   8   9
ATOM      9  C   UNL A   1      30.636  28.085  24.308  1.00  0.00     0.116 C 
ATOM     10  C   UNL A   1      30.799  27.793  22.819  1.00  0.00     0.027 C 
ENDBRANCH   8   9
BRANCH   8  11
ATOM     11  C   UNL A   1      31.697  26.416  25.758  1.00  0.00     0.229 C 
ATOM     12  O   UNL A   1      31.064  26.334  26.815  1.00  0.00    -0.274 OA
BRANCH  11  13
ATOM     13  C   UNL A   1      32.384  25.148  25.196  1.00  0.00     0.107 C 
ATOM     14  C   UNL A   1      33.056  25.290  23.863  1.00  0.00    -0.012 C 
ATOM     15  C   UNL A   1      33.484  24.557  26.091  1.00  0.00     0.087 C 
ATOM     16  C   UNL A   1      34.241  24.666  23.840  1.00  0.00     0.033 C 
ATOM     17  C   UNL A   1      34.534  23.975  25.131  1.00  0.00     0.205 C 
BRANCH  17  18
ATOM     18  N   UNL A   1      35.882  24.221  25.605  1.00  0.00    -0.352 N 
ATOM     19  H   UNL A   1      36.024  23.737  26.492  1.00  0.00     0.345 HD
ATOM     20  H   UNL A   1      36.019  25.222  25.738  1.00  0.00     0.345 HD
ATOM     21  H   UNL A   1      36.551  23.874  24.918  1.00  0.00     0.345 HD
ENDBRANCH  17  18
ENDBRANCH  11  13
ENDBRANCH   8  11
ENDBRANCH   6   8
ENDBRANCH   5   6
ENDBRANCH   3   5
ENDBRANCH   2   3
ENDBRANCH   1   2
BRANCH   1  22
ATOM     22  C   UNL A   1      35.022  33.092  28.037  1.00  0.00     0.202 C 
BRANCH  22  23
ATOM     23  O   UNL A   1      35.349  33.781  29.244  1.00  0.00    -0.374 OA
BRANCH  23  24
ATOM     24  C   UNL A   1      34.276  34.058  30.146  1.00  0.00     0.202 C 
BRANCH  24  25
ATOM     25  C   UNL A   1      34.579  33.824  31.630  1.00  0.00     0.261 C 
BRANCH  25  26
ATOM     26  O   UNL A   1      34.766  32.428  31.931  1.00  0.00    -0.460 OA
BRANCH  26  27
ATOM     27  C   UNL A   1      35.830  32.154  32.722  1.00  0.00     0.338 C 
ATOM     28  O   UNL A   1      35.942  32.381  33.920  1.00  0.00    -0.246 OA
BRANCH  27  29
ATOM     29  C   UNL A   1      36.828  31.361  31.982  1.00  0.00     0.060 A 
ATOM     30  C   UNL A   1      37.933  30.885  32.700  1.00  0.00     0.016 A 
ATOM     31  C   UNL A   1      36.735  31.152  30.604  1.00  0.00     0.016 A 
ATOM     32  C   UNL A   1      38.975  30.242  32.035  1.00  0.00     0.010 A 
ATOM     33  C   UNL A   1      37.787  30.513  29.936  1.00  0.00     0.010 A 
ATOM     34  C   UNL A   1      38.927  30.088  30.644  1.00  0.00    -0.014 A 
BRANCH  34  35
ATOM     35  C   UNL A   1      40.138  29.624  29.924  1.00  0.00     0.031 A 
ATOM     36  C   UNL A   1      41.272  30.585  29.702  1.00  0.00     0.074 A 
ATOM     37  C   UNL A   1      40.245  28.351  29.503  1.00  0.00     0.049 A 
ATOM     38  N   UNL A   1      42.416  30.396  29.095  1.00  0.00    -0.248 NA
ATOM     39  C   UNL A   1      41.090  31.944  30.235  1.00  0.00     0.031 C 
ATOM     40  C   UNL A   1      39.230  27.315  29.679  1.00  0.00     0.029 A 
ATOM     41  N   UNL A   1      41.262  27.719  28.831  1.00  0.00    -0.354 N 
ATOM     42  C   UNL A   1      43.086  31.610  29.169  1.00  0.00     0.074 A 
ATOM     43  C   UNL A   1      42.209  32.538  29.850  1.00  0.00     0.031 C 
ATOM     44  C   UNL A   1      39.668  26.177  29.113  1.00  0.00     0.029 A 
ATOM     45  C   UNL A   1      40.981  26.412  28.516  1.00  0.00     0.049 A 
ATOM     46  H   UNL A   1      42.110  28.161  28.599  1.00  0.00     0.167 HD
ATOM     47  C   UNL A   1      44.327  31.922  28.723  1.00  0.00     0.037 A 
ATOM     48  C   UNL A   1      41.696  25.516  27.809  1.00  0.00     0.037 A 
ATOM     49  C   UNL A   1      45.202  31.000  28.047  1.00  0.00     0.049 A 
ATOM     50  C   UNL A   1      43.049  25.898  27.272  1.00  0.00     0.074 A 
ATOM     51  C   UNL A   1      46.489  31.214  27.583  1.00  0.00     0.029 A 
ATOM     52  N   UNL A   1      44.874  29.692  27.727  1.00  0.00    -0.354 N 
ATOM     53  N   UNL A   1      43.691  27.037  27.383  1.00  0.00    -0.248 NA
ATOM     54  C   UNL A   1      43.782  24.868  26.521  1.00  0.00     0.031 C 
ATOM     55  C   UNL A   1      46.921  30.049  26.940  1.00  0.00     0.029 A 
ATOM     56  C   UNL A   1      45.923  29.094  27.046  1.00  0.00     0.049 A 
ATOM     57  H   UNL A   1      44.023  29.252  27.951  1.00  0.00     0.167 HD
ATOM     58  C   UNL A   1      44.906  26.855  26.733  1.00  0.00     0.074 A 
ATOM     59  C   UNL A   1      44.919  25.492  26.244  1.00  0.00     0.031 C 
ATOM     60  C   UNL A   1      45.920  27.737  26.560  1.00  0.00     0.037 A 
BRANCH  47  61
ATOM     61  C   UNL A   1      44.794  33.333  28.930  1.00  0.00     0.057 A 
ATOM     62  C   UNL A   1      44.496  34.354  28.017  1.00  0.00     0.134 A 
ATOM     63  C   UNL A   1      45.544  33.677  30.062  1.00  0.00     0.134 A 
ATOM     64  F   UNL A   1      43.795  34.088  26.905  1.00  0.00    -0.206 F 
ATOM     65  C   UNL A   1      44.955  35.659  28.207  1.00  0.00     0.040 A 
ATOM     66  C   UNL A   1      45.985  34.983  30.276  1.00  0.00     0.040 A 
ATOM     67  F   UNL A   1      45.860  32.748  30.977  1.00  0.00    -0.206 F 
ATOM     68  C   UNL A   1      45.698  35.977  29.342  1.00  0.00     0.006 A 
ENDBRANCH  47  61
BRANCH  48  69
ATOM     69  C   UNL A   1      41.131  24.168  27.552  1.00  0.00     0.057 A 
ATOM     70  C   UNL A   1      41.605  23.037  28.223  1.00  0.00     0.134 A 
ATOM     71  C   UNL A   1      40.097  23.983  26.624  1.00  0.00     0.134 A 
ATOM     72  F   UNL A   1      42.609  23.147  29.106  1.00  0.00    -0.206 F 
ATOM     73  C   UNL A   1      41.079  21.768  27.978  1.00  0.00     0.040 A 
ATOM     74  C   UNL A   1      39.547  22.725  26.385  1.00  0.00     0.040 A 
ATOM     75  F   UNL A   1      39.599  25.030  25.949  1.00  0.00    -0.206 F 
ATOM     76  C   UNL A   1      40.040  21.610  27.060  1.00  0.00     0.006 A 
ENDBRANCH  48  69
BRANCH  60  77
ATOM     77  C   UNL A   1      47.139  27.252  25.829  1.00  0.00     0.057 A 
ATOM     78  C   UNL A   1      47.328  27.499  24.464  1.00  0.00     0.134 A 
ATOM     79  C   UNL A   1      48.155  26.567  26.509  1.00  0.00     0.134 A 
ATOM     80  F   UNL A   1      46.389  28.139  23.752  1.00  0.00    -0.206 F 
ATOM     81  C   UNL A   1      48.476  27.065  23.796  1.00  0.00     0.040 A 
ATOM     82  C   UNL A   1      49.317  26.150  25.859  1.00  0.00     0.040 A 
ATOM     83  F   UNL A   1      48.041  26.305  27.820  1.00  0.00    -0.206 F 
ATOM     84  C   UNL A   1      49.477  26.394  24.496  1.00  0.00     0.006 A 
ENDBRANCH  60  77
ENDBRANCH  34  35
ENDBRANCH  27  29
ENDBRANCH  26  27
ENDBRANCH  25  26
ENDBRANCH  24  25
ENDBRANCH  23  24
ENDBRANCH  22  23
ENDBRANCH   1  22
TORSDOF 20
ENDMDL
