MODEL 1
REMARK VINA RESULT:     -13.2      0.000      0.000
REMARK SMILES Cc1ccc(S(=O)(=O)n2cc(C(=O)C(=O)N[C@@H](Cc3c[nH]c4ccccc34)C(=O)OCCOCCOC(=O)c3ccc(-c4c5nc(c(-c6c(F)cccc6F)c6ccc([nH]6)c(-c6c(F)cccc6F)c6nc(c(-c7c(F)cccc7F)c7ccc4[nH]7)C=C6)C=C5)cc3)c3ccccc32)cc1
REMARK SMILES IDX 31 1 30 2 28 3 29 4 17 5 16 6 14 7 15 8 12 10 13 11 11 12
REMARK SMILES IDX 9 13 10 14 98 15 93 16 97 17 94 18 96 19 95 20 6 21 7 22
REMARK SMILES IDX 8 23 5 24 1 25 2 26 3 27 100 28 4 29 99 30 18 31 19 32 20 33
REMARK SMILES IDX 27 34 21 35 22 36 26 37 23 39 25 40 24 41 32 42 33 43 34 44
REMARK SMILES IDX 35 45 36 46 37 47 38 48 39 49 40 50 92 51 41 52 91 53 42 54
REMARK SMILES IDX 43 55 44 56 85 57 45 58 90 59 84 60 86 61 46 62 89 63 83 64
REMARK SMILES IDX 82 65 47 67 73 68 56 69 72 70 57 71 60 72 71 73 87 74 58 75
REMARK SMILES IDX 59 76 70 78 88 79 61 80 48 81 49 82 54 83 50 84 51 85 53 86
REMARK SMILES IDX 55 87 52 88 74 89 75 90 80 91 76 92 77 93 79 94 81 95 78 96
REMARK SMILES IDX 62 97 63 98 68 99 64 100 65 101 67 102 69 103 66 104
REMARK H PARENT 16 9 21 38 86 66 60 77
REMARK Flexibility Score: inf
ROOT
ATOM      1  C   UNL A   1      31.884  29.345  27.146  1.00  0.00     0.261 C 
ENDROOT
BRANCH   1   2
ATOM      2  O   UNL A   1      31.413  28.046  26.786  1.00  0.00    -0.462 OA
BRANCH   2   3
ATOM      3  C   UNL A   1      32.283  27.180  26.195  1.00  0.00     0.329 C 
ATOM      4  O   UNL A   1      33.491  27.326  26.106  1.00  0.00    -0.250 OA
BRANCH   3   5
ATOM      5  C   UNL A   1      31.486  26.027  25.570  1.00  0.00     0.197 C 
BRANCH   5   6
ATOM      6  N   UNL A   1      31.191  25.023  26.621  1.00  0.00    -0.335 N 
ATOM      7  C   UNL A   1      31.450  23.666  26.619  1.00  0.00     0.293 C 
ATOM      8  O   UNL A   1      31.303  22.977  27.609  1.00  0.00    -0.265 OA
ATOM      9  H   UNL A   1      30.750  25.371  27.429  1.00  0.00     0.164 HD
BRANCH   7  10
ATOM     10  C   UNL A   1      31.993  23.046  25.341  1.00  0.00     0.252 C 
ATOM     11  O   UNL A   1      31.316  23.206  24.330  1.00  0.00    -0.283 OA
BRANCH  10  12
ATOM     12  C   UNL A   1      33.151  22.164  25.369  1.00  0.00     0.054 A 
ATOM     13  N   UNL A   1      35.138  21.179  25.729  1.00  0.00    -0.240 N 
ATOM     14  C   UNL A   1      34.390  22.322  25.990  1.00  0.00     0.117 A 
ATOM     15  C   UNL A   1      34.269  20.215  25.199  1.00  0.00     0.065 A 
ATOM     16  C   UNL A   1      33.200  20.926  24.666  1.00  0.00     0.012 A 
ATOM     17  C   UNL A   1      34.463  18.853  24.911  1.00  0.00     0.028 A 
ATOM     18  C   UNL A   1      32.411  20.320  23.667  1.00  0.00     0.011 A 
ATOM     19  C   UNL A   1      33.699  18.288  23.891  1.00  0.00     0.002 A 
ATOM     20  C   UNL A   1      32.716  19.025  23.243  1.00  0.00     0.001 A 
BRANCH  13  21
ATOM     21  S   UNL A   1      36.683  21.182  24.922  1.00  0.00     0.268 S 
ATOM     22  O   UNL A   1      36.477  22.066  23.787  1.00  0.00    -0.201 OA
ATOM     23  O   UNL A   1      36.957  19.764  24.739  1.00  0.00    -0.201 OA
BRANCH  21  24
ATOM     24  C   UNL A   1      38.141  21.751  25.716  1.00  0.00     0.088 A 
ATOM     25  C   UNL A   1      41.942  22.264  27.682  1.00  0.00     0.044 C 
ATOM     26  C   UNL A   1      40.628  22.132  26.968  1.00  0.00    -0.051 A 
ATOM     27  C   UNL A   1      40.327  20.899  26.406  1.00  0.00     0.005 A 
ATOM     28  C   UNL A   1      39.680  23.174  26.889  1.00  0.00     0.005 A 
ATOM     29  C   UNL A   1      39.106  20.721  25.781  1.00  0.00     0.022 A 
ATOM     30  C   UNL A   1      38.424  22.992  26.263  1.00  0.00     0.022 A 
ENDBRANCH  21  24
ENDBRANCH  13  21
ENDBRANCH  10  12
ENDBRANCH   7  10
ENDBRANCH   5   6
BRANCH   5  31
ATOM     31  C   UNL A   1      30.196  26.567  24.904  1.00  0.00     0.074 C 
BRANCH  31  32
ATOM     32  C   UNL A   1      30.423  27.505  23.746  1.00  0.00    -0.020 A 
ATOM     33  C   UNL A   1      31.634  27.719  23.116  1.00  0.00     0.087 A 
ATOM     34  C   UNL A   1      29.477  28.384  23.117  1.00  0.00     0.003 A 
ATOM     35  N   UNL A   1      31.487  28.751  22.230  1.00  0.00    -0.361 N 
ATOM     36  C   UNL A   1      30.191  29.208  22.247  1.00  0.00     0.046 A 
ATOM     37  C   UNL A   1      28.091  28.605  23.247  1.00  0.00     0.010 A 
ATOM     38  H   UNL A   1      32.206  29.112  21.662  1.00  0.00     0.166 HD
ATOM     39  C   UNL A   1      29.608  30.286  21.569  1.00  0.00     0.026 A 
ATOM     40  C   UNL A   1      27.498  29.696  22.604  1.00  0.00     0.001 A 
ATOM     41  C   UNL A   1      28.251  30.532  21.787  1.00  0.00     0.002 A 
ENDBRANCH  31  32
ENDBRANCH   5  31
ENDBRANCH   3   5
ENDBRANCH   2   3
ENDBRANCH   1   2
BRANCH   1  42
ATOM     42  C   UNL A   1      31.607  30.267  25.978  1.00  0.00     0.202 C 
BRANCH  42  43
ATOM     43  O   UNL A   1      31.615  31.601  26.471  1.00  0.00    -0.374 OA
BRANCH  43  44
ATOM     44  C   UNL A   1      32.625  31.867  27.442  1.00  0.00     0.202 C 
BRANCH  44  45
ATOM     45  C   UNL A   1      32.913  33.363  27.635  1.00  0.00     0.261 C 
BRANCH  45  46
ATOM     46  O   UNL A   1      34.208  33.515  28.246  1.00  0.00    -0.460 OA
BRANCH  46  47
ATOM     47  C   UNL A   1      34.192  33.880  29.554  1.00  0.00     0.338 C 
ATOM     48  O   UNL A   1      33.303  34.511  30.105  1.00  0.00    -0.246 OA
BRANCH  47  49
ATOM     49  C   UNL A   1      35.539  33.656  30.153  1.00  0.00     0.060 A 
ATOM     50  C   UNL A   1      36.682  34.020  29.422  1.00  0.00     0.016 A 
ATOM     51  C   UNL A   1      35.665  32.843  31.280  1.00  0.00     0.016 A 
ATOM     52  C   UNL A   1      37.925  33.463  29.742  1.00  0.00     0.010 A 
ATOM     53  C   UNL A   1      36.882  32.246  31.552  1.00  0.00     0.010 A 
ATOM     54  C   UNL A   1      38.009  32.517  30.761  1.00  0.00    -0.014 A 
BRANCH  54  55
ATOM     55  C   UNL A   1      39.162  31.646  31.002  1.00  0.00     0.031 A 
ATOM     56  C   UNL A   1      39.289  30.356  30.279  1.00  0.00     0.074 A 
ATOM     57  C   UNL A   1      40.240  32.129  31.668  1.00  0.00     0.049 A 
ATOM     58  N   UNL A   1      40.231  29.502  30.505  1.00  0.00    -0.248 NA
ATOM     59  C   UNL A   1      38.351  29.883  29.259  1.00  0.00     0.031 C 
ATOM     60  C   UNL A   1      41.621  31.653  31.585  1.00  0.00     0.029 A 
ATOM     61  N   UNL A   1      40.295  33.097  32.687  1.00  0.00    -0.354 N 
ATOM     62  C   UNL A   1      40.274  28.654  29.431  1.00  0.00     0.074 A 
ATOM     63  C   UNL A   1      38.998  28.811  28.784  1.00  0.00     0.031 C 
ATOM     64  C   UNL A   1      42.281  32.033  32.688  1.00  0.00     0.029 A 
ATOM     65  C   UNL A   1      41.308  32.660  33.562  1.00  0.00     0.049 A 
ATOM     66  H   UNL A   1      39.744  33.909  32.770  1.00  0.00     0.167 HD
ATOM     67  C   UNL A   1      41.457  28.051  29.128  1.00  0.00     0.037 A 
ATOM     68  C   UNL A   1      41.070  32.335  34.859  1.00  0.00     0.037 A 
ATOM     69  C   UNL A   1      42.413  28.158  30.238  1.00  0.00     0.049 A 
ATOM     70  C   UNL A   1      41.543  30.946  35.144  1.00  0.00     0.074 A 
ATOM     71  C   UNL A   1      43.649  28.758  30.399  1.00  0.00     0.029 A 
ATOM     72  N   UNL A   1      42.003  27.763  31.515  1.00  0.00    -0.354 N 
ATOM     73  N   UNL A   1      41.617  30.037  34.208  1.00  0.00    -0.248 NA
ATOM     74  C   UNL A   1      42.087  30.494  36.418  1.00  0.00     0.031 C 
ATOM     75  C   UNL A   1      43.919  28.822  31.798  1.00  0.00     0.029 A 
ATOM     76  C   UNL A   1      42.877  28.211  32.483  1.00  0.00     0.049 A 
ATOM     77  H   UNL A   1      41.194  27.233  31.701  1.00  0.00     0.167 HD
ATOM     78  C   UNL A   1      42.290  28.957  34.689  1.00  0.00     0.074 A 
ATOM     79  C   UNL A   1      42.519  29.262  36.091  1.00  0.00     0.031 C 
ATOM     80  C   UNL A   1      42.657  27.913  33.895  1.00  0.00     0.037 A 
BRANCH  67  81
ATOM     81  C   UNL A   1      41.800  27.495  27.760  1.00  0.00     0.057 A 
ATOM     82  C   UNL A   1      42.142  26.139  27.597  1.00  0.00     0.134 A 
ATOM     83  C   UNL A   1      41.910  28.261  26.579  1.00  0.00     0.134 A 
ATOM     84  F   UNL A   1      42.149  25.295  28.639  1.00  0.00    -0.206 F 
ATOM     85  C   UNL A   1      42.510  25.586  26.359  1.00  0.00     0.040 A 
ATOM     86  C   UNL A   1      42.221  27.712  25.326  1.00  0.00     0.040 A 
ATOM     87  F   UNL A   1      41.789  29.594  26.578  1.00  0.00    -0.206 F 
ATOM     88  C   UNL A   1      42.524  26.367  25.211  1.00  0.00     0.006 A 
ENDBRANCH  67  81
BRANCH  68  89
ATOM     89  C   UNL A   1      39.979  33.132  35.473  1.00  0.00     0.057 A 
ATOM     90  C   UNL A   1      38.743  32.474  35.619  1.00  0.00     0.134 A 
ATOM     91  C   UNL A   1      40.220  34.208  36.331  1.00  0.00     0.134 A 
ATOM     92  F   UNL A   1      38.433  31.467  34.790  1.00  0.00    -0.206 F 
ATOM     93  C   UNL A   1      37.870  32.749  36.674  1.00  0.00     0.040 A 
ATOM     94  C   UNL A   1      39.333  34.518  37.376  1.00  0.00     0.040 A 
ATOM     95  F   UNL A   1      41.373  34.889  36.264  1.00  0.00    -0.206 F 
ATOM     96  C   UNL A   1      38.185  33.753  37.582  1.00  0.00     0.006 A 
ENDBRANCH  68  89
BRANCH  80  97
ATOM     97  C   UNL A   1      42.899  26.525  34.418  1.00  0.00     0.057 A 
ATOM     98  C   UNL A   1      41.885  25.729  34.978  1.00  0.00     0.134 A 
ATOM     99  C   UNL A   1      44.119  25.863  34.172  1.00  0.00     0.134 A 
ATOM    100  F   UNL A   1      40.643  26.198  35.169  1.00  0.00    -0.206 F 
ATOM    101  C   UNL A   1      42.082  24.386  35.310  1.00  0.00     0.040 A 
ATOM    102  C   UNL A   1      44.310  24.509  34.454  1.00  0.00     0.040 A 
ATOM    103  F   UNL A   1      45.163  26.491  33.611  1.00  0.00    -0.206 F 
ATOM    104  C   UNL A   1      43.292  23.766  35.034  1.00  0.00     0.006 A 
ENDBRANCH  80  97
ENDBRANCH  54  55
ENDBRANCH  47  49
ENDBRANCH  46  47
ENDBRANCH  45  46
ENDBRANCH  44  45
ENDBRANCH  43  44
ENDBRANCH  42  43
ENDBRANCH   1  42
TORSDOF 21
ENDMDL
MODEL 2
REMARK VINA RESULT:     -13.2      1.103      1.713
REMARK SMILES Cc1ccc(S(=O)(=O)n2cc(C(=O)C(=O)N[C@@H](Cc3c[nH]c4ccccc34)C(=O)OCCOCCOC(=O)c3ccc(-c4c5nc(c(-c6c(F)cccc6F)c6ccc([nH]6)c(-c6c(F)cccc6F)c6nc(c(-c7c(F)cccc7F)c7ccc4[nH]7)C=C6)C=C5)cc3)c3ccccc32)cc1
REMARK SMILES IDX 31 1 30 2 28 3 29 4 17 5 16 6 14 7 15 8 12 10 13 11 11 12
REMARK SMILES IDX 9 13 10 14 98 15 93 16 97 17 94 18 96 19 95 20 6 21 7 22
REMARK SMILES IDX 8 23 5 24 1 25 2 26 3 27 100 28 4 29 99 30 18 31 19 32 20 33
REMARK SMILES IDX 27 34 21 35 22 36 26 37 23 39 25 40 24 41 32 42 33 43 34 44
REMARK SMILES IDX 35 45 36 46 37 47 38 48 39 49 40 50 92 51 41 52 91 53 42 54
REMARK SMILES IDX 43 55 44 56 85 57 45 58 90 59 84 60 86 61 46 62 89 63 83 64
REMARK SMILES IDX 82 65 47 67 73 68 56 69 72 70 57 71 60 72 71 73 87 74 58 75
REMARK SMILES IDX 59 76 70 78 88 79 61 80 48 81 49 82 54 83 50 84 51 85 53 86
REMARK SMILES IDX 55 87 52 88 74 89 75 90 80 91 76 92 77 93 79 94 81 95 78 96
REMARK SMILES IDX 62 97 63 98 68 99 64 100 65 101 67 102 69 103 66 104
REMARK H PARENT 16 9 21 38 86 66 60 77
REMARK Flexibility Score: inf
ROOT
ATOM      1  C   UNL A   1      34.092  28.952  25.640  1.00  0.00     0.261 C 
ENDROOT
BRANCH   1   2
ATOM      2  O   UNL A   1      32.906  28.667  24.900  1.00  0.00    -0.462 OA
BRANCH   2   3
ATOM      3  C   UNL A   1      33.025  28.032  23.700  1.00  0.00     0.329 C 
ATOM      4  O   UNL A   1      33.509  28.504  22.684  1.00  0.00    -0.250 OA
BRANCH   3   5
ATOM      5  C   UNL A   1      32.361  26.652  23.803  1.00  0.00     0.197 C 
BRANCH   5   6
ATOM      6  N   UNL A   1      31.807  26.487  25.168  1.00  0.00    -0.335 N 
ATOM      7  C   UNL A   1      31.569  25.322  25.871  1.00  0.00     0.293 C 
ATOM      8  O   UNL A   1      31.259  25.326  27.045  1.00  0.00    -0.265 OA
ATOM      9  H   UNL A   1      31.576  27.321  25.637  1.00  0.00     0.164 HD
BRANCH   7  10
ATOM     10  C   UNL A   1      31.763  23.999  25.145  1.00  0.00     0.252 C 
ATOM     11  O   UNL A   1      30.776  23.540  24.579  1.00  0.00    -0.283 OA
BRANCH  10  12
ATOM     12  C   UNL A   1      33.002  23.247  25.278  1.00  0.00     0.054 A 
ATOM     13  N   UNL A   1      35.081  22.523  25.734  1.00  0.00    -0.240 N 
ATOM     14  C   UNL A   1      34.226  23.616  25.837  1.00  0.00     0.117 A 
ATOM     15  C   UNL A   1      34.305  21.411  25.378  1.00  0.00     0.065 A 
ATOM     16  C   UNL A   1      33.166  21.927  24.771  1.00  0.00     0.012 A 
ATOM     17  C   UNL A   1      34.629  20.045  25.296  1.00  0.00     0.028 A 
ATOM     18  C   UNL A   1      32.430  21.102  23.895  1.00  0.00     0.011 A 
ATOM     19  C   UNL A   1      33.914  19.261  24.392  1.00  0.00     0.002 A 
ATOM     20  C   UNL A   1      32.857  19.792  23.664  1.00  0.00     0.001 A 
BRANCH  13  21
ATOM     21  S   UNL A   1      36.609  22.550  24.898  1.00  0.00     0.268 S 
ATOM     22  O   UNL A   1      37.121  23.885  25.158  1.00  0.00    -0.201 OA
ATOM     23  O   UNL A   1      36.252  22.123  23.553  1.00  0.00    -0.201 OA
BRANCH  21  24
ATOM     24  C   UNL A   1      37.910  21.448  25.312  1.00  0.00     0.088 A 
ATOM     25  C   UNL A   1      41.552  19.503  26.552  1.00  0.00     0.044 C 
ATOM     26  C   UNL A   1      40.255  20.139  26.144  1.00  0.00    -0.051 A 
ATOM     27  C   UNL A   1      40.080  21.485  26.440  1.00  0.00     0.005 A 
ATOM     28  C   UNL A   1      39.243  19.454  25.439  1.00  0.00     0.005 A 
ATOM     29  C   UNL A   1      38.920  22.120  26.038  1.00  0.00     0.022 A 
ATOM     30  C   UNL A   1      38.060  20.104  25.014  1.00  0.00     0.022 A 
ENDBRANCH  21  24
ENDBRANCH  13  21
ENDBRANCH  10  12
ENDBRANCH   7  10
ENDBRANCH   5   6
BRANCH   5  31
ATOM     31  C   UNL A   1      31.274  26.498  22.711  1.00  0.00     0.074 C 
BRANCH  31  32
ATOM     32  C   UNL A   1      29.931  27.086  23.063  1.00  0.00    -0.020 A 
ATOM     33  C   UNL A   1      28.884  26.396  23.644  1.00  0.00     0.087 A 
ATOM     34  C   UNL A   1      29.455  28.419  22.824  1.00  0.00     0.003 A 
ATOM     35  N   UNL A   1      27.784  27.208  23.660  1.00  0.00    -0.361 N 
ATOM     36  C   UNL A   1      28.092  28.433  23.119  1.00  0.00     0.046 A 
ATOM     37  C   UNL A   1      30.035  29.604  22.325  1.00  0.00     0.010 A 
ATOM     38  H   UNL A   1      26.899  26.952  24.009  1.00  0.00     0.166 HD
ATOM     39  C   UNL A   1      27.269  29.537  22.864  1.00  0.00     0.026 A 
ATOM     40  C   UNL A   1      29.223  30.704  22.033  1.00  0.00     0.001 A 
ATOM     41  C   UNL A   1      27.857  30.665  22.288  1.00  0.00     0.002 A 
ENDBRANCH  31  32
ENDBRANCH   5  31
ENDBRANCH   3   5
ENDBRANCH   2   3
ENDBRANCH   1   2
BRANCH   1  42
ATOM     42  C   UNL A   1      33.719  28.969  27.107  1.00  0.00     0.202 C 
BRANCH  42  43
ATOM     43  O   UNL A   1      34.849  29.429  27.835  1.00  0.00    -0.374 OA
BRANCH  43  44
ATOM     44  C   UNL A   1      35.118  30.822  27.691  1.00  0.00     0.202 C 
BRANCH  44  45
ATOM     45  C   UNL A   1      33.885  31.711  27.911  1.00  0.00     0.261 C 
BRANCH  45  46
ATOM     46  O   UNL A   1      34.311  33.082  28.025  1.00  0.00    -0.460 OA
BRANCH  46  47
ATOM     47  C   UNL A   1      34.291  33.592  29.284  1.00  0.00     0.338 C 
ATOM     48  O   UNL A   1      33.415  34.304  29.749  1.00  0.00    -0.246 OA
BRANCH  47  49
ATOM     49  C   UNL A   1      35.624  33.399  29.923  1.00  0.00     0.060 A 
ATOM     50  C   UNL A   1      36.779  33.803  29.233  1.00  0.00     0.016 A 
ATOM     51  C   UNL A   1      35.738  32.578  31.046  1.00  0.00     0.016 A 
ATOM     52  C   UNL A   1      38.026  33.277  29.587  1.00  0.00     0.010 A 
ATOM     53  C   UNL A   1      36.962  32.012  31.350  1.00  0.00     0.010 A 
ATOM     54  C   UNL A   1      38.105  32.323  30.598  1.00  0.00    -0.014 A 
BRANCH  54  55
ATOM     55  C   UNL A   1      39.274  31.482  30.867  1.00  0.00     0.031 A 
ATOM     56  C   UNL A   1      39.446  30.190  30.158  1.00  0.00     0.074 A 
ATOM     57  C   UNL A   1      40.327  31.996  31.548  1.00  0.00     0.049 A 
ATOM     58  N   UNL A   1      40.403  29.361  30.408  1.00  0.00    -0.248 NA
ATOM     59  C   UNL A   1      38.538  29.687  29.124  1.00  0.00     0.031 C 
ATOM     60  C   UNL A   1      41.721  31.553  31.495  1.00  0.00     0.029 A 
ATOM     61  N   UNL A   1      40.342  32.974  32.560  1.00  0.00    -0.354 N 
ATOM     62  C   UNL A   1      40.486  28.505  29.341  1.00  0.00     0.074 A 
ATOM     63  C   UNL A   1      39.219  28.627  28.670  1.00  0.00     0.031 C 
ATOM     64  C   UNL A   1      42.352  31.958  32.605  1.00  0.00     0.029 A 
ATOM     65  C   UNL A   1      41.348  32.568  33.457  1.00  0.00     0.049 A 
ATOM     66  H   UNL A   1      39.770  33.773  32.627  1.00  0.00     0.167 HD
ATOM     67  C   UNL A   1      41.688  27.929  29.064  1.00  0.00     0.037 A 
ATOM     68  C   UNL A   1      41.094  32.248  34.753  1.00  0.00     0.037 A 
ATOM     69  C   UNL A   1      42.622  28.068  30.190  1.00  0.00     0.049 A 
ATOM     70  C   UNL A   1      41.596  30.872  35.057  1.00  0.00     0.074 A 
ATOM     71  C   UNL A   1      43.840  28.699  30.369  1.00  0.00     0.029 A 
ATOM     72  N   UNL A   1      42.198  27.673  31.464  1.00  0.00    -0.354 N 
ATOM     73  N   UNL A   1      41.708  29.958  34.130  1.00  0.00    -0.248 NA
ATOM     74  C   UNL A   1      42.127  30.444  36.345  1.00  0.00     0.031 C 
ATOM     75  C   UNL A   1      44.083  28.781  31.772  1.00  0.00     0.029 A 
ATOM     76  C   UNL A   1      43.044  28.150  32.443  1.00  0.00     0.049 A 
ATOM     77  H   UNL A   1      41.399  27.126  31.639  1.00  0.00     0.167 HD
ATOM     78  C   UNL A   1      42.399  28.899  34.632  1.00  0.00     0.074 A 
ATOM     79  C   UNL A   1      42.595  29.220  36.035  1.00  0.00     0.031 C 
ATOM     80  C   UNL A   1      42.805  27.858  33.853  1.00  0.00     0.037 A 
BRANCH  67  81
ATOM     81  C   UNL A   1      42.070  27.371  27.708  1.00  0.00     0.057 A 
ATOM     82  C   UNL A   1      41.947  25.996  27.433  1.00  0.00     0.134 A 
ATOM     83  C   UNL A   1      42.658  28.116  26.662  1.00  0.00     0.134 A 
ATOM     84  F   UNL A   1      41.465  25.144  28.350  1.00  0.00    -0.206 F 
ATOM     85  C   UNL A   1      42.327  25.424  26.207  1.00  0.00     0.040 A 
ATOM     86  C   UNL A   1      42.989  27.569  25.414  1.00  0.00     0.040 A 
ATOM     87  F   UNL A   1      43.006  29.400  26.808  1.00  0.00    -0.206 F 
ATOM     88  C   UNL A   1      42.826  26.214  25.181  1.00  0.00     0.006 A 
ENDBRANCH  67  81
BRANCH  68  89
ATOM     89  C   UNL A   1      39.974  33.023  35.340  1.00  0.00     0.057 A 
ATOM     90  C   UNL A   1      38.745  32.346  35.443  1.00  0.00     0.134 A 
ATOM     91  C   UNL A   1      40.173  34.095  36.214  1.00  0.00     0.134 A 
ATOM     92  F   UNL A   1      38.475  31.341  34.596  1.00  0.00    -0.206 F 
ATOM     93  C   UNL A   1      37.836  32.598  36.474  1.00  0.00     0.040 A 
ATOM     94  C   UNL A   1      39.251  34.381  37.234  1.00  0.00     0.040 A 
ATOM     95  F   UNL A   1      41.317  34.793  36.187  1.00  0.00    -0.206 F 
ATOM     96  C   UNL A   1      38.108  33.598  37.399  1.00  0.00     0.006 A 
ENDBRANCH  68  89
BRANCH  80  97
ATOM     97  C   UNL A   1      43.071  26.480  34.392  1.00  0.00     0.057 A 
ATOM     98  C   UNL A   1      44.363  25.940  34.512  1.00  0.00     0.134 A 
ATOM     99  C   UNL A   1      42.047  25.736  35.012  1.00  0.00     0.134 A 
ATOM    100  F   UNL A   1      45.445  26.592  34.061  1.00  0.00    -0.206 F 
ATOM    101  C   UNL A   1      44.614  24.729  35.161  1.00  0.00     0.040 A 
ATOM    102  C   UNL A   1      42.294  24.551  35.707  1.00  0.00     0.040 A 
ATOM    103  F   UNL A   1      40.771  26.149  35.006  1.00  0.00    -0.206 F 
ATOM    104  C   UNL A   1      43.580  24.037  35.777  1.00  0.00     0.006 A 
ENDBRANCH  80  97
ENDBRANCH  54  55
ENDBRANCH  47  49
ENDBRANCH  46  47
ENDBRANCH  45  46
ENDBRANCH  44  45
ENDBRANCH  43  44
ENDBRANCH  42  43
ENDBRANCH   1  42
TORSDOF 21
ENDMDL
MODEL 3
REMARK VINA RESULT:     -13.0      3.549      9.740
REMARK SMILES Cc1ccc(S(=O)(=O)n2cc(C(=O)C(=O)N[C@@H](Cc3c[nH]c4ccccc34)C(=O)OCCOCCOC(=O)c3ccc(-c4c5nc(c(-c6c(F)cccc6F)c6ccc([nH]6)c(-c6c(F)cccc6F)c6nc(c(-c7c(F)cccc7F)c7ccc4[nH]7)C=C6)C=C5)cc3)c3ccccc32)cc1
REMARK SMILES IDX 31 1 30 2 28 3 29 4 17 5 16 6 14 7 15 8 12 10 13 11 11 12
REMARK SMILES IDX 9 13 10 14 98 15 93 16 97 17 94 18 96 19 95 20 6 21 7 22
REMARK SMILES IDX 8 23 5 24 1 25 2 26 3 27 100 28 4 29 99 30 18 31 19 32 20 33
REMARK SMILES IDX 27 34 21 35 22 36 26 37 23 39 25 40 24 41 32 42 33 43 34 44
REMARK SMILES IDX 35 45 36 46 37 47 38 48 39 49 40 50 92 51 41 52 91 53 42 54
REMARK SMILES IDX 43 55 44 56 85 57 45 58 90 59 84 60 86 61 46 62 89 63 83 64
REMARK SMILES IDX 82 65 47 67 73 68 56 69 72 70 57 71 60 72 71 73 87 74 58 75
REMARK SMILES IDX 59 76 70 78 88 79 61 80 48 81 49 82 54 83 50 84 51 85 53 86
REMARK SMILES IDX 55 87 52 88 74 89 75 90 80 91 76 92 77 93 79 94 81 95 78 96
REMARK SMILES IDX 62 97 63 98 68 99 64 100 65 101 67 102 69 103 66 104
REMARK H PARENT 16 9 21 38 86 66 60 77
REMARK Flexibility Score: inf
ROOT
ATOM      1  C   UNL A   1      35.481  23.732  24.200  1.00  0.00     0.261 C 
ENDROOT
BRANCH   1   2
ATOM      2  O   UNL A   1      34.378  22.832  24.309  1.00  0.00    -0.462 OA
BRANCH   2   3
ATOM      3  C   UNL A   1      33.949  22.476  25.552  1.00  0.00     0.329 C 
ATOM      4  O   UNL A   1      34.352  22.934  26.609  1.00  0.00    -0.250 OA
BRANCH   3   5
ATOM      5  C   UNL A   1      32.939  21.329  25.417  1.00  0.00     0.197 C 
BRANCH   5   6
ATOM      6  N   UNL A   1      31.762  21.622  26.271  1.00  0.00    -0.335 N 
ATOM      7  C   UNL A   1      30.816  22.619  26.130  1.00  0.00     0.293 C 
ATOM      8  O   UNL A   1      29.809  22.656  26.808  1.00  0.00    -0.265 OA
ATOM      9  H   UNL A   1      31.640  21.026  27.045  1.00  0.00     0.164 HD
BRANCH   7  10
ATOM     10  C   UNL A   1      31.034  23.660  25.043  1.00  0.00     0.252 C 
ATOM     11  O   UNL A   1      30.708  23.335  23.906  1.00  0.00    -0.283 OA
BRANCH  10  12
ATOM     12  C   UNL A   1      31.756  24.893  25.322  1.00  0.00     0.054 A 
ATOM     13  N   UNL A   1      32.822  26.638  26.255  1.00  0.00    -0.240 N 
ATOM     14  C   UNL A   1      32.127  25.467  26.538  1.00  0.00     0.117 A 
ATOM     15  C   UNL A   1      33.122  26.632  24.886  1.00  0.00     0.065 A 
ATOM     16  C   UNL A   1      32.186  25.788  24.300  1.00  0.00     0.012 A 
ATOM     17  C   UNL A   1      33.932  27.482  24.113  1.00  0.00     0.028 A 
ATOM     18  C   UNL A   1      31.909  25.930  22.925  1.00  0.00     0.011 A 
ATOM     19  C   UNL A   1      33.612  27.637  22.765  1.00  0.00     0.002 A 
ATOM     20  C   UNL A   1      32.582  26.905  22.186  1.00  0.00     0.001 A 
BRANCH  13  21
ATOM     21  S   UNL A   1      32.349  28.219  26.815  1.00  0.00     0.268 S 
ATOM     22  O   UNL A   1      31.614  27.945  28.038  1.00  0.00    -0.201 OA
ATOM     23  O   UNL A   1      31.694  28.794  25.649  1.00  0.00    -0.201 OA
BRANCH  21  24
ATOM     24  C   UNL A   1      33.532  29.446  27.230  1.00  0.00     0.088 A 
ATOM     25  C   UNL A   1      35.772  33.042  28.024  1.00  0.00     0.044 C 
ATOM     26  C   UNL A   1      35.016  31.766  27.793  1.00  0.00    -0.051 A 
ATOM     27  C   UNL A   1      33.646  31.863  27.587  1.00  0.00     0.005 A 
ATOM     28  C   UNL A   1      35.633  30.500  27.725  1.00  0.00     0.005 A 
ATOM     29  C   UNL A   1      32.919  30.717  27.321  1.00  0.00     0.022 A 
ATOM     30  C   UNL A   1      34.896  29.326  27.440  1.00  0.00     0.022 A 
ENDBRANCH  21  24
ENDBRANCH  13  21
ENDBRANCH  10  12
ENDBRANCH   7  10
ENDBRANCH   5   6
BRANCH   5  31
ATOM     31  C   UNL A   1      32.544  21.135  23.932  1.00  0.00     0.074 C 
BRANCH  31  32
ATOM     32  C   UNL A   1      32.649  19.718  23.427  1.00  0.00    -0.020 A 
ATOM     33  C   UNL A   1      31.799  19.134  22.506  1.00  0.00     0.087 A 
ATOM     34  C   UNL A   1      33.579  18.700  23.824  1.00  0.00     0.003 A 
ATOM     35  N   UNL A   1      32.102  17.802  22.419  1.00  0.00    -0.361 N 
ATOM     36  C   UNL A   1      33.153  17.501  23.252  1.00  0.00     0.046 A 
ATOM     37  C   UNL A   1      34.710  18.664  24.667  1.00  0.00     0.010 A 
ATOM     38  H   UNL A   1      31.634  17.155  21.844  1.00  0.00     0.166 HD
ATOM     39  C   UNL A   1      33.745  16.266  23.542  1.00  0.00     0.026 A 
ATOM     40  C   UNL A   1      35.292  17.436  24.994  1.00  0.00     0.001 A 
ATOM     41  C   UNL A   1      34.807  16.252  24.449  1.00  0.00     0.002 A 
ENDBRANCH  31  32
ENDBRANCH   5  31
ENDBRANCH   3   5
ENDBRANCH   2   3
ENDBRANCH   1   2
BRANCH   1  42
ATOM     42  C   UNL A   1      36.696  22.916  23.814  1.00  0.00     0.202 C 
BRANCH  42  43
ATOM     43  O   UNL A   1      37.428  22.643  25.002  1.00  0.00    -0.374 OA
BRANCH  43  44
ATOM     44  C   UNL A   1      37.432  21.272  25.392  1.00  0.00     0.202 C 
BRANCH  44  45
ATOM     45  C   UNL A   1      38.839  20.659  25.466  1.00  0.00     0.261 C 
BRANCH  45  46
ATOM     46  O   UNL A   1      39.751  21.644  25.989  1.00  0.00    -0.460 OA
BRANCH  46  47
ATOM     47  C   UNL A   1      41.016  21.201  26.210  1.00  0.00     0.338 C 
ATOM     48  O   UNL A   1      41.380  20.036  26.165  1.00  0.00    -0.246 OA
BRANCH  47  49
ATOM     49  C   UNL A   1      41.835  22.299  26.798  1.00  0.00     0.060 A 
ATOM     50  C   UNL A   1      41.894  22.437  28.195  1.00  0.00     0.016 A 
ATOM     51  C   UNL A   1      42.292  23.333  25.978  1.00  0.00     0.016 A 
ATOM     52  C   UNL A   1      42.284  23.655  28.762  1.00  0.00     0.010 A 
ATOM     53  C   UNL A   1      42.613  24.553  26.542  1.00  0.00     0.010 A 
ATOM     54  C   UNL A   1      42.570  24.737  27.932  1.00  0.00    -0.014 A 
BRANCH  54  55
ATOM     55  C   UNL A   1      42.696  26.125  28.381  1.00  0.00     0.031 A 
ATOM     56  C   UNL A   1      41.511  27.018  28.395  1.00  0.00     0.074 A 
ATOM     57  C   UNL A   1      43.816  26.520  29.035  1.00  0.00     0.049 A 
ATOM     58  N   UNL A   1      41.566  28.272  28.694  1.00  0.00    -0.248 NA
ATOM     59  C   UNL A   1      40.154  26.597  28.039  1.00  0.00     0.031 C 
ATOM     60  C   UNL A   1      43.951  27.636  29.972  1.00  0.00     0.029 A 
ATOM     61  N   UNL A   1      45.139  26.062  28.891  1.00  0.00    -0.354 N 
ATOM     62  C   UNL A   1      40.290  28.675  28.988  1.00  0.00     0.074 A 
ATOM     63  C   UNL A   1      39.442  27.671  28.401  1.00  0.00     0.031 C 
ATOM     64  C   UNL A   1      45.240  27.999  30.038  1.00  0.00     0.029 A 
ATOM     65  C   UNL A   1      45.948  27.203  29.053  1.00  0.00     0.049 A 
ATOM     66  H   UNL A   1      45.436  25.140  28.715  1.00  0.00     0.167 HD
ATOM     67  C   UNL A   1      40.120  29.722  29.841  1.00  0.00     0.037 A 
ATOM     68  C   UNL A   1      46.757  27.678  28.071  1.00  0.00     0.037 A 
ATOM     69  C   UNL A   1      41.373  30.466  30.033  1.00  0.00     0.049 A 
ATOM     70  C   UNL A   1      46.443  29.112  27.786  1.00  0.00     0.074 A 
ATOM     71  C   UNL A   1      42.194  30.720  31.117  1.00  0.00     0.029 A 
ATOM     72  N   UNL A   1      42.076  30.896  28.903  1.00  0.00    -0.354 N 
ATOM     73  N   UNL A   1      45.259  29.617  28.007  1.00  0.00    -0.248 NA
ATOM     74  C   UNL A   1      47.419  30.113  27.372  1.00  0.00     0.031 C 
ATOM     75  C   UNL A   1      43.441  31.196  30.612  1.00  0.00     0.029 A 
ATOM     76  C   UNL A   1      43.357  31.287  29.229  1.00  0.00     0.049 A 
ATOM     77  H   UNL A   1      41.705  30.916  27.992  1.00  0.00     0.167 HD
ATOM     78  C   UNL A   1      45.323  30.970  27.885  1.00  0.00     0.074 A 
ATOM     79  C   UNL A   1      46.678  31.235  27.434  1.00  0.00     0.031 C 
ATOM     80  C   UNL A   1      44.278  31.781  28.209  1.00  0.00     0.037 A 
BRANCH  67  81
ATOM     81  C   UNL A   1      38.849  29.981  30.625  1.00  0.00     0.057 A 
ATOM     82  C   UNL A   1      38.113  31.166  30.436  1.00  0.00     0.134 A 
ATOM     83  C   UNL A   1      38.349  29.152  31.652  1.00  0.00     0.134 A 
ATOM     84  F   UNL A   1      38.498  32.087  29.540  1.00  0.00    -0.206 F 
ATOM     85  C   UNL A   1      36.954  31.472  31.168  1.00  0.00     0.040 A 
ATOM     86  C   UNL A   1      37.162  29.416  32.351  1.00  0.00     0.040 A 
ATOM     87  F   UNL A   1      39.011  28.072  32.086  1.00  0.00    -0.206 F 
ATOM     88  C   UNL A   1      36.458  30.583  32.112  1.00  0.00     0.006 A 
ENDBRANCH  67  81
BRANCH  68  89
ATOM     89  C   UNL A   1      47.303  26.612  27.194  1.00  0.00     0.057 A 
ATOM     90  C   UNL A   1      46.674  26.461  25.945  1.00  0.00     0.134 A 
ATOM     91  C   UNL A   1      48.620  26.155  27.292  1.00  0.00     0.134 A 
ATOM     92  F   UNL A   1      45.394  26.834  25.804  1.00  0.00    -0.206 F 
ATOM     93  C   UNL A   1      47.367  26.047  24.804  1.00  0.00     0.040 A 
ATOM     94  C   UNL A   1      49.318  25.703  26.159  1.00  0.00     0.040 A 
ATOM     95  F   UNL A   1      49.296  26.263  28.444  1.00  0.00    -0.206 F 
ATOM     96  C   UNL A   1      48.709  25.702  24.904  1.00  0.00     0.006 A 
ENDBRANCH  68  89
BRANCH  80  97
ATOM     97  C   UNL A   1      44.084  33.151  27.622  1.00  0.00     0.057 A 
ATOM     98  C   UNL A   1      43.858  33.373  26.252  1.00  0.00     0.134 A 
ATOM     99  C   UNL A   1      43.900  34.275  28.452  1.00  0.00     0.134 A 
ATOM    100  F   UNL A   1      43.894  32.373  25.360  1.00  0.00    -0.206 F 
ATOM    101  C   UNL A   1      43.519  34.627  25.740  1.00  0.00     0.040 A 
ATOM    102  C   UNL A   1      43.512  35.521  27.957  1.00  0.00     0.040 A 
ATOM    103  F   UNL A   1      44.050  34.201  29.783  1.00  0.00    -0.206 F 
ATOM    104  C   UNL A   1      43.328  35.704  26.595  1.00  0.00     0.006 A 
ENDBRANCH  80  97
ENDBRANCH  54  55
ENDBRANCH  47  49
ENDBRANCH  46  47
ENDBRANCH  45  46
ENDBRANCH  44  45
ENDBRANCH  43  44
ENDBRANCH  42  43
ENDBRANCH   1  42
TORSDOF 21
ENDMDL
