MODEL 1
REMARK VINA RESULT:     -11.7      0.000      0.000
REMARK SMILES O=C(OCCOCCOC(=O)c1cccc(F)c1N1CCN2C(=O)NC[C@@H]2C1)c1ccc(-c2c3nc(c(-c4c(F)cccc4F)c4ccc([nH]4)c(-c4c(F)cccc4F)c4nc(c(-c5c(F)cccc5F)c5ccc2[nH]5)C=C4)C=C3)cc1
REMARK SMILES IDX 5 1 4 2 3 3 2 4 1 5 29 6 30 7 82 8 31 9 81 10 32 11 33 12
REMARK SMILES IDX 34 13 75 14 35 15 80 16 74 17 76 18 36 19 79 20 73 21 72 22
REMARK SMILES IDX 37 24 63 25 46 26 62 27 47 28 50 29 61 30 77 31 48 32 49 33
REMARK SMILES IDX 60 35 78 36 51 37 38 38 39 39 44 40 40 41 41 42 43 43 45 44
REMARK SMILES IDX 42 45 64 46 65 47 70 48 66 49 67 50 69 51 71 52 68 53 52 54
REMARK SMILES IDX 53 55 58 56 54 57 55 58 57 59 59 60 56 61 6 62 7 63 8 64
REMARK SMILES IDX 9 65 10 66 11 67 12 68 13 69 18 70 14 71 16 72 15 73 17 74
REMARK SMILES IDX 19 75 20 76 28 77 21 78 27 79 22 80 26 81 23 82 25 83 24 84
REMARK H PARENT 76 23 50 34 25 85
REMARK Flexibility Score: inf
ROOT
ATOM      1  C   UNL A   1      31.212  31.827  26.582  1.00  0.00     0.202 C 
ENDROOT
BRANCH   1   2
ATOM      2  C   UNL A   1      31.815  33.229  26.524  1.00  0.00     0.261 C 
BRANCH   2   3
ATOM      3  O   UNL A   1      32.145  33.689  27.839  1.00  0.00    -0.460 OA
BRANCH   3   4
ATOM      4  C   UNL A   1      33.322  34.262  28.191  1.00  0.00     0.338 C 
ATOM      5  O   UNL A   1      33.348  35.466  28.438  1.00  0.00    -0.246 OA
BRANCH   4   6
ATOM      6  C   UNL A   1      34.571  33.475  28.456  1.00  0.00     0.060 A 
ATOM      7  C   UNL A   1      35.851  34.006  28.656  1.00  0.00     0.016 A 
ATOM      8  C   UNL A   1      34.386  32.106  28.697  1.00  0.00     0.016 A 
ATOM      9  C   UNL A   1      36.897  33.228  29.141  1.00  0.00     0.010 A 
ATOM     10  C   UNL A   1      35.420  31.325  29.220  1.00  0.00     0.010 A 
ATOM     11  C   UNL A   1      36.666  31.902  29.489  1.00  0.00    -0.014 A 
BRANCH  11  12
ATOM     12  C   UNL A   1      37.720  31.146  30.191  1.00  0.00     0.031 A 
ATOM     13  C   UNL A   1      37.956  31.403  31.641  1.00  0.00     0.074 A 
ATOM     14  C   UNL A   1      38.432  30.226  29.510  1.00  0.00     0.049 A 
ATOM     15  N   UNL A   1      38.918  30.969  32.405  1.00  0.00    -0.248 NA
ATOM     16  C   UNL A   1      36.975  32.265  32.324  1.00  0.00     0.031 C 
ATOM     17  C   UNL A   1      38.203  29.848  28.111  1.00  0.00     0.029 A 
ATOM     18  N   UNL A   1      39.487  29.438  29.893  1.00  0.00    -0.354 N 
ATOM     19  C   UNL A   1      38.672  31.516  33.655  1.00  0.00     0.074 A 
ATOM     20  C   UNL A   1      37.477  32.320  33.551  1.00  0.00     0.031 C 
ATOM     21  C   UNL A   1      39.085  28.899  27.760  1.00  0.00     0.029 A 
ATOM     22  C   UNL A   1      39.991  28.661  28.876  1.00  0.00     0.049 A 
ATOM     23  H   UNL A   1      39.848  29.429  30.809  1.00  0.00     0.167 HD
ATOM     24  C   UNL A   1      39.401  31.356  34.782  1.00  0.00     0.037 A 
ATOM     25  C   UNL A   1      41.094  27.888  28.840  1.00  0.00     0.037 A 
ATOM     26  C   UNL A   1      40.581  30.539  34.850  1.00  0.00     0.049 A 
ATOM     27  C   UNL A   1      41.941  27.815  30.082  1.00  0.00     0.074 A 
ATOM     28  C   UNL A   1      41.414  30.322  35.931  1.00  0.00     0.029 A 
ATOM     29  N   UNL A   1      41.092  29.805  33.788  1.00  0.00    -0.354 N 
ATOM     30  N   UNL A   1      41.728  28.360  31.256  1.00  0.00    -0.248 NA
ATOM     31  C   UNL A   1      43.193  27.050  29.995  1.00  0.00     0.031 C 
ATOM     32  C   UNL A   1      42.463  29.507  35.507  1.00  0.00     0.029 A 
ATOM     33  C   UNL A   1      42.255  29.167  34.178  1.00  0.00     0.049 A 
ATOM     34  H   UNL A   1      40.688  29.748  32.893  1.00  0.00     0.167 HD
ATOM     35  C   UNL A   1      42.807  27.999  32.048  1.00  0.00     0.074 A 
ATOM     36  C   UNL A   1      43.664  27.167  31.229  1.00  0.00     0.031 C 
ATOM     37  C   UNL A   1      43.075  28.335  33.334  1.00  0.00     0.037 A 
BRANCH  24  38
ATOM     38  C   UNL A   1      38.981  32.108  36.004  1.00  0.00     0.057 A 
ATOM     39  C   UNL A   1      38.137  31.505  36.947  1.00  0.00     0.134 A 
ATOM     40  C   UNL A   1      39.347  33.441  36.220  1.00  0.00     0.134 A 
ATOM     41  F   UNL A   1      37.756  30.227  36.799  1.00  0.00    -0.206 F 
ATOM     42  C   UNL A   1      37.652  32.211  38.047  1.00  0.00     0.040 A 
ATOM     43  C   UNL A   1      38.884  34.151  37.330  1.00  0.00     0.040 A 
ATOM     44  F   UNL A   1      40.171  34.067  35.367  1.00  0.00    -0.206 F 
ATOM     45  C   UNL A   1      38.024  33.540  38.240  1.00  0.00     0.006 A 
ENDBRANCH  24  38
BRANCH  25  46
ATOM     46  C   UNL A   1      41.498  27.197  27.585  1.00  0.00     0.057 A 
ATOM     47  C   UNL A   1      42.236  27.857  26.592  1.00  0.00     0.134 A 
ATOM     48  C   UNL A   1      41.175  25.855  27.350  1.00  0.00     0.134 A 
ATOM     49  F   UNL A   1      42.587  29.142  26.748  1.00  0.00    -0.206 F 
ATOM     50  C   UNL A   1      42.624  27.218  25.413  1.00  0.00     0.040 A 
ATOM     51  C   UNL A   1      41.584  25.193  26.189  1.00  0.00     0.040 A 
ATOM     52  F   UNL A   1      40.491  25.155  28.266  1.00  0.00    -0.206 F 
ATOM     53  C   UNL A   1      42.305  25.878  25.212  1.00  0.00     0.006 A 
ENDBRANCH  25  46
BRANCH  37  54
ATOM     54  C   UNL A   1      44.337  27.804  33.939  1.00  0.00     0.057 A 
ATOM     55  C   UNL A   1      45.532  28.528  33.841  1.00  0.00     0.134 A 
ATOM     56  C   UNL A   1      44.393  26.521  34.495  1.00  0.00     0.134 A 
ATOM     57  F   UNL A   1      45.542  29.758  33.305  1.00  0.00    -0.206 F 
ATOM     58  C   UNL A   1      46.748  27.979  34.246  1.00  0.00     0.040 A 
ATOM     59  C   UNL A   1      45.599  25.973  34.928  1.00  0.00     0.040 A 
ATOM     60  F   UNL A   1      43.279  25.786  34.623  1.00  0.00    -0.206 F 
ATOM     61  C   UNL A   1      46.783  26.696  34.788  1.00  0.00     0.006 A 
ENDBRANCH  37  54
ENDBRANCH  11  12
ENDBRANCH   4   6
ENDBRANCH   3   4
ENDBRANCH   2   3
ENDBRANCH   1   2
BRANCH   1  62
ATOM     62  O   UNL A   1      32.187  30.872  26.181  1.00  0.00    -0.374 OA
BRANCH  62  63
ATOM     63  C   UNL A   1      31.811  29.510  26.300  1.00  0.00     0.202 C 
BRANCH  63  64
ATOM     64  C   UNL A   1      32.748  28.740  27.226  1.00  0.00     0.261 C 
BRANCH  64  65
ATOM     65  O   UNL A   1      33.295  27.600  26.542  1.00  0.00    -0.460 OA
BRANCH  65  66
ATOM     66  C   UNL A   1      32.486  26.504  26.397  1.00  0.00     0.340 C 
ATOM     67  O   UNL A   1      31.514  26.238  27.070  1.00  0.00    -0.246 OA
BRANCH  66  68
ATOM     68  C   UNL A   1      32.975  25.758  25.192  1.00  0.00     0.086 A 
ATOM     69  C   UNL A   1      34.164  25.007  25.349  1.00  0.00     0.018 A 
ATOM     70  C   UNL A   1      32.330  25.828  23.930  1.00  0.00     0.088 A 
ATOM     71  C   UNL A   1      34.735  24.332  24.277  1.00  0.00     0.004 A 
ATOM     72  C   UNL A   1      32.942  25.124  22.873  1.00  0.00     0.147 A 
ATOM     73  C   UNL A   1      34.120  24.390  23.035  1.00  0.00     0.041 A 
ATOM     74  F   UNL A   1      32.392  25.155  21.649  1.00  0.00    -0.205 F 
BRANCH  70  75
ATOM     75  N   UNL A   1      31.154  26.552  23.713  1.00  0.00    -0.365 N 
ATOM     76  C   UNL A   1      29.885  25.775  23.790  1.00  0.00     0.138 C 
ATOM     77  C   UNL A   1      31.116  27.568  22.633  1.00  0.00     0.143 C 
ATOM     78  C   UNL A   1      28.640  26.694  23.926  1.00  0.00     0.143 C 
ATOM     79  C   UNL A   1      30.044  28.582  23.042  1.00  0.00     0.125 C 
ATOM     80  N   UNL A   1      28.751  27.941  23.185  1.00  0.00    -0.317 N 
ATOM     81  C   UNL A   1      29.726  29.745  22.110  1.00  0.00     0.144 C 
ATOM     82  C   UNL A   1      27.734  28.850  22.942  1.00  0.00     0.317 C 
ATOM     83  N   UNL A   1      28.324  29.970  22.362  1.00  0.00    -0.336 N 
ATOM     84  O   UNL A   1      26.551  28.728  23.185  1.00  0.00    -0.249 OA
ATOM     85  H   UNL A   1      27.847  30.805  22.151  1.00  0.00     0.165 HD
ENDBRANCH  70  75
ENDBRANCH  66  68
ENDBRANCH  65  66
ENDBRANCH  64  65
ENDBRANCH  63  64
ENDBRANCH  62  63
ENDBRANCH   1  62
TORSDOF 15
ENDMDL
MODEL 2
REMARK VINA RESULT:     -11.6      1.457      6.343
REMARK SMILES O=C(OCCOCCOC(=O)c1cccc(F)c1N1CCN2C(=O)NC[C@@H]2C1)c1ccc(-c2c3nc(c(-c4c(F)cccc4F)c4ccc([nH]4)c(-c4c(F)cccc4F)c4nc(c(-c5c(F)cccc5F)c5ccc2[nH]5)C=C4)C=C3)cc1
REMARK SMILES IDX 5 1 4 2 3 3 2 4 1 5 29 6 30 7 82 8 31 9 81 10 32 11 33 12
REMARK SMILES IDX 34 13 75 14 35 15 80 16 74 17 76 18 36 19 79 20 73 21 72 22
REMARK SMILES IDX 37 24 63 25 46 26 62 27 47 28 50 29 61 30 77 31 48 32 49 33
REMARK SMILES IDX 60 35 78 36 51 37 38 38 39 39 44 40 40 41 41 42 43 43 45 44
REMARK SMILES IDX 42 45 64 46 65 47 70 48 66 49 67 50 69 51 71 52 68 53 52 54
REMARK SMILES IDX 53 55 58 56 54 57 55 58 57 59 59 60 56 61 6 62 7 63 8 64
REMARK SMILES IDX 9 65 10 66 11 67 12 68 13 69 18 70 14 71 16 72 15 73 17 74
REMARK SMILES IDX 19 75 20 76 28 77 21 78 27 79 22 80 26 81 23 82 25 83 24 84
REMARK H PARENT 76 23 50 34 25 85
REMARK Flexibility Score: inf
ROOT
ATOM      1  C   UNL A   1      31.789  31.582  26.866  1.00  0.00     0.202 C 
ENDROOT
BRANCH   1   2
ATOM      2  C   UNL A   1      32.837  32.372  27.647  1.00  0.00     0.261 C 
BRANCH   2   3
ATOM      3  O   UNL A   1      32.532  33.770  27.627  1.00  0.00    -0.460 OA
BRANCH   3   4
ATOM      4  C   UNL A   1      32.997  34.682  28.516  1.00  0.00     0.338 C 
ATOM      5  O   UNL A   1      32.369  35.725  28.683  1.00  0.00    -0.246 OA
BRANCH   4   6
ATOM      6  C   UNL A   1      34.154  34.418  29.433  1.00  0.00     0.060 A 
ATOM      7  C   UNL A   1      34.078  33.848  30.710  1.00  0.00     0.016 A 
ATOM      8  C   UNL A   1      35.426  34.602  28.873  1.00  0.00     0.016 A 
ATOM      9  C   UNL A   1      35.215  33.413  31.383  1.00  0.00     0.010 A 
ATOM     10  C   UNL A   1      36.570  34.133  29.525  1.00  0.00     0.010 A 
ATOM     11  C   UNL A   1      36.457  33.491  30.763  1.00  0.00    -0.014 A 
BRANCH  11  12
ATOM     12  C   UNL A   1      37.621  32.843  31.395  1.00  0.00     0.031 A 
ATOM     13  C   UNL A   1      38.268  31.686  30.712  1.00  0.00     0.074 A 
ATOM     14  C   UNL A   1      38.086  33.326  32.565  1.00  0.00     0.049 A 
ATOM     15  N   UNL A   1      39.193  30.884  31.157  1.00  0.00    -0.248 NA
ATOM     16  C   UNL A   1      37.813  31.392  29.342  1.00  0.00     0.031 C 
ATOM     17  C   UNL A   1      37.566  34.512  33.255  1.00  0.00     0.029 A 
ATOM     18  N   UNL A   1      39.096  32.888  33.382  1.00  0.00    -0.354 N 
ATOM     19  C   UNL A   1      39.422  29.978  30.132  1.00  0.00     0.074 A 
ATOM     20  C   UNL A   1      38.535  30.321  29.044  1.00  0.00     0.031 C 
ATOM     21  C   UNL A   1      38.267  34.708  34.383  1.00  0.00     0.029 A 
ATOM     22  C   UNL A   1      39.223  33.621  34.540  1.00  0.00     0.049 A 
ATOM     23  H   UNL A   1      39.675  32.122  33.162  1.00  0.00     0.167 HD
ATOM     24  C   UNL A   1      40.296  28.948  30.123  1.00  0.00     0.037 A 
ATOM     25  C   UNL A   1      39.992  33.402  35.625  1.00  0.00     0.037 A 
ATOM     26  C   UNL A   1      41.169  28.643  31.223  1.00  0.00     0.049 A 
ATOM     27  C   UNL A   1      40.878  32.185  35.624  1.00  0.00     0.074 A 
ATOM     28  C   UNL A   1      42.079  27.609  31.335  1.00  0.00     0.029 A 
ATOM     29  N   UNL A   1      41.238  29.376  32.400  1.00  0.00    -0.354 N 
ATOM     30  N   UNL A   1      41.069  31.307  34.668  1.00  0.00    -0.248 NA
ATOM     31  C   UNL A   1      41.632  31.905  36.854  1.00  0.00     0.031 C 
ATOM     32  C   UNL A   1      42.654  27.680  32.605  1.00  0.00     0.029 A 
ATOM     33  C   UNL A   1      42.146  28.791  33.263  1.00  0.00     0.049 A 
ATOM     34  H   UNL A   1      40.718  30.190  32.590  1.00  0.00     0.167 HD
ATOM     35  C   UNL A   1      41.968  30.381  35.172  1.00  0.00     0.074 A 
ATOM     36  C   UNL A   1      42.305  30.814  36.513  1.00  0.00     0.031 C 
ATOM     37  C   UNL A   1      42.462  29.262  34.587  1.00  0.00     0.037 A 
BRANCH  24  38
ATOM     38  C   UNL A   1      40.316  28.053  28.925  1.00  0.00     0.057 A 
ATOM     39  C   UNL A   1      39.604  26.846  28.936  1.00  0.00     0.134 A 
ATOM     40  C   UNL A   1      41.085  28.342  27.793  1.00  0.00     0.134 A 
ATOM     41  F   UNL A   1      38.843  26.515  29.990  1.00  0.00    -0.206 F 
ATOM     42  C   UNL A   1      39.678  25.947  27.873  1.00  0.00     0.040 A 
ATOM     43  C   UNL A   1      41.150  27.459  26.714  1.00  0.00     0.040 A 
ATOM     44  F   UNL A   1      41.771  29.493  27.712  1.00  0.00    -0.206 F 
ATOM     45  C   UNL A   1      40.456  26.251  26.758  1.00  0.00     0.006 A 
ENDBRANCH  24  38
BRANCH  25  46
ATOM     46  C   UNL A   1      39.901  34.294  36.813  1.00  0.00     0.057 A 
ATOM     47  C   UNL A   1      40.687  35.451  36.920  1.00  0.00     0.134 A 
ATOM     48  C   UNL A   1      39.014  34.029  37.864  1.00  0.00     0.134 A 
ATOM     49  F   UNL A   1      41.555  35.773  35.951  1.00  0.00    -0.206 F 
ATOM     50  C   UNL A   1      40.607  36.298  38.028  1.00  0.00     0.040 A 
ATOM     51  C   UNL A   1      38.901  34.884  38.963  1.00  0.00     0.040 A 
ATOM     52  F   UNL A   1      38.215  32.953  37.818  1.00  0.00    -0.206 F 
ATOM     53  C   UNL A   1      39.705  36.020  39.051  1.00  0.00     0.006 A 
ENDBRANCH  25  46
BRANCH  37  54
ATOM     54  C   UNL A   1      43.420  28.431  35.383  1.00  0.00     0.057 A 
ATOM     55  C   UNL A   1      42.948  27.457  36.272  1.00  0.00     0.134 A 
ATOM     56  C   UNL A   1      44.795  28.690  35.367  1.00  0.00     0.134 A 
ATOM     57  F   UNL A   1      41.638  27.176  36.342  1.00  0.00    -0.206 F 
ATOM     58  C   UNL A   1      43.809  26.792  37.143  1.00  0.00     0.040 A 
ATOM     59  C   UNL A   1      45.669  28.011  36.214  1.00  0.00     0.040 A 
ATOM     60  F   UNL A   1      45.305  29.604  34.528  1.00  0.00    -0.206 F 
ATOM     61  C   UNL A   1      45.174  27.072  37.117  1.00  0.00     0.006 A 
ENDBRANCH  37  54
ENDBRANCH  11  12
ENDBRANCH   4   6
ENDBRANCH   3   4
ENDBRANCH   2   3
ENDBRANCH   1   2
BRANCH   1  62
ATOM     62  O   UNL A   1      32.158  30.208  26.829  1.00  0.00    -0.374 OA
BRANCH  62  63
ATOM     63  C   UNL A   1      32.380  29.658  25.541  1.00  0.00     0.202 C 
BRANCH  63  64
ATOM     64  C   UNL A   1      33.641  28.800  25.499  1.00  0.00     0.261 C 
BRANCH  64  65
ATOM     65  O   UNL A   1      33.558  27.750  26.476  1.00  0.00    -0.460 OA
BRANCH  65  66
ATOM     66  C   UNL A   1      32.576  26.810  26.311  1.00  0.00     0.340 C 
ATOM     67  O   UNL A   1      31.532  26.751  26.923  1.00  0.00    -0.246 OA
BRANCH  66  68
ATOM     68  C   UNL A   1      32.996  25.937  25.167  1.00  0.00     0.086 A 
ATOM     69  C   UNL A   1      34.177  25.180  25.346  1.00  0.00     0.018 A 
ATOM     70  C   UNL A   1      32.294  25.894  23.933  1.00  0.00     0.088 A 
ATOM     71  C   UNL A   1      34.687  24.390  24.322  1.00  0.00     0.004 A 
ATOM     72  C   UNL A   1      32.845  25.076  22.927  1.00  0.00     0.147 A 
ATOM     73  C   UNL A   1      34.016  24.337  23.110  1.00  0.00     0.041 A 
ATOM     74  F   UNL A   1      32.239  24.996  21.731  1.00  0.00    -0.205 F 
BRANCH  70  75
ATOM     75  N   UNL A   1      31.121  26.618  23.697  1.00  0.00    -0.365 N 
ATOM     76  C   UNL A   1      29.848  25.853  23.807  1.00  0.00     0.138 C 
ATOM     77  C   UNL A   1      31.085  27.596  22.582  1.00  0.00     0.143 C 
ATOM     78  C   UNL A   1      28.610  26.784  23.917  1.00  0.00     0.143 C 
ATOM     79  C   UNL A   1      30.021  28.631  22.961  1.00  0.00     0.125 C 
ATOM     80  N   UNL A   1      28.725  28.004  23.133  1.00  0.00    -0.317 N 
ATOM     81  C   UNL A   1      29.707  29.763  21.990  1.00  0.00     0.144 C 
ATOM     82  C   UNL A   1      27.713  28.911  22.863  1.00  0.00     0.317 C 
ATOM     83  N   UNL A   1      28.307  30.005  22.241  1.00  0.00    -0.336 N 
ATOM     84  O   UNL A   1      26.530  28.805  23.116  1.00  0.00    -0.249 OA
ATOM     85  H   UNL A   1      27.835  30.836  22.003  1.00  0.00     0.165 HD
ENDBRANCH  70  75
ENDBRANCH  66  68
ENDBRANCH  65  66
ENDBRANCH  64  65
ENDBRANCH  63  64
ENDBRANCH  62  63
ENDBRANCH   1  62
TORSDOF 15
ENDMDL
MODEL 3
REMARK VINA RESULT:     -11.5      1.369      2.180
REMARK SMILES O=C(OCCOCCOC(=O)c1cccc(F)c1N1CCN2C(=O)NC[C@@H]2C1)c1ccc(-c2c3nc(c(-c4c(F)cccc4F)c4ccc([nH]4)c(-c4c(F)cccc4F)c4nc(c(-c5c(F)cccc5F)c5ccc2[nH]5)C=C4)C=C3)cc1
REMARK SMILES IDX 5 1 4 2 3 3 2 4 1 5 29 6 30 7 82 8 31 9 81 10 32 11 33 12
REMARK SMILES IDX 34 13 75 14 35 15 80 16 74 17 76 18 36 19 79 20 73 21 72 22
REMARK SMILES IDX 37 24 63 25 46 26 62 27 47 28 50 29 61 30 77 31 48 32 49 33
REMARK SMILES IDX 60 35 78 36 51 37 38 38 39 39 44 40 40 41 41 42 43 43 45 44
REMARK SMILES IDX 42 45 64 46 65 47 70 48 66 49 67 50 69 51 71 52 68 53 52 54
REMARK SMILES IDX 53 55 58 56 54 57 55 58 57 59 59 60 56 61 6 62 7 63 8 64
REMARK SMILES IDX 9 65 10 66 11 67 12 68 13 69 18 70 14 71 16 72 15 73 17 74
REMARK SMILES IDX 19 75 20 76 28 77 21 78 27 79 22 80 26 81 23 82 25 83 24 84
REMARK H PARENT 76 23 50 34 25 85
REMARK Flexibility Score: inf
ROOT
ATOM      1  C   UNL A   1      31.713  31.917  26.872  1.00  0.00     0.202 C 
ENDROOT
BRANCH   1   2
ATOM      2  C   UNL A   1      32.826  32.863  27.318  1.00  0.00     0.261 C 
BRANCH   2   3
ATOM      3  O   UNL A   1      32.283  34.123  27.725  1.00  0.00    -0.460 OA
BRANCH   3   4
ATOM      4  C   UNL A   1      32.884  34.992  28.574  1.00  0.00     0.338 C 
ATOM      5  O   UNL A   1      32.401  36.114  28.717  1.00  0.00    -0.246 OA
BRANCH   4   6
ATOM      6  C   UNL A   1      34.017  34.608  29.477  1.00  0.00     0.060 A 
ATOM      7  C   UNL A   1      33.899  34.116  30.782  1.00  0.00     0.016 A 
ATOM      8  C   UNL A   1      35.286  34.579  28.880  1.00  0.00     0.016 A 
ATOM      9  C   UNL A   1      34.981  33.553  31.451  1.00  0.00     0.010 A 
ATOM     10  C   UNL A   1      36.369  33.981  29.528  1.00  0.00     0.010 A 
ATOM     11  C   UNL A   1      36.202  33.422  30.800  1.00  0.00    -0.014 A 
BRANCH  11  12
ATOM     12  C   UNL A   1      37.280  32.642  31.438  1.00  0.00     0.031 A 
ATOM     13  C   UNL A   1      37.796  33.071  32.770  1.00  0.00     0.074 A 
ATOM     14  C   UNL A   1      37.758  31.549  30.810  1.00  0.00     0.049 A 
ATOM     15  N   UNL A   1      38.828  32.628  33.430  1.00  0.00    -0.248 NA
ATOM     16  C   UNL A   1      37.049  34.142  33.451  1.00  0.00     0.031 C 
ATOM     17  C   UNL A   1      37.245  31.009  29.547  1.00  0.00     0.029 A 
ATOM     18  N   UNL A   1      38.776  30.693  31.143  1.00  0.00    -0.354 N 
ATOM     19  C   UNL A   1      38.868  33.375  34.597  1.00  0.00     0.074 A 
ATOM     20  C   UNL A   1      37.764  34.306  34.556  1.00  0.00     0.031 C 
ATOM     21  C   UNL A   1      37.946  29.912  29.219  1.00  0.00     0.029 A 
ATOM     22  C   UNL A   1      39.006  29.719  30.199  1.00  0.00     0.049 A 
ATOM     23  H   UNL A   1      39.292  30.768  31.979  1.00  0.00     0.167 HD
ATOM     24  C   UNL A   1      39.765  33.283  35.603  1.00  0.00     0.037 A 
ATOM     25  C   UNL A   1      39.998  28.811  30.113  1.00  0.00     0.037 A 
ATOM     26  C   UNL A   1      40.846  32.337  35.614  1.00  0.00     0.049 A 
ATOM     27  C   UNL A   1      41.041  28.805  31.199  1.00  0.00     0.074 A 
ATOM     28  C   UNL A   1      41.831  32.170  36.569  1.00  0.00     0.029 A 
ATOM     29  N   UNL A   1      41.081  31.399  34.618  1.00  0.00    -0.354 N 
ATOM     30  N   UNL A   1      41.099  29.536  32.287  1.00  0.00    -0.248 NA
ATOM     31  C   UNL A   1      42.170  27.879  31.039  1.00  0.00     0.031 C 
ATOM     32  C   UNL A   1      42.698  31.172  36.121  1.00  0.00     0.029 A 
ATOM     33  C   UNL A   1      42.221  30.676  34.915  1.00  0.00     0.049 A 
ATOM     34  H   UNL A   1      40.519  31.268  33.821  1.00  0.00     0.167 HD
ATOM     35  C   UNL A   1      42.258  29.153  32.944  1.00  0.00     0.074 A 
ATOM     36  C   UNL A   1      42.863  28.108  32.145  1.00  0.00     0.031 C 
ATOM     37  C   UNL A   1      42.785  29.632  34.098  1.00  0.00     0.037 A 
BRANCH  24  38
ATOM     38  C   UNL A   1      39.651  34.252  36.738  1.00  0.00     0.057 A 
ATOM     39  C   UNL A   1      40.244  35.517  36.645  1.00  0.00     0.134 A 
ATOM     40  C   UNL A   1      39.021  33.917  37.941  1.00  0.00     0.134 A 
ATOM     41  F   UNL A   1      40.858  35.900  35.515  1.00  0.00    -0.206 F 
ATOM     42  C   UNL A   1      40.238  36.406  37.719  1.00  0.00     0.040 A 
ATOM     43  C   UNL A   1      38.989  34.807  39.016  1.00  0.00     0.040 A 
ATOM     44  F   UNL A   1      38.415  32.729  38.084  1.00  0.00    -0.206 F 
ATOM     45  C   UNL A   1      39.610  36.051  38.912  1.00  0.00     0.006 A 
ENDBRANCH  24  38
BRANCH  25  46
ATOM     46  C   UNL A   1      40.096  27.901  28.940  1.00  0.00     0.057 A 
ATOM     47  C   UNL A   1      40.798  28.272  27.783  1.00  0.00     0.134 A 
ATOM     48  C   UNL A   1      39.511  26.629  28.946  1.00  0.00     0.134 A 
ATOM     49  F   UNL A   1      41.390  29.473  27.705  1.00  0.00    -0.206 F 
ATOM     50  C   UNL A   1      40.901  27.425  26.678  1.00  0.00     0.040 A 
ATOM     51  C   UNL A   1      39.633  25.758  27.860  1.00  0.00     0.040 A 
ATOM     52  F   UNL A   1      38.845  26.198  30.027  1.00  0.00    -0.206 F 
ATOM     53  C   UNL A   1      40.324  26.159  26.717  1.00  0.00     0.006 A 
ENDBRANCH  25  46
BRANCH  37  54
ATOM     54  C   UNL A   1      44.072  29.032  34.571  1.00  0.00     0.057 A 
ATOM     55  C   UNL A   1      44.068  27.944  35.454  1.00  0.00     0.134 A 
ATOM     56  C   UNL A   1      45.305  29.615  34.259  1.00  0.00     0.134 A 
ATOM     57  F   UNL A   1      42.915  27.353  35.801  1.00  0.00    -0.206 F 
ATOM     58  C   UNL A   1      45.245  27.479  36.038  1.00  0.00     0.040 A 
ATOM     59  C   UNL A   1      46.492  29.141  34.815  1.00  0.00     0.040 A 
ATOM     60  F   UNL A   1      45.371  30.652  33.411  1.00  0.00    -0.206 F 
ATOM     61  C   UNL A   1      46.461  28.081  35.720  1.00  0.00     0.006 A 
ENDBRANCH  37  54
ENDBRANCH  11  12
ENDBRANCH   4   6
ENDBRANCH   3   4
ENDBRANCH   2   3
ENDBRANCH   1   2
BRANCH   1  62
ATOM     62  O   UNL A   1      32.202  30.581  26.854  1.00  0.00    -0.374 OA
BRANCH  62  63
ATOM     63  C   UNL A   1      33.532  30.398  27.311  1.00  0.00     0.202 C 
BRANCH  63  64
ATOM     64  C   UNL A   1      33.956  28.934  27.257  1.00  0.00     0.261 C 
BRANCH  64  65
ATOM     65  O   UNL A   1      33.376  28.291  26.110  1.00  0.00    -0.460 OA
BRANCH  65  66
ATOM     66  C   UNL A   1      32.657  27.146  26.325  1.00  0.00     0.340 C 
ATOM     67  O   UNL A   1      31.809  26.982  27.175  1.00  0.00    -0.246 OA
BRANCH  66  68
ATOM     68  C   UNL A   1      33.048  26.177  25.249  1.00  0.00     0.086 A 
ATOM     69  C   UNL A   1      34.238  25.442  25.459  1.00  0.00     0.018 A 
ATOM     70  C   UNL A   1      32.310  26.024  24.046  1.00  0.00     0.088 A 
ATOM     71  C   UNL A   1      34.722  24.567  24.494  1.00  0.00     0.004 A 
ATOM     72  C   UNL A   1      32.836  25.122  23.099  1.00  0.00     0.147 A 
ATOM     73  C   UNL A   1      34.016  24.405  23.311  1.00  0.00     0.041 A 
ATOM     74  F   UNL A   1      32.196  24.937  21.934  1.00  0.00    -0.205 F 
BRANCH  70  75
ATOM     75  N   UNL A   1      31.128  26.722  23.782  1.00  0.00    -0.365 N 
ATOM     76  C   UNL A   1      29.869  25.928  23.865  1.00  0.00     0.138 C 
ATOM     77  C   UNL A   1      31.094  27.697  22.665  1.00  0.00     0.143 C 
ATOM     78  C   UNL A   1      28.608  26.831  23.944  1.00  0.00     0.143 C 
ATOM     79  C   UNL A   1      29.999  28.709  23.017  1.00  0.00     0.125 C 
ATOM     80  N   UNL A   1      28.714  28.052  23.161  1.00  0.00    -0.317 N 
ATOM     81  C   UNL A   1      29.682  29.832  22.038  1.00  0.00     0.144 C 
ATOM     82  C   UNL A   1      27.688  28.936  22.866  1.00  0.00     0.317 C 
ATOM     83  N   UNL A   1      28.272  30.043  22.257  1.00  0.00    -0.336 N 
ATOM     84  O   UNL A   1      26.503  28.804  23.093  1.00  0.00    -0.249 OA
ATOM     85  H   UNL A   1      27.786  30.862  22.007  1.00  0.00     0.165 HD
ENDBRANCH  70  75
ENDBRANCH  66  68
ENDBRANCH  65  66
ENDBRANCH  64  65
ENDBRANCH  63  64
ENDBRANCH  62  63
ENDBRANCH   1  62
TORSDOF 15
ENDMDL
