MODEL 1
REMARK VINA RESULT:      -9.1      0.000      0.000
REMARK SMILES C[N@H+]1CC[C@@H](Cc2nccnc2C(=O)OCCOCCOC(=O)c2ccc(-c3c4nc(c(-c5c(F)cccc5F)c5ccc([nH]5)c(-c5c(F)cccc5F)c5nc(c(-c6c(F)cccc6F)c6ccc3[nH]6)C=C5)C=C4)cc2)C1
REMARK SMILES IDX 18 1 17 2 16 3 15 4 13 5 14 6 12 7 7 8 8 9 9 10 11 11 10 12
REMARK SMILES IDX 6 13 5 14 1 15 2 16 3 17 78 18 4 20 19 21 20 22 21 23 22 24
REMARK SMILES IDX 23 25 24 26 25 27 77 28 26 29 76 30 27 31 28 32 29 33 70 34
REMARK SMILES IDX 30 35 75 36 69 37 71 38 31 39 74 40 68 41 67 42 32 44 58 45
REMARK SMILES IDX 41 46 57 47 42 48 45 49 56 50 72 51 43 52 44 53 55 55 73 56
REMARK SMILES IDX 46 57 33 58 34 59 39 60 35 61 36 62 38 63 40 64 37 65 59 66
REMARK SMILES IDX 60 67 65 68 61 69 62 70 64 71 66 72 63 73 47 74 48 75 53 76
REMARK SMILES IDX 49 77 50 78 52 79 54 80 51 81
REMARK H PARENT 2 19 71 43 45 54
REMARK Flexibility Score: inf
ROOT
ATOM      1  O   UNL A   1      34.083  36.815  32.256  1.00  0.00    -0.374 OA
ENDROOT
BRANCH   1   2
ATOM      2  C   UNL A   1      34.470  35.927  33.305  1.00  0.00     0.202 C 
BRANCH   2   3
ATOM      3  C   UNL A   1      35.655  35.019  32.977  1.00  0.00     0.261 C 
BRANCH   3   4
ATOM      4  O   UNL A   1      36.357  34.695  34.191  1.00  0.00    -0.458 OA
BRANCH   4   5
ATOM      5  C   UNL A   1      36.382  33.386  34.536  1.00  0.00     0.358 C 
ATOM      6  O   UNL A   1      35.876  32.484  33.883  1.00  0.00    -0.244 OA
BRANCH   5   7
ATOM      7  C   UNL A   1      37.234  33.145  35.746  1.00  0.00     0.169 A 
ATOM      8  C   UNL A   1      38.510  32.567  35.776  1.00  0.00     0.074 A 
ATOM      9  N   UNL A   1      39.193  32.476  36.960  1.00  0.00    -0.257 NA
ATOM     10  C   UNL A   1      38.573  32.898  38.080  1.00  0.00     0.131 A 
ATOM     11  N   UNL A   1      36.614  33.552  36.899  1.00  0.00    -0.246 NA
ATOM     12  C   UNL A   1      37.298  33.412  38.051  1.00  0.00     0.132 A 
BRANCH   8  13
ATOM     13  C   UNL A   1      39.281  32.041  34.588  1.00  0.00     0.068 C 
BRANCH  13  14
ATOM     14  C   UNL A   1      39.428  30.503  34.588  1.00  0.00     0.056 C 
ATOM     15  C   UNL A   1      38.266  27.999  32.155  1.00  0.00     0.332 C 
ATOM     16  N   UNL A   1      39.031  28.639  33.213  1.00  0.00    -0.337 N 
ATOM     17  C   UNL A   1      40.314  29.175  32.772  1.00  0.00     0.262 C 
ATOM     18  C   UNL A   1      38.333  29.797  33.774  1.00  0.00     0.266 C 
ATOM     19  H   UNL A   1      39.159  27.887  33.891  1.00  0.00     0.347 HD
ATOM     20  C   UNL A   1      40.745  30.031  33.951  1.00  0.00     0.071 C 
ENDBRANCH  13  14
ENDBRANCH   8  13
ENDBRANCH   5   7
ENDBRANCH   4   5
ENDBRANCH   3   4
ENDBRANCH   2   3
ENDBRANCH   1   2
BRANCH   1  21
ATOM     21  C   UNL A   1      32.900  36.475  31.531  1.00  0.00     0.202 C 
BRANCH  21  22
ATOM     22  C   UNL A   1      33.118  36.067  30.069  1.00  0.00     0.261 C 
BRANCH  22  23
ATOM     23  O   UNL A   1      32.548  34.779  29.770  1.00  0.00    -0.460 OA
BRANCH  23  24
ATOM     24  C   UNL A   1      33.099  34.121  28.721  1.00  0.00     0.338 C 
ATOM     25  O   UNL A   1      32.653  34.010  27.591  1.00  0.00    -0.246 OA
BRANCH  24  26
ATOM     26  C   UNL A   1      34.442  33.659  29.111  1.00  0.00     0.060 A 
ATOM     27  C   UNL A   1      35.555  34.089  28.381  1.00  0.00     0.016 A 
ATOM     28  C   UNL A   1      34.601  32.786  30.184  1.00  0.00     0.016 A 
ATOM     29  C   UNL A   1      36.831  33.631  28.719  1.00  0.00     0.010 A 
ATOM     30  C   UNL A   1      35.881  32.374  30.556  1.00  0.00     0.010 A 
ATOM     31  C   UNL A   1      37.004  32.754  29.800  1.00  0.00    -0.014 A 
BRANCH  31  32
ATOM     32  C   UNL A   1      38.304  32.073  30.049  1.00  0.00     0.031 A 
ATOM     33  C   UNL A   1      39.335  32.787  30.889  1.00  0.00     0.074 A 
ATOM     34  C   UNL A   1      38.588  30.866  29.527  1.00  0.00     0.049 A 
ATOM     35  N   UNL A   1      40.583  32.473  31.126  1.00  0.00    -0.248 NA
ATOM     36  C   UNL A   1      38.905  34.046  31.520  1.00  0.00     0.031 C 
ATOM     37  C   UNL A   1      37.689  30.057  28.706  1.00  0.00     0.029 A 
ATOM     38  N   UNL A   1      39.737  30.113  29.605  1.00  0.00    -0.354 N 
ATOM     39  C   UNL A   1      41.093  33.514  31.893  1.00  0.00     0.074 A 
ATOM     40  C   UNL A   1      40.039  34.494  32.034  1.00  0.00     0.031 C 
ATOM     41  C   UNL A   1      38.316  28.918  28.361  1.00  0.00     0.029 A 
ATOM     42  C   UNL A   1      39.674  28.935  28.899  1.00  0.00     0.049 A 
ATOM     43  H   UNL A   1      40.529  30.391  30.117  1.00  0.00     0.167 HD
ATOM     44  C   UNL A   1      42.318  33.636  32.455  1.00  0.00     0.037 A 
ATOM     45  C   UNL A   1      40.614  27.988  28.697  1.00  0.00     0.037 A 
ATOM     46  C   UNL A   1      43.349  32.641  32.360  1.00  0.00     0.049 A 
ATOM     47  C   UNL A   1      41.981  28.155  29.313  1.00  0.00     0.074 A 
ATOM     48  C   UNL A   1      44.607  32.648  32.935  1.00  0.00     0.029 A 
ATOM     49  N   UNL A   1      43.238  31.457  31.648  1.00  0.00    -0.354 N 
ATOM     50  N   UNL A   1      42.441  29.129  30.060  1.00  0.00    -0.248 NA
ATOM     51  C   UNL A   1      42.959  27.085  29.058  1.00  0.00     0.031 C 
ATOM     52  C   UNL A   1      45.276  31.489  32.530  1.00  0.00     0.029 A 
ATOM     53  C   UNL A   1      44.413  30.733  31.755  1.00  0.00     0.049 A 
ATOM     54  H   UNL A   1      42.443  31.174  31.142  1.00  0.00     0.167 HD
ATOM     55  C   UNL A   1      43.742  28.772  30.397  1.00  0.00     0.074 A 
ATOM     56  C   UNL A   1      43.997  27.490  29.777  1.00  0.00     0.031 C 
ATOM     57  C   UNL A   1      44.643  29.444  31.155  1.00  0.00     0.037 A 
BRANCH  44  58
ATOM     58  C   UNL A   1      42.606  34.898  33.219  1.00  0.00     0.057 A 
ATOM     59  C   UNL A   1      42.356  35.010  34.594  1.00  0.00     0.134 A 
ATOM     60  C   UNL A   1      43.158  36.011  32.572  1.00  0.00     0.134 A 
ATOM     61  F   UNL A   1      41.813  33.987  35.273  1.00  0.00    -0.206 F 
ATOM     62  C   UNL A   1      42.610  36.193  35.289  1.00  0.00     0.040 A 
ATOM     63  C   UNL A   1      43.449  37.188  33.263  1.00  0.00     0.040 A 
ATOM     64  F   UNL A   1      43.428  35.971  31.259  1.00  0.00    -0.206 F 
ATOM     65  C   UNL A   1      43.165  37.284  34.624  1.00  0.00     0.006 A 
ENDBRANCH  44  58
BRANCH  45  66
ATOM     66  C   UNL A   1      40.303  26.786  27.878  1.00  0.00     0.057 A 
ATOM     67  C   UNL A   1      39.533  25.737  28.395  1.00  0.00     0.134 A 
ATOM     68  C   UNL A   1      40.792  26.641  26.575  1.00  0.00     0.134 A 
ATOM     69  F   UNL A   1      39.055  25.804  29.646  1.00  0.00    -0.206 F 
ATOM     70  C   UNL A   1      39.281  24.579  27.657  1.00  0.00     0.040 A 
ATOM     71  C   UNL A   1      40.524  25.500  25.814  1.00  0.00     0.040 A 
ATOM     72  F   UNL A   1      41.534  27.610  26.016  1.00  0.00    -0.206 F 
ATOM     73  C   UNL A   1      39.774  24.461  26.360  1.00  0.00     0.006 A 
ENDBRANCH  45  66
BRANCH  57  74
ATOM     74  C   UNL A   1      45.967  28.784  31.419  1.00  0.00     0.057 A 
ATOM     75  C   UNL A   1      47.087  29.009  30.611  1.00  0.00     0.134 A 
ATOM     76  C   UNL A   1      46.134  27.962  32.541  1.00  0.00     0.134 A 
ATOM     77  F   UNL A   1      46.994  29.778  29.515  1.00  0.00    -0.206 F 
ATOM     78  C   UNL A   1      48.322  28.424  30.899  1.00  0.00     0.040 A 
ATOM     79  C   UNL A   1      47.369  27.395  32.855  1.00  0.00     0.040 A 
ATOM     80  F   UNL A   1      45.104  27.713  33.364  1.00  0.00    -0.206 F 
ATOM     81  C   UNL A   1      48.468  27.623  32.029  1.00  0.00     0.006 A 
ENDBRANCH  57  74
ENDBRANCH  31  32
ENDBRANCH  24  26
ENDBRANCH  23  24
ENDBRANCH  22  23
ENDBRANCH  21  22
ENDBRANCH   1  21
TORSDOF 16
ENDMDL
MODEL 2
REMARK VINA RESULT:      -9.0      4.423      7.706
REMARK SMILES C[N@H+]1CC[C@@H](Cc2nccnc2C(=O)OCCOCCOC(=O)c2ccc(-c3c4nc(c(-c5c(F)cccc5F)c5ccc([nH]5)c(-c5c(F)cccc5F)c5nc(c(-c6c(F)cccc6F)c6ccc3[nH]6)C=C5)C=C4)cc2)C1
REMARK SMILES IDX 18 1 17 2 16 3 15 4 13 5 14 6 12 7 7 8 8 9 9 10 11 11 10 12
REMARK SMILES IDX 6 13 5 14 1 15 2 16 3 17 78 18 4 20 19 21 20 22 21 23 22 24
REMARK SMILES IDX 23 25 24 26 25 27 77 28 26 29 76 30 27 31 28 32 29 33 70 34
REMARK SMILES IDX 30 35 75 36 69 37 71 38 31 39 74 40 68 41 67 42 32 44 58 45
REMARK SMILES IDX 41 46 57 47 42 48 45 49 56 50 72 51 43 52 44 53 55 55 73 56
REMARK SMILES IDX 46 57 33 58 34 59 39 60 35 61 36 62 38 63 40 64 37 65 59 66
REMARK SMILES IDX 60 67 65 68 61 69 62 70 64 71 66 72 63 73 47 74 48 75 53 76
REMARK SMILES IDX 49 77 50 78 52 79 54 80 51 81
REMARK H PARENT 2 19 71 43 45 54
REMARK Flexibility Score: inf
ROOT
ATOM      1  O   UNL A   1      31.589  31.090  26.879  1.00  0.00    -0.374 OA
ENDROOT
BRANCH   1   2
ATOM      2  C   UNL A   1      32.912  30.615  27.128  1.00  0.00     0.202 C 
BRANCH   2   3
ATOM      3  C   UNL A   1      33.303  29.357  26.355  1.00  0.00     0.261 C 
BRANCH   3   4
ATOM      4  O   UNL A   1      32.285  29.059  25.382  1.00  0.00    -0.458 OA
BRANCH   4   5
ATOM      5  C   UNL A   1      31.808  27.792  25.384  1.00  0.00     0.358 C 
ATOM      6  O   UNL A   1      31.332  27.229  26.359  1.00  0.00    -0.244 OA
BRANCH   5   7
ATOM      7  C   UNL A   1      31.795  27.199  24.007  1.00  0.00     0.169 A 
ATOM      8  C   UNL A   1      30.865  27.451  22.990  1.00  0.00     0.074 A 
ATOM      9  N   UNL A   1      31.028  26.879  21.756  1.00  0.00    -0.257 NA
ATOM     10  C   UNL A   1      32.063  26.034  21.584  1.00  0.00     0.131 A 
ATOM     11  N   UNL A   1      32.832  26.322  23.816  1.00  0.00    -0.246 NA
ATOM     12  C   UNL A   1      32.940  25.748  22.603  1.00  0.00     0.132 A 
BRANCH   8  13
ATOM     13  C   UNL A   1      29.660  28.356  23.086  1.00  0.00     0.068 C 
BRANCH  13  14
ATOM     14  C   UNL A   1      29.978  29.833  22.761  1.00  0.00     0.056 C 
ATOM     15  C   UNL A   1      28.030  32.332  20.891  1.00  0.00     0.332 C 
ATOM     16  N   UNL A   1      28.983  31.740  21.815  1.00  0.00    -0.337 N 
ATOM     17  C   UNL A   1      28.524  31.714  23.200  1.00  0.00     0.262 C 
ATOM     18  C   UNL A   1      29.255  30.337  21.502  1.00  0.00     0.266 C 
ATOM     19  H   UNL A   1      29.805  32.336  21.711  1.00  0.00     0.347 HD
ATOM     20  C   UNL A   1      29.531  30.797  23.872  1.00  0.00     0.071 C 
ENDBRANCH  13  14
ENDBRANCH   8  13
ENDBRANCH   5   7
ENDBRANCH   4   5
ENDBRANCH   3   4
ENDBRANCH   2   3
ENDBRANCH   1   2
BRANCH   1  21
ATOM     21  C   UNL A   1      31.423  32.505  26.775  1.00  0.00     0.202 C 
BRANCH  21  22
ATOM     22  C   UNL A   1      32.639  33.342  27.189  1.00  0.00     0.261 C 
BRANCH  22  23
ATOM     23  O   UNL A   1      32.321  34.292  28.223  1.00  0.00    -0.460 OA
BRANCH  23  24
ATOM     24  C   UNL A   1      33.369  34.997  28.717  1.00  0.00     0.338 C 
ATOM     25  O   UNL A   1      33.422  36.193  28.950  1.00  0.00    -0.246 OA
BRANCH  24  26
ATOM     26  C   UNL A   1      34.435  34.051  29.089  1.00  0.00     0.060 A 
ATOM     27  C   UNL A   1      34.107  32.892  29.799  1.00  0.00     0.016 A 
ATOM     28  C   UNL A   1      35.760  34.318  28.754  1.00  0.00     0.016 A 
ATOM     29  C   UNL A   1      35.114  32.003  30.188  1.00  0.00     0.010 A 
ATOM     30  C   UNL A   1      36.756  33.403  29.093  1.00  0.00     0.010 A 
ATOM     31  C   UNL A   1      36.451  32.260  29.854  1.00  0.00    -0.014 A 
BRANCH  31  32
ATOM     32  C   UNL A   1      37.566  31.463  30.437  1.00  0.00     0.031 A 
ATOM     33  C   UNL A   1      37.934  31.701  31.881  1.00  0.00     0.074 A 
ATOM     34  C   UNL A   1      38.260  30.569  29.709  1.00  0.00     0.049 A 
ATOM     35  N   UNL A   1      38.949  31.246  32.570  1.00  0.00    -0.248 NA
ATOM     36  C   UNL A   1      37.054  32.605  32.640  1.00  0.00     0.031 C 
ATOM     37  C   UNL A   1      38.011  30.231  28.309  1.00  0.00     0.029 A 
ATOM     38  N   UNL A   1      39.337  29.788  30.055  1.00  0.00    -0.354 N 
ATOM     39  C   UNL A   1      38.849  31.841  33.822  1.00  0.00     0.074 A 
ATOM     40  C   UNL A   1      37.711  32.731  33.781  1.00  0.00     0.031 C 
ATOM     41  C   UNL A   1      38.905  29.305  27.917  1.00  0.00     0.029 A 
ATOM     42  C   UNL A   1      39.816  29.017  29.023  1.00  0.00     0.049 A 
ATOM     43  H   UNL A   1      39.729  29.781  30.957  1.00  0.00     0.167 HD
ATOM     44  C   UNL A   1      39.616  31.647  34.920  1.00  0.00     0.037 A 
ATOM     45  C   UNL A   1      40.879  28.189  28.973  1.00  0.00     0.037 A 
ATOM     46  C   UNL A   1      40.716  30.724  34.980  1.00  0.00     0.049 A 
ATOM     47  C   UNL A   1      41.735  28.004  30.200  1.00  0.00     0.074 A 
ATOM     48  C   UNL A   1      41.524  30.418  36.061  1.00  0.00     0.029 A 
ATOM     49  N   UNL A   1      41.156  29.953  33.916  1.00  0.00    -0.354 N 
ATOM     50  N   UNL A   1      41.613  28.549  31.386  1.00  0.00    -0.248 NA
ATOM     51  C   UNL A   1      42.878  27.084  30.082  1.00  0.00     0.031 C 
ATOM     52  C   UNL A   1      42.486  29.497  35.636  1.00  0.00     0.029 A 
ATOM     53  C   UNL A   1      42.238  29.184  34.310  1.00  0.00     0.049 A 
ATOM     54  H   UNL A   1      40.760  29.953  33.015  1.00  0.00     0.167 HD
ATOM     55  C   UNL A   1      42.634  28.010  32.163  1.00  0.00     0.074 A 
ATOM     56  C   UNL A   1      43.361  27.091  31.316  1.00  0.00     0.031 C 
ATOM     57  C   UNL A   1      42.936  28.251  33.463  1.00  0.00     0.037 A 
BRANCH  44  58
ATOM     58  C   UNL A   1      39.291  32.456  36.144  1.00  0.00     0.057 A 
ATOM     59  C   UNL A   1      38.389  32.004  37.118  1.00  0.00     0.134 A 
ATOM     60  C   UNL A   1      39.901  33.698  36.359  1.00  0.00     0.134 A 
ATOM     61  F   UNL A   1      37.756  30.829  36.967  1.00  0.00    -0.206 F 
ATOM     62  C   UNL A   1      38.080  32.773  38.241  1.00  0.00     0.040 A 
ATOM     63  C   UNL A   1      39.627  34.460  37.495  1.00  0.00     0.040 A 
ATOM     64  F   UNL A   1      40.779  34.188  35.471  1.00  0.00    -0.206 F 
ATOM     65  C   UNL A   1      38.706  34.002  38.435  1.00  0.00     0.006 A 
ENDBRANCH  44  58
BRANCH  45  66
ATOM     66  C   UNL A   1      41.202  27.458  27.718  1.00  0.00     0.057 A 
ATOM     67  C   UNL A   1      40.735  26.156  27.498  1.00  0.00     0.134 A 
ATOM     68  C   UNL A   1      42.008  28.026  26.725  1.00  0.00     0.134 A 
ATOM     69  F   UNL A   1      39.977  25.546  28.421  1.00  0.00    -0.206 F 
ATOM     70  C   UNL A   1      41.076  25.438  26.350  1.00  0.00     0.040 A 
ATOM     71  C   UNL A   1      42.335  27.331  25.559  1.00  0.00     0.040 A 
ATOM     72  F   UNL A   1      42.487  29.272  26.871  1.00  0.00    -0.206 F 
ATOM     73  C   UNL A   1      41.876  26.029  25.374  1.00  0.00     0.006 A 
ENDBRANCH  45  66
BRANCH  57  74
ATOM     74  C   UNL A   1      44.060  27.467  34.077  1.00  0.00     0.057 A 
ATOM     75  C   UNL A   1      45.380  27.934  34.085  1.00  0.00     0.134 A 
ATOM     76  C   UNL A   1      43.800  26.253  34.728  1.00  0.00     0.134 A 
ATOM     77  F   UNL A   1      45.699  29.084  33.472  1.00  0.00    -0.206 F 
ATOM     78  C   UNL A   1      46.404  27.213  34.703  1.00  0.00     0.040 A 
ATOM     79  C   UNL A   1      44.810  25.538  35.373  1.00  0.00     0.040 A 
ATOM     80  F   UNL A   1      42.556  25.753  34.767  1.00  0.00    -0.206 F 
ATOM     81  C   UNL A   1      46.118  26.016  35.357  1.00  0.00     0.006 A 
ENDBRANCH  57  74
ENDBRANCH  31  32
ENDBRANCH  24  26
ENDBRANCH  23  24
ENDBRANCH  22  23
ENDBRANCH  21  22
ENDBRANCH   1  21
TORSDOF 16
ENDMDL
MODEL 3
REMARK VINA RESULT:      -8.8      6.341     11.613
REMARK SMILES C[N@H+]1CC[C@@H](Cc2nccnc2C(=O)OCCOCCOC(=O)c2ccc(-c3c4nc(c(-c5c(F)cccc5F)c5ccc([nH]5)c(-c5c(F)cccc5F)c5nc(c(-c6c(F)cccc6F)c6ccc3[nH]6)C=C5)C=C4)cc2)C1
REMARK SMILES IDX 18 1 17 2 16 3 15 4 13 5 14 6 12 7 7 8 8 9 9 10 11 11 10 12
REMARK SMILES IDX 6 13 5 14 1 15 2 16 3 17 78 18 4 20 19 21 20 22 21 23 22 24
REMARK SMILES IDX 23 25 24 26 25 27 77 28 26 29 76 30 27 31 28 32 29 33 70 34
REMARK SMILES IDX 30 35 75 36 69 37 71 38 31 39 74 40 68 41 67 42 32 44 58 45
REMARK SMILES IDX 41 46 57 47 42 48 45 49 56 50 72 51 43 52 44 53 55 55 73 56
REMARK SMILES IDX 46 57 33 58 34 59 39 60 35 61 36 62 38 63 40 64 37 65 59 66
REMARK SMILES IDX 60 67 65 68 61 69 62 70 64 71 66 72 63 73 47 74 48 75 53 76
REMARK SMILES IDX 49 77 50 78 52 79 54 80 51 81
REMARK H PARENT 2 19 71 43 45 54
REMARK Flexibility Score: inf
ROOT
ATOM      1  O   UNL A   1      37.902  21.126  24.775  1.00  0.00    -0.374 OA
ENDROOT
BRANCH   1   2
ATOM      2  C   UNL A   1      36.882  21.861  25.451  1.00  0.00     0.202 C 
BRANCH   2   3
ATOM      3  C   UNL A   1      36.112  22.851  24.578  1.00  0.00     0.261 C 
BRANCH   3   4
ATOM      4  O   UNL A   1      35.205  22.129  23.724  1.00  0.00    -0.458 OA
BRANCH   4   5
ATOM      5  C   UNL A   1      34.111  22.808  23.306  1.00  0.00     0.358 C 
ATOM      6  O   UNL A   1      34.021  23.395  22.238  1.00  0.00    -0.244 OA
BRANCH   5   7
ATOM      7  C   UNL A   1      32.955  22.635  24.247  1.00  0.00     0.169 A 
ATOM      8  C   UNL A   1      32.310  21.437  24.578  1.00  0.00     0.074 A 
ATOM      9  N   UNL A   1      31.307  21.434  25.511  1.00  0.00    -0.257 NA
ATOM     10  C   UNL A   1      30.933  22.616  26.038  1.00  0.00     0.131 A 
ATOM     11  N   UNL A   1      32.547  23.830  24.782  1.00  0.00    -0.246 NA
ATOM     12  C   UNL A   1      31.532  23.796  25.667  1.00  0.00     0.132 A 
BRANCH   8  13
ATOM     13  C   UNL A   1      32.633  20.067  24.028  1.00  0.00     0.068 C 
BRANCH  13  14
ATOM     14  C   UNL A   1      33.339  19.149  25.051  1.00  0.00     0.056 C 
ATOM     15  C   UNL A   1      32.748  15.613  25.881  1.00  0.00     0.332 C 
ATOM     16  N   UNL A   1      33.407  16.900  25.730  1.00  0.00    -0.337 N 
ATOM     17  C   UNL A   1      34.290  16.978  24.570  1.00  0.00     0.262 C 
ATOM     18  C   UNL A   1      32.450  17.989  25.525  1.00  0.00     0.266 C 
ATOM     19  H   UNL A   1      33.933  16.993  26.600  1.00  0.00     0.347 HD
ATOM     20  C   UNL A   1      34.588  18.465  24.474  1.00  0.00     0.071 C 
ENDBRANCH  13  14
ENDBRANCH   8  13
ENDBRANCH   5   7
ENDBRANCH   4   5
ENDBRANCH   3   4
ENDBRANCH   2   3
ENDBRANCH   1   2
BRANCH   1  21
ATOM     21  C   UNL A   1      37.967  19.724  25.041  1.00  0.00     0.202 C 
BRANCH  21  22
ATOM     22  C   UNL A   1      39.262  19.239  25.703  1.00  0.00     0.261 C 
BRANCH  22  23
ATOM     23  O   UNL A   1      40.211  20.305  25.893  1.00  0.00    -0.460 OA
BRANCH  23  24
ATOM     24  C   UNL A   1      40.720  20.424  27.144  1.00  0.00     0.338 C 
ATOM     25  O   UNL A   1      41.058  19.531  27.902  1.00  0.00    -0.246 OA
BRANCH  24  26
ATOM     26  C   UNL A   1      40.954  21.852  27.420  1.00  0.00     0.060 A 
ATOM     27  C   UNL A   1      40.248  22.816  26.693  1.00  0.00     0.016 A 
ATOM     28  C   UNL A   1      41.885  22.240  28.380  1.00  0.00     0.016 A 
ATOM     29  C   UNL A   1      40.485  24.175  26.920  1.00  0.00     0.010 A 
ATOM     30  C   UNL A   1      42.080  23.595  28.646  1.00  0.00     0.010 A 
ATOM     31  C   UNL A   1      41.418  24.577  27.887  1.00  0.00    -0.014 A 
BRANCH  31  32
ATOM     32  C   UNL A   1      41.859  25.995  28.001  1.00  0.00     0.031 A 
ATOM     33  C   UNL A   1      43.188  26.379  27.399  1.00  0.00     0.074 A 
ATOM     34  C   UNL A   1      41.123  26.921  28.642  1.00  0.00     0.049 A 
ATOM     35  N   UNL A   1      43.854  27.502  27.491  1.00  0.00    -0.248 NA
ATOM     36  C   UNL A   1      43.876  25.340  26.614  1.00  0.00     0.031 C 
ATOM     37  C   UNL A   1      39.820  26.696  29.263  1.00  0.00     0.029 A 
ATOM     38  N   UNL A   1      41.386  28.248  28.888  1.00  0.00    -0.354 N 
ATOM     39  C   UNL A   1      45.049  27.286  26.815  1.00  0.00     0.074 A 
ATOM     40  C   UNL A   1      45.043  25.912  26.368  1.00  0.00     0.031 C 
ATOM     41  C   UNL A   1      39.392  27.847  29.813  1.00  0.00     0.029 A 
ATOM     42  C   UNL A   1      40.409  28.879  29.621  1.00  0.00     0.049 A 
ATOM     43  H   UNL A   1      42.197  28.704  28.570  1.00  0.00     0.167 HD
ATOM     44  C   UNL A   1      46.053  28.157  26.563  1.00  0.00     0.037 A 
ATOM     45  C   UNL A   1      40.352  30.139  30.098  1.00  0.00     0.037 A 
ATOM     46  C   UNL A   1      46.040  29.538  26.962  1.00  0.00     0.049 A 
ATOM     47  C   UNL A   1      41.493  31.088  29.826  1.00  0.00     0.074 A 
ATOM     48  C   UNL A   1      46.986  30.515  26.711  1.00  0.00     0.029 A 
ATOM     49  N   UNL A   1      45.024  30.138  27.689  1.00  0.00    -0.354 N 
ATOM     50  N   UNL A   1      42.603  30.881  29.161  1.00  0.00    -0.248 NA
ATOM     51  C   UNL A   1      41.369  32.450  30.370  1.00  0.00     0.031 C 
ATOM     52  C   UNL A   1      46.565  31.696  27.330  1.00  0.00     0.029 A 
ATOM     53  C   UNL A   1      45.329  31.469  27.912  1.00  0.00     0.049 A 
ATOM     54  H   UNL A   1      44.208  29.684  28.001  1.00  0.00     0.167 HD
ATOM     55  C   UNL A   1      43.288  32.092  29.172  1.00  0.00     0.074 A 
ATOM     56  C   UNL A   1      42.466  33.029  29.905  1.00  0.00     0.031 C 
ATOM     57  C   UNL A   1      44.488  32.399  28.620  1.00  0.00     0.037 A 
BRANCH  44  58
ATOM     58  C   UNL A   1      47.253  27.636  25.824  1.00  0.00     0.057 A 
ATOM     59  C   UNL A   1      48.382  27.141  26.491  1.00  0.00     0.134 A 
ATOM     60  C   UNL A   1      47.272  27.613  24.424  1.00  0.00     0.134 A 
ATOM     61  F   UNL A   1      48.438  27.148  27.833  1.00  0.00    -0.206 F 
ATOM     62  C   UNL A   1      49.499  26.677  25.794  1.00  0.00     0.040 A 
ATOM     63  C   UNL A   1      48.368  27.119  23.715  1.00  0.00     0.040 A 
ATOM     64  F   UNL A   1      46.223  28.065  23.721  1.00  0.00    -0.206 F 
ATOM     65  C   UNL A   1      49.490  26.658  24.401  1.00  0.00     0.006 A 
ENDBRANCH  44  58
BRANCH  45  66
ATOM     66  C   UNL A   1      39.172  30.592  30.882  1.00  0.00     0.057 A 
ATOM     67  C   UNL A   1      39.103  30.393  32.266  1.00  0.00     0.134 A 
ATOM     68  C   UNL A   1      38.073  31.202  30.266  1.00  0.00     0.134 A 
ATOM     69  F   UNL A   1      40.112  29.792  32.913  1.00  0.00    -0.206 F 
ATOM     70  C   UNL A   1      37.977  30.762  33.006  1.00  0.00     0.040 A 
ATOM     71  C   UNL A   1      36.952  31.603  30.996  1.00  0.00     0.040 A 
ATOM     72  F   UNL A   1      38.076  31.426  28.942  1.00  0.00    -0.206 F 
ATOM     73  C   UNL A   1      36.899  31.374  32.369  1.00  0.00     0.006 A 
ENDBRANCH  45  66
BRANCH  57  74
ATOM     74  C   UNL A   1      44.962  33.821  28.724  1.00  0.00     0.057 A 
ATOM     75  C   UNL A   1      44.600  34.800  27.791  1.00  0.00     0.134 A 
ATOM     76  C   UNL A   1      45.740  34.226  29.817  1.00  0.00     0.134 A 
ATOM     77  F   UNL A   1      43.864  34.477  26.716  1.00  0.00    -0.206 F 
ATOM     78  C   UNL A   1      45.011  36.127  27.930  1.00  0.00     0.040 A 
ATOM     79  C   UNL A   1      46.132  35.555  29.982  1.00  0.00     0.040 A 
ATOM     80  F   UNL A   1      46.112  33.342  30.754  1.00  0.00    -0.206 F 
ATOM     81  C   UNL A   1      45.772  36.509  29.033  1.00  0.00     0.006 A 
ENDBRANCH  57  74
ENDBRANCH  31  32
ENDBRANCH  24  26
ENDBRANCH  23  24
ENDBRANCH  22  23
ENDBRANCH  21  22
ENDBRANCH   1  21
TORSDOF 16
ENDMDL
