MODEL 1
REMARK VINA RESULT:     -11.4      0.000      0.000
REMARK SMILES Cn1c(=O)c2c(nc(Nc3cccc(Cl)c3Cl)n2CC(=O)OCCOCCOC(=O)c2ccc(-c3c4nc(c(-c5c(F)cccc5F)c5ccc([nH]5)c(-c5c(F)cccc5F)c5nc(c(-c6c(F)cccc6F)c6ccc3[nH]6)C=C5)C=C4)cc2)n(C)c1=O
REMARK SMILES IDX 24 1 23 2 22 3 20 4 21 5 19 6 18 7 1 8 2 9 3 10 87 11 4 12
REMARK SMILES IDX 5 13 85 14 88 15 6 16 86 17 7 18 8 19 9 20 10 22 11 23 16 24
REMARK SMILES IDX 12 25 14 26 17 27 13 28 15 29 25 30 26 31 27 32 28 33 29 34
REMARK SMILES IDX 30 35 31 36 32 37 84 38 33 39 83 40 34 41 35 42 36 43 77 44
REMARK SMILES IDX 37 45 82 46 76 47 78 48 38 49 81 50 75 51 74 52 39 54 65 55
REMARK SMILES IDX 48 56 64 57 49 58 52 59 63 60 79 61 50 62 51 63 62 65 80 66
REMARK SMILES IDX 53 67 40 68 41 69 46 70 42 71 43 72 45 73 47 74 44 75 66 76
REMARK SMILES IDX 67 77 72 78 68 79 69 80 71 81 73 82 70 83 54 84 55 85 60 86
REMARK SMILES IDX 56 87 57 88 59 89 61 90 58 91
REMARK H PARENT 9 21 78 53 52 64
REMARK Flexibility Score: inf
ROOT
ATOM      1  C   UNL A   1      32.440  27.945  26.482  1.00  0.00     0.202 C 
ENDROOT
BRANCH   1   2
ATOM      2  C   UNL A   1      33.614  27.395  25.657  1.00  0.00     0.261 C 
BRANCH   2   3
ATOM      3  O   UNL A   1      33.440  27.546  24.227  1.00  0.00    -0.462 OA
BRANCH   3   4
ATOM      4  C   UNL A   1      33.326  26.376  23.536  1.00  0.00     0.326 C 
ATOM      5  O   UNL A   1      33.927  25.347  23.833  1.00  0.00    -0.250 OA
BRANCH   4   6
ATOM      6  C   UNL A   1      32.231  26.374  22.502  1.00  0.00     0.248 C 
BRANCH   6   7
ATOM      7  N   UNL A   1      30.849  26.441  22.945  1.00  0.00    -0.293 N 
ATOM      8  C   UNL A   1      29.371  31.024  21.805  1.00  0.00     0.159 C 
ATOM      9  N   UNL A   1      29.237  29.728  22.442  1.00  0.00    -0.261 N 
ATOM     10  C   UNL A   1      30.385  28.951  22.610  1.00  0.00     0.282 A 
ATOM     11  C   UNL A   1      27.950  29.377  22.885  1.00  0.00     0.332 A 
ATOM     12  O   UNL A   1      31.524  29.377  22.462  1.00  0.00    -0.267 OA
ATOM     13  C   UNL A   1      30.093  27.601  22.960  1.00  0.00     0.154 A 
ATOM     14  N   UNL A   1      27.796  28.100  23.426  1.00  0.00    -0.279 N 
ATOM     15  O   UNL A   1      27.008  30.168  22.794  1.00  0.00    -0.247 OA
ATOM     16  C   UNL A   1      28.859  27.227  23.389  1.00  0.00     0.170 A 
ATOM     17  C   UNL A   1      26.519  27.691  23.983  1.00  0.00     0.157 C 
ATOM     18  N   UNL A   1      28.834  25.926  23.752  1.00  0.00    -0.194 NA
ATOM     19  C   UNL A   1      30.057  25.469  23.547  1.00  0.00     0.210 A 
BRANCH  19  20
ATOM     20  N   UNL A   1      30.374  24.197  23.864  1.00  0.00    -0.324 N 
ATOM     21  H   UNL A   1      29.943  23.532  23.280  1.00  0.00     0.170 HD
BRANCH  20  22
ATOM     22  C   UNL A   1      31.191  23.626  24.850  1.00  0.00     0.061 A 
ATOM     23  C   UNL A   1      31.294  24.340  26.059  1.00  0.00     0.028 A 
ATOM     24  C   UNL A   1      31.974  22.464  24.689  1.00  0.00     0.083 A 
ATOM     25  C   UNL A   1      32.049  23.856  27.123  1.00  0.00     0.004 A 
ATOM     26  C   UNL A   1      32.683  21.946  25.784  1.00  0.00     0.061 A 
ATOM     27  Cl  UNL A   1      32.123  21.733  23.116  1.00  0.00    -0.080 Cl
ATOM     28  C   UNL A   1      32.711  22.639  26.998  1.00  0.00     0.022 A 
ATOM     29  Cl  UNL A   1      33.537  20.444  25.709  1.00  0.00    -0.083 Cl
ENDBRANCH  20  22
ENDBRANCH  19  20
ENDBRANCH   6   7
ENDBRANCH   4   6
ENDBRANCH   3   4
ENDBRANCH   2   3
ENDBRANCH   1   2
BRANCH   1  30
ATOM     30  O   UNL A   1      31.779  29.115  26.003  1.00  0.00    -0.374 OA
BRANCH  30  31
ATOM     31  C   UNL A   1      32.500  30.336  25.945  1.00  0.00     0.202 C 
BRANCH  31  32
ATOM     32  C   UNL A   1      33.201  30.805  27.213  1.00  0.00     0.261 C 
BRANCH  32  33
ATOM     33  O   UNL A   1      34.610  30.627  27.212  1.00  0.00    -0.460 OA
BRANCH  33  34
ATOM     34  C   UNL A   1      35.272  31.596  27.889  1.00  0.00     0.338 C 
ATOM     35  O   UNL A   1      35.140  32.799  27.761  1.00  0.00    -0.246 OA
BRANCH  34  36
ATOM     36  C   UNL A   1      36.332  30.984  28.699  1.00  0.00     0.060 A 
ATOM     37  C   UNL A   1      37.527  31.699  28.784  1.00  0.00     0.016 A 
ATOM     38  C   UNL A   1      36.243  29.641  29.089  1.00  0.00     0.016 A 
ATOM     39  C   UNL A   1      38.685  31.004  29.045  1.00  0.00     0.010 A 
ATOM     40  C   UNL A   1      37.402  28.944  29.340  1.00  0.00     0.010 A 
ATOM     41  C   UNL A   1      38.613  29.618  29.226  1.00  0.00    -0.014 A 
BRANCH  41  42
ATOM     42  C   UNL A   1      39.861  28.908  29.387  1.00  0.00     0.031 A 
ATOM     43  C   UNL A   1      40.274  28.800  30.801  1.00  0.00     0.074 A 
ATOM     44  C   UNL A   1      40.533  28.368  28.356  1.00  0.00     0.049 A 
ATOM     45  N   UNL A   1      41.251  29.408  31.385  1.00  0.00    -0.248 NA
ATOM     46  C   UNL A   1      39.373  28.081  31.716  1.00  0.00     0.031 C 
ATOM     47  C   UNL A   1      40.090  28.170  26.973  1.00  0.00     0.029 A 
ATOM     48  N   UNL A   1      41.766  27.799  28.368  1.00  0.00    -0.354 N 
ATOM     49  C   UNL A   1      41.209  28.988  32.709  1.00  0.00     0.074 A 
ATOM     50  C   UNL A   1      39.939  28.337  32.894  1.00  0.00     0.031 C 
ATOM     51  C   UNL A   1      40.951  27.332  26.349  1.00  0.00     0.029 A 
ATOM     52  C   UNL A   1      42.063  27.049  27.239  1.00  0.00     0.049 A 
ATOM     53  H   UNL A   1      42.397  27.910  29.116  1.00  0.00     0.167 HD
ATOM     54  C   UNL A   1      42.327  28.988  33.481  1.00  0.00     0.037 A 
ATOM     55  C   UNL A   1      43.110  26.195  27.118  1.00  0.00     0.037 A 
ATOM     56  C   UNL A   1      43.348  29.837  32.927  1.00  0.00     0.049 A 
ATOM     57  C   UNL A   1      44.109  26.565  28.158  1.00  0.00     0.074 A 
ATOM     58  C   UNL A   1      43.437  31.187  32.651  1.00  0.00     0.029 A 
ATOM     59  N   UNL A   1      44.359  29.237  32.215  1.00  0.00    -0.354 N 
ATOM     60  N   UNL A   1      44.793  27.676  28.146  1.00  0.00    -0.248 NA
ATOM     61  C   UNL A   1      43.995  25.919  29.459  1.00  0.00     0.031 C 
ATOM     62  C   UNL A   1      44.175  31.266  31.435  1.00  0.00     0.029 A 
ATOM     63  C   UNL A   1      44.546  29.971  31.072  1.00  0.00     0.049 A 
ATOM     64  H   UNL A   1      44.857  28.430  32.477  1.00  0.00     0.167 HD
ATOM     65  C   UNL A   1      44.834  28.085  29.472  1.00  0.00     0.074 A 
ATOM     66  C   UNL A   1      44.388  26.927  30.242  1.00  0.00     0.031 C 
ATOM     67  C   UNL A   1      44.946  29.404  29.804  1.00  0.00     0.037 A 
BRANCH  54  68
ATOM     68  C   UNL A   1      42.621  27.933  34.512  1.00  0.00     0.057 A 
ATOM     69  C   UNL A   1      42.996  26.646  34.092  1.00  0.00     0.134 A 
ATOM     70  C   UNL A   1      42.275  28.044  35.876  1.00  0.00     0.134 A 
ATOM     71  F   UNL A   1      43.323  26.409  32.813  1.00  0.00    -0.206 F 
ATOM     72  C   UNL A   1      42.968  25.542  34.951  1.00  0.00     0.040 A 
ATOM     73  C   UNL A   1      42.297  26.959  36.754  1.00  0.00     0.040 A 
ATOM     74  F   UNL A   1      41.797  29.174  36.410  1.00  0.00    -0.206 F 
ATOM     75  C   UNL A   1      42.613  25.696  36.285  1.00  0.00     0.006 A 
ENDBRANCH  54  68
BRANCH  55  76
ATOM     76  C   UNL A   1      43.126  24.880  26.435  1.00  0.00     0.057 A 
ATOM     77  C   UNL A   1      43.981  24.630  25.353  1.00  0.00     0.134 A 
ATOM     78  C   UNL A   1      42.500  23.752  26.998  1.00  0.00     0.134 A 
ATOM     79  F   UNL A   1      44.664  25.632  24.781  1.00  0.00    -0.206 F 
ATOM     80  C   UNL A   1      44.213  23.334  24.869  1.00  0.00     0.040 A 
ATOM     81  C   UNL A   1      42.715  22.455  26.520  1.00  0.00     0.040 A 
ATOM     82  F   UNL A   1      41.732  23.857  28.092  1.00  0.00    -0.206 F 
ATOM     83  C   UNL A   1      43.584  22.240  25.459  1.00  0.00     0.006 A 
ENDBRANCH  55  76
BRANCH  67  84
ATOM     84  C   UNL A   1      45.258  30.391  28.713  1.00  0.00     0.057 A 
ATOM     85  C   UNL A   1      44.279  31.017  27.925  1.00  0.00     0.134 A 
ATOM     86  C   UNL A   1      46.564  30.880  28.610  1.00  0.00     0.134 A 
ATOM     87  F   UNL A   1      42.988  30.678  28.024  1.00  0.00    -0.206 F 
ATOM     88  C   UNL A   1      44.595  32.073  27.062  1.00  0.00     0.040 A 
ATOM     89  C   UNL A   1      46.886  31.955  27.778  1.00  0.00     0.040 A 
ATOM     90  F   UNL A   1      47.540  30.365  29.373  1.00  0.00    -0.206 F 
ATOM     91  C   UNL A   1      45.899  32.554  26.998  1.00  0.00     0.006 A 
ENDBRANCH  67  84
ENDBRANCH  41  42
ENDBRANCH  34  36
ENDBRANCH  33  34
ENDBRANCH  32  33
ENDBRANCH  31  32
ENDBRANCH  30  31
ENDBRANCH   1  30
TORSDOF 17
ENDMDL
MODEL 2
REMARK VINA RESULT:     -11.3      2.397      6.974
REMARK SMILES Cn1c(=O)c2c(nc(Nc3cccc(Cl)c3Cl)n2CC(=O)OCCOCCOC(=O)c2ccc(-c3c4nc(c(-c5c(F)cccc5F)c5ccc([nH]5)c(-c5c(F)cccc5F)c5nc(c(-c6c(F)cccc6F)c6ccc3[nH]6)C=C5)C=C4)cc2)n(C)c1=O
REMARK SMILES IDX 24 1 23 2 22 3 20 4 21 5 19 6 18 7 1 8 2 9 3 10 87 11 4 12
REMARK SMILES IDX 5 13 85 14 88 15 6 16 86 17 7 18 8 19 9 20 10 22 11 23 16 24
REMARK SMILES IDX 12 25 14 26 17 27 13 28 15 29 25 30 26 31 27 32 28 33 29 34
REMARK SMILES IDX 30 35 31 36 32 37 84 38 33 39 83 40 34 41 35 42 36 43 77 44
REMARK SMILES IDX 37 45 82 46 76 47 78 48 38 49 81 50 75 51 74 52 39 54 65 55
REMARK SMILES IDX 48 56 64 57 49 58 52 59 63 60 79 61 50 62 51 63 62 65 80 66
REMARK SMILES IDX 53 67 40 68 41 69 46 70 42 71 43 72 45 73 47 74 44 75 66 76
REMARK SMILES IDX 67 77 72 78 68 79 69 80 71 81 73 82 70 83 54 84 55 85 60 86
REMARK SMILES IDX 56 87 57 88 59 89 61 90 58 91
REMARK H PARENT 9 21 78 53 52 64
REMARK Flexibility Score: inf
ROOT
ATOM      1  C   UNL A   1      31.764  30.878  26.312  1.00  0.00     0.202 C 
ENDROOT
BRANCH   1   2
ATOM      2  C   UNL A   1      31.852  29.656  25.384  1.00  0.00     0.261 C 
BRANCH   2   3
ATOM      3  O   UNL A   1      31.108  28.509  25.862  1.00  0.00    -0.462 OA
BRANCH   3   4
ATOM      4  C   UNL A   1      31.867  27.415  26.160  1.00  0.00     0.326 C 
ATOM      5  O   UNL A   1      31.637  26.661  27.101  1.00  0.00    -0.250 OA
BRANCH   4   6
ATOM      6  C   UNL A   1      32.889  27.070  25.109  1.00  0.00     0.248 C 
BRANCH   6   7
ATOM      7  N   UNL A   1      32.600  25.992  24.178  1.00  0.00    -0.293 N 
ATOM      8  C   UNL A   1      34.125  21.883  26.476  1.00  0.00     0.159 C 
ATOM      9  N   UNL A   1      33.648  22.643  25.336  1.00  0.00    -0.261 N 
ATOM     10  C   UNL A   1      33.772  24.034  25.370  1.00  0.00     0.282 A 
ATOM     11  C   UNL A   1      33.135  21.901  24.258  1.00  0.00     0.332 A 
ATOM     12  O   UNL A   1      34.453  24.639  26.188  1.00  0.00    -0.267 OA
ATOM     13  C   UNL A   1      33.008  24.681  24.355  1.00  0.00     0.154 A 
ATOM     14  N   UNL A   1      32.601  22.625  23.193  1.00  0.00    -0.279 N 
ATOM     15  O   UNL A   1      33.161  20.668  24.266  1.00  0.00    -0.247 OA
ATOM     16  C   UNL A   1      32.497  23.993  23.301  1.00  0.00     0.170 A 
ATOM     17  C   UNL A   1      32.129  21.937  22.005  1.00  0.00     0.157 C 
ATOM     18  N   UNL A   1      31.890  24.818  22.418  1.00  0.00    -0.194 NA
ATOM     19  C   UNL A   1      32.014  26.036  22.917  1.00  0.00     0.210 A 
BRANCH  19  20
ATOM     20  N   UNL A   1      31.549  27.103  22.237  1.00  0.00    -0.324 N 
ATOM     21  H   UNL A   1      32.094  27.331  21.450  1.00  0.00     0.170 HD
BRANCH  20  22
ATOM     22  C   UNL A   1      30.450  27.955  22.419  1.00  0.00     0.061 A 
ATOM     23  C   UNL A   1      30.616  29.283  21.984  1.00  0.00     0.028 A 
ATOM     24  C   UNL A   1      29.252  27.610  23.078  1.00  0.00     0.083 A 
ATOM     25  C   UNL A   1      29.583  30.211  22.081  1.00  0.00     0.004 A 
ATOM     26  C   UNL A   1      28.191  28.530  23.117  1.00  0.00     0.061 A 
ATOM     27  Cl  UNL A   1      29.128  26.086  23.908  1.00  0.00    -0.080 Cl
ATOM     28  C   UNL A   1      28.358  29.822  22.612  1.00  0.00     0.022 A 
ATOM     29  Cl  UNL A   1      26.639  28.127  23.767  1.00  0.00    -0.083 Cl
ENDBRANCH  20  22
ENDBRANCH  19  20
ENDBRANCH   6   7
ENDBRANCH   4   6
ENDBRANCH   3   4
ENDBRANCH   2   3
ENDBRANCH   1   2
BRANCH   1  30
ATOM     30  O   UNL A   1      32.658  30.938  27.421  1.00  0.00    -0.374 OA
BRANCH  30  31
ATOM     31  C   UNL A   1      34.002  30.516  27.244  1.00  0.00     0.202 C 
BRANCH  31  32
ATOM     32  C   UNL A   1      35.081  31.240  28.037  1.00  0.00     0.261 C 
BRANCH  32  33
ATOM     33  O   UNL A   1      36.387  30.702  27.891  1.00  0.00    -0.460 OA
BRANCH  33  34
ATOM     34  C   UNL A   1      36.697  29.786  28.840  1.00  0.00     0.338 C 
ATOM     35  O   UNL A   1      36.211  29.689  29.951  1.00  0.00    -0.246 OA
BRANCH  34  36
ATOM     36  C   UNL A   1      37.864  29.010  28.402  1.00  0.00     0.060 A 
ATOM     37  C   UNL A   1      38.401  28.129  29.341  1.00  0.00     0.016 A 
ATOM     38  C   UNL A   1      38.559  29.368  27.239  1.00  0.00     0.016 A 
ATOM     39  C   UNL A   1      39.727  27.785  29.226  1.00  0.00     0.010 A 
ATOM     40  C   UNL A   1      39.889  29.032  27.132  1.00  0.00     0.010 A 
ATOM     41  C   UNL A   1      40.475  28.320  28.172  1.00  0.00    -0.014 A 
BRANCH  41  42
ATOM     42  C   UNL A   1      41.889  28.026  28.149  1.00  0.00     0.031 A 
ATOM     43  C   UNL A   1      42.190  26.737  27.492  1.00  0.00     0.074 A 
ATOM     44  C   UNL A   1      42.819  28.867  28.633  1.00  0.00     0.049 A 
ATOM     45  N   UNL A   1      42.595  25.645  28.046  1.00  0.00    -0.248 NA
ATOM     46  C   UNL A   1      41.807  26.595  26.078  1.00  0.00     0.031 C 
ATOM     47  C   UNL A   1      42.668  30.265  29.044  1.00  0.00     0.029 A 
ATOM     48  N   UNL A   1      44.150  28.644  28.784  1.00  0.00    -0.354 N 
ATOM     49  C   UNL A   1      42.711  24.726  27.011  1.00  0.00     0.074 A 
ATOM     50  C   UNL A   1      42.039  25.298  25.875  1.00  0.00     0.031 C 
ATOM     51  C   UNL A   1      43.895  30.820  29.182  1.00  0.00     0.029 A 
ATOM     52  C   UNL A   1      44.902  29.789  29.002  1.00  0.00     0.049 A 
ATOM     53  H   UNL A   1      44.548  27.745  28.742  1.00  0.00     0.167 HD
ATOM     54  C   UNL A   1      43.568  23.675  27.099  1.00  0.00     0.037 A 
ATOM     55  C   UNL A   1      46.256  29.863  28.940  1.00  0.00     0.037 A 
ATOM     56  C   UNL A   1      43.949  23.419  28.463  1.00  0.00     0.049 A 
ATOM     57  C   UNL A   1      46.784  28.479  29.089  1.00  0.00     0.074 A 
ATOM     58  C   UNL A   1      43.262  23.063  29.607  1.00  0.00     0.029 A 
ATOM     59  N   UNL A   1      45.166  23.896  28.885  1.00  0.00    -0.354 N 
ATOM     60  N   UNL A   1      46.701  27.784  30.190  1.00  0.00    -0.248 NA
ATOM     61  C   UNL A   1      46.973  27.697  27.874  1.00  0.00     0.031 C 
ATOM     62  C   UNL A   1      43.901  23.781  30.658  1.00  0.00     0.029 A 
ATOM     63  C   UNL A   1      44.975  24.483  30.109  1.00  0.00     0.049 A 
ATOM     64  H   UNL A   1      46.019  23.828  28.398  1.00  0.00     0.167 HD
ATOM     65  C   UNL A   1      46.408  26.493  29.777  1.00  0.00     0.074 A 
ATOM     66  C   UNL A   1      46.659  26.486  28.338  1.00  0.00     0.031 C 
ATOM     67  C   UNL A   1      45.715  25.631  30.579  1.00  0.00     0.037 A 
BRANCH  54  68
ATOM     68  C   UNL A   1      44.343  23.140  25.926  1.00  0.00     0.057 A 
ATOM     69  C   UNL A   1      44.265  21.771  25.619  1.00  0.00     0.134 A 
ATOM     70  C   UNL A   1      45.376  23.846  25.273  1.00  0.00     0.134 A 
ATOM     71  F   UNL A   1      43.340  20.988  26.194  1.00  0.00    -0.206 F 
ATOM     72  C   UNL A   1      45.185  21.142  24.772  1.00  0.00     0.040 A 
ATOM     73  C   UNL A   1      46.264  23.238  24.385  1.00  0.00     0.040 A 
ATOM     74  F   UNL A   1      45.651  25.128  25.535  1.00  0.00    -0.206 F 
ATOM     75  C   UNL A   1      46.191  21.876  24.156  1.00  0.00     0.006 A 
ENDBRANCH  54  68
BRANCH  55  76
ATOM     76  C   UNL A   1      47.074  30.970  28.389  1.00  0.00     0.057 A 
ATOM     77  C   UNL A   1      46.910  31.411  27.069  1.00  0.00     0.134 A 
ATOM     78  C   UNL A   1      47.842  31.801  29.225  1.00  0.00     0.134 A 
ATOM     79  F   UNL A   1      46.151  30.715  26.210  1.00  0.00    -0.206 F 
ATOM     80  C   UNL A   1      47.464  32.614  26.610  1.00  0.00     0.040 A 
ATOM     81  C   UNL A   1      48.409  33.000  28.778  1.00  0.00     0.040 A 
ATOM     82  F   UNL A   1      47.993  31.529  30.529  1.00  0.00    -0.206 F 
ATOM     83  C   UNL A   1      48.211  33.417  27.469  1.00  0.00     0.006 A 
ENDBRANCH  55  76
BRANCH  67  84
ATOM     84  C   UNL A   1      45.476  26.026  32.011  1.00  0.00     0.057 A 
ATOM     85  C   UNL A   1      44.309  26.664  32.459  1.00  0.00     0.134 A 
ATOM     86  C   UNL A   1      46.355  25.549  32.989  1.00  0.00     0.134 A 
ATOM     87  F   UNL A   1      43.368  27.071  31.599  1.00  0.00    -0.206 F 
ATOM     88  C   UNL A   1      44.040  26.831  33.822  1.00  0.00     0.040 A 
ATOM     89  C   UNL A   1      46.082  25.680  34.353  1.00  0.00     0.040 A 
ATOM     90  F   UNL A   1      47.464  24.881  32.633  1.00  0.00    -0.206 F 
ATOM     91  C   UNL A   1      44.921  26.325  34.773  1.00  0.00     0.006 A 
ENDBRANCH  67  84
ENDBRANCH  41  42
ENDBRANCH  34  36
ENDBRANCH  33  34
ENDBRANCH  32  33
ENDBRANCH  31  32
ENDBRANCH  30  31
ENDBRANCH   1  30
TORSDOF 17
ENDMDL
MODEL 3
REMARK VINA RESULT:     -11.2      1.853      4.017
REMARK SMILES Cn1c(=O)c2c(nc(Nc3cccc(Cl)c3Cl)n2CC(=O)OCCOCCOC(=O)c2ccc(-c3c4nc(c(-c5c(F)cccc5F)c5ccc([nH]5)c(-c5c(F)cccc5F)c5nc(c(-c6c(F)cccc6F)c6ccc3[nH]6)C=C5)C=C4)cc2)n(C)c1=O
REMARK SMILES IDX 24 1 23 2 22 3 20 4 21 5 19 6 18 7 1 8 2 9 3 10 87 11 4 12
REMARK SMILES IDX 5 13 85 14 88 15 6 16 86 17 7 18 8 19 9 20 10 22 11 23 16 24
REMARK SMILES IDX 12 25 14 26 17 27 13 28 15 29 25 30 26 31 27 32 28 33 29 34
REMARK SMILES IDX 30 35 31 36 32 37 84 38 33 39 83 40 34 41 35 42 36 43 77 44
REMARK SMILES IDX 37 45 82 46 76 47 78 48 38 49 81 50 75 51 74 52 39 54 65 55
REMARK SMILES IDX 48 56 64 57 49 58 52 59 63 60 79 61 50 62 51 63 62 65 80 66
REMARK SMILES IDX 53 67 40 68 41 69 46 70 42 71 43 72 45 73 47 74 44 75 66 76
REMARK SMILES IDX 67 77 72 78 68 79 69 80 71 81 73 82 70 83 54 84 55 85 60 86
REMARK SMILES IDX 56 87 57 88 59 89 61 90 58 91
REMARK H PARENT 9 21 78 53 52 64
REMARK Flexibility Score: inf
ROOT
ATOM      1  C   UNL A   1      33.870  28.888  25.664  1.00  0.00     0.202 C 
ENDROOT
BRANCH   1   2
ATOM      2  C   UNL A   1      33.511  27.521  26.268  1.00  0.00     0.261 C 
BRANCH   2   3
ATOM      3  O   UNL A   1      32.261  26.980  25.776  1.00  0.00    -0.462 OA
BRANCH   3   4
ATOM      4  C   UNL A   1      31.303  26.790  26.729  1.00  0.00     0.326 C 
ATOM      5  O   UNL A   1      31.029  27.615  27.596  1.00  0.00    -0.250 OA
BRANCH   4   6
ATOM      6  C   UNL A   1      30.443  25.573  26.505  1.00  0.00     0.248 C 
BRANCH   6   7
ATOM      7  N   UNL A   1      30.674  24.760  25.323  1.00  0.00    -0.293 N 
ATOM      8  C   UNL A   1      33.676  21.132  26.841  1.00  0.00     0.159 C 
ATOM      9  N   UNL A   1      32.976  21.918  25.843  1.00  0.00    -0.261 N 
ATOM     10  C   UNL A   1      32.505  23.181  26.206  1.00  0.00     0.282 A 
ATOM     11  C   UNL A   1      32.870  21.352  24.561  1.00  0.00     0.332 A 
ATOM     12  O   UNL A   1      32.832  23.762  27.233  1.00  0.00    -0.267 OA
ATOM     13  C   UNL A   1      31.585  23.721  25.260  1.00  0.00     0.154 A 
ATOM     14  N   UNL A   1      32.129  22.063  23.617  1.00  0.00    -0.279 N 
ATOM     15  O   UNL A   1      33.410  20.275  24.294  1.00  0.00    -0.247 OA
ATOM     16  C   UNL A   1      31.456  23.197  24.013  1.00  0.00     0.170 A 
ATOM     17  C   UNL A   1      32.042  21.590  22.247  1.00  0.00     0.157 C 
ATOM     18  N   UNL A   1      30.600  23.919  23.258  1.00  0.00    -0.194 NA
ATOM     19  C   UNL A   1      30.180  24.906  24.030  1.00  0.00     0.210 A 
BRANCH  19  20
ATOM     20  N   UNL A   1      29.341  25.844  23.546  1.00  0.00    -0.324 N 
ATOM     21  H   UNL A   1      28.420  25.519  23.427  1.00  0.00     0.170 HD
BRANCH  20  22
ATOM     22  C   UNL A   1      29.509  27.187  23.180  1.00  0.00     0.061 A 
ATOM     23  C   UNL A   1      30.826  27.593  22.898  1.00  0.00     0.028 A 
ATOM     24  C   UNL A   1      28.489  28.162  23.165  1.00  0.00     0.083 A 
ATOM     25  C   UNL A   1      31.112  28.893  22.492  1.00  0.00     0.004 A 
ATOM     26  C   UNL A   1      28.770  29.454  22.694  1.00  0.00     0.061 A 
ATOM     27  Cl  UNL A   1      26.918  27.781  23.809  1.00  0.00    -0.080 Cl
ATOM     28  C   UNL A   1      30.078  29.812  22.351  1.00  0.00     0.022 A 
ATOM     29  Cl  UNL A   1      27.543  30.657  22.497  1.00  0.00    -0.083 Cl
ENDBRANCH  20  22
ENDBRANCH  19  20
ENDBRANCH   6   7
ENDBRANCH   4   6
ENDBRANCH   3   4
ENDBRANCH   2   3
ENDBRANCH   1   2
BRANCH   1  30
ATOM     30  O   UNL A   1      32.819  29.839  25.496  1.00  0.00    -0.374 OA
BRANCH  30  31
ATOM     31  C   UNL A   1      32.343  30.544  26.632  1.00  0.00     0.202 C 
BRANCH  31  32
ATOM     32  C   UNL A   1      33.230  31.639  27.208  1.00  0.00     0.261 C 
BRANCH  32  33
ATOM     33  O   UNL A   1      34.175  31.193  28.170  1.00  0.00    -0.460 OA
BRANCH  33  34
ATOM     34  C   UNL A   1      35.315  31.925  28.181  1.00  0.00     0.338 C 
ATOM     35  O   UNL A   1      35.531  32.951  27.563  1.00  0.00    -0.246 OA
BRANCH  34  36
ATOM     36  C   UNL A   1      36.352  31.198  28.922  1.00  0.00     0.060 A 
ATOM     37  C   UNL A   1      37.512  31.916  29.215  1.00  0.00     0.016 A 
ATOM     38  C   UNL A   1      36.294  29.803  29.042  1.00  0.00     0.016 A 
ATOM     39  C   UNL A   1      38.679  31.215  29.409  1.00  0.00     0.010 A 
ATOM     40  C   UNL A   1      37.464  29.104  29.225  1.00  0.00     0.010 A 
ATOM     41  C   UNL A   1      38.652  29.819  29.317  1.00  0.00    -0.014 A 
BRANCH  41  42
ATOM     42  C   UNL A   1      39.916  29.126  29.416  1.00  0.00     0.031 A 
ATOM     43  C   UNL A   1      40.349  28.932  30.814  1.00  0.00     0.074 A 
ATOM     44  C   UNL A   1      40.585  28.671  28.343  1.00  0.00     0.049 A 
ATOM     45  N   UNL A   1      41.321  29.520  31.427  1.00  0.00    -0.248 NA
ATOM     46  C   UNL A   1      39.474  28.135  31.688  1.00  0.00     0.031 C 
ATOM     47  C   UNL A   1      40.129  28.557  26.955  1.00  0.00     0.029 A 
ATOM     48  N   UNL A   1      41.830  28.128  28.303  1.00  0.00    -0.354 N 
ATOM     49  C   UNL A   1      41.304  29.011  32.720  1.00  0.00     0.074 A 
ATOM     50  C   UNL A   1      40.050  28.323  32.875  1.00  0.00     0.031 C 
ATOM     51  C   UNL A   1      40.998  27.781  26.266  1.00  0.00     0.029 A 
ATOM     52  C   UNL A   1      42.127  27.462  27.123  1.00  0.00     0.049 A 
ATOM     53  H   UNL A   1      42.467  28.202  29.049  1.00  0.00     0.167 HD
ATOM     54  C   UNL A   1      42.431  28.982  33.477  1.00  0.00     0.037 A 
ATOM     55  C   UNL A   1      43.190  26.640  26.932  1.00  0.00     0.037 A 
ATOM     56  C   UNL A   1      43.429  29.888  32.971  1.00  0.00     0.049 A 
ATOM     57  C   UNL A   1      44.194  26.960  27.984  1.00  0.00     0.074 A 
ATOM     58  C   UNL A   1      43.487  31.255  32.785  1.00  0.00     0.029 A 
ATOM     59  N   UNL A   1      44.442  29.359  32.208  1.00  0.00    -0.354 N 
ATOM     60  N   UNL A   1      44.855  28.084  28.038  1.00  0.00    -0.248 NA
ATOM     61  C   UNL A   1      44.109  26.226  29.239  1.00  0.00     0.031 C 
ATOM     62  C   UNL A   1      44.207  31.431  31.569  1.00  0.00     0.029 A 
ATOM     63  C   UNL A   1      44.599  30.171  31.115  1.00  0.00     0.049 A 
ATOM     64  H   UNL A   1      44.959  28.546  32.410  1.00  0.00     0.167 HD
ATOM     65  C   UNL A   1      44.905  28.403  29.388  1.00  0.00     0.074 A 
ATOM     66  C   UNL A   1      44.492  27.187  30.084  1.00  0.00     0.031 C 
ATOM     67  C   UNL A   1      44.995  29.699  29.807  1.00  0.00     0.037 A 
BRANCH  54  68
ATOM     68  C   UNL A   1      42.759  27.867  34.432  1.00  0.00     0.057 A 
ATOM     69  C   UNL A   1      43.151  26.618  33.921  1.00  0.00     0.134 A 
ATOM     70  C   UNL A   1      42.432  27.880  35.805  1.00  0.00     0.134 A 
ATOM     71  F   UNL A   1      43.463  26.473  32.625  1.00  0.00    -0.206 F 
ATOM     72  C   UNL A   1      43.155  25.459  34.705  1.00  0.00     0.040 A 
ATOM     73  C   UNL A   1      42.487  26.740  36.607  1.00  0.00     0.040 A 
ATOM     74  F   UNL A   1      41.942  28.963  36.419  1.00  0.00    -0.206 F 
ATOM     75  C   UNL A   1      42.818  25.517  36.052  1.00  0.00     0.006 A 
ENDBRANCH  54  68
BRANCH  55  76
ATOM     76  C   UNL A   1      43.223  25.374  26.161  1.00  0.00     0.057 A 
ATOM     77  C   UNL A   1      44.223  25.124  25.213  1.00  0.00     0.134 A 
ATOM     78  C   UNL A   1      42.434  24.269  26.531  1.00  0.00     0.134 A 
ATOM     79  F   UNL A   1      45.060  26.100  24.834  1.00  0.00    -0.206 F 
ATOM     80  C   UNL A   1      44.438  23.847  24.674  1.00  0.00     0.040 A 
ATOM     81  C   UNL A   1      42.632  22.991  25.996  1.00  0.00     0.040 A 
ATOM     82  F   UNL A   1      41.507  24.366  27.495  1.00  0.00    -0.206 F 
ATOM     83  C   UNL A   1      43.645  22.773  25.072  1.00  0.00     0.006 A 
ENDBRANCH  55  76
BRANCH  67  84
ATOM     84  C   UNL A   1      45.273  30.764  28.782  1.00  0.00     0.057 A 
ATOM     85  C   UNL A   1      46.560  31.101  28.337  1.00  0.00     0.134 A 
ATOM     86  C   UNL A   1      44.194  31.303  28.073  1.00  0.00     0.134 A 
ATOM     87  F   UNL A   1      47.650  30.561  28.896  1.00  0.00    -0.206 F 
ATOM     88  C   UNL A   1      46.762  31.949  27.243  1.00  0.00     0.040 A 
ATOM     89  C   UNL A   1      44.382  32.124  26.958  1.00  0.00     0.040 A 
ATOM     90  F   UNL A   1      42.936  30.981  28.409  1.00  0.00    -0.206 F 
ATOM     91  C   UNL A   1      45.670  32.452  26.541  1.00  0.00     0.006 A 
ENDBRANCH  67  84
ENDBRANCH  41  42
ENDBRANCH  34  36
ENDBRANCH  33  34
ENDBRANCH  32  33
ENDBRANCH  31  32
ENDBRANCH  30  31
ENDBRANCH   1  30
TORSDOF 17
ENDMDL
