MODEL 1
REMARK VINA RESULT:     -11.8      0.000      0.000
REMARK SMILES O=C1CC[C@@H](CC(=O)N2CCC(Oc3ccccc3)(C(=O)OCCOCCOC(=O)c3ccc(-c4c5nc(c(-c6c(F)cccc6F)c6ccc([nH]6)c(-c6c(F)cccc6F)c6nc(c(-c7c(F)cccc7F)c7ccc4[nH]7)C=C6)C=C5)cc3)CC2)N1
REMARK SMILES IDX 25 1 24 2 23 3 22 4 20 5 21 6 12 7 7 8 8 9 9 10 10 11 86 12
REMARK SMILES IDX 11 13 85 14 6 15 5 16 1 17 2 18 3 19 87 20 4 21 13 23 14 24
REMARK SMILES IDX 15 25 19 26 16 27 18 28 17 29 26 30 27 31 28 32 29 33 30 34
REMARK SMILES IDX 31 35 32 36 84 37 33 38 83 39 34 40 35 41 36 42 77 43 37 44
REMARK SMILES IDX 82 45 76 46 78 47 38 48 81 49 75 50 74 51 39 53 65 54 48 55
REMARK SMILES IDX 64 56 49 57 52 58 63 59 79 60 50 61 51 62 62 64 80 65 53 66
REMARK SMILES IDX 40 67 41 68 46 69 42 70 43 71 45 72 47 73 44 74 66 75 67 76
REMARK SMILES IDX 72 77 68 78 69 79 71 80 73 81 70 82 54 83 55 84 60 85 56 86
REMARK SMILES IDX 57 87 59 88 61 89 58 90
REMARK H PARENT 87 22 78 52 52 63
REMARK Flexibility Score: inf
ROOT
ATOM      1  O   UNL A   1      32.390  30.269  27.171  1.00  0.00    -0.374 OA
ENDROOT
BRANCH   1   2
ATOM      2  C   UNL A   1      33.341  29.482  26.451  1.00  0.00     0.202 C 
BRANCH   2   3
ATOM      3  C   UNL A   1      33.182  29.364  24.931  1.00  0.00     0.261 C 
BRANCH   3   4
ATOM      4  O   UNL A   1      33.527  28.052  24.434  1.00  0.00    -0.460 OA
BRANCH   4   5
ATOM      5  C   UNL A   1      32.953  27.692  23.250  1.00  0.00     0.350 C 
ATOM      6  O   UNL A   1      33.397  28.036  22.157  1.00  0.00    -0.247 OA
BRANCH   5   7
ATOM      7  C   UNL A   1      31.694  26.801  23.404  1.00  0.00     0.209 C 
ATOM      8  C   UNL A   1      31.912  23.899  26.657  1.00  0.00     0.224 C 
ATOM      9  O   UNL A   1      30.859  23.750  27.300  1.00  0.00    -0.275 OA
ATOM     10  N   UNL A   1      31.977  24.925  25.724  1.00  0.00    -0.342 N 
ATOM     11  C   UNL A   1      30.812  25.817  25.647  1.00  0.00     0.124 C 
ATOM     12  C   UNL A   1      32.876  24.941  24.594  1.00  0.00     0.124 C 
ATOM     13  C   UNL A   1      30.930  27.041  24.726  1.00  0.00     0.082 C 
ATOM     14  C   UNL A   1      32.172  25.340  23.315  1.00  0.00     0.082 C 
BRANCH   8  15
ATOM     15  C   UNL A   1      33.087  23.010  27.101  1.00  0.00     0.125 C 
BRANCH  15  16
ATOM     16  C   UNL A   1      33.487  21.596  26.689  1.00  0.00     0.091 C 
ATOM     17  O   UNL A   1      32.212  19.118  24.561  1.00  0.00    -0.275 OA
ATOM     18  C   UNL A   1      32.894  19.954  25.128  1.00  0.00     0.220 C 
ATOM     19  C   UNL A   1      34.317  20.319  24.793  1.00  0.00     0.102 C 
ATOM     20  N   UNL A   1      32.463  20.745  26.169  1.00  0.00    -0.353 N 
ATOM     21  C   UNL A   1      34.646  21.499  25.705  1.00  0.00     0.035 C 
ATOM     22  H   UNL A   1      31.543  20.726  26.519  1.00  0.00     0.163 HD
ENDBRANCH  15  16
ENDBRANCH   8  15
BRANCH   7  23
ATOM     23  O   UNL A   1      30.909  27.282  22.276  1.00  0.00    -0.475 OA
BRANCH  23  24
ATOM     24  C   UNL A   1      29.931  28.184  22.581  1.00  0.00     0.121 A 
ATOM     25  C   UNL A   1      30.193  29.552  22.483  1.00  0.00     0.046 A 
ATOM     26  C   UNL A   1      28.697  27.731  23.035  1.00  0.00     0.046 A 
ATOM     27  C   UNL A   1      29.180  30.471  22.761  1.00  0.00     0.004 A 
ATOM     28  C   UNL A   1      27.691  28.653  23.327  1.00  0.00     0.004 A 
ATOM     29  C   UNL A   1      27.928  30.019  23.176  1.00  0.00     0.000 A 
ENDBRANCH  23  24
ENDBRANCH   7  23
ENDBRANCH   5   7
ENDBRANCH   4   5
ENDBRANCH   3   4
ENDBRANCH   2   3
ENDBRANCH   1   2
BRANCH   1  30
ATOM     30  C   UNL A   1      31.629  31.225  26.446  1.00  0.00     0.202 C 
BRANCH  30  31
ATOM     31  C   UNL A   1      31.592  32.666  26.978  1.00  0.00     0.261 C 
BRANCH  31  32
ATOM     32  O   UNL A   1      32.851  33.347  26.881  1.00  0.00    -0.460 OA
BRANCH  32  33
ATOM     33  C   UNL A   1      33.313  33.823  28.064  1.00  0.00     0.338 C 
ATOM     34  O   UNL A   1      32.748  34.583  28.832  1.00  0.00    -0.246 OA
BRANCH  33  35
ATOM     35  C   UNL A   1      34.575  33.151  28.416  1.00  0.00     0.060 A 
ATOM     36  C   UNL A   1      34.478  31.892  29.023  1.00  0.00     0.016 A 
ATOM     37  C   UNL A   1      35.819  33.757  28.226  1.00  0.00     0.016 A 
ATOM     38  C   UNL A   1      35.626  31.248  29.472  1.00  0.00     0.010 A 
ATOM     39  C   UNL A   1      36.972  33.111  28.690  1.00  0.00     0.010 A 
ATOM     40  C   UNL A   1      36.875  31.868  29.339  1.00  0.00    -0.014 A 
BRANCH  40  41
ATOM     41  C   UNL A   1      38.050  31.242  29.993  1.00  0.00     0.031 A 
ATOM     42  C   UNL A   1      38.347  31.556  31.432  1.00  0.00     0.074 A 
ATOM     43  C   UNL A   1      38.792  30.338  29.331  1.00  0.00     0.049 A 
ATOM     44  N   UNL A   1      39.256  31.043  32.221  1.00  0.00    -0.248 NA
ATOM     45  C   UNL A   1      37.504  32.581  32.066  1.00  0.00     0.031 C 
ATOM     46  C   UNL A   1      38.583  29.932  27.942  1.00  0.00     0.029 A 
ATOM     47  N   UNL A   1      39.861  29.587  29.746  1.00  0.00    -0.354 N 
ATOM     48  C   UNL A   1      39.089  31.673  33.448  1.00  0.00     0.074 A 
ATOM     49  C   UNL A   1      38.019  32.635  33.286  1.00  0.00     0.031 C 
ATOM     50  C   UNL A   1      39.491  28.994  27.623  1.00  0.00     0.029 A 
ATOM     51  C   UNL A   1      40.353  28.748  28.778  1.00  0.00     0.049 A 
ATOM     52  H   UNL A   1      40.240  29.644  30.654  1.00  0.00     0.167 HD
ATOM     53  C   UNL A   1      39.758  31.460  34.607  1.00  0.00     0.037 A 
ATOM     54  C   UNL A   1      41.382  27.881  28.818  1.00  0.00     0.037 A 
ATOM     55  C   UNL A   1      40.830  30.511  34.762  1.00  0.00     0.049 A 
ATOM     56  C   UNL A   1      42.152  27.709  30.100  1.00  0.00     0.074 A 
ATOM     57  C   UNL A   1      41.555  30.206  35.900  1.00  0.00     0.029 A 
ATOM     58  N   UNL A   1      41.340  29.724  33.741  1.00  0.00    -0.354 N 
ATOM     59  N   UNL A   1      41.957  28.277  31.266  1.00  0.00    -0.248 NA
ATOM     60  C   UNL A   1      43.283  26.769  30.071  1.00  0.00     0.031 C 
ATOM     61  C   UNL A   1      42.538  29.271  35.556  1.00  0.00     0.029 A 
ATOM     62  C   UNL A   1      42.392  28.957  34.214  1.00  0.00     0.049 A 
ATOM     63  H   UNL A   1      41.004  29.712  32.815  1.00  0.00     0.167 HD
ATOM     64  C   UNL A   1      42.925  27.752  32.112  1.00  0.00     0.074 A 
ATOM     65  C   UNL A   1      43.693  26.804  31.331  1.00  0.00     0.031 C 
ATOM     66  C   UNL A   1      43.156  28.028  33.420  1.00  0.00     0.037 A 
BRANCH  53  67
ATOM     67  C   UNL A   1      39.359  32.292  35.791  1.00  0.00     0.057 A 
ATOM     68  C   UNL A   1      39.926  33.549  36.038  1.00  0.00     0.134 A 
ATOM     69  C   UNL A   1      38.388  31.834  36.690  1.00  0.00     0.134 A 
ATOM     70  F   UNL A   1      40.872  34.040  35.224  1.00  0.00    -0.206 F 
ATOM     71  C   UNL A   1      39.561  34.309  37.151  1.00  0.00     0.040 A 
ATOM     72  C   UNL A   1      37.996  32.595  37.793  1.00  0.00     0.040 A 
ATOM     73  F   UNL A   1      37.802  30.640  36.511  1.00  0.00    -0.206 F 
ATOM     74  C   UNL A   1      38.590  33.833  38.030  1.00  0.00     0.006 A 
ENDBRANCH  53  67
BRANCH  54  75
ATOM     75  C   UNL A   1      41.739  27.100  27.608  1.00  0.00     0.057 A 
ATOM     76  C   UNL A   1      41.240  25.809  27.403  1.00  0.00     0.134 A 
ATOM     77  C   UNL A   1      42.588  27.627  26.628  1.00  0.00     0.134 A 
ATOM     78  F   UNL A   1      40.439  25.241  28.317  1.00  0.00    -0.206 F 
ATOM     79  C   UNL A   1      41.580  25.066  26.271  1.00  0.00     0.040 A 
ATOM     80  C   UNL A   1      42.917  26.905  25.481  1.00  0.00     0.040 A 
ATOM     81  F   UNL A   1      43.099  28.859  26.767  1.00  0.00    -0.206 F 
ATOM     82  C   UNL A   1      42.416  25.617  25.302  1.00  0.00     0.006 A 
ENDBRANCH  54  75
BRANCH  66  83
ATOM     83  C   UNL A   1      44.281  27.287  34.086  1.00  0.00     0.057 A 
ATOM     84  C   UNL A   1      45.577  27.813  34.146  1.00  0.00     0.134 A 
ATOM     85  C   UNL A   1      44.059  26.045  34.693  1.00  0.00     0.134 A 
ATOM     86  F   UNL A   1      45.860  28.993  33.572  1.00  0.00    -0.206 F 
ATOM     87  C   UNL A   1      46.619  27.116  34.760  1.00  0.00     0.040 A 
ATOM     88  C   UNL A   1      45.086  25.350  35.334  1.00  0.00     0.040 A 
ATOM     89  F   UNL A   1      42.837  25.488  34.680  1.00  0.00    -0.206 F 
ATOM     90  C   UNL A   1      46.373  25.883  35.362  1.00  0.00     0.006 A 
ENDBRANCH  66  83
ENDBRANCH  40  41
ENDBRANCH  33  35
ENDBRANCH  32  33
ENDBRANCH  31  32
ENDBRANCH  30  31
ENDBRANCH   1  30
TORSDOF 18
ENDMDL
MODEL 2
REMARK VINA RESULT:     -11.7      1.577      4.624
REMARK SMILES O=C1CC[C@@H](CC(=O)N2CCC(Oc3ccccc3)(C(=O)OCCOCCOC(=O)c3ccc(-c4c5nc(c(-c6c(F)cccc6F)c6ccc([nH]6)c(-c6c(F)cccc6F)c6nc(c(-c7c(F)cccc7F)c7ccc4[nH]7)C=C6)C=C5)cc3)CC2)N1
REMARK SMILES IDX 25 1 24 2 23 3 22 4 20 5 21 6 12 7 7 8 8 9 9 10 10 11 86 12
REMARK SMILES IDX 11 13 85 14 6 15 5 16 1 17 2 18 3 19 87 20 4 21 13 23 14 24
REMARK SMILES IDX 15 25 19 26 16 27 18 28 17 29 26 30 27 31 28 32 29 33 30 34
REMARK SMILES IDX 31 35 32 36 84 37 33 38 83 39 34 40 35 41 36 42 77 43 37 44
REMARK SMILES IDX 82 45 76 46 78 47 38 48 81 49 75 50 74 51 39 53 65 54 48 55
REMARK SMILES IDX 64 56 49 57 52 58 63 59 79 60 50 61 51 62 62 64 80 65 53 66
REMARK SMILES IDX 40 67 41 68 46 69 42 70 43 71 45 72 47 73 44 74 66 75 67 76
REMARK SMILES IDX 72 77 68 78 69 79 71 80 73 81 70 82 54 83 55 84 60 85 56 86
REMARK SMILES IDX 57 87 59 88 61 89 58 90
REMARK H PARENT 87 22 78 52 52 63
REMARK Flexibility Score: inf
ROOT
ATOM      1  O   UNL A   1      31.655  30.416  27.164  1.00  0.00    -0.374 OA
ENDROOT
BRANCH   1   2
ATOM      2  C   UNL A   1      32.525  29.309  26.921  1.00  0.00     0.202 C 
BRANCH   2   3
ATOM      3  C   UNL A   1      32.091  27.925  27.416  1.00  0.00     0.261 C 
BRANCH   3   4
ATOM      4  O   UNL A   1      32.935  26.863  26.917  1.00  0.00    -0.460 OA
BRANCH   4   5
ATOM      5  C   UNL A   1      32.294  25.828  26.303  1.00  0.00     0.350 C 
ATOM      6  O   UNL A   1      31.604  25.011  26.910  1.00  0.00    -0.247 OA
BRANCH   5   7
ATOM      7  C   UNL A   1      32.504  25.777  24.768  1.00  0.00     0.209 C 
ATOM      8  C   UNL A   1      30.108  28.645  22.512  1.00  0.00     0.224 C 
ATOM      9  O   UNL A   1      30.695  29.185  21.560  1.00  0.00    -0.275 OA
ATOM     10  N   UNL A   1      30.848  27.856  23.383  1.00  0.00    -0.342 N 
ATOM     11  C   UNL A   1      32.298  27.808  23.152  1.00  0.00     0.124 C 
ATOM     12  C   UNL A   1      30.291  26.805  24.202  1.00  0.00     0.124 C 
ATOM     13  C   UNL A   1      33.146  27.059  24.192  1.00  0.00     0.082 C 
ATOM     14  C   UNL A   1      31.118  25.539  24.140  1.00  0.00     0.082 C 
BRANCH   8  15
ATOM     15  C   UNL A   1      28.637  29.057  22.701  1.00  0.00     0.125 C 
BRANCH  15  16
ATOM     16  C   UNL A   1      27.917  30.368  22.402  1.00  0.00     0.091 C 
ATOM     17  O   UNL A   1      28.566  33.783  22.865  1.00  0.00    -0.275 OA
ATOM     18  C   UNL A   1      28.321  32.675  22.419  1.00  0.00     0.220 C 
ATOM     19  C   UNL A   1      28.040  32.337  20.979  1.00  0.00     0.102 C 
ATOM     20  N   UNL A   1      28.292  31.517  23.164  1.00  0.00    -0.353 N 
ATOM     21  C   UNL A   1      27.935  30.813  20.945  1.00  0.00     0.035 C 
ATOM     22  H   UNL A   1      28.508  31.485  24.124  1.00  0.00     0.163 HD
ENDBRANCH  15  16
ENDBRANCH   8  15
BRANCH   7  23
ATOM     23  O   UNL A   1      33.439  24.664  24.681  1.00  0.00    -0.475 OA
BRANCH  23  24
ATOM     24  C   UNL A   1      33.016  23.596  23.944  1.00  0.00     0.121 A 
ATOM     25  C   UNL A   1      33.077  23.645  22.550  1.00  0.00     0.046 A 
ATOM     26  C   UNL A   1      32.480  22.486  24.589  1.00  0.00     0.046 A 
ATOM     27  C   UNL A   1      32.678  22.538  21.802  1.00  0.00     0.004 A 
ATOM     28  C   UNL A   1      32.068  21.386  23.838  1.00  0.00     0.004 A 
ATOM     29  C   UNL A   1      32.180  21.406  22.447  1.00  0.00     0.000 A 
ENDBRANCH  23  24
ENDBRANCH   7  23
ENDBRANCH   5   7
ENDBRANCH   4   5
ENDBRANCH   3   4
ENDBRANCH   2   3
ENDBRANCH   1   2
BRANCH   1  30
ATOM     30  C   UNL A   1      31.878  31.614  26.432  1.00  0.00     0.202 C 
BRANCH  30  31
ATOM     31  C   UNL A   1      31.676  32.949  27.163  1.00  0.00     0.261 C 
BRANCH  31  32
ATOM     32  O   UNL A   1      32.838  33.790  27.155  1.00  0.00    -0.460 OA
BRANCH  32  33
ATOM     33  C   UNL A   1      33.275  34.139  28.392  1.00  0.00     0.338 C 
ATOM     34  O   UNL A   1      32.701  34.828  29.217  1.00  0.00    -0.246 OA
BRANCH  33  35
ATOM     35  C   UNL A   1      34.516  33.412  28.707  1.00  0.00     0.060 A 
ATOM     36  C   UNL A   1      34.391  32.228  29.443  1.00  0.00     0.016 A 
ATOM     37  C   UNL A   1      35.776  33.906  28.359  1.00  0.00     0.016 A 
ATOM     38  C   UNL A   1      35.530  31.547  29.861  1.00  0.00     0.010 A 
ATOM     39  C   UNL A   1      36.920  33.225  28.792  1.00  0.00     0.010 A 
ATOM     40  C   UNL A   1      36.801  32.059  29.568  1.00  0.00    -0.014 A 
BRANCH  40  41
ATOM     41  C   UNL A   1      37.984  31.414  30.185  1.00  0.00     0.031 A 
ATOM     42  C   UNL A   1      38.325  31.715  31.617  1.00  0.00     0.074 A 
ATOM     43  C   UNL A   1      38.696  30.504  29.497  1.00  0.00     0.049 A 
ATOM     44  N   UNL A   1      39.249  31.185  32.378  1.00  0.00    -0.248 NA
ATOM     45  C   UNL A   1      37.514  32.747  32.280  1.00  0.00     0.031 C 
ATOM     46  C   UNL A   1      38.443  30.109  28.113  1.00  0.00     0.029 A 
ATOM     47  N   UNL A   1      39.766  29.737  29.878  1.00  0.00    -0.354 N 
ATOM     48  C   UNL A   1      39.125  31.809  33.612  1.00  0.00     0.074 A 
ATOM     49  C   UNL A   1      38.063  32.786  33.486  1.00  0.00     0.031 C 
ATOM     50  C   UNL A   1      39.329  29.162  27.763  1.00  0.00     0.029 A 
ATOM     51  C   UNL A   1      40.220  28.898  28.891  1.00  0.00     0.049 A 
ATOM     52  H   UNL A   1      40.171  29.783  30.775  1.00  0.00     0.167 HD
ATOM     53  C   UNL A   1      39.822  31.581  34.751  1.00  0.00     0.037 A 
ATOM     54  C   UNL A   1      41.238  28.016  28.898  1.00  0.00     0.037 A 
ATOM     55  C   UNL A   1      40.886  30.617  34.871  1.00  0.00     0.049 A 
ATOM     56  C   UNL A   1      42.041  27.827  30.157  1.00  0.00     0.074 A 
ATOM     57  C   UNL A   1      41.638  30.295  35.987  1.00  0.00     0.029 A 
ATOM     58  N   UNL A   1      41.357  29.829  33.831  1.00  0.00    -0.354 N 
ATOM     59  N   UNL A   1      41.886  28.390  31.331  1.00  0.00    -0.248 NA
ATOM     60  C   UNL A   1      43.158  26.873  30.091  1.00  0.00     0.031 C 
ATOM     61  C   UNL A   1      42.599  29.350  35.610  1.00  0.00     0.029 A 
ATOM     62  C   UNL A   1      42.412  29.046  34.270  1.00  0.00     0.049 A 
ATOM     63  H   UNL A   1      40.996  29.828  32.915  1.00  0.00     0.167 HD
ATOM     64  C   UNL A   1      42.870  27.847  32.148  1.00  0.00     0.074 A 
ATOM     65  C   UNL A   1      43.604  26.894  31.339  1.00  0.00     0.031 C 
ATOM     66  C   UNL A   1      43.141  28.112  33.450  1.00  0.00     0.037 A 
BRANCH  53  67
ATOM     67  C   UNL A   1      39.467  32.410  35.950  1.00  0.00     0.057 A 
ATOM     68  C   UNL A   1      40.101  33.629  36.222  1.00  0.00     0.134 A 
ATOM     69  C   UNL A   1      38.471  31.989  36.839  1.00  0.00     0.134 A 
ATOM     70  F   UNL A   1      41.075  34.084  35.418  1.00  0.00    -0.206 F 
ATOM     71  C   UNL A   1      39.777  34.386  37.350  1.00  0.00     0.040 A 
ATOM     72  C   UNL A   1      38.120  32.749  37.957  1.00  0.00     0.040 A 
ATOM     73  F   UNL A   1      37.821  30.832  36.637  1.00  0.00    -0.206 F 
ATOM     74  C   UNL A   1      38.780  33.948  38.218  1.00  0.00     0.006 A 
ENDBRANCH  53  67
BRANCH  54  75
ATOM     75  C   UNL A   1      41.551  27.239  27.674  1.00  0.00     0.057 A 
ATOM     76  C   UNL A   1      42.405  27.747  26.689  1.00  0.00     0.134 A 
ATOM     77  C   UNL A   1      41.002  25.969  27.460  1.00  0.00     0.134 A 
ATOM     78  F   UNL A   1      42.945  28.968  26.827  1.00  0.00    -0.206 F 
ATOM     79  C   UNL A   1      42.695  27.025  25.530  1.00  0.00     0.040 A 
ATOM     80  C   UNL A   1      41.301  25.226  26.318  1.00  0.00     0.040 A 
ATOM     81  F   UNL A   1      40.176  25.428  28.367  1.00  0.00    -0.206 F 
ATOM     82  C   UNL A   1      42.147  25.757  25.345  1.00  0.00     0.006 A 
ENDBRANCH  54  75
BRANCH  66  83
ATOM     83  C   UNL A   1      44.273  27.352  34.080  1.00  0.00     0.057 A 
ATOM     84  C   UNL A   1      44.080  26.098  34.675  1.00  0.00     0.134 A 
ATOM     85  C   UNL A   1      45.574  27.869  34.071  1.00  0.00     0.134 A 
ATOM     86  F   UNL A   1      42.855  25.552  34.728  1.00  0.00    -0.206 F 
ATOM     87  C   UNL A   1      45.136  25.401  35.264  1.00  0.00     0.040 A 
ATOM     88  C   UNL A   1      46.643  27.169  34.633  1.00  0.00     0.040 A 
ATOM     89  F   UNL A   1      45.831  29.061  33.508  1.00  0.00    -0.206 F 
ATOM     90  C   UNL A   1      46.423  25.934  35.238  1.00  0.00     0.006 A 
ENDBRANCH  66  83
ENDBRANCH  40  41
ENDBRANCH  33  35
ENDBRANCH  32  33
ENDBRANCH  31  32
ENDBRANCH  30  31
ENDBRANCH   1  30
TORSDOF 18
ENDMDL
MODEL 3
REMARK VINA RESULT:     -11.7      4.433      9.951
REMARK SMILES O=C1CC[C@@H](CC(=O)N2CCC(Oc3ccccc3)(C(=O)OCCOCCOC(=O)c3ccc(-c4c5nc(c(-c6c(F)cccc6F)c6ccc([nH]6)c(-c6c(F)cccc6F)c6nc(c(-c7c(F)cccc7F)c7ccc4[nH]7)C=C6)C=C5)cc3)CC2)N1
REMARK SMILES IDX 25 1 24 2 23 3 22 4 20 5 21 6 12 7 7 8 8 9 9 10 10 11 86 12
REMARK SMILES IDX 11 13 85 14 6 15 5 16 1 17 2 18 3 19 87 20 4 21 13 23 14 24
REMARK SMILES IDX 15 25 19 26 16 27 18 28 17 29 26 30 27 31 28 32 29 33 30 34
REMARK SMILES IDX 31 35 32 36 84 37 33 38 83 39 34 40 35 41 36 42 77 43 37 44
REMARK SMILES IDX 82 45 76 46 78 47 38 48 81 49 75 50 74 51 39 53 65 54 48 55
REMARK SMILES IDX 64 56 49 57 52 58 63 59 79 60 50 61 51 62 62 64 80 65 53 66
REMARK SMILES IDX 40 67 41 68 46 69 42 70 43 71 45 72 47 73 44 74 66 75 67 76
REMARK SMILES IDX 72 77 68 78 69 79 71 80 73 81 70 82 54 83 55 84 60 85 56 86
REMARK SMILES IDX 57 87 59 88 61 89 58 90
REMARK H PARENT 87 22 78 52 52 63
REMARK Flexibility Score: inf
ROOT
ATOM      1  O   UNL A   1      37.862  21.469  25.181  1.00  0.00    -0.374 OA
ENDROOT
BRANCH   1   2
ATOM      2  C   UNL A   1      37.167  22.709  25.325  1.00  0.00     0.202 C 
BRANCH   2   3
ATOM      3  C   UNL A   1      35.853  22.715  26.115  1.00  0.00     0.261 C 
BRANCH   3   4
ATOM      4  O   UNL A   1      35.008  21.586  25.803  1.00  0.00    -0.460 OA
BRANCH   4   5
ATOM      5  C   UNL A   1      33.682  21.733  26.092  1.00  0.00     0.350 C 
ATOM      6  O   UNL A   1      33.248  21.788  27.240  1.00  0.00    -0.247 OA
BRANCH   5   7
ATOM      7  C   UNL A   1      32.772  21.833  24.841  1.00  0.00     0.209 C 
ATOM      8  C   UNL A   1      33.324  25.464  22.481  1.00  0.00     0.224 C 
ATOM      9  O   UNL A   1      33.286  25.301  21.250  1.00  0.00    -0.275 OA
ATOM     10  N   UNL A   1      33.333  24.340  23.296  1.00  0.00    -0.342 N 
ATOM     11  C   UNL A   1      33.394  23.038  22.618  1.00  0.00     0.124 C 
ATOM     12  C   UNL A   1      32.893  24.329  24.672  1.00  0.00     0.124 C 
ATOM     13  C   UNL A   1      33.552  21.795  23.507  1.00  0.00     0.082 C 
ATOM     14  C   UNL A   1      31.988  23.153  24.970  1.00  0.00     0.082 C 
BRANCH   8  15
ATOM     15  C   UNL A   1      33.523  26.917  22.949  1.00  0.00     0.125 C 
BRANCH  15  16
ATOM     16  C   UNL A   1      32.514  28.022  23.245  1.00  0.00     0.091 C 
ATOM     17  O   UNL A   1      29.830  29.525  21.562  1.00  0.00    -0.275 OA
ATOM     18  C   UNL A   1      30.555  28.942  22.349  1.00  0.00     0.220 C 
ATOM     19  C   UNL A   1      30.150  28.385  23.689  1.00  0.00     0.102 C 
ATOM     20  N   UNL A   1      31.885  28.659  22.131  1.00  0.00    -0.353 N 
ATOM     21  C   UNL A   1      31.387  27.647  24.199  1.00  0.00     0.035 C 
ATOM     22  H   UNL A   1      32.355  28.873  21.293  1.00  0.00     0.163 HD
ENDBRANCH  15  16
ENDBRANCH   8  15
BRANCH   7  23
ATOM     23  O   UNL A   1      31.992  20.615  25.002  1.00  0.00    -0.475 OA
BRANCH  23  24
ATOM     24  C   UNL A   1      32.479  19.514  24.358  1.00  0.00     0.121 A 
ATOM     25  C   UNL A   1      33.379  18.669  25.009  1.00  0.00     0.046 A 
ATOM     26  C   UNL A   1      32.113  19.274  23.037  1.00  0.00     0.046 A 
ATOM     27  C   UNL A   1      33.847  17.526  24.360  1.00  0.00     0.004 A 
ATOM     28  C   UNL A   1      32.594  18.138  22.386  1.00  0.00     0.004 A 
ATOM     29  C   UNL A   1      33.449  17.258  23.051  1.00  0.00     0.000 A 
ENDBRANCH  23  24
ENDBRANCH   7  23
ENDBRANCH   5   7
ENDBRANCH   4   5
ENDBRANCH   3   4
ENDBRANCH   2   3
ENDBRANCH   1   2
BRANCH   1  30
ATOM     30  C   UNL A   1      39.122  21.331  25.823  1.00  0.00     0.202 C 
BRANCH  30  31
ATOM     31  C   UNL A   1      39.640  19.910  26.090  1.00  0.00     0.261 C 
BRANCH  31  32
ATOM     32  O   UNL A   1      40.747  19.536  25.257  1.00  0.00    -0.460 OA
BRANCH  32  33
ATOM     33  C   UNL A   1      41.901  19.322  25.937  1.00  0.00     0.338 C 
ATOM     34  O   UNL A   1      42.489  18.265  26.089  1.00  0.00    -0.246 OA
BRANCH  33  35
ATOM     35  C   UNL A   1      42.485  20.609  26.351  1.00  0.00     0.060 A 
ATOM     36  C   UNL A   1      42.357  20.960  27.700  1.00  0.00     0.016 A 
ATOM     37  C   UNL A   1      43.080  21.483  25.439  1.00  0.00     0.016 A 
ATOM     38  C   UNL A   1      42.797  22.206  28.137  1.00  0.00     0.010 A 
ATOM     39  C   UNL A   1      43.511  22.741  25.879  1.00  0.00     0.010 A 
ATOM     40  C   UNL A   1      43.345  23.117  27.223  1.00  0.00    -0.014 A 
BRANCH  40  41
ATOM     41  C   UNL A   1      43.630  24.497  27.683  1.00  0.00     0.031 A 
ATOM     42  C   UNL A   1      45.050  24.987  27.708  1.00  0.00     0.074 A 
ATOM     43  C   UNL A   1      42.622  25.329  27.995  1.00  0.00     0.049 A 
ATOM     44  N   UNL A   1      45.509  26.183  27.974  1.00  0.00    -0.248 NA
ATOM     45  C   UNL A   1      46.090  23.998  27.385  1.00  0.00     0.031 C 
ATOM     46  C   UNL A   1      41.203  24.977  27.981  1.00  0.00     0.029 A 
ATOM     47  N   UNL A   1      42.638  26.649  28.368  1.00  0.00    -0.354 N 
ATOM     48  C   UNL A   1      46.889  26.096  27.841  1.00  0.00     0.074 A 
ATOM     49  C   UNL A   1      47.194  24.719  27.509  1.00  0.00     0.031 C 
ATOM     50  C   UNL A   1      40.483  26.059  28.320  1.00  0.00     0.029 A 
ATOM     51  C   UNL A   1      41.390  27.173  28.590  1.00  0.00     0.049 A 
ATOM     52  H   UNL A   1      43.468  27.171  28.466  1.00  0.00     0.167 HD
ATOM     53  C   UNL A   1      47.816  27.075  27.969  1.00  0.00     0.037 A 
ATOM     54  C   UNL A   1      41.021  28.412  28.969  1.00  0.00     0.037 A 
ATOM     55  C   UNL A   1      47.511  28.441  28.310  1.00  0.00     0.049 A 
ATOM     56  C   UNL A   1      42.075  29.467  29.169  1.00  0.00     0.074 A 
ATOM     57  C   UNL A   1      48.377  29.512  28.443  1.00  0.00     0.029 A 
ATOM     58  N   UNL A   1      46.239  28.919  28.589  1.00  0.00    -0.354 N 
ATOM     59  N   UNL A   1      43.372  29.385  28.996  1.00  0.00    -0.248 NA
ATOM     60  C   UNL A   1      41.610  30.790  29.611  1.00  0.00     0.031 C 
ATOM     61  C   UNL A   1      47.635  30.626  28.851  1.00  0.00     0.029 A 
ATOM     62  C   UNL A   1      46.300  30.261  28.924  1.00  0.00     0.049 A 
ATOM     63  H   UNL A   1      45.414  28.382  28.553  1.00  0.00     0.167 HD
ATOM     64  C   UNL A   1      43.877  30.645  29.289  1.00  0.00     0.074 A 
ATOM     65  C   UNL A   1      42.742  31.479  29.631  1.00  0.00     0.031 C 
ATOM     66  C   UNL A   1      45.163  31.075  29.275  1.00  0.00     0.037 A 
BRANCH  53  67
ATOM     67  C   UNL A   1      49.252  26.691  27.762  1.00  0.00     0.057 A 
ATOM     68  C   UNL A   1      49.859  26.744  26.500  1.00  0.00     0.134 A 
ATOM     69  C   UNL A   1      50.041  26.273  28.840  1.00  0.00     0.134 A 
ATOM     70  F   UNL A   1      49.155  27.122  25.423  1.00  0.00    -0.206 F 
ATOM     71  C   UNL A   1      51.191  26.369  26.314  1.00  0.00     0.040 A 
ATOM     72  C   UNL A   1      51.381  25.919  28.671  1.00  0.00     0.040 A 
ATOM     73  F   UNL A   1      49.525  26.202  30.077  1.00  0.00    -0.206 F 
ATOM     74  C   UNL A   1      51.957  25.959  27.403  1.00  0.00     0.006 A 
ENDBRANCH  53  67
BRANCH  54  75
ATOM     75  C   UNL A   1      39.585  28.724  29.175  1.00  0.00     0.057 A 
ATOM     76  C   UNL A   1      38.974  28.542  30.420  1.00  0.00     0.134 A 
ATOM     77  C   UNL A   1      38.791  29.211  28.131  1.00  0.00     0.134 A 
ATOM     78  F   UNL A   1      39.678  28.057  31.454  1.00  0.00    -0.206 F 
ATOM     79  C   UNL A   1      37.621  28.824  30.618  1.00  0.00     0.040 A 
ATOM     80  C   UNL A   1      37.443  29.520  28.320  1.00  0.00     0.040 A 
ATOM     81  F   UNL A   1      39.318  29.407  26.914  1.00  0.00    -0.206 F 
ATOM     82  C   UNL A   1      36.853  29.321  29.567  1.00  0.00     0.006 A 
ENDBRANCH  54  75
BRANCH  66  83
ATOM     83  C   UNL A   1      45.406  32.514  29.631  1.00  0.00     0.057 A 
ATOM     84  C   UNL A   1      45.681  32.911  30.946  1.00  0.00     0.134 A 
ATOM     85  C   UNL A   1      45.389  33.508  28.646  1.00  0.00     0.134 A 
ATOM     86  F   UNL A   1      45.699  32.010  31.940  1.00  0.00    -0.206 F 
ATOM     87  C   UNL A   1      45.899  34.251  31.272  1.00  0.00     0.040 A 
ATOM     88  C   UNL A   1      45.633  34.847  28.954  1.00  0.00     0.040 A 
ATOM     89  F   UNL A   1      45.142  33.194  27.364  1.00  0.00    -0.206 F 
ATOM     90  C   UNL A   1      45.882  35.223  30.273  1.00  0.00     0.006 A 
ENDBRANCH  66  83
ENDBRANCH  40  41
ENDBRANCH  33  35
ENDBRANCH  32  33
ENDBRANCH  31  32
ENDBRANCH  30  31
ENDBRANCH   1  30
TORSDOF 18
ENDMDL
