MODEL 1
REMARK VINA RESULT:     -12.9      0.000      0.000
REMARK SMILES O=C(Cn1nc(C(=O)OCCOCCOC(=O)c2ccc(-c3c4nc(c(-c5c(F)cccc5F)c5ccc([nH]5)c(-c5c(F)cccc5F)c5nc(c(-c6c(F)cccc6F)c6ccc3[nH]6)C=C5)C=C4)cc2)c2ccccc2c1=O)Nc1ccc2c(c1)C(=O)c1ccccc1C2=O
REMARK SMILES IDX 11 1 10 2 9 3 7 4 8 5 6 6 4 7 5 8 78 9 77 10 79 11 72 12
REMARK SMILES IDX 76 13 73 14 75 15 74 16 3 17 2 18 1 19 80 20 81 22 82 23
REMARK SMILES IDX 86 24 83 25 85 26 84 27 87 28 95 29 88 30 89 31 94 32 96 33
REMARK SMILES IDX 90 34 93 35 91 36 92 37 12 38 13 39 14 40 15 41 16 42 17 43
REMARK SMILES IDX 18 44 19 45 71 46 20 47 70 48 21 49 22 50 23 51 64 52 24 53
REMARK SMILES IDX 69 54 63 55 65 56 25 57 68 58 62 59 61 60 26 62 52 63 35 64
REMARK SMILES IDX 51 65 36 66 39 67 50 68 66 69 37 70 38 71 49 73 67 74 40 75
REMARK SMILES IDX 27 76 28 77 33 78 29 79 30 80 32 81 34 82 31 83 53 84 54 85
REMARK SMILES IDX 59 86 55 87 56 88 58 89 60 90 57 91 41 92 42 93 47 94 43 95
REMARK SMILES IDX 44 96 46 97 48 98 45 99
REMARK H PARENT 80 21 65 61 39 72
REMARK Flexibility Score: inf
ROOT
ATOM      1  C   UNL A   1      32.680  35.813  31.173  1.00  0.00     0.202 C 
ENDROOT
BRANCH   1   2
ATOM      2  C   UNL A   1      33.013  35.570  29.689  1.00  0.00     0.261 C 
BRANCH   2   3
ATOM      3  O   UNL A   1      33.306  34.177  29.446  1.00  0.00    -0.458 OA
BRANCH   3   4
ATOM      4  C   UNL A   1      33.959  33.912  28.294  1.00  0.00     0.359 C 
ATOM      5  O   UNL A   1      34.632  34.677  27.627  1.00  0.00    -0.244 OA
BRANCH   4   6
ATOM      6  C   UNL A   1      33.931  32.413  28.005  1.00  0.00     0.176 A 
ATOM      7  N   UNL A   1      32.881  30.571  27.060  1.00  0.00    -0.219 N 
ATOM      8  N   UNL A   1      32.891  31.922  27.386  1.00  0.00    -0.161 NA
ATOM      9  C   UNL A   1      33.964  29.716  27.306  1.00  0.00     0.275 A 
ATOM     10  C   UNL A   1      35.093  30.266  28.077  1.00  0.00     0.051 A 
ATOM     11  O   UNL A   1      34.015  28.552  26.920  1.00  0.00    -0.267 OA
ATOM     12  C   UNL A   1      35.092  31.606  28.435  1.00  0.00     0.022 A 
ATOM     13  C   UNL A   1      36.162  29.438  28.455  1.00  0.00     0.014 A 
ATOM     14  C   UNL A   1      36.157  32.120  29.195  1.00  0.00     0.011 A 
ATOM     15  C   UNL A   1      37.205  29.945  29.231  1.00  0.00     0.001 A 
ATOM     16  C   UNL A   1      37.196  31.283  29.612  1.00  0.00     0.001 A 
BRANCH   7  17
ATOM     17  C   UNL A   1      31.799  30.049  26.192  1.00  0.00     0.248 C 
BRANCH  17  18
ATOM     18  C   UNL A   1      32.168  29.258  24.927  1.00  0.00     0.246 C 
ATOM     19  O   UNL A   1      33.041  29.625  24.147  1.00  0.00    -0.273 OA
ATOM     20  N   UNL A   1      31.494  28.070  24.861  1.00  0.00    -0.324 N 
ATOM     21  H   UNL A   1      30.865  27.901  25.598  1.00  0.00     0.169 HD
BRANCH  20  22
ATOM     22  C   UNL A   1      31.569  27.066  23.898  1.00  0.00     0.042 A 
ATOM     23  C   UNL A   1      31.208  27.125  22.581  1.00  0.00     0.027 A 
ATOM     24  C   UNL A   1      32.141  25.878  24.350  1.00  0.00     0.039 A 
ATOM     25  C   UNL A   1      31.555  26.029  21.775  1.00  0.00     0.015 A 
ATOM     26  C   UNL A   1      32.666  24.635  23.480  1.00  0.00     0.036 A 
ATOM     27  C   UNL A   1      32.334  24.899  22.219  1.00  0.00     0.034 A 
ATOM     28  C   UNL A   1      33.658  22.779  23.944  1.00  0.00     0.194 C 
ATOM     29  C   UNL A   1      33.689  24.810  22.752  1.00  0.00     0.194 C 
ATOM     30  O   UNL A   1      33.383  21.508  23.876  1.00  0.00    -0.289 OA
ATOM     31  C   UNL A   1      34.742  22.612  24.721  1.00  0.00     0.034 A 
ATOM     32  C   UNL A   1      34.895  23.154  23.509  1.00  0.00     0.034 A 
ATOM     33  O   UNL A   1      34.028  25.984  22.256  1.00  0.00    -0.289 OA
ATOM     34  C   UNL A   1      35.380  21.857  25.705  1.00  0.00     0.013 A 
ATOM     35  C   UNL A   1      36.370  22.732  23.295  1.00  0.00     0.013 A 
ATOM     36  C   UNL A   1      36.733  21.792  25.549  1.00  0.00     0.001 A 
ATOM     37  C   UNL A   1      37.238  22.189  24.311  1.00  0.00     0.001 A 
ENDBRANCH  20  22
ENDBRANCH  17  18
ENDBRANCH   7  17
ENDBRANCH   4   6
ENDBRANCH   3   4
ENDBRANCH   2   3
ENDBRANCH   1   2
BRANCH   1  38
ATOM     38  O   UNL A   1      33.552  36.700  31.873  1.00  0.00    -0.374 OA
BRANCH  38  39
ATOM     39  C   UNL A   1      34.285  36.169  32.977  1.00  0.00     0.202 C 
BRANCH  39  40
ATOM     40  C   UNL A   1      34.770  34.727  32.867  1.00  0.00     0.261 C 
BRANCH  40  41
ATOM     41  O   UNL A   1      36.056  34.675  32.240  1.00  0.00    -0.460 OA
BRANCH  41  42
ATOM     42  C   UNL A   1      37.051  34.453  33.122  1.00  0.00     0.338 C 
ATOM     43  O   UNL A   1      37.052  34.697  34.313  1.00  0.00    -0.246 OA
BRANCH  42  44
ATOM     44  C   UNL A   1      38.105  33.679  32.434  1.00  0.00     0.060 A 
ATOM     45  C   UNL A   1      38.442  31.950  33.302  1.00  0.00     0.016 A 
ATOM     46  C   UNL A   1      38.821  34.362  30.728  1.00  0.00     0.016 A 
ATOM     47  C   UNL A   1      39.736  30.841  32.252  1.00  0.00     0.010 A 
ATOM     48  C   UNL A   1      40.264  33.348  29.839  1.00  0.00     0.010 A 
ATOM     49  C   UNL A   1      40.585  31.565  30.634  1.00  0.00    -0.014 A 
BRANCH  49  50
ATOM     50  C   UNL A   1      41.836  30.795  30.090  1.00  0.00     0.031 A 
ATOM     51  C   UNL A   1      41.739  29.429  29.388  1.00  0.00     0.074 A 
ATOM     52  C   UNL A   1      43.055  31.376  30.109  1.00  0.00     0.049 A 
ATOM     53  N   UNL A   1      42.697  28.652  28.919  1.00  0.00    -0.248 NA
ATOM     54  C   UNL A   1      40.424  28.806  29.240  1.00  0.00     0.031 C 
ATOM     55  C   UNL A   1      43.403  32.602  30.818  1.00  0.00     0.029 A 
ATOM     56  N   UNL A   1      44.219  31.058  29.441  1.00  0.00    -0.354 N 
ATOM     57  C   UNL A   1      42.082  27.448  28.557  1.00  0.00     0.074 A 
ATOM     58  C   UNL A   1      40.710  27.547  28.966  1.00  0.00     0.031 C 
ATOM     59  C   UNL A   1      44.588  33.051  30.379  1.00  0.00     0.029 A 
ATOM     60  C   UNL A   1      45.165  32.063  29.474  1.00  0.00     0.049 A 
ATOM     61  H   UNL A   1      44.362  30.198  28.984  1.00  0.00     0.167 HD
ATOM     62  C   UNL A   1      42.550  26.387  27.851  1.00  0.00     0.037 A 
ATOM     63  C   UNL A   1      46.361  32.175  28.859  1.00  0.00     0.037 A 
ATOM     64  C   UNL A   1      43.860  26.339  27.268  1.00  0.00     0.049 A 
ATOM     65  C   UNL A   1      46.865  31.013  28.046  1.00  0.00     0.074 A 
ATOM     66  C   UNL A   1      44.438  25.343  26.505  1.00  0.00     0.029 A 
ATOM     67  N   UNL A   1      44.779  27.372  27.351  1.00  0.00    -0.354 N 
ATOM     68  N   UNL A   1      46.268  29.883  27.751  1.00  0.00    -0.248 NA
ATOM     69  C   UNL A   1      48.235  31.122  27.520  1.00  0.00     0.031 C 
ATOM     70  C   UNL A   1      45.727  25.759  26.156  1.00  0.00     0.029 A 
ATOM     71  C   UNL A   1      45.928  27.035  26.660  1.00  0.00     0.049 A 
ATOM     72  H   UNL A   1      44.636  28.221  27.831  1.00  0.00     0.167 HD
ATOM     73  C   UNL A   1      47.187  29.145  27.018  1.00  0.00     0.074 A 
ATOM     74  C   UNL A   1      48.366  29.973  26.872  1.00  0.00     0.031 C 
ATOM     75  C   UNL A   1      47.082  27.885  26.528  1.00  0.00     0.037 A 
BRANCH  62  76
ATOM     76  C   UNL A   1      41.618  25.211  27.655  1.00  0.00     0.057 A 
ATOM     77  C   UNL A   1      40.610  25.254  26.683  1.00  0.00     0.134 A 
ATOM     78  C   UNL A   1      41.749  24.014  28.379  1.00  0.00     0.134 A 
ATOM     79  F   UNL A   1      40.399  26.370  25.969  1.00  0.00    -0.206 F 
ATOM     80  C   UNL A   1      39.803  24.145  26.410  1.00  0.00     0.040 A 
ATOM     81  C   UNL A   1      40.978  22.885  28.084  1.00  0.00     0.040 A 
ATOM     82  F   UNL A   1      42.695  23.890  29.323  1.00  0.00    -0.206 F 
ATOM     83  C   UNL A   1      40.004  22.949  27.093  1.00  0.00     0.006 A 
ENDBRANCH  62  76
BRANCH  63  84
ATOM     84  C   UNL A   1      47.177  33.418  28.999  1.00  0.00     0.057 A 
ATOM     85  C   UNL A   1      48.165  33.547  29.984  1.00  0.00     0.134 A 
ATOM     86  C   UNL A   1      46.998  34.512  28.139  1.00  0.00     0.134 A 
ATOM     87  F   UNL A   1      48.406  32.540  30.836  1.00  0.00    -0.206 F 
ATOM     88  C   UNL A   1      48.909  34.720  30.138  1.00  0.00     0.040 A 
ATOM     89  C   UNL A   1      47.763  35.677  28.255  1.00  0.00     0.040 A 
ATOM     90  F   UNL A   1      46.096  34.451  27.147  1.00  0.00    -0.206 F 
ATOM     91  C   UNL A   1      48.714  35.788  29.267  1.00  0.00     0.006 A 
ENDBRANCH  63  84
BRANCH  75  92
ATOM     92  C   UNL A   1      48.260  27.345  25.776  1.00  0.00     0.057 A 
ATOM     93  C   UNL A   1      49.327  26.749  26.457  1.00  0.00     0.134 A 
ATOM     94  C   UNL A   1      48.350  27.444  24.383  1.00  0.00     0.134 A 
ATOM     95  F   UNL A   1      49.307  26.640  27.795  1.00  0.00    -0.206 F 
ATOM     96  C   UNL A   1      50.444  26.266  25.777  1.00  0.00     0.040 A 
ATOM     97  C   UNL A   1      49.448  26.938  23.689  1.00  0.00     0.040 A 
ATOM     98  F   UNL A   1      47.355  27.999  23.674  1.00  0.00    -0.206 F 
ATOM     99  C   UNL A   1      50.502  26.351  24.387  1.00  0.00     0.006 A 
ENDBRANCH  75  92
ENDBRANCH  49  50
ENDBRANCH  42  44
ENDBRANCH  41  42
ENDBRANCH  40  41
ENDBRANCH  39  40
ENDBRANCH  38  39
ENDBRANCH   1  38
TORSDOF 17
ENDMDL
MODEL 2
REMARK VINA RESULT:     -12.5      3.120      7.918
REMARK SMILES O=C(Cn1nc(C(=O)OCCOCCOC(=O)c2ccc(-c3c4nc(c(-c5c(F)cccc5F)c5ccc([nH]5)c(-c5c(F)cccc5F)c5nc(c(-c6c(F)cccc6F)c6ccc3[nH]6)C=C5)C=C4)cc2)c2ccccc2c1=O)Nc1ccc2c(c1)C(=O)c1ccccc1C2=O
REMARK SMILES IDX 11 1 10 2 9 3 7 4 8 5 6 6 4 7 5 8 78 9 77 10 79 11 72 12
REMARK SMILES IDX 76 13 73 14 75 15 74 16 3 17 2 18 1 19 80 20 81 22 82 23
REMARK SMILES IDX 86 24 83 25 85 26 84 27 87 28 95 29 88 30 89 31 94 32 96 33
REMARK SMILES IDX 90 34 93 35 91 36 92 37 12 38 13 39 14 40 15 41 16 42 17 43
REMARK SMILES IDX 18 44 19 45 71 46 20 47 70 48 21 49 22 50 23 51 64 52 24 53
REMARK SMILES IDX 69 54 63 55 65 56 25 57 68 58 62 59 61 60 26 62 52 63 35 64
REMARK SMILES IDX 51 65 36 66 39 67 50 68 66 69 37 70 38 71 49 73 67 74 40 75
REMARK SMILES IDX 27 76 28 77 33 78 29 79 30 80 32 81 34 82 31 83 53 84 54 85
REMARK SMILES IDX 59 86 55 87 56 88 58 89 60 90 57 91 41 92 42 93 47 94 43 95
REMARK SMILES IDX 44 96 46 97 48 98 45 99
REMARK H PARENT 80 21 65 61 39 72
REMARK Flexibility Score: inf
ROOT
ATOM      1  C   UNL A   1      39.646  26.442  27.874  1.00  0.00     0.202 C 
ENDROOT
BRANCH   1   2
ATOM      2  C   UNL A   1      39.281  27.330  29.078  1.00  0.00     0.261 C 
BRANCH   2   3
ATOM      3  O   UNL A   1      38.548  28.501  28.654  1.00  0.00    -0.458 OA
BRANCH   3   4
ATOM      4  C   UNL A   1      37.688  29.010  29.562  1.00  0.00     0.359 C 
ATOM      5  O   UNL A   1      37.563  28.690  30.730  1.00  0.00    -0.244 OA
BRANCH   4   6
ATOM      6  C   UNL A   1      36.987  30.241  28.992  1.00  0.00     0.176 A 
ATOM      7  N   UNL A   1      35.174  31.189  27.895  1.00  0.00    -0.219 N 
ATOM      8  N   UNL A   1      35.855  30.071  28.363  1.00  0.00    -0.161 NA
ATOM      9  C   UNL A   1      35.610  32.501  28.121  1.00  0.00     0.275 A 
ATOM     10  C   UNL A   1      36.928  32.671  28.759  1.00  0.00     0.051 A 
ATOM     11  O   UNL A   1      34.962  33.497  27.816  1.00  0.00    -0.267 OA
ATOM     12  C   UNL A   1      37.628  31.556  29.197  1.00  0.00     0.022 A 
ATOM     13  C   UNL A   1      37.477  33.953  28.918  1.00  0.00     0.014 A 
ATOM     14  C   UNL A   1      38.896  31.720  29.779  1.00  0.00     0.011 A 
ATOM     15  C   UNL A   1      38.749  34.111  29.473  1.00  0.00     0.001 A 
ATOM     16  C   UNL A   1      39.463  32.993  29.892  1.00  0.00     0.001 A 
BRANCH   7  17
ATOM     17  C   UNL A   1      33.804  31.022  27.355  1.00  0.00     0.248 C 
BRANCH  17  18
ATOM     18  C   UNL A   1      33.505  29.839  26.421  1.00  0.00     0.246 C 
ATOM     19  O   UNL A   1      34.387  29.212  25.842  1.00  0.00    -0.273 OA
ATOM     20  N   UNL A   1      32.176  29.520  26.421  1.00  0.00    -0.324 N 
ATOM     21  H   UNL A   1      31.605  30.091  26.984  1.00  0.00     0.169 HD
BRANCH  20  22
ATOM     22  C   UNL A   1      31.512  28.503  25.738  1.00  0.00     0.042 A 
ATOM     23  C   UNL A   1      30.837  28.579  24.551  1.00  0.00     0.027 A 
ATOM     24  C   UNL A   1      31.615  27.248  26.333  1.00  0.00     0.039 A 
ATOM     25  C   UNL A   1      30.411  27.369  23.981  1.00  0.00     0.015 A 
ATOM     26  C   UNL A   1      31.257  25.816  25.701  1.00  0.00     0.036 A 
ATOM     27  C   UNL A   1      30.712  26.062  24.512  1.00  0.00     0.034 A 
ATOM     28  C   UNL A   1      31.427  23.779  26.382  1.00  0.00     0.194 C 
ATOM     29  C   UNL A   1      31.983  25.387  24.755  1.00  0.00     0.194 C 
ATOM     30  O   UNL A   1      30.618  22.804  26.684  1.00  0.00    -0.289 OA
ATOM     31  C   UNL A   1      32.507  23.196  26.932  1.00  0.00     0.034 A 
ATOM     32  C   UNL A   1      32.510  23.453  25.621  1.00  0.00     0.034 A 
ATOM     33  O   UNL A   1      32.633  26.183  23.928  1.00  0.00    -0.289 OA
ATOM     34  C   UNL A   1      33.012  22.344  27.913  1.00  0.00     0.013 A 
ATOM     35  C   UNL A   1      33.513  22.345  25.211  1.00  0.00     0.013 A 
ATOM     36  C   UNL A   1      34.085  21.612  27.497  1.00  0.00     0.001 A 
ATOM     37  C   UNL A   1      34.316  21.569  26.123  1.00  0.00     0.001 A 
ENDBRANCH  20  22
ENDBRANCH  17  18
ENDBRANCH   7  17
ENDBRANCH   4   6
ENDBRANCH   3   4
ENDBRANCH   2   3
ENDBRANCH   1   2
BRANCH   1  38
ATOM     38  O   UNL A   1      39.559  25.033  28.088  1.00  0.00    -0.374 OA
BRANCH  38  39
ATOM     39  C   UNL A   1      39.190  24.219  26.976  1.00  0.00     0.202 C 
BRANCH  39  40
ATOM     40  C   UNL A   1      39.768  22.808  26.919  1.00  0.00     0.261 C 
BRANCH  40  41
ATOM     41  O   UNL A   1      40.760  22.629  27.935  1.00  0.00    -0.460 OA
BRANCH  41  42
ATOM     42  C   UNL A   1      41.953  22.255  27.432  1.00  0.00     0.338 C 
ATOM     43  O   UNL A   1      42.277  21.151  27.041  1.00  0.00    -0.246 OA
BRANCH  42  44
ATOM     44  C   UNL A   1      42.774  23.471  27.255  1.00  0.00     0.060 A 
ATOM     45  C   UNL A   1      42.762  24.111  25.399  1.00  0.00     0.016 A 
ATOM     46  C   UNL A   1      43.539  24.339  28.853  1.00  0.00     0.016 A 
ATOM     47  C   UNL A   1      43.724  25.857  25.218  1.00  0.00     0.010 A 
ATOM     48  C   UNL A   1      44.675  25.935  28.605  1.00  0.00     0.010 A 
ATOM     49  C   UNL A   1      44.632  26.659  26.765  1.00  0.00    -0.014 A 
BRANCH  49  50
ATOM     50  C   UNL A   1      45.653  27.809  26.464  1.00  0.00     0.031 A 
ATOM     51  C   UNL A   1      45.328  29.297  26.682  1.00  0.00     0.074 A 
ATOM     52  C   UNL A   1      46.924  27.516  26.113  1.00  0.00     0.049 A 
ATOM     53  N   UNL A   1      46.063  30.366  26.439  1.00  0.00    -0.248 NA
ATOM     54  C   UNL A   1      43.999  29.662  27.170  1.00  0.00     0.031 C 
ATOM     55  C   UNL A   1      47.423  26.198  25.739  1.00  0.00     0.029 A 
ATOM     56  N   UNL A   1      48.060  28.299  26.095  1.00  0.00    -0.354 N 
ATOM     57  C   UNL A   1      45.227  31.469  26.637  1.00  0.00     0.074 A 
ATOM     58  C   UNL A   1      43.914  30.950  26.896  1.00  0.00     0.031 C 
ATOM     59  C   UNL A   1      48.764  26.206  25.753  1.00  0.00     0.029 A 
ATOM     60  C   UNL A   1      49.227  27.571  25.977  1.00  0.00     0.049 A 
ATOM     61  H   UNL A   1      48.041  29.280  26.158  1.00  0.00     0.167 HD
ATOM     62  C   UNL A   1      45.506  32.796  26.714  1.00  0.00     0.037 A 
ATOM     63  C   UNL A   1      50.520  27.954  26.032  1.00  0.00     0.037 A 
ATOM     64  C   UNL A   1      46.836  33.330  26.644  1.00  0.00     0.049 A 
ATOM     65  C   UNL A   1      50.833  29.422  26.155  1.00  0.00     0.074 A 
ATOM     66  C   UNL A   1      47.253  34.644  26.744  1.00  0.00     0.029 A 
ATOM     67  N   UNL A   1      47.973  32.552  26.504  1.00  0.00    -0.354 N 
ATOM     68  N   UNL A   1      50.014  30.436  26.309  1.00  0.00    -0.248 NA
ATOM     69  C   UNL A   1      52.249  29.805  26.060  1.00  0.00     0.031 C 
ATOM     70  C   UNL A   1      48.647  34.664  26.627  1.00  0.00     0.029 A 
ATOM     71  C   UNL A   1      49.097  33.358  26.505  1.00  0.00     0.049 A 
ATOM     72  H   UNL A   1      47.981  31.571  26.417  1.00  0.00     0.167 HD
ATOM     73  C   UNL A   1      50.812  31.572  26.320  1.00  0.00     0.074 A 
ATOM     74  C   UNL A   1      52.183  31.121  26.203  1.00  0.00     0.031 C 
ATOM     75  C   UNL A   1      50.448  32.877  26.394  1.00  0.00     0.037 A 
BRANCH  62  76
ATOM     76  C   UNL A   1      44.345  33.746  26.911  1.00  0.00     0.057 A 
ATOM     77  C   UNL A   1      43.912  34.086  28.200  1.00  0.00     0.134 A 
ATOM     78  C   UNL A   1      43.691  34.373  25.837  1.00  0.00     0.134 A 
ATOM     79  F   UNL A   1      44.464  33.509  29.278  1.00  0.00    -0.206 F 
ATOM     80  C   UNL A   1      42.912  35.039  28.413  1.00  0.00     0.040 A 
ATOM     81  C   UNL A   1      42.721  35.361  26.040  1.00  0.00     0.040 A 
ATOM     82  F   UNL A   1      44.051  34.106  24.572  1.00  0.00    -0.206 F 
ATOM     83  C   UNL A   1      42.332  35.698  27.332  1.00  0.00     0.006 A 
ENDBRANCH  62  76
BRANCH  63  84
ATOM     84  C   UNL A   1      51.620  26.947  25.952  1.00  0.00     0.057 A 
ATOM     85  C   UNL A   1      52.087  26.458  24.724  1.00  0.00     0.134 A 
ATOM     86  C   UNL A   1      52.243  26.450  27.106  1.00  0.00     0.134 A 
ATOM     87  F   UNL A   1      51.552  26.895  23.575  1.00  0.00    -0.206 F 
ATOM     88  C   UNL A   1      53.093  25.493  24.647  1.00  0.00     0.040 A 
ATOM     89  C   UNL A   1      53.279  25.513  27.043  1.00  0.00     0.040 A 
ATOM     90  F   UNL A   1      51.875  26.896  28.317  1.00  0.00    -0.206 F 
ATOM     91  C   UNL A   1      53.698  25.021  25.809  1.00  0.00     0.006 A 
ENDBRANCH  63  84
BRANCH  75  92
ATOM     92  C   UNL A   1      51.548  33.893  26.372  1.00  0.00     0.057 A 
ATOM     93  C   UNL A   1      52.194  34.269  27.555  1.00  0.00     0.134 A 
ATOM     94  C   UNL A   1      51.946  34.520  25.185  1.00  0.00     0.134 A 
ATOM     95  F   UNL A   1      51.847  33.717  28.728  1.00  0.00    -0.206 F 
ATOM     96  C   UNL A   1      53.201  35.233  27.558  1.00  0.00     0.040 A 
ATOM     97  C   UNL A   1      52.972  35.463  25.171  1.00  0.00     0.040 A 
ATOM     98  F   UNL A   1      51.369  34.195  24.017  1.00  0.00    -0.206 F 
ATOM     99  C   UNL A   1      53.599  35.826  26.361  1.00  0.00     0.006 A 
ENDBRANCH  75  92
ENDBRANCH  49  50
ENDBRANCH  42  44
ENDBRANCH  41  42
ENDBRANCH  40  41
ENDBRANCH  39  40
ENDBRANCH  38  39
ENDBRANCH   1  38
TORSDOF 17
ENDMDL
MODEL 3
REMARK VINA RESULT:     -12.3      3.176      8.178
REMARK SMILES O=C(Cn1nc(C(=O)OCCOCCOC(=O)c2ccc(-c3c4nc(c(-c5c(F)cccc5F)c5ccc([nH]5)c(-c5c(F)cccc5F)c5nc(c(-c6c(F)cccc6F)c6ccc3[nH]6)C=C5)C=C4)cc2)c2ccccc2c1=O)Nc1ccc2c(c1)C(=O)c1ccccc1C2=O
REMARK SMILES IDX 11 1 10 2 9 3 7 4 8 5 6 6 4 7 5 8 78 9 77 10 79 11 72 12
REMARK SMILES IDX 76 13 73 14 75 15 74 16 3 17 2 18 1 19 80 20 81 22 82 23
REMARK SMILES IDX 86 24 83 25 85 26 84 27 87 28 95 29 88 30 89 31 94 32 96 33
REMARK SMILES IDX 90 34 93 35 91 36 92 37 12 38 13 39 14 40 15 41 16 42 17 43
REMARK SMILES IDX 18 44 19 45 71 46 20 47 70 48 21 49 22 50 23 51 64 52 24 53
REMARK SMILES IDX 69 54 63 55 65 56 25 57 68 58 62 59 61 60 26 62 52 63 35 64
REMARK SMILES IDX 51 65 36 66 39 67 50 68 66 69 37 70 38 71 49 73 67 74 40 75
REMARK SMILES IDX 27 76 28 77 33 78 29 79 30 80 32 81 34 82 31 83 53 84 54 85
REMARK SMILES IDX 59 86 55 87 56 88 58 89 60 90 57 91 41 92 42 93 47 94 43 95
REMARK SMILES IDX 44 96 46 97 48 98 45 99
REMARK H PARENT 80 21 65 61 39 72
REMARK Flexibility Score: inf
ROOT
ATOM      1  C   UNL A   1      38.802  27.890  30.183  1.00  0.00     0.202 C 
ENDROOT
BRANCH   1   2
ATOM      2  C   UNL A   1      39.147  29.105  31.065  1.00  0.00     0.261 C 
BRANCH   2   3
ATOM      3  O   UNL A   1      38.260  30.211  30.792  1.00  0.00    -0.458 OA
BRANCH   3   4
ATOM      4  C   UNL A   1      37.019  30.106  31.316  1.00  0.00     0.359 C 
ATOM      5  O   UNL A   1      36.624  29.299  32.138  1.00  0.00    -0.244 OA
BRANCH   4   6
ATOM      6  C   UNL A   1      36.167  31.302  30.896  1.00  0.00     0.176 A 
ATOM      7  N   UNL A   1      34.997  32.455  29.257  1.00  0.00    -0.219 N 
ATOM      8  N   UNL A   1      35.826  31.407  29.640  1.00  0.00    -0.161 NA
ATOM      9  C   UNL A   1      34.454  33.374  30.165  1.00  0.00     0.275 A 
ATOM     10  C   UNL A   1      34.915  33.290  31.563  1.00  0.00     0.051 A 
ATOM     11  O   UNL A   1      33.632  34.231  29.858  1.00  0.00    -0.267 OA
ATOM     12  C   UNL A   1      35.769  32.266  31.943  1.00  0.00     0.022 A 
ATOM     13  C   UNL A   1      34.498  34.245  32.503  1.00  0.00     0.014 A 
ATOM     14  C   UNL A   1      36.229  32.206  33.270  1.00  0.00     0.011 A 
ATOM     15  C   UNL A   1      34.976  34.197  33.814  1.00  0.00     0.001 A 
ATOM     16  C   UNL A   1      35.852  33.186  34.194  1.00  0.00     0.001 A 
BRANCH   7  17
ATOM     17  C   UNL A   1      34.450  32.472  27.879  1.00  0.00     0.248 C 
BRANCH  17  18
ATOM     18  C   UNL A   1      33.591  31.292  27.399  1.00  0.00     0.246 C 
ATOM     19  O   UNL A   1      32.365  31.298  27.457  1.00  0.00    -0.273 OA
ATOM     20  N   UNL A   1      34.351  30.321  26.809  1.00  0.00    -0.324 N 
ATOM     21  H   UNL A   1      35.320  30.495  26.796  1.00  0.00     0.169 HD
BRANCH  20  22
ATOM     22  C   UNL A   1      33.953  29.120  26.226  1.00  0.00     0.042 A 
ATOM     23  C   UNL A   1      34.239  27.845  26.630  1.00  0.00     0.027 A 
ATOM     24  C   UNL A   1      33.109  29.266  25.127  1.00  0.00     0.039 A 
ATOM     25  C   UNL A   1      33.563  26.803  25.976  1.00  0.00     0.015 A 
ATOM     26  C   UNL A   1      32.219  28.144  24.402  1.00  0.00     0.036 A 
ATOM     27  C   UNL A   1      32.535  26.989  24.982  1.00  0.00     0.034 A 
ATOM     28  C   UNL A   1      30.792  28.159  22.787  1.00  0.00     0.194 C 
ATOM     29  C   UNL A   1      31.240  27.657  25.044  1.00  0.00     0.194 C 
ATOM     30  O   UNL A   1      30.710  27.670  21.583  1.00  0.00    -0.289 OA
ATOM     31  C   UNL A   1      29.750  28.995  22.634  1.00  0.00     0.034 A 
ATOM     32  C   UNL A   1      29.679  28.039  23.566  1.00  0.00     0.034 A 
ATOM     33  O   UNL A   1      31.202  27.594  26.361  1.00  0.00    -0.289 OA
ATOM     34  C   UNL A   1      28.991  29.783  21.770  1.00  0.00     0.013 A 
ATOM     35  C   UNL A   1      28.135  27.919  23.599  1.00  0.00     0.013 A 
ATOM     36  C   UNL A   1      27.664  29.808  22.082  1.00  0.00     0.001 A 
ATOM     37  C   UNL A   1      27.213  28.835  22.972  1.00  0.00     0.001 A 
ENDBRANCH  20  22
ENDBRANCH  17  18
ENDBRANCH   7  17
ENDBRANCH   4   6
ENDBRANCH   3   4
ENDBRANCH   2   3
ENDBRANCH   1   2
BRANCH   1  38
ATOM     38  O   UNL A   1      39.007  28.058  28.781  1.00  0.00    -0.374 OA
BRANCH  38  39
ATOM     39  C   UNL A   1      39.250  26.886  28.004  1.00  0.00     0.202 C 
BRANCH  39  40
ATOM     40  C   UNL A   1      39.766  25.653  28.740  1.00  0.00     0.261 C 
BRANCH  40  41
ATOM     41  O   UNL A   1      39.531  24.471  27.967  1.00  0.00    -0.460 OA
BRANCH  41  42
ATOM     42  C   UNL A   1      40.652  23.746  27.778  1.00  0.00     0.338 C 
ATOM     43  O   UNL A   1      40.757  22.536  27.766  1.00  0.00    -0.246 OA
BRANCH  42  44
ATOM     44  C   UNL A   1      41.736  24.676  27.398  1.00  0.00     0.060 A 
ATOM     45  C   UNL A   1      43.114  24.818  28.790  1.00  0.00     0.016 A 
ATOM     46  C   UNL A   1      41.746  25.424  25.573  1.00  0.00     0.016 A 
ATOM     47  C   UNL A   1      44.660  25.934  28.181  1.00  0.00     0.010 A 
ATOM     48  C   UNL A   1      43.170  26.704  25.088  1.00  0.00     0.010 A 
ATOM     49  C   UNL A   1      44.619  26.822  26.428  1.00  0.00    -0.014 A 
BRANCH  49  50
ATOM     50  C   UNL A   1      45.677  27.952  26.186  1.00  0.00     0.031 A 
ATOM     51  C   UNL A   1      45.400  29.437  26.476  1.00  0.00     0.074 A 
ATOM     52  C   UNL A   1      46.940  27.635  25.825  1.00  0.00     0.049 A 
ATOM     53  N   UNL A   1      46.170  30.492  26.287  1.00  0.00    -0.248 NA
ATOM     54  C   UNL A   1      44.080  29.821  26.978  1.00  0.00     0.031 C 
ATOM     55  C   UNL A   1      47.398  26.321  25.389  1.00  0.00     0.029 A 
ATOM     56  N   UNL A   1      48.101  28.381  25.849  1.00  0.00    -0.354 N 
ATOM     57  C   UNL A   1      45.368  31.611  26.536  1.00  0.00     0.074 A 
ATOM     58  C   UNL A   1      44.038  31.122  26.766  1.00  0.00     0.031 C 
ATOM     59  C   UNL A   1      48.739  26.286  25.408  1.00  0.00     0.029 A 
ATOM     60  C   UNL A   1      49.245  27.622  25.699  1.00  0.00     0.049 A 
ATOM     61  H   UNL A   1      48.112  29.358  25.960  1.00  0.00     0.167 HD
ATOM     62  C   UNL A   1      45.690  32.923  26.680  1.00  0.00     0.037 A 
ATOM     63  C   UNL A   1      50.549  27.961  25.777  1.00  0.00     0.037 A 
ATOM     64  C   UNL A   1      47.036  33.416  26.639  1.00  0.00     0.049 A 
ATOM     65  C   UNL A   1      50.907  29.410  25.972  1.00  0.00     0.074 A 
ATOM     66  C   UNL A   1      47.495  34.709  26.804  1.00  0.00     0.029 A 
ATOM     67  N   UNL A   1      48.149  32.609  26.465  1.00  0.00    -0.354 N 
ATOM     68  N   UNL A   1      50.121  30.441  26.173  1.00  0.00    -0.248 NA
ATOM     69  C   UNL A   1      52.336  29.752  25.900  1.00  0.00     0.031 C 
ATOM     70  C   UNL A   1      48.889  34.690  26.693  1.00  0.00     0.029 A 
ATOM     71  C   UNL A   1      49.297  33.378  26.509  1.00  0.00     0.049 A 
ATOM     72  H   UNL A   1      48.125  31.634  26.330  1.00  0.00     0.167 HD
ATOM     73  C   UNL A   1      50.955  31.549  26.242  1.00  0.00     0.074 A 
ATOM     74  C   UNL A   1      52.311  31.060  26.107  1.00  0.00     0.031 C 
ATOM     75  C   UNL A   1      50.633  32.859  26.378  1.00  0.00     0.037 A 
BRANCH  62  76
ATOM     76  C   UNL A   1      44.558  33.899  26.919  1.00  0.00     0.057 A 
ATOM     77  C   UNL A   1      44.237  34.312  28.218  1.00  0.00     0.134 A 
ATOM     78  C   UNL A   1      43.825  34.479  25.870  1.00  0.00     0.134 A 
ATOM     79  F   UNL A   1      44.869  33.785  29.277  1.00  0.00    -0.206 F 
ATOM     80  C   UNL A   1      43.268  35.291  28.461  1.00  0.00     0.040 A 
ATOM     81  C   UNL A   1      42.886  35.490  26.097  1.00  0.00     0.040 A 
ATOM     82  F   UNL A   1      44.077  34.140  24.596  1.00  0.00    -0.206 F 
ATOM     83  C   UNL A   1      42.607  35.900  27.397  1.00  0.00     0.006 A 
ENDBRANCH  62  76
BRANCH  63  84
ATOM     84  C   UNL A   1      51.616  26.923  25.651  1.00  0.00     0.057 A 
ATOM     85  C   UNL A   1      52.196  26.606  24.415  1.00  0.00     0.134 A 
ATOM     86  C   UNL A   1      52.093  26.225  26.770  1.00  0.00     0.134 A 
ATOM     87  F   UNL A   1      51.803  27.239  23.301  1.00  0.00    -0.206 F 
ATOM     88  C   UNL A   1      53.172  25.614  24.289  1.00  0.00     0.040 A 
ATOM     89  C   UNL A   1      53.098  25.258  26.665  1.00  0.00     0.040 A 
ATOM     90  F   UNL A   1      51.613  26.498  27.992  1.00  0.00    -0.206 F 
ATOM     91  C   UNL A   1      53.631  24.941  25.418  1.00  0.00     0.006 A 
ENDBRANCH  63  84
BRANCH  75  92
ATOM     92  C   UNL A   1      51.765  33.840  26.409  1.00  0.00     0.057 A 
ATOM     93  C   UNL A   1      52.396  34.161  27.616  1.00  0.00     0.134 A 
ATOM     94  C   UNL A   1      52.209  34.487  25.250  1.00  0.00     0.134 A 
ATOM     95  F   UNL A   1      52.005  33.587  28.765  1.00  0.00    -0.206 F 
ATOM     96  C   UNL A   1      53.433  35.091  27.668  1.00  0.00     0.040 A 
ATOM     97  C   UNL A   1      53.265  35.396  25.285  1.00  0.00     0.040 A 
ATOM     98  F   UNL A   1      51.648  34.214  24.061  1.00  0.00    -0.206 F 
ATOM     99  C   UNL A   1      53.877  35.704  26.498  1.00  0.00     0.006 A 
ENDBRANCH  75  92
ENDBRANCH  49  50
ENDBRANCH  42  44
ENDBRANCH  41  42
ENDBRANCH  40  41
ENDBRANCH  39  40
ENDBRANCH  38  39
ENDBRANCH   1  38
TORSDOF 17
ENDMDL
