MODEL 1
REMARK VINA RESULT:      -9.2      0.000      0.000
REMARK SMILES C[C@H](C[N@H+](C)[C@H]1CC[C@H]([NH3+])CC1)C(=O)OCCOCCOC(=O)c1ccc(-c2c3nc(c(-c4c(F)cccc4F)c4ccc([nH]4)c(-c4c(F)cccc4F)c4nc(c(-c5c(F)cccc5F)c5ccc2[nH]5)C=C4)C=C3)cc1
REMARK SMILES IDX 17 1 16 2 15 3 13 4 14 5 2 6 1 7 3 8 4 9 5 10 6 12 7 13
REMARK SMILES IDX 12 14 8 15 11 16 9 17 10 18 18 22 19 23 20 24 21 25 22 26
REMARK SMILES IDX 23 27 24 28 25 29 77 30 26 31 76 32 27 33 28 34 29 35 70 36
REMARK SMILES IDX 30 37 75 38 69 39 71 40 31 41 74 42 68 43 67 44 32 46 58 47
REMARK SMILES IDX 41 48 57 49 42 50 45 51 56 52 72 53 43 54 44 55 55 57 73 58
REMARK SMILES IDX 46 59 33 60 34 61 39 62 35 63 36 64 38 65 40 66 37 67 59 68
REMARK SMILES IDX 60 69 65 70 61 71 62 72 64 73 66 74 63 75 47 76 48 77 53 78
REMARK SMILES IDX 49 79 50 80 52 81 54 82 51 83
REMARK H PARENT 4 11 10 19 10 20 10 21 71 45 45 56
REMARK Flexibility Score: inf
ROOT
ATOM      1  C   UNL A   1      33.285  34.112  28.064  1.00  0.00     0.202 C 
ENDROOT
BRANCH   1   2
ATOM      2  C   UNL A   1      33.874  35.191  28.968  1.00  0.00     0.261 C 
BRANCH   2   3
ATOM      3  O   UNL A   1      33.605  34.952  30.355  1.00  0.00    -0.463 OA
BRANCH   3   4
ATOM      4  C   UNL A   1      33.291  36.051  31.096  1.00  0.00     0.314 C 
ATOM      5  O   UNL A   1      32.732  37.056  30.679  1.00  0.00    -0.252 OA
BRANCH   4   6
ATOM      6  C   UNL A   1      33.830  35.918  32.501  1.00  0.00     0.151 C 
ATOM      7  C   UNL A   1      33.946  37.356  33.023  1.00  0.00     0.026 C 
BRANCH   6   8
ATOM      8  C   UNL A   1      35.096  35.003  32.521  1.00  0.00     0.277 C 
BRANCH   8   9
ATOM      9  N   UNL A   1      35.008  33.572  32.904  1.00  0.00    -0.334 N 
ATOM     10  C   UNL A   1      33.660  33.205  33.334  1.00  0.00     0.332 C 
ATOM     11  H   UNL A   1      35.193  33.053  32.045  1.00  0.00     0.348 HD
BRANCH   9  12
ATOM     12  C   UNL A   1      36.062  33.097  33.790  1.00  0.00     0.184 C 
ATOM     13  C   UNL A   1      36.570  34.123  34.811  1.00  0.00     0.071 C 
ATOM     14  C   UNL A   1      37.263  32.398  33.150  1.00  0.00     0.071 C 
ATOM     15  C   UNL A   1      37.206  33.339  35.967  1.00  0.00     0.071 C 
ATOM     16  C   UNL A   1      37.935  31.547  34.230  1.00  0.00     0.071 C 
ATOM     17  C   UNL A   1      38.289  32.346  35.498  1.00  0.00     0.181 C 
BRANCH  17  18
ATOM     18  N   UNL A   1      38.586  31.397  36.575  1.00  0.00    -0.355 N 
ATOM     19  H   UNL A   1      38.387  30.449  36.257  1.00  0.00     0.344 HD
ATOM     20  H   UNL A   1      38.006  31.612  37.386  1.00  0.00     0.344 HD
ATOM     21  H   UNL A   1      39.570  31.472  36.830  1.00  0.00     0.344 HD
ENDBRANCH  17  18
ENDBRANCH   9  12
ENDBRANCH   8   9
ENDBRANCH   6   8
ENDBRANCH   4   6
ENDBRANCH   3   4
ENDBRANCH   2   3
ENDBRANCH   1   2
BRANCH   1  22
ATOM     22  O   UNL A   1      33.648  32.770  28.367  1.00  0.00    -0.374 OA
BRANCH  22  23
ATOM     23  C   UNL A   1      35.039  32.449  28.381  1.00  0.00     0.202 C 
BRANCH  23  24
ATOM     24  C   UNL A   1      35.575  31.847  29.684  1.00  0.00     0.261 C 
BRANCH  24  25
ATOM     25  O   UNL A   1      35.926  30.459  29.519  1.00  0.00    -0.460 OA
BRANCH  25  26
ATOM     26  C   UNL A   1      36.674  29.939  30.522  1.00  0.00     0.338 C 
ATOM     27  O   UNL A   1      36.276  29.396  31.537  1.00  0.00    -0.246 OA
BRANCH  26  28
ATOM     28  C   UNL A   1      38.100  29.952  30.149  1.00  0.00     0.060 A 
ATOM     29  C   UNL A   1      38.409  29.929  28.783  1.00  0.00     0.016 A 
ATOM     30  C   UNL A   1      39.111  29.872  31.109  1.00  0.00     0.016 A 
ATOM     31  C   UNL A   1      39.727  29.764  28.369  1.00  0.00     0.010 A 
ATOM     32  C   UNL A   1      40.435  29.695  30.691  1.00  0.00     0.010 A 
ATOM     33  C   UNL A   1      40.742  29.598  29.321  1.00  0.00    -0.014 A 
BRANCH  33  34
ATOM     34  C   UNL A   1      42.085  29.160  28.875  1.00  0.00     0.031 A 
ATOM     35  C   UNL A   1      42.285  27.726  28.466  1.00  0.00     0.074 A 
ATOM     36  C   UNL A   1      43.100  30.037  28.787  1.00  0.00     0.049 A 
ATOM     37  N   UNL A   1      43.371  27.125  28.052  1.00  0.00    -0.248 NA
ATOM     38  C   UNL A   1      41.101  26.854  28.530  1.00  0.00     0.031 C 
ATOM     39  C   UNL A   1      43.019  31.459  29.112  1.00  0.00     0.029 A 
ATOM     40  N   UNL A   1      44.402  29.854  28.396  1.00  0.00    -0.354 N 
ATOM     41  C   UNL A   1      43.003  25.807  27.809  1.00  0.00     0.074 A 
ATOM     42  C   UNL A   1      41.601  25.688  28.149  1.00  0.00     0.031 C 
ATOM     43  C   UNL A   1      44.224  32.020  28.915  1.00  0.00     0.029 A 
ATOM     44  C   UNL A   1      45.166  30.991  28.478  1.00  0.00     0.049 A 
ATOM     45  H   UNL A   1      44.755  28.988  28.086  1.00  0.00     0.167 HD
ATOM     46  C   UNL A   1      43.761  24.790  27.335  1.00  0.00     0.037 A 
ATOM     47  C   UNL A   1      46.480  31.173  28.245  1.00  0.00     0.037 A 
ATOM     48  C   UNL A   1      45.154  24.909  26.995  1.00  0.00     0.049 A 
ATOM     49  C   UNL A   1      47.318  30.009  27.788  1.00  0.00     0.074 A 
ATOM     50  C   UNL A   1      46.006  23.941  26.493  1.00  0.00     0.029 A 
ATOM     51  N   UNL A   1      45.902  26.069  27.128  1.00  0.00    -0.354 N 
ATOM     52  N   UNL A   1      46.955  28.774  27.541  1.00  0.00    -0.248 NA
ATOM     53  C   UNL A   1      48.750  30.268  27.574  1.00  0.00     0.031 C 
ATOM     54  C   UNL A   1      47.280  24.502  26.366  1.00  0.00     0.029 A 
ATOM     55  C   UNL A   1      47.211  25.834  26.742  1.00  0.00     0.049 A 
ATOM     56  H   UNL A   1      45.553  26.932  27.450  1.00  0.00     0.167 HD
ATOM     57  C   UNL A   1      48.104  28.116  27.119  1.00  0.00     0.074 A 
ATOM     58  C   UNL A   1      49.173  29.092  27.130  1.00  0.00     0.031 C 
ATOM     59  C   UNL A   1      48.261  26.820  26.754  1.00  0.00     0.037 A 
BRANCH  46  60
ATOM     60  C   UNL A   1      43.102  23.451  27.176  1.00  0.00     0.057 A 
ATOM     61  C   UNL A   1      42.903  22.592  28.262  1.00  0.00     0.134 A 
ATOM     62  C   UNL A   1      42.629  23.035  25.925  1.00  0.00     0.134 A 
ATOM     63  F   UNL A   1      43.346  22.925  29.484  1.00  0.00    -0.206 F 
ATOM     64  C   UNL A   1      42.272  21.355  28.107  1.00  0.00     0.040 A 
ATOM     65  C   UNL A   1      41.976  21.812  25.763  1.00  0.00     0.040 A 
ATOM     66  F   UNL A   1      42.785  23.813  24.843  1.00  0.00    -0.206 F 
ATOM     67  C   UNL A   1      41.801  20.966  26.856  1.00  0.00     0.006 A 
ENDBRANCH  46  60
BRANCH  47  68
ATOM     68  C   UNL A   1      47.094  32.509  28.455  1.00  0.00     0.057 A 
ATOM     69  C   UNL A   1      47.660  32.864  29.684  1.00  0.00     0.134 A 
ATOM     70  C   UNL A   1      47.103  33.471  27.438  1.00  0.00     0.134 A 
ATOM     71  F   UNL A   1      47.659  31.994  30.704  1.00  0.00    -0.206 F 
ATOM     72  C   UNL A   1      48.199  34.134  29.901  1.00  0.00     0.040 A 
ATOM     73  C   UNL A   1      47.659  34.735  27.632  1.00  0.00     0.040 A 
ATOM     74  F   UNL A   1      46.575  33.192  26.237  1.00  0.00    -0.206 F 
ATOM     75  C   UNL A   1      48.203  35.072  28.870  1.00  0.00     0.006 A 
ENDBRANCH  47  68
BRANCH  59  76
ATOM     76  C   UNL A   1      49.629  26.392  26.308  1.00  0.00     0.057 A 
ATOM     77  C   UNL A   1      50.104  26.660  25.018  1.00  0.00     0.134 A 
ATOM     78  C   UNL A   1      50.492  25.732  27.192  1.00  0.00     0.134 A 
ATOM     79  F   UNL A   1      49.320  27.277  24.120  1.00  0.00    -0.206 F 
ATOM     80  C   UNL A   1      51.381  26.268  24.616  1.00  0.00     0.040 A 
ATOM     81  C   UNL A   1      51.781  25.358  26.809  1.00  0.00     0.040 A 
ATOM     82  F   UNL A   1      50.103  25.452  28.445  1.00  0.00    -0.206 F 
ATOM     83  C   UNL A   1      52.226  25.620  25.515  1.00  0.00     0.006 A 
ENDBRANCH  59  76
ENDBRANCH  33  34
ENDBRANCH  26  28
ENDBRANCH  25  26
ENDBRANCH  24  25
ENDBRANCH  23  24
ENDBRANCH  22  23
ENDBRANCH   1  22
TORSDOF 18
ENDMDL
MODEL 2
REMARK VINA RESULT:      -9.1      6.103     12.093
REMARK SMILES C[C@H](C[N@H+](C)[C@H]1CC[C@H]([NH3+])CC1)C(=O)OCCOCCOC(=O)c1ccc(-c2c3nc(c(-c4c(F)cccc4F)c4ccc([nH]4)c(-c4c(F)cccc4F)c4nc(c(-c5c(F)cccc5F)c5ccc2[nH]5)C=C4)C=C3)cc1
REMARK SMILES IDX 17 1 16 2 15 3 13 4 14 5 2 6 1 7 3 8 4 9 5 10 6 12 7 13
REMARK SMILES IDX 12 14 8 15 11 16 9 17 10 18 18 22 19 23 20 24 21 25 22 26
REMARK SMILES IDX 23 27 24 28 25 29 77 30 26 31 76 32 27 33 28 34 29 35 70 36
REMARK SMILES IDX 30 37 75 38 69 39 71 40 31 41 74 42 68 43 67 44 32 46 58 47
REMARK SMILES IDX 41 48 57 49 42 50 45 51 56 52 72 53 43 54 44 55 55 57 73 58
REMARK SMILES IDX 46 59 33 60 34 61 39 62 35 63 36 64 38 65 40 66 37 67 59 68
REMARK SMILES IDX 60 69 65 70 61 71 62 72 64 73 66 74 63 75 47 76 48 77 53 78
REMARK SMILES IDX 49 79 50 80 52 81 54 82 51 83
REMARK H PARENT 4 11 10 19 10 20 10 21 71 45 45 56
REMARK Flexibility Score: inf
ROOT
ATOM      1  C   UNL A   1      38.682  21.837  25.817  1.00  0.00     0.202 C 
ENDROOT
BRANCH   1   2
ATOM      2  C   UNL A   1      37.965  20.649  25.182  1.00  0.00     0.261 C 
BRANCH   2   3
ATOM      3  O   UNL A   1      36.793  21.040  24.455  1.00  0.00    -0.463 OA
BRANCH   3   4
ATOM      4  C   UNL A   1      35.790  21.585  25.199  1.00  0.00     0.314 C 
ATOM      5  O   UNL A   1      35.305  21.095  26.209  1.00  0.00    -0.252 OA
BRANCH   4   6
ATOM      6  C   UNL A   1      35.264  22.840  24.545  1.00  0.00     0.151 C 
ATOM      7  C   UNL A   1      36.134  23.035  23.296  1.00  0.00     0.026 C 
BRANCH   6   8
ATOM      8  C   UNL A   1      35.163  24.003  25.583  1.00  0.00     0.277 C 
BRANCH   8   9
ATOM      9  N   UNL A   1      33.872  24.683  25.857  1.00  0.00    -0.334 N 
ATOM     10  C   UNL A   1      32.734  23.779  25.693  1.00  0.00     0.332 C 
ATOM     11  H   UNL A   1      33.906  24.936  26.844  1.00  0.00     0.348 HD
BRANCH   9  12
ATOM     12  C   UNL A   1      33.699  25.976  25.208  1.00  0.00     0.184 C 
ATOM     13  C   UNL A   1      33.568  27.173  26.158  1.00  0.00     0.071 C 
ATOM     14  C   UNL A   1      32.625  26.085  24.123  1.00  0.00     0.071 C 
ATOM     15  C   UNL A   1      33.963  28.427  25.367  1.00  0.00     0.071 C 
ATOM     16  C   UNL A   1      32.969  27.293  23.249  1.00  0.00     0.071 C 
ATOM     17  C   UNL A   1      33.165  28.589  24.057  1.00  0.00     0.181 C 
BRANCH  17  18
ATOM     18  N   UNL A   1      33.826  29.574  23.197  1.00  0.00    -0.355 N 
ATOM     19  H   UNL A   1      34.779  29.728  23.526  1.00  0.00     0.344 HD
ATOM     20  H   UNL A   1      33.310  30.453  23.229  1.00  0.00     0.344 HD
ATOM     21  H   UNL A   1      33.849  29.227  22.239  1.00  0.00     0.344 HD
ENDBRANCH  17  18
ENDBRANCH   9  12
ENDBRANCH   8   9
ENDBRANCH   6   8
ENDBRANCH   4   6
ENDBRANCH   3   4
ENDBRANCH   2   3
ENDBRANCH   1   2
BRANCH   1  22
ATOM     22  O   UNL A   1      39.697  21.526  26.765  1.00  0.00    -0.374 OA
BRANCH  22  23
ATOM     23  C   UNL A   1      41.041  21.443  26.291  1.00  0.00     0.202 C 
BRANCH  23  24
ATOM     24  C   UNL A   1      41.876  22.722  26.415  1.00  0.00     0.261 C 
BRANCH  24  25
ATOM     25  O   UNL A   1      41.049  23.901  26.338  1.00  0.00    -0.460 OA
BRANCH  25  26
ATOM     26  C   UNL A   1      41.728  25.060  26.165  1.00  0.00     0.338 C 
ATOM     27  O   UNL A   1      42.540  25.319  25.295  1.00  0.00    -0.246 OA
BRANCH  26  28
ATOM     28  C   UNL A   1      41.220  26.088  27.092  1.00  0.00     0.060 A 
ATOM     29  C   UNL A   1      41.804  27.360  27.027  1.00  0.00     0.016 A 
ATOM     30  C   UNL A   1      40.280  25.786  28.079  1.00  0.00     0.016 A 
ATOM     31  C   UNL A   1      41.494  28.319  27.986  1.00  0.00     0.010 A 
ATOM     32  C   UNL A   1      39.978  26.748  29.050  1.00  0.00     0.010 A 
ATOM     33  C   UNL A   1      40.616  28.002  29.031  1.00  0.00    -0.014 A 
BRANCH  33  34
ATOM     34  C   UNL A   1      40.502  28.927  30.183  1.00  0.00     0.031 A 
ATOM     35  C   UNL A   1      39.432  29.985  30.164  1.00  0.00     0.074 A 
ATOM     36  C   UNL A   1      41.305  28.797  31.252  1.00  0.00     0.049 A 
ATOM     37  N   UNL A   1      39.155  30.902  31.055  1.00  0.00    -0.248 NA
ATOM     38  C   UNL A   1      38.555  30.010  28.982  1.00  0.00     0.031 C 
ATOM     39  C   UNL A   1      42.349  27.786  31.407  1.00  0.00     0.029 A 
ATOM     40  N   UNL A   1      41.366  29.525  32.413  1.00  0.00    -0.354 N 
ATOM     41  C   UNL A   1      38.076  31.612  30.543  1.00  0.00     0.074 A 
ATOM     42  C   UNL A   1      37.767  31.040  29.250  1.00  0.00     0.031 C 
ATOM     43  C   UNL A   1      42.954  27.963  32.593  1.00  0.00     0.029 A 
ATOM     44  C   UNL A   1      42.360  29.116  33.268  1.00  0.00     0.049 A 
ATOM     45  H   UNL A   1      40.755  30.271  32.614  1.00  0.00     0.167 HD
ATOM     46  C   UNL A   1      37.398  32.641  31.103  1.00  0.00     0.037 A 
ATOM     47  C   UNL A   1      42.755  29.628  34.449  1.00  0.00     0.037 A 
ATOM     48  C   UNL A   1      37.705  33.209  32.389  1.00  0.00     0.049 A 
ATOM     49  C   UNL A   1      42.029  30.819  35.018  1.00  0.00     0.074 A 
ATOM     50  C   UNL A   1      37.067  34.244  33.051  1.00  0.00     0.029 A 
ATOM     51  N   UNL A   1      38.743  32.791  33.208  1.00  0.00    -0.354 N 
ATOM     52  N   UNL A   1      40.998  31.469  34.536  1.00  0.00    -0.248 NA
ATOM     53  C   UNL A   1      42.524  31.345  36.299  1.00  0.00     0.031 C 
ATOM     54  C   UNL A   1      37.748  34.482  34.249  1.00  0.00     0.029 A 
ATOM     55  C   UNL A   1      38.779  33.564  34.357  1.00  0.00     0.049 A 
ATOM     56  H   UNL A   1      39.362  32.054  33.002  1.00  0.00     0.167 HD
ATOM     57  C   UNL A   1      40.705  32.461  35.463  1.00  0.00     0.074 A 
ATOM     58  C   UNL A   1      41.658  32.318  36.543  1.00  0.00     0.031 C 
ATOM     59  C   UNL A   1      39.733  33.405  35.425  1.00  0.00     0.037 A 
BRANCH  46  60
ATOM     60  C   UNL A   1      36.267  33.235  30.316  1.00  0.00     0.057 A 
ATOM     61  C   UNL A   1      36.491  34.089  29.229  1.00  0.00     0.134 A 
ATOM     62  C   UNL A   1      34.939  32.918  30.629  1.00  0.00     0.134 A 
ATOM     63  F   UNL A   1      37.739  34.442  28.887  1.00  0.00    -0.206 F 
ATOM     64  C   UNL A   1      35.431  34.622  28.491  1.00  0.00     0.040 A 
ATOM     65  C   UNL A   1      33.873  33.427  29.883  1.00  0.00     0.040 A 
ATOM     66  F   UNL A   1      34.656  32.104  31.657  1.00  0.00    -0.206 F 
ATOM     67  C   UNL A   1      34.119  34.285  28.814  1.00  0.00     0.006 A 
ENDBRANCH  46  60
BRANCH  47  68
ATOM     68  C   UNL A   1      43.905  29.029  35.171  1.00  0.00     0.057 A 
ATOM     69  C   UNL A   1      45.221  29.408  34.885  1.00  0.00     0.134 A 
ATOM     70  C   UNL A   1      43.715  28.043  36.147  1.00  0.00     0.134 A 
ATOM     71  F   UNL A   1      45.468  30.331  33.943  1.00  0.00    -0.206 F 
ATOM     72  C   UNL A   1      46.309  28.817  35.529  1.00  0.00     0.040 A 
ATOM     73  C   UNL A   1      44.791  27.460  36.816  1.00  0.00     0.040 A 
ATOM     74  F   UNL A   1      42.478  27.635  36.466  1.00  0.00    -0.206 F 
ATOM     75  C   UNL A   1      46.094  27.842  36.502  1.00  0.00     0.006 A 
ENDBRANCH  47  68
BRANCH  59  76
ATOM     76  C   UNL A   1      39.632  34.336  36.598  1.00  0.00     0.057 A 
ATOM     77  C   UNL A   1      40.203  35.614  36.578  1.00  0.00     0.134 A 
ATOM     78  C   UNL A   1      38.925  33.960  37.747  1.00  0.00     0.134 A 
ATOM     79  F   UNL A   1      40.903  36.029  35.511  1.00  0.00    -0.206 F 
ATOM     80  C   UNL A   1      40.094  36.478  37.669  1.00  0.00     0.040 A 
ATOM     81  C   UNL A   1      38.787  34.824  38.834  1.00  0.00     0.040 A 
ATOM     82  F   UNL A   1      38.346  32.752  37.827  1.00  0.00    -0.206 F 
ATOM     83  C   UNL A   1      39.379  36.085  38.799  1.00  0.00     0.006 A 
ENDBRANCH  59  76
ENDBRANCH  33  34
ENDBRANCH  26  28
ENDBRANCH  25  26
ENDBRANCH  24  25
ENDBRANCH  23  24
ENDBRANCH  22  23
ENDBRANCH   1  22
TORSDOF 18
ENDMDL
MODEL 3
REMARK VINA RESULT:      -9.1      4.113      9.025
REMARK SMILES C[C@H](C[N@H+](C)[C@H]1CC[C@H]([NH3+])CC1)C(=O)OCCOCCOC(=O)c1ccc(-c2c3nc(c(-c4c(F)cccc4F)c4ccc([nH]4)c(-c4c(F)cccc4F)c4nc(c(-c5c(F)cccc5F)c5ccc2[nH]5)C=C4)C=C3)cc1
REMARK SMILES IDX 17 1 16 2 15 3 13 4 14 5 2 6 1 7 3 8 4 9 5 10 6 12 7 13
REMARK SMILES IDX 12 14 8 15 11 16 9 17 10 18 18 22 19 23 20 24 21 25 22 26
REMARK SMILES IDX 23 27 24 28 25 29 77 30 26 31 76 32 27 33 28 34 29 35 70 36
REMARK SMILES IDX 30 37 75 38 69 39 71 40 31 41 74 42 68 43 67 44 32 46 58 47
REMARK SMILES IDX 41 48 57 49 42 50 45 51 56 52 72 53 43 54 44 55 55 57 73 58
REMARK SMILES IDX 46 59 33 60 34 61 39 62 35 63 36 64 38 65 40 66 37 67 59 68
REMARK SMILES IDX 60 69 65 70 61 71 62 72 64 73 66 74 63 75 47 76 48 77 53 78
REMARK SMILES IDX 49 79 50 80 52 81 54 82 51 83
REMARK H PARENT 4 11 10 19 10 20 10 21 71 45 45 56
REMARK Flexibility Score: inf
ROOT
ATOM      1  C   UNL A   1      32.183  29.725  27.010  1.00  0.00     0.202 C 
ENDROOT
BRANCH   1   2
ATOM      2  C   UNL A   1      31.619  29.342  25.645  1.00  0.00     0.261 C 
BRANCH   2   3
ATOM      3  O   UNL A   1      32.282  28.206  25.076  1.00  0.00    -0.463 OA
BRANCH   3   4
ATOM      4  C   UNL A   1      31.619  27.020  25.183  1.00  0.00     0.314 C 
ATOM      5  O   UNL A   1      30.406  26.885  25.248  1.00  0.00    -0.252 OA
BRANCH   4   6
ATOM      6  C   UNL A   1      32.596  25.877  25.328  1.00  0.00     0.151 C 
ATOM      7  C   UNL A   1      33.981  26.505  25.130  1.00  0.00     0.026 C 
BRANCH   6   8
ATOM      8  C   UNL A   1      32.176  24.675  24.422  1.00  0.00     0.277 C 
BRANCH   8   9
ATOM      9  N   UNL A   1      33.188  23.767  23.827  1.00  0.00    -0.334 N 
ATOM     10  C   UNL A   1      33.181  23.825  22.366  1.00  0.00     0.332 C 
ATOM     11  H   UNL A   1      34.089  24.133  24.131  1.00  0.00     0.348 HD
BRANCH   9  12
ATOM     12  C   UNL A   1      33.203  22.412  24.364  1.00  0.00     0.184 C 
ATOM     13  C   UNL A   1      34.559  21.936  24.901  1.00  0.00     0.071 C 
ATOM     14  C   UNL A   1      32.593  21.303  23.505  1.00  0.00     0.071 C 
ATOM     15  C   UNL A   1      34.282  20.802  25.897  1.00  0.00     0.071 C 
ATOM     16  C   UNL A   1      32.237  20.139  24.433  1.00  0.00     0.071 C 
ATOM     17  C   UNL A   1      33.423  19.671  25.297  1.00  0.00     0.181 C 
BRANCH  17  18
ATOM     18  N   UNL A   1      32.903  18.824  26.374  1.00  0.00    -0.355 N 
ATOM     19  H   UNL A   1      32.393  19.400  27.043  1.00  0.00     0.344 HD
ATOM     20  H   UNL A   1      33.679  18.361  26.847  1.00  0.00     0.344 HD
ATOM     21  H   UNL A   1      32.276  18.122  25.981  1.00  0.00     0.344 HD
ENDBRANCH  17  18
ENDBRANCH   9  12
ENDBRANCH   8   9
ENDBRANCH   6   8
ENDBRANCH   4   6
ENDBRANCH   3   4
ENDBRANCH   2   3
ENDBRANCH   1   2
BRANCH   1  22
ATOM     22  O   UNL A   1      32.853  30.977  27.086  1.00  0.00    -0.374 OA
BRANCH  22  23
ATOM     23  C   UNL A   1      34.176  30.989  27.625  1.00  0.00     0.202 C 
BRANCH  23  24
ATOM     24  C   UNL A   1      34.429  31.987  28.759  1.00  0.00     0.261 C 
BRANCH  24  25
ATOM     25  O   UNL A   1      35.833  32.083  29.074  1.00  0.00    -0.460 OA
BRANCH  25  26
ATOM     26  C   UNL A   1      36.233  31.322  30.120  1.00  0.00     0.338 C 
ATOM     27  O   UNL A   1      35.691  31.210  31.205  1.00  0.00    -0.246 OA
BRANCH  26  28
ATOM     28  C   UNL A   1      37.364  30.465  29.719  1.00  0.00     0.060 A 
ATOM     29  C   UNL A   1      38.187  29.966  30.737  1.00  0.00     0.016 A 
ATOM     30  C   UNL A   1      37.683  30.250  28.377  1.00  0.00     0.016 A 
ATOM     31  C   UNL A   1      39.366  29.300  30.417  1.00  0.00     0.010 A 
ATOM     32  C   UNL A   1      38.874  29.589  28.057  1.00  0.00     0.010 A 
ATOM     33  C   UNL A   1      39.741  29.150  29.075  1.00  0.00    -0.014 A 
BRANCH  33  34
ATOM     34  C   UNL A   1      41.110  28.683  28.756  1.00  0.00     0.031 A 
ATOM     35  C   UNL A   1      42.247  29.666  28.816  1.00  0.00     0.074 A 
ATOM     36  C   UNL A   1      41.346  27.393  28.465  1.00  0.00     0.049 A 
ATOM     37  N   UNL A   1      43.519  29.481  28.571  1.00  0.00    -0.248 NA
ATOM     38  C   UNL A   1      41.904  31.043  29.210  1.00  0.00     0.031 C 
ATOM     39  C   UNL A   1      40.336  26.338  28.418  1.00  0.00     0.029 A 
ATOM     40  N   UNL A   1      42.518  26.751  28.153  1.00  0.00    -0.354 N 
ATOM     41  C   UNL A   1      44.126  30.714  28.778  1.00  0.00     0.074 A 
ATOM     42  C   UNL A   1      43.081  31.647  29.140  1.00  0.00     0.031 C 
ATOM     43  C   UNL A   1      40.931  25.180  28.086  1.00  0.00     0.029 A 
ATOM     44  C   UNL A   1      42.357  25.418  27.870  1.00  0.00     0.049 A 
ATOM     45  H   UNL A   1      43.392  27.205  28.133  1.00  0.00     0.167 HD
ATOM     46  C   UNL A   1      45.437  31.038  28.684  1.00  0.00     0.037 A 
ATOM     47  C   UNL A   1      43.256  24.501  27.466  1.00  0.00     0.037 A 
ATOM     48  C   UNL A   1      46.477  30.109  28.325  1.00  0.00     0.049 A 
ATOM     49  C   UNL A   1      44.698  24.903  27.300  1.00  0.00     0.074 A 
ATOM     50  C   UNL A   1      47.838  30.337  28.217  1.00  0.00     0.029 A 
ATOM     51  N   UNL A   1      46.268  28.775  28.010  1.00  0.00    -0.354 N 
ATOM     52  N   UNL A   1      45.265  26.065  27.518  1.00  0.00    -0.248 NA
ATOM     53  C   UNL A   1      45.626  23.862  26.832  1.00  0.00     0.031 C 
ATOM     54  C   UNL A   1      48.447  29.151  27.793  1.00  0.00     0.029 A 
ATOM     55  C   UNL A   1      47.472  28.173  27.683  1.00  0.00     0.049 A 
ATOM     56  H   UNL A   1      45.394  28.324  28.017  1.00  0.00     0.167 HD
ATOM     57  C   UNL A   1      46.615  25.889  27.240  1.00  0.00     0.074 A 
ATOM     58  C   UNL A   1      46.785  24.505  26.852  1.00  0.00     0.031 C 
ATOM     59  C   UNL A   1      47.624  26.792  27.303  1.00  0.00     0.037 A 
BRANCH  46  60
ATOM     60  C   UNL A   1      45.820  32.463  28.954  1.00  0.00     0.057 A 
ATOM     61  C   UNL A   1      46.220  32.893  30.224  1.00  0.00     0.134 A 
ATOM     62  C   UNL A   1      45.822  33.408  27.919  1.00  0.00     0.134 A 
ATOM     63  F   UNL A   1      46.226  32.040  31.260  1.00  0.00    -0.206 F 
ATOM     64  C   UNL A   1      46.593  34.218  30.462  1.00  0.00     0.040 A 
ATOM     65  C   UNL A   1      46.214  34.729  28.140  1.00  0.00     0.040 A 
ATOM     66  F   UNL A   1      45.452  33.060  26.678  1.00  0.00    -0.206 F 
ATOM     67  C   UNL A   1      46.597  35.138  29.416  1.00  0.00     0.006 A 
ENDBRANCH  46  60
BRANCH  47  68
ATOM     68  C   UNL A   1      42.822  23.112  27.173  1.00  0.00     0.057 A 
ATOM     69  C   UNL A   1      42.651  22.665  25.858  1.00  0.00     0.134 A 
ATOM     70  C   UNL A   1      42.540  22.207  28.204  1.00  0.00     0.134 A 
ATOM     71  F   UNL A   1      42.882  23.493  24.829  1.00  0.00    -0.206 F 
ATOM     72  C   UNL A   1      42.200  21.374  25.577  1.00  0.00     0.040 A 
ATOM     73  C   UNL A   1      42.112  20.907  27.938  1.00  0.00     0.040 A 
ATOM     74  F   UNL A   1      42.683  22.575  29.485  1.00  0.00    -0.206 F 
ATOM     75  C   UNL A   1      41.933  20.489  26.620  1.00  0.00     0.006 A 
ENDBRANCH  47  68
BRANCH  59  76
ATOM     76  C   UNL A   1      49.005  26.304  26.974  1.00  0.00     0.057 A 
ATOM     77  C   UNL A   1      49.546  26.428  25.688  1.00  0.00     0.134 A 
ATOM     78  C   UNL A   1      49.814  25.735  27.965  1.00  0.00     0.134 A 
ATOM     79  F   UNL A   1      48.816  26.953  24.692  1.00  0.00    -0.206 F 
ATOM     80  C   UNL A   1      50.834  25.982  25.394  1.00  0.00     0.040 A 
ATOM     81  C   UNL A   1      51.114  25.309  27.689  1.00  0.00     0.040 A 
ATOM     82  F   UNL A   1      49.360  25.595  29.220  1.00  0.00    -0.206 F 
ATOM     83  C   UNL A   1      51.625  25.426  26.398  1.00  0.00     0.006 A 
ENDBRANCH  59  76
ENDBRANCH  33  34
ENDBRANCH  26  28
ENDBRANCH  25  26
ENDBRANCH  24  25
ENDBRANCH  23  24
ENDBRANCH  22  23
ENDBRANCH   1  22
TORSDOF 18
ENDMDL
