MODEL 1
REMARK VINA RESULT:     -12.8      0.000      0.000
REMARK SMILES O=C(OCCOCCOC(=O)c1ccc(-c2c3nc(c(-c4c(F)cccc4F)c4ccc([nH]4)c(-c4c(F)cccc4F)c4nc(c(-c5c(F)cccc5F)c5ccc2[nH]5)C=C4)C=C3)cc1)C1=Cc2cc(Cl)cc(-c3ccc(O)cc3)c2O[C@@H]1C(F)(F)F
REMARK SMILES IDX 6 1 5 2 4 3 3 4 2 5 1 6 66 7 67 8 83 9 68 10 82 11 69 12
REMARK SMILES IDX 81 13 70 14 73 15 71 16 72 17 84 18 85 19 86 20 87 21 74 22
REMARK SMILES IDX 75 23 80 24 76 25 79 26 77 27 78 28 7 30 8 31 9 32 10 33
REMARK SMILES IDX 11 34 12 35 13 36 65 37 14 38 64 39 15 40 16 41 17 42 58 43
REMARK SMILES IDX 18 44 63 45 57 46 59 47 19 48 62 49 56 50 55 51 20 53 46 54
REMARK SMILES IDX 29 55 45 56 30 57 33 58 44 59 60 60 31 61 32 62 43 64 61 65
REMARK SMILES IDX 34 66 21 67 22 68 27 69 23 70 24 71 26 72 28 73 25 74 47 75
REMARK SMILES IDX 48 76 53 77 49 78 50 79 52 80 54 81 51 82 35 83 36 84 41 85
REMARK SMILES IDX 37 86 38 87 40 88 42 89 39 90
REMARK H PARENT 78 29 59 52 33 63
REMARK Flexibility Score: inf
ROOT
ATOM      1  O   UNL A   1      47.471  40.485  27.053  1.00  0.00    -0.374 OA
ENDROOT
BRANCH   1   2
ATOM      2  C   UNL A   1      46.157  41.393  27.021  1.00  0.00     0.202 C 
BRANCH   2   3
ATOM      3  C   UNL A   1      44.568  41.611  25.550  1.00  0.00     0.261 C 
BRANCH   3   4
ATOM      4  O   UNL A   1      44.768  41.721  23.990  1.00  0.00    -0.460 OA
BRANCH   4   5
ATOM      5  C   UNL A   1      44.402  42.903  23.483  1.00  0.00     0.338 C 
ATOM      6  O   UNL A   1      43.643  43.746  23.883  1.00  0.00    -0.246 OA
BRANCH   5   7
ATOM      7  C   UNL A   1      45.066  42.697  22.227  1.00  0.00     0.087 C 
ATOM      8  C   UNL A   1      44.041  42.461  21.193  1.00  0.00     0.027 C 
ATOM      9  C   UNL A   1      46.266  44.216  22.268  1.00  0.00     0.316 C 
ATOM     10  C   UNL A   1      43.667  43.653  19.883  1.00  0.00     0.019 A 
ATOM     11  O   UNL A   1      45.870  45.501  20.862  1.00  0.00    -0.475 OA
ATOM     12  C   UNL A   1      42.518  43.371  19.192  1.00  0.00     0.032 A 
ATOM     13  C   UNL A   1      44.467  45.217  19.726  1.00  0.00     0.135 A 
ATOM     14  C   UNL A   1      42.030  44.430  18.447  1.00  0.00     0.042 A 
ATOM     15  C   UNL A   1      43.945  46.189  18.847  1.00  0.00     0.026 A 
ATOM     16  Cl  UNL A   1      40.534  44.197  17.606  1.00  0.00    -0.084 Cl
ATOM     17  C   UNL A   1      42.676  45.718  18.326  1.00  0.00     0.033 A 
BRANCH   9  18
ATOM     18  C   UNL A   1      47.580  43.441  22.714  1.00  0.00     0.430 C 
ATOM     19  F   UNL A   1      47.936  42.438  21.888  1.00  0.00    -0.167 F 
ATOM     20  F   UNL A   1      48.621  44.328  22.644  1.00  0.00    -0.167 F 
ATOM     21  F   UNL A   1      47.608  43.009  23.994  1.00  0.00    -0.167 F 
ENDBRANCH   9  18
BRANCH  15  22
ATOM     22  C   UNL A   1      44.381  47.630  18.243  1.00  0.00    -0.014 A 
ATOM     23  C   UNL A   1      45.490  48.400  19.460  1.00  0.00     0.012 A 
ATOM     24  C   UNL A   1      43.882  48.795  16.656  1.00  0.00     0.012 A 
ATOM     25  C   UNL A   1      46.039  50.073  19.201  1.00  0.00     0.047 A 
ATOM     26  C   UNL A   1      44.541  50.458  16.507  1.00  0.00     0.047 A 
ATOM     27  C   UNL A   1      45.578  51.034  17.783  1.00  0.00     0.115 A 
BRANCH  27  28
ATOM     28  O   UNL A   1      46.112  52.287  17.663  1.00  0.00    -0.508 OA
ATOM     29  H   UNL A   1      47.028  52.421  17.805  1.00  0.00     0.293 HD
ENDBRANCH  27  28
ENDBRANCH  15  22
ENDBRANCH   5   7
ENDBRANCH   4   5
ENDBRANCH   3   4
ENDBRANCH   2   3
ENDBRANCH   1   2
BRANCH   1  30
ATOM     30  C   UNL A   1      47.874  39.239  26.453  1.00  0.00     0.202 C 
BRANCH  30  31
ATOM     31  C   UNL A   1      46.921  38.570  25.467  1.00  0.00     0.261 C 
BRANCH  31  32
ATOM     32  O   UNL A   1      46.618  37.256  25.869  1.00  0.00    -0.460 OA
BRANCH  32  33
ATOM     33  C   UNL A   1      45.543  37.132  26.667  1.00  0.00     0.338 C 
ATOM     34  O   UNL A   1      44.675  37.938  26.925  1.00  0.00    -0.246 OA
BRANCH  33  35
ATOM     35  C   UNL A   1      45.629  35.755  27.140  1.00  0.00     0.060 A 
ATOM     36  C   UNL A   1      44.746  34.487  26.258  1.00  0.00     0.016 A 
ATOM     37  C   UNL A   1      46.467  35.493  28.669  1.00  0.00     0.016 A 
ATOM     38  C   UNL A   1      44.607  32.825  26.855  1.00  0.00     0.010 A 
ATOM     39  C   UNL A   1      46.386  33.864  29.389  1.00  0.00     0.010 A 
ATOM     40  C   UNL A   1      45.394  32.381  28.424  1.00  0.00    -0.014 A 
BRANCH  40  41
ATOM     41  C   UNL A   1      44.969  30.808  28.669  1.00  0.00     0.031 A 
ATOM     42  C   UNL A   1      45.954  29.674  28.377  1.00  0.00     0.074 A 
ATOM     43  C   UNL A   1      43.749  30.398  29.103  1.00  0.00     0.049 A 
ATOM     44  N   UNL A   1      45.721  28.432  28.009  1.00  0.00    -0.248 NA
ATOM     45  C   UNL A   1      47.385  29.980  28.504  1.00  0.00     0.031 C 
ATOM     46  C   UNL A   1      42.696  31.228  29.670  1.00  0.00     0.029 A 
ATOM     47  N   UNL A   1      43.137  29.158  28.986  1.00  0.00    -0.354 N 
ATOM     48  C   UNL A   1      46.964  27.857  27.752  1.00  0.00     0.074 A 
ATOM     49  C   UNL A   1      47.949  28.887  28.004  1.00  0.00     0.031 C 
ATOM     50  C   UNL A   1      41.533  30.563  29.655  1.00  0.00     0.029 A 
ATOM     51  C   UNL A   1      41.762  29.230  29.116  1.00  0.00     0.049 A 
ATOM     52  H   UNL A   1      43.627  28.318  28.829  1.00  0.00     0.167 HD
ATOM     53  C   UNL A   1      47.263  26.591  27.361  1.00  0.00     0.037 A 
ATOM     54  C   UNL A   1      40.777  28.367  28.794  1.00  0.00     0.037 A 
ATOM     55  C   UNL A   1      46.312  25.509  27.273  1.00  0.00     0.049 A 
ATOM     56  C   UNL A   1      41.105  26.985  28.304  1.00  0.00     0.074 A 
ATOM     57  C   UNL A   1      46.560  24.164  27.039  1.00  0.00     0.029 A 
ATOM     58  N   UNL A   1      44.945  25.633  27.444  1.00  0.00    -0.354 N 
ATOM     59  N   UNL A   1      42.275  26.458  28.050  1.00  0.00    -0.248 NA
ATOM     60  C   UNL A   1      39.977  26.060  28.104  1.00  0.00     0.031 C 
ATOM     61  C   UNL A   1      45.340  23.484  27.017  1.00  0.00     0.029 A 
ATOM     62  C   UNL A   1      44.337  24.395  27.292  1.00  0.00     0.049 A 
ATOM     63  H   UNL A   1      44.474  26.474  27.644  1.00  0.00     0.167 HD
ATOM     64  C   UNL A   1      42.029  25.131  27.722  1.00  0.00     0.074 A 
ATOM     65  C   UNL A   1      40.601  24.929  27.807  1.00  0.00     0.031 C 
ATOM     66  C   UNL A   1      42.920  24.167  27.395  1.00  0.00     0.037 A 
BRANCH  53  67
ATOM     67  C   UNL A   1      48.689  26.257  26.997  1.00  0.00     0.057 A 
ATOM     68  C   UNL A   1      49.242  26.565  25.749  1.00  0.00     0.134 A 
ATOM     69  C   UNL A   1      49.556  25.732  27.969  1.00  0.00     0.134 A 
ATOM     70  F   UNL A   1      48.477  27.079  24.774  1.00  0.00    -0.206 F 
ATOM     71  C   UNL A   1      50.594  26.343  25.471  1.00  0.00     0.040 A 
ATOM     72  C   UNL A   1      50.916  25.540  27.716  1.00  0.00     0.040 A 
ATOM     73  F   UNL A   1      49.105  25.434  29.198  1.00  0.00    -0.206 F 
ATOM     74  C   UNL A   1      51.437  25.841  26.461  1.00  0.00     0.006 A 
ENDBRANCH  53  67
BRANCH  54  75
ATOM     75  C   UNL A   1      39.350  28.779  28.908  1.00  0.00     0.057 A 
ATOM     76  C   UNL A   1      38.680  29.373  27.834  1.00  0.00     0.134 A 
ATOM     77  C   UNL A   1      38.650  28.655  30.116  1.00  0.00     0.134 A 
ATOM     78  F   UNL A   1      39.307  29.543  26.661  1.00  0.00    -0.206 F 
ATOM     79  C   UNL A   1      37.381  29.869  27.964  1.00  0.00     0.040 A 
ATOM     80  C   UNL A   1      37.341  29.123  30.253  1.00  0.00     0.040 A 
ATOM     81  F   UNL A   1      39.232  28.089  31.184  1.00  0.00    -0.206 F 
ATOM     82  C   UNL A   1      36.709  29.744  29.178  1.00  0.00     0.006 A 
ENDBRANCH  54  75
BRANCH  66  83
ATOM     83  C   UNL A   1      42.400  22.778  27.160  1.00  0.00     0.057 A 
ATOM     84  C   UNL A   1      41.975  21.957  28.212  1.00  0.00     0.134 A 
ATOM     85  C   UNL A   1      42.282  22.269  25.860  1.00  0.00     0.134 A 
ATOM     86  F   UNL A   1      42.076  22.373  29.483  1.00  0.00    -0.206 F 
ATOM     87  C   UNL A   1      41.467  20.676  27.980  1.00  0.00     0.040 A 
ATOM     88  C   UNL A   1      41.749  21.004  25.613  1.00  0.00     0.040 A 
ATOM     89  F   UNL A   1      42.666  23.004  24.803  1.00  0.00    -0.206 F 
ATOM     90  C   UNL A   1      41.344  20.201  26.676  1.00  0.00     0.006 A 
ENDBRANCH  66  83
ENDBRANCH  40  41
ENDBRANCH  33  35
ENDBRANCH  32  33
ENDBRANCH  31  32
ENDBRANCH  30  31
ENDBRANCH   1  30
TORSDOF 17
ENDMDL
MODEL 2
REMARK VINA RESULT:     -12.6     11.593     16.242
REMARK SMILES O=C(OCCOCCOC(=O)c1ccc(-c2c3nc(c(-c4c(F)cccc4F)c4ccc([nH]4)c(-c4c(F)cccc4F)c4nc(c(-c5c(F)cccc5F)c5ccc2[nH]5)C=C4)C=C3)cc1)C1=Cc2cc(Cl)cc(-c3ccc(O)cc3)c2O[C@@H]1C(F)(F)F
REMARK SMILES IDX 6 1 5 2 4 3 3 4 2 5 1 6 66 7 67 8 83 9 68 10 82 11 69 12
REMARK SMILES IDX 81 13 70 14 73 15 71 16 72 17 84 18 85 19 86 20 87 21 74 22
REMARK SMILES IDX 75 23 80 24 76 25 79 26 77 27 78 28 7 30 8 31 9 32 10 33
REMARK SMILES IDX 11 34 12 35 13 36 65 37 14 38 64 39 15 40 16 41 17 42 58 43
REMARK SMILES IDX 18 44 63 45 57 46 59 47 19 48 62 49 56 50 55 51 20 53 46 54
REMARK SMILES IDX 29 55 45 56 30 57 33 58 44 59 60 60 31 61 32 62 43 64 61 65
REMARK SMILES IDX 34 66 21 67 22 68 27 69 23 70 24 71 26 72 28 73 25 74 47 75
REMARK SMILES IDX 48 76 53 77 49 78 50 79 52 80 54 81 51 82 35 83 36 84 41 85
REMARK SMILES IDX 37 86 38 87 40 88 42 89 39 90
REMARK H PARENT 78 29 59 52 33 63
REMARK Flexibility Score: inf
ROOT
ATOM      1  O   UNL A   1      44.690  19.376  25.375  1.00  0.00    -0.374 OA
ENDROOT
BRANCH   1   2
ATOM      2  C   UNL A   1      43.114  19.262  25.609  1.00  0.00     0.202 C 
BRANCH   2   3
ATOM      3  C   UNL A   1      41.873  19.582  27.368  1.00  0.00     0.261 C 
BRANCH   3   4
ATOM      4  O   UNL A   1      40.542  20.426  27.414  1.00  0.00    -0.460 OA
BRANCH   4   5
ATOM      5  C   UNL A   1      40.733  21.719  27.697  1.00  0.00     0.338 C 
ATOM      6  O   UNL A   1      40.937  22.290  28.736  1.00  0.00    -0.246 OA
BRANCH   5   7
ATOM      7  C   UNL A   1      40.401  22.174  26.376  1.00  0.00     0.087 C 
ATOM      8  C   UNL A   1      39.653  21.103  25.690  1.00  0.00     0.027 C 
ATOM      9  C   UNL A   1      39.678  23.912  26.830  1.00  0.00     0.316 C 
ATOM     10  C   UNL A   1      37.889  21.223  25.304  1.00  0.00     0.019 A 
ATOM     11  O   UNL A   1      37.781  24.048  26.416  1.00  0.00    -0.475 OA
ATOM     12  C   UNL A   1      37.327  20.036  24.913  1.00  0.00     0.032 A 
ATOM     13  C   UNL A   1      36.886  22.611  25.727  1.00  0.00     0.135 A 
ATOM     14  C   UNL A   1      35.945  20.021  24.957  1.00  0.00     0.042 A 
ATOM     15  C   UNL A   1      35.482  22.522  25.628  1.00  0.00     0.026 A 
ATOM     16  Cl  UNL A   1      35.146  18.535  24.563  1.00  0.00    -0.084 Cl
ATOM     17  C   UNL A   1      35.120  21.152  25.316  1.00  0.00     0.033 A 
BRANCH   9  18
ATOM     18  C   UNL A   1      40.954  24.781  26.450  1.00  0.00     0.430 C 
ATOM     19  F   UNL A   1      41.912  24.098  25.794  1.00  0.00    -0.167 F 
ATOM     20  F   UNL A   1      40.545  25.739  25.560  1.00  0.00    -0.167 F 
ATOM     21  F   UNL A   1      41.508  25.492  27.457  1.00  0.00    -0.167 F 
ENDBRANCH   9  18
BRANCH  15  22
ATOM     22  C   UNL A   1      34.199  23.510  25.722  1.00  0.00    -0.014 A 
ATOM     23  C   UNL A   1      34.734  25.133  25.104  1.00  0.00     0.012 A 
ATOM     24  C   UNL A   1      32.318  23.442  26.483  1.00  0.00     0.012 A 
ATOM     25  C   UNL A   1      33.621  26.517  25.214  1.00  0.00     0.047 A 
ATOM     26  C   UNL A   1      31.290  24.914  26.498  1.00  0.00     0.047 A 
ATOM     27  C   UNL A   1      31.981  26.388  25.878  1.00  0.00     0.115 A 
BRANCH  27  28
ATOM     28  O   UNL A   1      31.195  27.507  25.854  1.00  0.00    -0.508 OA
ATOM     29  H   UNL A   1      30.541  27.606  25.190  1.00  0.00     0.293 HD
ENDBRANCH  27  28
ENDBRANCH  15  22
ENDBRANCH   5   7
ENDBRANCH   4   5
ENDBRANCH   3   4
ENDBRANCH   2   3
ENDBRANCH   1   2
BRANCH   1  30
ATOM     30  C   UNL A   1      45.558  20.260  24.640  1.00  0.00     0.202 C 
BRANCH  30  31
ATOM     31  C   UNL A   1      45.036  21.646  24.273  1.00  0.00     0.261 C 
BRANCH  31  32
ATOM     32  O   UNL A   1      44.670  22.369  25.423  1.00  0.00    -0.460 OA
BRANCH  32  33
ATOM     33  C   UNL A   1      45.648  23.111  25.971  1.00  0.00     0.338 C 
ATOM     34  O   UNL A   1      46.835  23.130  25.724  1.00  0.00    -0.246 OA
BRANCH  33  35
ATOM     35  C   UNL A   1      44.940  23.949  26.933  1.00  0.00     0.060 A 
ATOM     36  C   UNL A   1      44.954  25.714  26.711  1.00  0.00     0.016 A 
ATOM     37  C   UNL A   1      44.273  23.137  28.350  1.00  0.00     0.016 A 
ATOM     38  C   UNL A   1      44.311  26.836  27.920  1.00  0.00     0.010 A 
ATOM     39  C   UNL A   1      43.611  24.158  29.653  1.00  0.00     0.010 A 
ATOM     40  C   UNL A   1      43.601  26.177  29.449  1.00  0.00    -0.014 A 
BRANCH  40  41
ATOM     41  C   UNL A   1      43.205  27.511  30.331  1.00  0.00     0.031 A 
ATOM     42  C   UNL A   1      43.853  27.774  31.692  1.00  0.00     0.074 A 
ATOM     43  C   UNL A   1      42.284  28.437  29.956  1.00  0.00     0.049 A 
ATOM     44  N   UNL A   1      43.377  28.411  32.741  1.00  0.00    -0.248 NA
ATOM     45  C   UNL A   1      45.206  27.244  31.903  1.00  0.00     0.031 C 
ATOM     46  C   UNL A   1      41.675  28.584  28.643  1.00  0.00     0.029 A 
ATOM     47  N   UNL A   1      41.584  29.355  30.726  1.00  0.00    -0.354 N 
ATOM     48  C   UNL A   1      44.316  28.253  33.758  1.00  0.00     0.074 A 
ATOM     49  C   UNL A   1      45.390  27.458  33.201  1.00  0.00     0.031 C 
ATOM     50  C   UNL A   1      40.579  29.352  28.730  1.00  0.00     0.029 A 
ATOM     51  C   UNL A   1      40.428  29.795  30.109  1.00  0.00     0.049 A 
ATOM     52  H   UNL A   1      41.878  29.659  31.616  1.00  0.00     0.167 HD
ATOM     53  C   UNL A   1      44.300  28.734  35.028  1.00  0.00     0.037 A 
ATOM     54  C   UNL A   1      39.337  30.430  30.581  1.00  0.00     0.037 A 
ATOM     55  C   UNL A   1      43.325  29.666  35.544  1.00  0.00     0.049 A 
ATOM     56  C   UNL A   1      39.292  30.912  32.004  1.00  0.00     0.074 A 
ATOM     57  C   UNL A   1      43.328  30.323  36.766  1.00  0.00     0.029 A 
ATOM     58  N   UNL A   1      42.199  30.098  34.867  1.00  0.00    -0.354 N 
ATOM     59  N   UNL A   1      40.171  30.746  32.957  1.00  0.00    -0.248 NA
ATOM     60  C   UNL A   1      38.123  31.714  32.402  1.00  0.00     0.031 C 
ATOM     61  C   UNL A   1      42.178  31.112  36.849  1.00  0.00     0.029 A 
ATOM     62  C   UNL A   1      41.487  30.990  35.657  1.00  0.00     0.049 A 
ATOM     63  H   UNL A   1      41.941  29.816  33.959  1.00  0.00     0.167 HD
ATOM     64  C   UNL A   1      39.694  31.470  34.042  1.00  0.00     0.074 A 
ATOM     65  C   UNL A   1      38.448  32.076  33.635  1.00  0.00     0.031 C 
ATOM     66  C   UNL A   1      40.257  31.623  35.263  1.00  0.00     0.037 A 
BRANCH  53  67
ATOM     67  C   UNL A   1      45.373  28.290  35.991  1.00  0.00     0.057 A 
ATOM     68  C   UNL A   1      46.556  29.011  36.187  1.00  0.00     0.134 A 
ATOM     69  C   UNL A   1      45.151  27.185  36.829  1.00  0.00     0.134 A 
ATOM     70  F   UNL A   1      46.832  30.084  35.430  1.00  0.00    -0.206 F 
ATOM     71  C   UNL A   1      47.488  28.639  37.160  1.00  0.00     0.040 A 
ATOM     72  C   UNL A   1      46.056  26.825  37.829  1.00  0.00     0.040 A 
ATOM     73  F   UNL A   1      44.027  26.459  36.717  1.00  0.00    -0.206 F 
ATOM     74  C   UNL A   1      47.233  27.551  37.993  1.00  0.00     0.006 A 
ENDBRANCH  53  67
BRANCH  54  75
ATOM     75  C   UNL A   1      38.155  30.650  29.701  1.00  0.00     0.057 A 
ATOM     76  C   UNL A   1      37.891  31.906  29.145  1.00  0.00     0.134 A 
ATOM     77  C   UNL A   1      37.227  29.628  29.458  1.00  0.00     0.134 A 
ATOM     78  F   UNL A   1      38.729  32.929  29.365  1.00  0.00    -0.206 F 
ATOM     79  C   UNL A   1      36.726  32.153  28.415  1.00  0.00     0.040 A 
ATOM     80  C   UNL A   1      36.070  29.856  28.708  1.00  0.00     0.040 A 
ATOM     81  F   UNL A   1      37.423  28.399  29.958  1.00  0.00    -0.206 F 
ATOM     82  C   UNL A   1      35.811  31.125  28.196  1.00  0.00     0.006 A 
ENDBRANCH  54  75
BRANCH  66  83
ATOM     83  C   UNL A   1      39.574  32.532  36.244  1.00  0.00     0.057 A 
ATOM     84  C   UNL A   1      39.943  33.874  36.394  1.00  0.00     0.134 A 
ATOM     85  C   UNL A   1      38.502  32.069  37.019  1.00  0.00     0.134 A 
ATOM     86  F   UNL A   1      40.972  34.379  35.697  1.00  0.00    -0.206 F 
ATOM     87  C   UNL A   1      39.282  34.718  37.290  1.00  0.00     0.040 A 
ATOM     88  C   UNL A   1      37.815  32.910  37.896  1.00  0.00     0.040 A 
ATOM     89  F   UNL A   1      38.092  30.795  36.923  1.00  0.00    -0.206 F 
ATOM     90  C   UNL A   1      38.208  34.238  38.037  1.00  0.00     0.006 A 
ENDBRANCH  66  83
ENDBRANCH  40  41
ENDBRANCH  33  35
ENDBRANCH  32  33
ENDBRANCH  31  32
ENDBRANCH  30  31
ENDBRANCH   1  30
TORSDOF 17
ENDMDL
MODEL 3
REMARK VINA RESULT:     -12.5     11.522     16.932
REMARK SMILES O=C(OCCOCCOC(=O)c1ccc(-c2c3nc(c(-c4c(F)cccc4F)c4ccc([nH]4)c(-c4c(F)cccc4F)c4nc(c(-c5c(F)cccc5F)c5ccc2[nH]5)C=C4)C=C3)cc1)C1=Cc2cc(Cl)cc(-c3ccc(O)cc3)c2O[C@@H]1C(F)(F)F
REMARK SMILES IDX 6 1 5 2 4 3 3 4 2 5 1 6 66 7 67 8 83 9 68 10 82 11 69 12
REMARK SMILES IDX 81 13 70 14 73 15 71 16 72 17 84 18 85 19 86 20 87 21 74 22
REMARK SMILES IDX 75 23 80 24 76 25 79 26 77 27 78 28 7 30 8 31 9 32 10 33
REMARK SMILES IDX 11 34 12 35 13 36 65 37 14 38 64 39 15 40 16 41 17 42 58 43
REMARK SMILES IDX 18 44 63 45 57 46 59 47 19 48 62 49 56 50 55 51 20 53 46 54
REMARK SMILES IDX 29 55 45 56 30 57 33 58 44 59 60 60 31 61 32 62 43 64 61 65
REMARK SMILES IDX 34 66 21 67 22 68 27 69 23 70 24 71 26 72 28 73 25 74 47 75
REMARK SMILES IDX 48 76 53 77 49 78 50 79 52 80 54 81 51 82 35 83 36 84 41 85
REMARK SMILES IDX 37 86 38 87 40 88 42 89 39 90
REMARK H PARENT 78 29 59 52 33 63
REMARK Flexibility Score: inf
ROOT
ATOM      1  O   UNL A   1      44.397  19.649  25.178  1.00  0.00    -0.374 OA
ENDROOT
BRANCH   1   2
ATOM      2  C   UNL A   1      42.977  19.208  25.761  1.00  0.00     0.202 C 
BRANCH   2   3
ATOM      3  C   UNL A   1      41.881  19.807  27.543  1.00  0.00     0.261 C 
BRANCH   3   4
ATOM      4  O   UNL A   1      40.614  20.744  27.573  1.00  0.00    -0.460 OA
BRANCH   4   5
ATOM      5  C   UNL A   1      40.903  22.033  27.785  1.00  0.00     0.338 C 
ATOM      6  O   UNL A   1      41.160  22.640  28.791  1.00  0.00    -0.246 OA
BRANCH   5   7
ATOM      7  C   UNL A   1      40.588  22.441  26.445  1.00  0.00     0.087 C 
ATOM      8  C   UNL A   1      39.895  21.327  25.770  1.00  0.00     0.027 C 
ATOM      9  C   UNL A   1      39.793  24.164  26.836  1.00  0.00     0.316 C 
ATOM     10  C   UNL A   1      38.139  21.374  25.338  1.00  0.00     0.019 A 
ATOM     11  O   UNL A   1      37.904  24.220  26.372  1.00  0.00    -0.475 OA
ATOM     12  C   UNL A   1      37.630  20.158  24.965  1.00  0.00     0.032 A 
ATOM     13  C   UNL A   1      37.077  22.736  25.700  1.00  0.00     0.135 A 
ATOM     14  C   UNL A   1      36.248  20.094  24.976  1.00  0.00     0.042 A 
ATOM     15  C   UNL A   1      35.680  22.593  25.569  1.00  0.00     0.026 A 
ATOM     16  Cl  UNL A   1      35.512  18.571  24.602  1.00  0.00    -0.084 Cl
ATOM     17  C   UNL A   1      35.374  21.204  25.285  1.00  0.00     0.033 A 
BRANCH   9  18
ATOM     18  C   UNL A   1      41.046  25.068  26.465  1.00  0.00     0.430 C 
ATOM     19  F   UNL A   1      40.726  26.273  25.954  1.00  0.00    -0.167 F 
ATOM     20  F   UNL A   1      41.703  25.354  27.633  1.00  0.00    -0.167 F 
ATOM     21  F   UNL A   1      41.992  24.484  25.698  1.00  0.00    -0.167 F 
ENDBRANCH   9  18
BRANCH  15  22
ATOM     22  C   UNL A   1      34.361  23.537  25.606  1.00  0.00    -0.014 A 
ATOM     23  C   UNL A   1      34.626  24.866  24.396  1.00  0.00     0.012 A 
ATOM     24  C   UNL A   1      32.676  23.701  26.728  1.00  0.00     0.012 A 
ATOM     25  C   UNL A   1      33.443  26.189  24.282  1.00  0.00     0.047 A 
ATOM     26  C   UNL A   1      31.551  25.076  26.480  1.00  0.00     0.047 A 
ATOM     27  C   UNL A   1      31.980  26.267  25.283  1.00  0.00     0.115 A 
BRANCH  27  28
ATOM     28  O   UNL A   1      31.113  27.301  25.063  1.00  0.00    -0.508 OA
ATOM     29  H   UNL A   1      31.426  28.184  25.065  1.00  0.00     0.293 HD
ENDBRANCH  27  28
ENDBRANCH  15  22
ENDBRANCH   5   7
ENDBRANCH   4   5
ENDBRANCH   3   4
ENDBRANCH   2   3
ENDBRANCH   1   2
BRANCH   1  30
ATOM     30  C   UNL A   1      44.997  20.891  24.761  1.00  0.00     0.202 C 
BRANCH  30  31
ATOM     31  C   UNL A   1      44.246  22.187  25.047  1.00  0.00     0.261 C 
BRANCH  31  32
ATOM     32  O   UNL A   1      44.482  22.629  26.362  1.00  0.00    -0.460 OA
BRANCH  32  33
ATOM     33  C   UNL A   1      45.566  23.407  26.522  1.00  0.00     0.338 C 
ATOM     34  O   UNL A   1      46.655  23.334  25.995  1.00  0.00    -0.246 OA
BRANCH  33  35
ATOM     35  C   UNL A   1      45.119  24.420  27.472  1.00  0.00     0.060 A 
ATOM     36  C   UNL A   1      44.515  23.900  29.062  1.00  0.00     0.016 A 
ATOM     37  C   UNL A   1      45.049  26.081  26.884  1.00  0.00     0.016 A 
ATOM     38  C   UNL A   1      43.756  25.016  30.209  1.00  0.00     0.010 A 
ATOM     39  C   UNL A   1      44.289  27.302  27.938  1.00  0.00     0.010 A 
ATOM     40  C   UNL A   1      43.584  26.762  29.763  1.00  0.00    -0.014 A 
BRANCH  40  41
ATOM     41  C   UNL A   1      42.768  27.434  31.027  1.00  0.00     0.031 A 
ATOM     42  C   UNL A   1      41.454  28.184  30.803  1.00  0.00     0.074 A 
ATOM     43  C   UNL A   1      43.191  27.409  32.317  1.00  0.00     0.049 A 
ATOM     44  N   UNL A   1      40.926  29.177  31.487  1.00  0.00    -0.248 NA
ATOM     45  C   UNL A   1      40.634  27.772  29.656  1.00  0.00     0.031 C 
ATOM     46  C   UNL A   1      44.263  26.596  32.872  1.00  0.00     0.029 A 
ATOM     47  N   UNL A   1      42.840  28.227  33.382  1.00  0.00    -0.354 N 
ATOM     48  C   UNL A   1      39.788  29.576  30.788  1.00  0.00     0.074 A 
ATOM     49  C   UNL A   1      39.702  28.718  29.625  1.00  0.00     0.031 C 
ATOM     50  C   UNL A   1      44.630  27.078  34.068  1.00  0.00     0.029 A 
ATOM     51  C   UNL A   1      43.783  28.217  34.393  1.00  0.00     0.049 A 
ATOM     52  H   UNL A   1      42.011  28.757  33.414  1.00  0.00     0.167 HD
ATOM     53  C   UNL A   1      38.888  30.548  31.090  1.00  0.00     0.037 A 
ATOM     54  C   UNL A   1      44.000  29.044  35.435  1.00  0.00     0.037 A 
ATOM     55  C   UNL A   1      38.862  31.292  32.327  1.00  0.00     0.049 A 
ATOM     56  C   UNL A   1      43.038  30.158  35.736  1.00  0.00     0.074 A 
ATOM     57  C   UNL A   1      37.894  32.179  32.775  1.00  0.00     0.029 A 
ATOM     58  N   UNL A   1      39.820  31.218  33.321  1.00  0.00    -0.354 N 
ATOM     59  N   UNL A   1      41.980  30.536  35.067  1.00  0.00    -0.248 NA
ATOM     60  C   UNL A   1      43.272  30.931  36.968  1.00  0.00     0.031 C 
ATOM     61  C   UNL A   1      38.292  32.681  34.017  1.00  0.00     0.029 A 
ATOM     62  C   UNL A   1      39.479  32.065  34.367  1.00  0.00     0.049 A 
ATOM     63  H   UNL A   1      40.623  30.650  33.293  1.00  0.00     0.167 HD
ATOM     64  C   UNL A   1      41.393  31.542  35.823  1.00  0.00     0.074 A 
ATOM     65  C   UNL A   1      42.208  31.720  37.002  1.00  0.00     0.031 C 
ATOM     66  C   UNL A   1      40.264  32.241  35.560  1.00  0.00     0.037 A 
BRANCH  53  67
ATOM     67  C   UNL A   1      37.817  30.889  30.083  1.00  0.00     0.057 A 
ATOM     68  C   UNL A   1      37.912  31.990  29.225  1.00  0.00     0.134 A 
ATOM     69  C   UNL A   1      36.733  30.018  29.889  1.00  0.00     0.134 A 
ATOM     70  F   UNL A   1      38.925  32.861  29.344  1.00  0.00    -0.206 F 
ATOM     71  C   UNL A   1      36.960  32.226  28.228  1.00  0.00     0.040 A 
ATOM     72  C   UNL A   1      35.796  30.222  28.875  1.00  0.00     0.040 A 
ATOM     73  F   UNL A   1      36.588  28.926  30.658  1.00  0.00    -0.206 F 
ATOM     74  C   UNL A   1      35.905  31.333  28.044  1.00  0.00     0.006 A 
ENDBRANCH  53  67
BRANCH  54  75
ATOM     75  C   UNL A   1      45.206  28.872  36.294  1.00  0.00     0.057 A 
ATOM     76  C   UNL A   1      46.412  29.509  35.985  1.00  0.00     0.134 A 
ATOM     77  C   UNL A   1      45.196  28.008  37.398  1.00  0.00     0.134 A 
ATOM     78  F   UNL A   1      46.489  30.325  34.924  1.00  0.00    -0.206 F 
ATOM     79  C   UNL A   1      47.578  29.263  36.714  1.00  0.00     0.040 A 
ATOM     80  C   UNL A   1      46.349  27.774  38.151  1.00  0.00     0.040 A 
ATOM     81  F   UNL A   1      44.071  27.370  37.752  1.00  0.00    -0.206 F 
ATOM     82  C   UNL A   1      47.547  28.392  37.800  1.00  0.00     0.006 A 
ENDBRANCH  54  75
BRANCH  66  83
ATOM     83  C   UNL A   1      39.793  33.229  36.588  1.00  0.00     0.057 A 
ATOM     84  C   UNL A   1      38.848  32.889  37.564  1.00  0.00     0.134 A 
ATOM     85  C   UNL A   1      40.323  34.525  36.629  1.00  0.00     0.134 A 
ATOM     86  F   UNL A   1      38.286  31.672  37.573  1.00  0.00    -0.206 F 
ATOM     87  C   UNL A   1      38.436  33.808  38.533  1.00  0.00     0.040 A 
ATOM     88  C   UNL A   1      39.942  35.442  37.609  1.00  0.00     0.040 A 
ATOM     89  F   UNL A   1      41.236  34.917  35.726  1.00  0.00    -0.206 F 
ATOM     90  C   UNL A   1      38.992  35.086  38.563  1.00  0.00     0.006 A 
ENDBRANCH  66  83
ENDBRANCH  40  41
ENDBRANCH  33  35
ENDBRANCH  32  33
ENDBRANCH  31  32
ENDBRANCH  30  31
ENDBRANCH   1  30
TORSDOF 17
ENDMDL
