MODEL 1
REMARK VINA RESULT:     -13.1      0.000      0.000
REMARK SMILES O=C(OCCOCCOC(=O)c1ccc(N2C(=O)[C@@H]3N=NC(c4ccccc4)=C3[C@H]2c2cccc(Br)c2)cc1)c1ccc(-c2c3nc(c(-c4c(F)cccc4F)c4ccc([nH]4)c(-c4c(F)cccc4F)c4nc(c(-c5c(F)cccc5F)c5ccc2[nH]5)C=C4)C=C3)cc1
REMARK SMILES IDX 6 1 5 2 4 3 3 4 2 5 1 6 40 7 41 8 93 9 42 10 92 11 43 12
REMARK SMILES IDX 44 13 45 14 86 15 46 16 91 17 85 18 87 19 47 20 90 21 84 22
REMARK SMILES IDX 83 23 48 25 74 26 57 27 73 28 58 29 61 30 72 31 88 32 59 33
REMARK SMILES IDX 60 34 71 36 89 37 62 38 49 39 50 40 55 41 51 42 52 43 54 44
REMARK SMILES IDX 56 45 53 46 75 47 76 48 81 49 77 50 78 51 80 52 82 53 79 54
REMARK SMILES IDX 63 55 64 56 69 57 65 58 66 59 68 60 70 61 67 62 7 63 8 64
REMARK SMILES IDX 9 65 10 66 11 67 12 68 13 69 39 70 14 71 38 72 15 73 16 74
REMARK SMILES IDX 17 75 30 76 19 77 18 78 29 79 20 80 22 81 21 82 31 83 32 84
REMARK SMILES IDX 37 85 33 86 35 87 34 88 36 89 23 90 24 91 28 92 25 93 27 94
REMARK SMILES IDX 26 95
REMARK H PARENT 87 24 61 35
REMARK Flexibility Score: inf
ROOT
ATOM      1  O   UNL A   1      31.532  30.384  25.413  1.00  0.00    -0.374 OA
ENDROOT
BRANCH   1   2
ATOM      2  C   UNL A   1      32.126  30.213  26.695  1.00  0.00     0.202 C 
BRANCH   2   3
ATOM      3  C   UNL A   1      33.650  30.261  26.787  1.00  0.00     0.261 C 
BRANCH   3   4
ATOM      4  O   UNL A   1      34.136  31.044  27.891  1.00  0.00    -0.460 OA
BRANCH   4   5
ATOM      5  C   UNL A   1      35.319  31.690  27.953  1.00  0.00     0.338 C 
ATOM      6  O   UNL A   1      35.395  32.866  27.603  1.00  0.00    -0.246 OA
BRANCH   5   7
ATOM      7  C   UNL A   1      36.463  31.084  28.679  1.00  0.00     0.060 A 
ATOM      8  C   UNL A   1      37.610  31.758  29.096  1.00  0.00     0.016 A 
ATOM      9  C   UNL A   1      36.403  29.688  28.824  1.00  0.00     0.016 A 
ATOM     10  C   UNL A   1      38.769  31.050  29.339  1.00  0.00     0.010 A 
ATOM     11  C   UNL A   1      37.537  28.971  29.142  1.00  0.00     0.010 A 
ATOM     12  C   UNL A   1      38.735  29.659  29.280  1.00  0.00    -0.014 A 
BRANCH  12  13
ATOM     13  C   UNL A   1      39.978  28.944  29.485  1.00  0.00     0.031 A 
ATOM     14  C   UNL A   1      40.370  28.849  30.912  1.00  0.00     0.074 A 
ATOM     15  C   UNL A   1      40.632  28.354  28.466  1.00  0.00     0.049 A 
ATOM     16  N   UNL A   1      41.396  29.380  31.489  1.00  0.00    -0.248 NA
ATOM     17  C   UNL A   1      39.404  28.245  31.846  1.00  0.00     0.031 C 
ATOM     18  C   UNL A   1      40.191  28.194  27.078  1.00  0.00     0.029 A 
ATOM     19  N   UNL A   1      41.808  27.672  28.489  1.00  0.00    -0.354 N 
ATOM     20  C   UNL A   1      41.320  28.991  32.822  1.00  0.00     0.074 A 
ATOM     21  C   UNL A   1      39.995  28.465  33.021  1.00  0.00     0.031 C 
ATOM     22  C   UNL A   1      40.960  27.264  26.467  1.00  0.00     0.029 A 
ATOM     23  C   UNL A   1      42.025  26.871  27.372  1.00  0.00     0.049 A 
ATOM     24  H   UNL A   1      42.450  27.739  29.232  1.00  0.00     0.167 HD
ATOM     25  C   UNL A   1      42.440  28.888  33.586  1.00  0.00     0.037 A 
ATOM     26  C   UNL A   1      42.969  25.901  27.267  1.00  0.00     0.037 A 
ATOM     27  C   UNL A   1      43.536  29.621  33.006  1.00  0.00     0.049 A 
ATOM     28  C   UNL A   1      43.991  26.166  28.313  1.00  0.00     0.074 A 
ATOM     29  C   UNL A   1      43.761  30.948  32.699  1.00  0.00     0.029 A 
ATOM     30  N   UNL A   1      44.470  28.906  32.297  1.00  0.00    -0.354 N 
ATOM     31  N   UNL A   1      44.798  27.192  28.288  1.00  0.00    -0.248 NA
ATOM     32  C   UNL A   1      43.781  25.570  29.625  1.00  0.00     0.031 C 
ATOM     33  C   UNL A   1      44.484  30.925  31.471  1.00  0.00     0.029 A 
ATOM     34  C   UNL A   1      44.723  29.591  31.137  1.00  0.00     0.049 A 
ATOM     35  H   UNL A   1      44.883  28.055  32.572  1.00  0.00     0.167 HD
ATOM     36  C   UNL A   1      44.842  27.638  29.602  1.00  0.00     0.074 A 
ATOM     37  C   UNL A   1      44.252  26.557  30.391  1.00  0.00     0.031 C 
ATOM     38  C   UNL A   1      45.075  28.951  29.893  1.00  0.00     0.037 A 
BRANCH  25  39
ATOM     39  C   UNL A   1      42.658  27.802  34.610  1.00  0.00     0.057 A 
ATOM     40  C   UNL A   1      42.959  26.501  34.172  1.00  0.00     0.134 A 
ATOM     41  C   UNL A   1      42.281  27.907  35.965  1.00  0.00     0.134 A 
ATOM     42  F   UNL A   1      43.319  26.268  32.901  1.00  0.00    -0.206 F 
ATOM     43  C   UNL A   1      42.811  25.380  34.998  1.00  0.00     0.040 A 
ATOM     44  C   UNL A   1      42.180  26.801  36.811  1.00  0.00     0.040 A 
ATOM     45  F   UNL A   1      41.887  29.060  36.519  1.00  0.00    -0.206 F 
ATOM     46  C   UNL A   1      42.410  25.527  36.320  1.00  0.00     0.006 A 
ENDBRANCH  25  39
BRANCH  26  47
ATOM     47  C   UNL A   1      42.861  24.591  26.583  1.00  0.00     0.057 A 
ATOM     48  C   UNL A   1      43.580  24.323  25.409  1.00  0.00     0.134 A 
ATOM     49  C   UNL A   1      42.273  23.478  27.211  1.00  0.00     0.134 A 
ATOM     50  F   UNL A   1      44.215  25.311  24.761  1.00  0.00    -0.206 F 
ATOM     51  C   UNL A   1      43.726  23.024  24.902  1.00  0.00     0.040 A 
ATOM     52  C   UNL A   1      42.406  22.177  26.712  1.00  0.00     0.040 A 
ATOM     53  F   UNL A   1      41.629  23.600  28.379  1.00  0.00    -0.206 F 
ATOM     54  C   UNL A   1      43.146  21.944  25.561  1.00  0.00     0.006 A 
ENDBRANCH  26  47
BRANCH  38  55
ATOM     55  C   UNL A   1      45.514  29.853  28.773  1.00  0.00     0.057 A 
ATOM     56  C   UNL A   1      46.842  29.987  28.341  1.00  0.00     0.134 A 
ATOM     57  C   UNL A   1      44.532  30.484  28.001  1.00  0.00     0.134 A 
ATOM     58  F   UNL A   1      47.840  29.338  28.953  1.00  0.00    -0.206 F 
ATOM     59  C   UNL A   1      47.179  30.748  27.217  1.00  0.00     0.040 A 
ATOM     60  C   UNL A   1      44.850  31.218  26.858  1.00  0.00     0.040 A 
ATOM     61  F   UNL A   1      43.235  30.351  28.321  1.00  0.00    -0.206 F 
ATOM     62  C   UNL A   1      46.179  31.361  26.467  1.00  0.00     0.006 A 
ENDBRANCH  38  55
ENDBRANCH  12  13
ENDBRANCH   5   7
ENDBRANCH   4   5
ENDBRANCH   3   4
ENDBRANCH   2   3
ENDBRANCH   1   2
BRANCH   1  63
ATOM     63  C   UNL A   1      31.498  29.250  24.539  1.00  0.00     0.202 C 
BRANCH  63  64
ATOM     64  C   UNL A   1      32.755  28.832  23.754  1.00  0.00     0.261 C 
BRANCH  64  65
ATOM     65  O   UNL A   1      32.486  28.252  22.462  1.00  0.00    -0.460 OA
BRANCH  65  66
ATOM     66  C   UNL A   1      31.345  27.515  22.410  1.00  0.00     0.338 C 
ATOM     67  O   UNL A   1      30.269  27.873  21.975  1.00  0.00    -0.246 OA
BRANCH  66  68
ATOM     68  C   UNL A   1      31.603  26.101  22.770  1.00  0.00     0.060 A 
ATOM     69  C   UNL A   1      30.515  25.361  23.240  1.00  0.00     0.018 A 
ATOM     70  C   UNL A   1      32.884  25.541  22.770  1.00  0.00     0.018 A 
ATOM     71  C   UNL A   1      30.712  24.080  23.750  1.00  0.00     0.027 A 
ATOM     72  C   UNL A   1      33.086  24.264  23.331  1.00  0.00     0.027 A 
ATOM     73  C   UNL A   1      32.005  23.540  23.843  1.00  0.00     0.045 A 
BRANCH  73  74
ATOM     74  N   UNL A   1      32.184  22.278  24.487  1.00  0.00    -0.299 N 
ATOM     75  C   UNL A   1      31.812  22.216  25.872  1.00  0.00     0.259 C 
ATOM     76  C   UNL A   1      33.449  21.529  24.256  1.00  0.00     0.152 C 
ATOM     77  C   UNL A   1      32.825  21.366  26.582  1.00  0.00     0.248 C 
ATOM     78  O   UNL A   1      30.874  22.798  26.400  1.00  0.00    -0.271 OA
ATOM     79  C   UNL A   1      33.953  21.586  25.647  1.00  0.00     0.021 C 
ATOM     80  N   UNL A   1      33.356  21.906  27.839  1.00  0.00    -0.170 NA
ATOM     81  C   UNL A   1      34.983  21.987  26.385  1.00  0.00     0.097 C 
ATOM     82  N   UNL A   1      34.599  22.110  27.709  1.00  0.00    -0.154 NA
BRANCH  76  83
ATOM     83  C   UNL A   1      33.256  20.065  23.808  1.00  0.00    -0.020 A 
ATOM     84  C   UNL A   1      32.339  19.728  22.779  1.00  0.00     0.006 A 
ATOM     85  C   UNL A   1      33.928  19.002  24.430  1.00  0.00     0.022 A 
ATOM     86  C   UNL A   1      32.143  18.417  22.347  1.00  0.00     0.002 A 
ATOM     87  C   UNL A   1      33.701  17.679  24.015  1.00  0.00     0.018 A 
ATOM     88  C   UNL A   1      32.825  17.384  22.971  1.00  0.00     0.016 A 
ATOM     89  Br  UNL A   1      34.573  16.248  24.895  1.00  0.00    -0.051 Br
ENDBRANCH  76  83
BRANCH  81  90
ATOM     90  C   UNL A   1      36.312  22.486  26.023  1.00  0.00     0.002 A 
ATOM     91  C   UNL A   1      37.349  21.598  25.709  1.00  0.00     0.010 A 
ATOM     92  C   UNL A   1      36.617  23.826  26.299  1.00  0.00     0.010 A 
ATOM     93  C   UNL A   1      38.680  22.027  25.777  1.00  0.00     0.001 A 
ATOM     94  C   UNL A   1      37.944  24.249  26.368  1.00  0.00     0.001 A 
ATOM     95  C   UNL A   1      38.976  23.343  26.137  1.00  0.00     0.000 A 
ENDBRANCH  81  90
ENDBRANCH  73  74
ENDBRANCH  66  68
ENDBRANCH  65  66
ENDBRANCH  64  65
ENDBRANCH  63  64
ENDBRANCH   1  63
TORSDOF 17
ENDMDL
MODEL 2
REMARK VINA RESULT:     -13.1      3.225      6.036
REMARK SMILES O=C(OCCOCCOC(=O)c1ccc(N2C(=O)[C@@H]3N=NC(c4ccccc4)=C3[C@H]2c2cccc(Br)c2)cc1)c1ccc(-c2c3nc(c(-c4c(F)cccc4F)c4ccc([nH]4)c(-c4c(F)cccc4F)c4nc(c(-c5c(F)cccc5F)c5ccc2[nH]5)C=C4)C=C3)cc1
REMARK SMILES IDX 6 1 5 2 4 3 3 4 2 5 1 6 40 7 41 8 93 9 42 10 92 11 43 12
REMARK SMILES IDX 44 13 45 14 86 15 46 16 91 17 85 18 87 19 47 20 90 21 84 22
REMARK SMILES IDX 83 23 48 25 74 26 57 27 73 28 58 29 61 30 72 31 88 32 59 33
REMARK SMILES IDX 60 34 71 36 89 37 62 38 49 39 50 40 55 41 51 42 52 43 54 44
REMARK SMILES IDX 56 45 53 46 75 47 76 48 81 49 77 50 78 51 80 52 82 53 79 54
REMARK SMILES IDX 63 55 64 56 69 57 65 58 66 59 68 60 70 61 67 62 7 63 8 64
REMARK SMILES IDX 9 65 10 66 11 67 12 68 13 69 39 70 14 71 38 72 15 73 16 74
REMARK SMILES IDX 17 75 30 76 19 77 18 78 29 79 20 80 22 81 21 82 31 83 32 84
REMARK SMILES IDX 37 85 33 86 35 87 34 88 36 89 23 90 24 91 28 92 25 93 27 94
REMARK SMILES IDX 26 95
REMARK H PARENT 87 24 61 35
REMARK Flexibility Score: inf
ROOT
ATOM      1  O   UNL A   1      33.143  36.862  29.762  1.00  0.00    -0.374 OA
ENDROOT
BRANCH   1   2
ATOM      2  C   UNL A   1      32.511  36.384  30.944  1.00  0.00     0.202 C 
BRANCH   2   3
ATOM      3  C   UNL A   1      33.282  36.495  32.259  1.00  0.00     0.261 C 
BRANCH   3   4
ATOM      4  O   UNL A   1      34.419  35.619  32.335  1.00  0.00    -0.460 OA
BRANCH   4   5
ATOM      5  C   UNL A   1      34.458  34.412  32.937  1.00  0.00     0.338 C 
ATOM      6  O   UNL A   1      33.412  33.808  33.169  1.00  0.00    -0.246 OA
BRANCH   5   7
ATOM      7  C   UNL A   1      35.748  33.691  33.085  1.00  0.00     0.060 A 
ATOM      8  C   UNL A   1      37.013  34.275  33.048  1.00  0.00     0.016 A 
ATOM      9  C   UNL A   1      35.644  32.292  33.135  1.00  0.00     0.016 A 
ATOM     10  C   UNL A   1      38.115  33.502  32.743  1.00  0.00     0.010 A 
ATOM     11  C   UNL A   1      36.753  31.503  32.907  1.00  0.00     0.010 A 
ATOM     12  C   UNL A   1      37.953  32.126  32.596  1.00  0.00    -0.014 A 
BRANCH  12  13
ATOM     13  C   UNL A   1      39.115  31.346  32.222  1.00  0.00     0.031 A 
ATOM     14  C   UNL A   1      39.982  30.998  33.373  1.00  0.00     0.074 A 
ATOM     15  C   UNL A   1      39.302  30.916  30.959  1.00  0.00     0.049 A 
ATOM     16  N   UNL A   1      41.192  31.390  33.601  1.00  0.00    -0.248 NA
ATOM     17  C   UNL A   1      39.364  30.276  34.499  1.00  0.00     0.031 C 
ATOM     18  C   UNL A   1      38.379  31.009  29.824  1.00  0.00     0.029 A 
ATOM     19  N   UNL A   1      40.339  30.203  30.447  1.00  0.00    -0.354 N 
ATOM     20  C   UNL A   1      41.563  30.783  34.796  1.00  0.00     0.074 A 
ATOM     21  C   UNL A   1      40.355  30.275  35.391  1.00  0.00     0.031 C 
ATOM     22  C   UNL A   1      38.789  30.171  28.844  1.00  0.00     0.029 A 
ATOM     23  C   UNL A   1      40.066  29.596  29.224  1.00  0.00     0.049 A 
ATOM     24  H   UNL A   1      41.209  30.122  30.901  1.00  0.00     0.167 HD
ATOM     25  C   UNL A   1      42.868  30.514  35.068  1.00  0.00     0.037 A 
ATOM     26  C   UNL A   1      40.815  28.627  28.638  1.00  0.00     0.037 A 
ATOM     27  C   UNL A   1      43.745  31.299  34.238  1.00  0.00     0.049 A 
ATOM     28  C   UNL A   1      42.165  28.678  29.260  1.00  0.00     0.074 A 
ATOM     29  C   UNL A   1      43.968  32.651  34.067  1.00  0.00     0.029 A 
ATOM     30  N   UNL A   1      44.293  30.685  33.139  1.00  0.00    -0.354 N 
ATOM     31  N   UNL A   1      43.000  29.666  29.089  1.00  0.00    -0.248 NA
ATOM     32  C   UNL A   1      42.385  27.875  30.454  1.00  0.00     0.031 C 
ATOM     33  C   UNL A   1      44.196  32.813  32.670  1.00  0.00     0.029 A 
ATOM     34  C   UNL A   1      44.175  31.548  32.081  1.00  0.00     0.049 A 
ATOM     35  H   UNL A   1      44.696  29.787  33.115  1.00  0.00     0.167 HD
ATOM     36  C   UNL A   1      43.553  29.881  30.343  1.00  0.00     0.074 A 
ATOM     37  C   UNL A   1      43.189  28.702  31.128  1.00  0.00     0.031 C 
ATOM     38  C   UNL A   1      43.996  31.117  30.715  1.00  0.00     0.037 A 
BRANCH  25  39
ATOM     39  C   UNL A   1      43.337  29.265  35.770  1.00  0.00     0.057 A 
ATOM     40  C   UNL A   1      44.233  29.382  36.847  1.00  0.00     0.134 A 
ATOM     41  C   UNL A   1      43.199  27.963  35.244  1.00  0.00     0.134 A 
ATOM     42  F   UNL A   1      44.462  30.570  37.427  1.00  0.00    -0.206 F 
ATOM     43  C   UNL A   1      44.997  28.303  37.306  1.00  0.00     0.040 A 
ATOM     44  C   UNL A   1      43.918  26.869  35.730  1.00  0.00     0.040 A 
ATOM     45  F   UNL A   1      42.448  27.694  34.170  1.00  0.00    -0.206 F 
ATOM     46  C   UNL A   1      44.848  27.043  36.740  1.00  0.00     0.006 A 
ENDBRANCH  25  39
BRANCH  26  47
ATOM     47  C   UNL A   1      40.348  27.457  27.859  1.00  0.00     0.057 A 
ATOM     48  C   UNL A   1      40.888  27.160  26.599  1.00  0.00     0.134 A 
ATOM     49  C   UNL A   1      39.567  26.445  28.446  1.00  0.00     0.134 A 
ATOM     50  F   UNL A   1      41.684  28.042  25.976  1.00  0.00    -0.206 F 
ATOM     51  C   UNL A   1      40.684  25.923  25.971  1.00  0.00     0.040 A 
ATOM     52  C   UNL A   1      39.350  25.209  27.827  1.00  0.00     0.040 A 
ATOM     53  F   UNL A   1      39.064  26.585  29.680  1.00  0.00    -0.206 F 
ATOM     54  C   UNL A   1      39.920  24.938  26.590  1.00  0.00     0.006 A 
ENDBRANCH  26  47
BRANCH  38  55
ATOM     55  C   UNL A   1      44.085  32.181  29.657  1.00  0.00     0.057 A 
ATOM     56  C   UNL A   1      43.055  33.086  29.358  1.00  0.00     0.134 A 
ATOM     57  C   UNL A   1      45.318  32.399  29.032  1.00  0.00     0.134 A 
ATOM     58  F   UNL A   1      41.872  33.021  29.981  1.00  0.00    -0.206 F 
ATOM     59  C   UNL A   1      43.233  34.133  28.447  1.00  0.00     0.040 A 
ATOM     60  C   UNL A   1      45.520  33.460  28.148  1.00  0.00     0.040 A 
ATOM     61  F   UNL A   1      46.366  31.608  29.315  1.00  0.00    -0.206 F 
ATOM     62  C   UNL A   1      44.473  34.325  27.845  1.00  0.00     0.006 A 
ENDBRANCH  38  55
ENDBRANCH  12  13
ENDBRANCH   5   7
ENDBRANCH   4   5
ENDBRANCH   3   4
ENDBRANCH   2   3
ENDBRANCH   1   2
BRANCH   1  63
ATOM     63  C   UNL A   1      33.334  35.934  28.689  1.00  0.00     0.202 C 
BRANCH  63  64
ATOM     64  C   UNL A   1      34.245  34.707  28.873  1.00  0.00     0.261 C 
BRANCH  64  65
ATOM     65  O   UNL A   1      33.660  33.460  28.444  1.00  0.00    -0.460 OA
BRANCH  65  66
ATOM     66  C   UNL A   1      34.362  32.359  28.819  1.00  0.00     0.338 C 
ATOM     67  O   UNL A   1      34.936  32.189  29.875  1.00  0.00    -0.246 OA
BRANCH  66  68
ATOM     68  C   UNL A   1      34.185  31.255  27.847  1.00  0.00     0.060 A 
ATOM     69  C   UNL A   1      32.943  31.167  27.211  1.00  0.00     0.018 A 
ATOM     70  C   UNL A   1      35.146  30.259  27.646  1.00  0.00     0.018 A 
ATOM     71  C   UNL A   1      32.647  30.066  26.411  1.00  0.00     0.027 A 
ATOM     72  C   UNL A   1      34.825  29.124  26.876  1.00  0.00     0.027 A 
ATOM     73  C   UNL A   1      33.567  29.013  26.276  1.00  0.00     0.045 A 
BRANCH  73  74
ATOM     74  N   UNL A   1      33.180  27.843  25.553  1.00  0.00    -0.299 N 
ATOM     75  C   UNL A   1      33.704  27.720  24.223  1.00  0.00     0.259 C 
ATOM     76  C   UNL A   1      31.756  27.416  25.591  1.00  0.00     0.152 C 
ATOM     77  C   UNL A   1      32.622  27.151  23.353  1.00  0.00     0.248 C 
ATOM     78  O   UNL A   1      34.815  28.069  23.843  1.00  0.00    -0.271 OA
ATOM     79  C   UNL A   1      31.465  27.618  24.153  1.00  0.00     0.021 C 
ATOM     80  N   UNL A   1      32.402  27.827  22.069  1.00  0.00    -0.170 NA
ATOM     81  C   UNL A   1      30.664  28.269  23.316  1.00  0.00     0.097 C 
ATOM     82  N   UNL A   1      31.236  28.321  22.056  1.00  0.00    -0.154 NA
BRANCH  76  83
ATOM     83  C   UNL A   1      31.537  25.941  25.987  1.00  0.00    -0.020 A 
ATOM     84  C   UNL A   1      30.233  25.384  26.053  1.00  0.00     0.006 A 
ATOM     85  C   UNL A   1      32.601  25.103  26.354  1.00  0.00     0.022 A 
ATOM     86  C   UNL A   1      30.000  24.056  26.404  1.00  0.00     0.002 A 
ATOM     87  C   UNL A   1      32.359  23.774  26.741  1.00  0.00     0.018 A 
ATOM     88  C   UNL A   1      31.069  23.245  26.754  1.00  0.00     0.016 A 
ATOM     89  Br  UNL A   1      33.795  22.669  27.285  1.00  0.00    -0.051 Br
ENDBRANCH  76  83
BRANCH  81  90
ATOM     90  C   UNL A   1      29.455  29.066  23.537  1.00  0.00     0.002 A 
ATOM     91  C   UNL A   1      28.197  28.578  23.160  1.00  0.00     0.010 A 
ATOM     92  C   UNL A   1      29.601  30.428  23.832  1.00  0.00     0.010 A 
ATOM     93  C   UNL A   1      27.129  29.466  22.979  1.00  0.00     0.001 A 
ATOM     94  C   UNL A   1      28.535  31.310  23.649  1.00  0.00     0.001 A 
ATOM     95  C   UNL A   1      27.309  30.833  23.193  1.00  0.00     0.000 A 
ENDBRANCH  81  90
ENDBRANCH  73  74
ENDBRANCH  66  68
ENDBRANCH  65  66
ENDBRANCH  64  65
ENDBRANCH  63  64
ENDBRANCH   1  63
TORSDOF 17
ENDMDL
MODEL 3
REMARK VINA RESULT:     -12.4      3.366      7.709
REMARK SMILES O=C(OCCOCCOC(=O)c1ccc(N2C(=O)[C@@H]3N=NC(c4ccccc4)=C3[C@H]2c2cccc(Br)c2)cc1)c1ccc(-c2c3nc(c(-c4c(F)cccc4F)c4ccc([nH]4)c(-c4c(F)cccc4F)c4nc(c(-c5c(F)cccc5F)c5ccc2[nH]5)C=C4)C=C3)cc1
REMARK SMILES IDX 6 1 5 2 4 3 3 4 2 5 1 6 40 7 41 8 93 9 42 10 92 11 43 12
REMARK SMILES IDX 44 13 45 14 86 15 46 16 91 17 85 18 87 19 47 20 90 21 84 22
REMARK SMILES IDX 83 23 48 25 74 26 57 27 73 28 58 29 61 30 72 31 88 32 59 33
REMARK SMILES IDX 60 34 71 36 89 37 62 38 49 39 50 40 55 41 51 42 52 43 54 44
REMARK SMILES IDX 56 45 53 46 75 47 76 48 81 49 77 50 78 51 80 52 82 53 79 54
REMARK SMILES IDX 63 55 64 56 69 57 65 58 66 59 68 60 70 61 67 62 7 63 8 64
REMARK SMILES IDX 9 65 10 66 11 67 12 68 13 69 39 70 14 71 38 72 15 73 16 74
REMARK SMILES IDX 17 75 30 76 19 77 18 78 29 79 20 80 22 81 21 82 31 83 32 84
REMARK SMILES IDX 37 85 33 86 35 87 34 88 36 89 23 90 24 91 28 92 25 93 27 94
REMARK SMILES IDX 26 95
REMARK H PARENT 87 24 61 35
REMARK Flexibility Score: inf
ROOT
ATOM      1  O   UNL A   1      32.745  35.291  29.760  1.00  0.00    -0.374 OA
ENDROOT
BRANCH   1   2
ATOM      2  C   UNL A   1      32.895  36.133  30.897  1.00  0.00     0.202 C 
BRANCH   2   3
ATOM      3  C   UNL A   1      32.412  35.603  32.246  1.00  0.00     0.261 C 
BRANCH   3   4
ATOM      4  O   UNL A   1      33.356  34.733  32.894  1.00  0.00    -0.460 OA
BRANCH   4   5
ATOM      5  C   UNL A   1      34.685  34.937  33.003  1.00  0.00     0.338 C 
ATOM      6  O   UNL A   1      35.119  35.710  33.855  1.00  0.00    -0.246 OA
BRANCH   5   7
ATOM      7  C   UNL A   1      35.638  34.049  32.290  1.00  0.00     0.060 A 
ATOM      8  C   UNL A   1      36.130  32.835  32.766  1.00  0.00     0.016 A 
ATOM      9  C   UNL A   1      36.161  34.576  31.098  1.00  0.00     0.016 A 
ATOM     10  C   UNL A   1      37.311  32.331  32.263  1.00  0.00     0.010 A 
ATOM     11  C   UNL A   1      37.300  34.035  30.538  1.00  0.00     0.010 A 
ATOM     12  C   UNL A   1      37.927  32.988  31.200  1.00  0.00    -0.014 A 
BRANCH  12  13
ATOM     13  C   UNL A   1      39.194  32.469  30.728  1.00  0.00     0.031 A 
ATOM     14  C   UNL A   1      39.079  31.134  30.092  1.00  0.00     0.074 A 
ATOM     15  C   UNL A   1      40.325  33.198  30.790  1.00  0.00     0.049 A 
ATOM     16  N   UNL A   1      39.575  30.015  30.505  1.00  0.00    -0.248 NA
ATOM     17  C   UNL A   1      38.146  30.996  28.961  1.00  0.00     0.031 C 
ATOM     18  C   UNL A   1      40.477  34.603  31.177  1.00  0.00     0.029 A 
ATOM     19  N   UNL A   1      41.584  32.850  30.415  1.00  0.00    -0.354 N 
ATOM     20  C   UNL A   1      39.195  29.067  29.560  1.00  0.00     0.074 A 
ATOM     21  C   UNL A   1      38.174  29.679  28.751  1.00  0.00     0.031 C 
ATOM     22  C   UNL A   1      41.693  35.047  30.784  1.00  0.00     0.029 A 
ATOM     23  C   UNL A   1      42.449  33.929  30.250  1.00  0.00     0.049 A 
ATOM     24  H   UNL A   1      41.862  31.917  30.273  1.00  0.00     0.167 HD
ATOM     25  C   UNL A   1      39.941  27.949  29.353  1.00  0.00     0.037 A 
ATOM     26  C   UNL A   1      43.657  33.885  29.633  1.00  0.00     0.037 A 
ATOM     27  C   UNL A   1      40.818  27.694  30.466  1.00  0.00     0.049 A 
ATOM     28  C   UNL A   1      44.086  32.462  29.605  1.00  0.00     0.074 A 
ATOM     29  C   UNL A   1      40.630  27.426  31.808  1.00  0.00     0.029 A 
ATOM     30  N   UNL A   1      42.131  28.075  30.338  1.00  0.00    -0.354 N 
ATOM     31  N   UNL A   1      44.415  31.787  30.672  1.00  0.00    -0.248 NA
ATOM     32  C   UNL A   1      43.674  31.659  28.462  1.00  0.00     0.031 C 
ATOM     33  C   UNL A   1      41.684  28.118  32.472  1.00  0.00     0.029 A 
ATOM     34  C   UNL A   1      42.495  28.704  31.499  1.00  0.00     0.049 A 
ATOM     35  H   UNL A   1      42.706  27.924  29.553  1.00  0.00     0.167 HD
ATOM     36  C   UNL A   1      43.841  30.538  30.491  1.00  0.00     0.074 A 
ATOM     37  C   UNL A   1      43.457  30.495  29.080  1.00  0.00     0.031 C 
ATOM     38  C   UNL A   1      43.461  29.775  31.558  1.00  0.00     0.037 A 
BRANCH  25  39
ATOM     39  C   UNL A   1      40.177  27.340  27.993  1.00  0.00     0.057 A 
ATOM     40  C   UNL A   1      39.946  25.966  27.811  1.00  0.00     0.134 A 
ATOM     41  C   UNL A   1      40.908  27.967  26.962  1.00  0.00     0.134 A 
ATOM     42  F   UNL A   1      39.273  25.253  28.728  1.00  0.00    -0.206 F 
ATOM     43  C   UNL A   1      40.477  25.254  26.730  1.00  0.00     0.040 A 
ATOM     44  C   UNL A   1      41.398  27.276  25.853  1.00  0.00     0.040 A 
ATOM     45  F   UNL A   1      41.281  29.251  27.018  1.00  0.00    -0.206 F 
ATOM     46  C   UNL A   1      41.214  25.907  25.751  1.00  0.00     0.006 A 
ENDBRANCH  25  39
BRANCH  26  47
ATOM     47  C   UNL A   1      44.279  34.914  28.767  1.00  0.00     0.057 A 
ATOM     48  C   UNL A   1      43.672  35.318  27.569  1.00  0.00     0.134 A 
ATOM     49  C   UNL A   1      45.332  35.725  29.226  1.00  0.00     0.134 A 
ATOM     50  F   UNL A   1      42.629  34.636  27.071  1.00  0.00    -0.206 F 
ATOM     51  C   UNL A   1      44.072  36.473  26.880  1.00  0.00     0.040 A 
ATOM     52  C   UNL A   1      45.745  36.876  28.545  1.00  0.00     0.040 A 
ATOM     53  F   UNL A   1      45.935  35.483  30.398  1.00  0.00    -0.206 F 
ATOM     54  C   UNL A   1      45.106  37.262  27.375  1.00  0.00     0.006 A 
ENDBRANCH  26  47
BRANCH  38  55
ATOM     55  C   UNL A   1      43.892  30.218  32.928  1.00  0.00     0.057 A 
ATOM     56  C   UNL A   1      43.170  31.112  33.733  1.00  0.00     0.134 A 
ATOM     57  C   UNL A   1      44.996  29.590  33.516  1.00  0.00     0.134 A 
ATOM     58  F   UNL A   1      42.041  31.684  33.295  1.00  0.00    -0.206 F 
ATOM     59  C   UNL A   1      43.553  31.397  35.048  1.00  0.00     0.040 A 
ATOM     60  C   UNL A   1      45.370  29.839  34.837  1.00  0.00     0.040 A 
ATOM     61  F   UNL A   1      45.699  28.679  32.824  1.00  0.00    -0.206 F 
ATOM     62  C   UNL A   1      44.654  30.753  35.605  1.00  0.00     0.006 A 
ENDBRANCH  38  55
ENDBRANCH  12  13
ENDBRANCH   5   7
ENDBRANCH   4   5
ENDBRANCH   3   4
ENDBRANCH   2   3
ENDBRANCH   1   2
BRANCH   1  63
ATOM     63  C   UNL A   1      33.621  35.512  28.649  1.00  0.00     0.202 C 
BRANCH  63  64
ATOM     64  C   UNL A   1      34.364  34.333  27.996  1.00  0.00     0.261 C 
BRANCH  64  65
ATOM     65  O   UNL A   1      33.599  33.114  27.921  1.00  0.00    -0.460 OA
BRANCH  65  66
ATOM     66  C   UNL A   1      34.242  32.023  28.414  1.00  0.00     0.338 C 
ATOM     67  O   UNL A   1      34.762  31.919  29.506  1.00  0.00    -0.246 OA
BRANCH  66  68
ATOM     68  C   UNL A   1      34.065  30.850  27.525  1.00  0.00     0.060 A 
ATOM     69  C   UNL A   1      32.847  30.750  26.847  1.00  0.00     0.018 A 
ATOM     70  C   UNL A   1      34.998  29.812  27.444  1.00  0.00     0.018 A 
ATOM     71  C   UNL A   1      32.544  29.598  26.125  1.00  0.00     0.027 A 
ATOM     72  C   UNL A   1      34.669  28.630  26.754  1.00  0.00     0.027 A 
ATOM     73  C   UNL A   1      33.432  28.510  26.112  1.00  0.00     0.045 A 
BRANCH  73  74
ATOM     74  N   UNL A   1      33.034  27.299  25.468  1.00  0.00    -0.299 N 
ATOM     75  C   UNL A   1      33.523  27.102  24.133  1.00  0.00     0.259 C 
ATOM     76  C   UNL A   1      31.614  26.867  25.569  1.00  0.00     0.152 C 
ATOM     77  C   UNL A   1      32.421  26.478  23.327  1.00  0.00     0.248 C 
ATOM     78  O   UNL A   1      34.620  27.434  23.704  1.00  0.00    -0.271 OA
ATOM     79  C   UNL A   1      31.283  26.984  24.131  1.00  0.00     0.021 C 
ATOM     80  N   UNL A   1      32.162  27.078  22.013  1.00  0.00    -0.170 NA
ATOM     81  C   UNL A   1      30.455  27.582  23.279  1.00  0.00     0.097 C 
ATOM     82  N   UNL A   1      30.993  27.564  22.004  1.00  0.00    -0.154 NA
BRANCH  76  83
ATOM     83  C   UNL A   1      31.416  25.415  26.054  1.00  0.00    -0.020 A 
ATOM     84  C   UNL A   1      30.123  24.834  26.123  1.00  0.00     0.006 A 
ATOM     85  C   UNL A   1      32.488  24.628  26.503  1.00  0.00     0.022 A 
ATOM     86  C   UNL A   1      29.910  23.526  26.554  1.00  0.00     0.002 A 
ATOM     87  C   UNL A   1      32.263  23.322  26.970  1.00  0.00     0.018 A 
ATOM     88  C   UNL A   1      30.985  22.764  26.984  1.00  0.00     0.016 A 
ATOM     89  Br  UNL A   1      33.708  22.287  27.622  1.00  0.00    -0.051 Br
ENDBRANCH  76  83
BRANCH  81  90
ATOM     90  C   UNL A   1      29.248  28.383  23.487  1.00  0.00     0.002 A 
ATOM     91  C   UNL A   1      27.979  27.791  23.441  1.00  0.00     0.010 A 
ATOM     92  C   UNL A   1      29.355  29.779  23.419  1.00  0.00     0.010 A 
ATOM     93  C   UNL A   1      26.846  28.585  23.220  1.00  0.00     0.001 A 
ATOM     94  C   UNL A   1      28.225  30.566  23.196  1.00  0.00     0.001 A 
ATOM     95  C   UNL A   1      26.975  29.966  23.067  1.00  0.00     0.000 A 
ENDBRANCH  81  90
ENDBRANCH  73  74
ENDBRANCH  66  68
ENDBRANCH  65  66
ENDBRANCH  64  65
ENDBRANCH  63  64
ENDBRANCH   1  63
TORSDOF 17
ENDMDL
