MODEL 1
REMARK VINA RESULT:     -10.8      0.000      0.000
REMARK SMILES C[C@H]1[C@@H](C(=O)OCCOCCOC(=O)c2ccc(-c3c4nc(c(-c5c(F)cccc5F)c5ccc([nH]5)c(-c5c(F)cccc5F)c5nc(c(-c6c(F)cccc6F)c6ccc3[nH]6)C=C5)C=C4)cc2)CCN1C(=O)/C=C/c1cccc(F)c1
REMARK SMILES IDX 8 1 7 2 6 3 4 4 5 5 3 6 1 7 2 8 71 9 69 10 70 11 72 12 73 13
REMARK SMILES IDX 74 14 75 15 76 16 77 17 82 18 78 19 80 20 79 21 81 22 9 23
REMARK SMILES IDX 10 24 11 25 12 26 13 27 14 28 15 29 16 30 68 31 17 32 67 33
REMARK SMILES IDX 18 34 19 35 20 36 61 37 21 38 66 39 60 40 62 41 22 42 65 43
REMARK SMILES IDX 59 44 58 45 23 47 49 48 32 49 48 50 33 51 36 52 47 53 63 54
REMARK SMILES IDX 34 55 35 56 46 58 64 59 37 60 24 61 25 62 30 63 26 64 27 65
REMARK SMILES IDX 29 66 31 67 28 68 50 69 51 70 56 71 52 72 53 73 55 74 57 75
REMARK SMILES IDX 54 76 38 77 39 78 44 79 40 80 41 81 43 82 45 83 42 84
REMARK H PARENT 62 46 36 57
REMARK Flexibility Score: inf
ROOT
ATOM      1  C   UNL A   1      35.005  22.045  24.519  1.00  0.00     0.202 C 
ENDROOT
BRANCH   1   2
ATOM      2  C   UNL A   1      33.573  21.516  24.644  1.00  0.00     0.261 C 
BRANCH   2   3
ATOM      3  O   UNL A   1      32.656  22.627  24.663  1.00  0.00    -0.463 OA
BRANCH   3   4
ATOM      4  C   UNL A   1      31.841  22.780  23.602  1.00  0.00     0.311 C 
ATOM      5  O   UNL A   1      31.856  22.054  22.614  1.00  0.00    -0.252 OA
BRANCH   4   6
ATOM      6  C   UNL A   1      30.852  23.929  23.748  1.00  0.00     0.123 C 
ATOM      7  C   UNL A   1      32.399  25.649  22.442  1.00  0.00     0.032 C 
ATOM      8  C   UNL A   1      31.067  25.335  23.123  1.00  0.00     0.096 C 
ATOM      9  N   UNL A   1      30.781  26.289  24.211  1.00  0.00    -0.336 N 
ATOM     10  C   UNL A   1      30.588  24.176  25.247  1.00  0.00     0.039 C 
ATOM     11  C   UNL A   1      30.833  25.646  25.501  1.00  0.00     0.121 C 
BRANCH   9  12
ATOM     12  C   UNL A   1      30.589  27.657  24.170  1.00  0.00     0.246 C 
ATOM     13  O   UNL A   1      29.731  28.189  23.468  1.00  0.00    -0.270 OA
BRANCH  12  14
ATOM     14  C   UNL A   1      31.350  28.521  25.104  1.00  0.00     0.072 C 
ATOM     15  C   UNL A   1      32.687  28.504  25.207  1.00  0.00     0.014 C 
BRANCH  15  16
ATOM     16  C   UNL A   1      33.478  29.242  26.207  1.00  0.00    -0.023 A 
ATOM     17  C   UNL A   1      32.978  30.474  26.663  1.00  0.00     0.008 A 
ATOM     18  C   UNL A   1      34.708  28.798  26.708  1.00  0.00     0.047 A 
ATOM     19  C   UNL A   1      33.688  31.245  27.589  1.00  0.00     0.004 A 
ATOM     20  C   UNL A   1      35.408  29.574  27.631  1.00  0.00     0.123 A 
ATOM     21  C   UNL A   1      34.910  30.791  28.075  1.00  0.00     0.039 A 
ATOM     22  F   UNL A   1      36.586  29.137  28.094  1.00  0.00    -0.207 F 
ENDBRANCH  15  16
ENDBRANCH  12  14
ENDBRANCH   9  12
ENDBRANCH   4   6
ENDBRANCH   3   4
ENDBRANCH   2   3
ENDBRANCH   1   2
BRANCH   1  23
ATOM     23  O   UNL A   1      35.946  21.396  25.381  1.00  0.00    -0.374 OA
BRANCH  23  24
ATOM     24  C   UNL A   1      36.411  20.112  24.967  1.00  0.00     0.202 C 
BRANCH  24  25
ATOM     25  C   UNL A   1      37.933  19.952  24.931  1.00  0.00     0.261 C 
BRANCH  25  26
ATOM     26  O   UNL A   1      38.587  21.150  25.383  1.00  0.00    -0.460 OA
BRANCH  26  27
ATOM     27  C   UNL A   1      39.672  20.928  26.158  1.00  0.00     0.338 C 
ATOM     28  O   UNL A   1      40.364  19.919  26.185  1.00  0.00    -0.246 OA
BRANCH  27  29
ATOM     29  C   UNL A   1      40.036  22.150  26.901  1.00  0.00     0.060 A 
ATOM     30  C   UNL A   1      39.394  23.332  26.516  1.00  0.00     0.016 A 
ATOM     31  C   UNL A   1      41.027  22.171  27.889  1.00  0.00     0.016 A 
ATOM     32  C   UNL A   1      39.806  24.550  27.042  1.00  0.00     0.010 A 
ATOM     33  C   UNL A   1      41.435  23.399  28.424  1.00  0.00     0.010 A 
ATOM     34  C   UNL A   1      40.868  24.597  27.956  1.00  0.00    -0.014 A 
BRANCH  34  35
ATOM     35  C   UNL A   1      41.482  25.915  28.249  1.00  0.00     0.031 A 
ATOM     36  C   UNL A   1      42.854  26.214  27.705  1.00  0.00     0.074 A 
ATOM     37  C   UNL A   1      40.785  26.870  28.889  1.00  0.00     0.049 A 
ATOM     38  N   UNL A   1      43.537  27.329  27.742  1.00  0.00    -0.248 NA
ATOM     39  C   UNL A   1      43.548  25.107  27.026  1.00  0.00     0.031 C 
ATOM     40  C   UNL A   1      39.437  26.712  29.433  1.00  0.00     0.029 A 
ATOM     41  N   UNL A   1      41.113  28.172  29.173  1.00  0.00    -0.354 N 
ATOM     42  C   UNL A   1      44.734  27.060  27.089  1.00  0.00     0.074 A 
ATOM     43  C   UNL A   1      44.705  25.665  26.707  1.00  0.00     0.031 C 
ATOM     44  C   UNL A   1      39.047  27.878  29.975  1.00  0.00     0.029 A 
ATOM     45  C   UNL A   1      40.123  28.857  29.831  1.00  0.00     0.049 A 
ATOM     46  H   UNL A   1      41.976  28.576  28.925  1.00  0.00     0.167 HD
ATOM     47  C   UNL A   1      45.759  27.902  26.816  1.00  0.00     0.037 A 
ATOM     48  C   UNL A   1      40.090  30.132  30.265  1.00  0.00     0.037 A 
ATOM     49  C   UNL A   1      45.787  29.291  27.190  1.00  0.00     0.049 A 
ATOM     50  C   UNL A   1      41.262  31.035  29.990  1.00  0.00     0.074 A 
ATOM     51  C   UNL A   1      46.773  30.231  26.948  1.00  0.00     0.029 A 
ATOM     52  N   UNL A   1      44.782  29.936  27.894  1.00  0.00    -0.354 N 
ATOM     53  N   UNL A   1      42.373  30.779  29.342  1.00  0.00    -0.248 NA
ATOM     54  C   UNL A   1      41.168  32.412  30.496  1.00  0.00     0.031 C 
ATOM     55  C   UNL A   1      46.384  31.435  27.545  1.00  0.00     0.029 A 
ATOM     56  C   UNL A   1      45.132  31.258  28.114  1.00  0.00     0.049 A 
ATOM     57  H   UNL A   1      43.942  29.518  28.193  1.00  0.00     0.167 HD
ATOM     58  C   UNL A   1      43.095  31.966  29.337  1.00  0.00     0.074 A 
ATOM     59  C   UNL A   1      42.289  32.947  30.033  1.00  0.00     0.031 C 
ATOM     60  C   UNL A   1      44.316  32.223  28.805  1.00  0.00     0.037 A 
BRANCH  47  61
ATOM     61  C   UNL A   1      46.943  27.333  26.088  1.00  0.00     0.057 A 
ATOM     62  C   UNL A   1      48.005  26.718  26.766  1.00  0.00     0.134 A 
ATOM     63  C   UNL A   1      47.012  27.382  24.691  1.00  0.00     0.134 A 
ATOM     64  F   UNL A   1      48.008  26.651  28.106  1.00  0.00    -0.206 F 
ATOM     65  C   UNL A   1      49.103  26.194  26.081  1.00  0.00     0.040 A 
ATOM     66  C   UNL A   1      48.094  26.839  23.993  1.00  0.00     0.040 A 
ATOM     67  F   UNL A   1      46.029  27.955  23.980  1.00  0.00    -0.206 F 
ATOM     68  C   UNL A   1      49.146  26.249  24.690  1.00  0.00     0.006 A 
ENDBRANCH  47  61
BRANCH  48  69
ATOM     69  C   UNL A   1      38.902  30.637  30.999  1.00  0.00     0.057 A 
ATOM     70  C   UNL A   1      37.910  31.384  30.354  1.00  0.00     0.134 A 
ATOM     71  C   UNL A   1      38.742  30.400  32.370  1.00  0.00     0.134 A 
ATOM     72  F   UNL A   1      38.017  31.662  29.046  1.00  0.00    -0.206 F 
ATOM     73  C   UNL A   1      36.813  31.897  31.049  1.00  0.00     0.040 A 
ATOM     74  C   UNL A   1      37.638  30.885  33.072  1.00  0.00     0.040 A 
ATOM     75  F   UNL A   1      39.656  29.687  33.045  1.00  0.00    -0.206 F 
ATOM     76  C   UNL A   1      36.673  31.643  32.412  1.00  0.00     0.006 A 
ENDBRANCH  48  69
BRANCH  60  77
ATOM     77  C   UNL A   1      44.834  33.628  28.924  1.00  0.00     0.057 A 
ATOM     78  C   UNL A   1      45.651  34.029  29.987  1.00  0.00     0.134 A 
ATOM     79  C   UNL A   1      44.526  34.584  27.947  1.00  0.00     0.134 A 
ATOM     80  F   UNL A   1      45.974  33.164  30.961  1.00  0.00    -0.206 F 
ATOM     81  C   UNL A   1      46.119  35.340  30.092  1.00  0.00     0.040 A 
ATOM     82  C   UNL A   1      45.011  35.891  28.027  1.00  0.00     0.040 A 
ATOM     83  F   UNL A   1      43.757  34.263  26.896  1.00  0.00    -0.206 F 
ATOM     84  C   UNL A   1      45.802  36.274  29.107  1.00  0.00     0.006 A 
ENDBRANCH  60  77
ENDBRANCH  34  35
ENDBRANCH  27  29
ENDBRANCH  26  27
ENDBRANCH  25  26
ENDBRANCH  24  25
ENDBRANCH  23  24
ENDBRANCH   1  23
TORSDOF 17
ENDMDL
MODEL 2
REMARK VINA RESULT:     -10.8      1.677      2.713
REMARK SMILES C[C@H]1[C@@H](C(=O)OCCOCCOC(=O)c2ccc(-c3c4nc(c(-c5c(F)cccc5F)c5ccc([nH]5)c(-c5c(F)cccc5F)c5nc(c(-c6c(F)cccc6F)c6ccc3[nH]6)C=C5)C=C4)cc2)CCN1C(=O)/C=C/c1cccc(F)c1
REMARK SMILES IDX 8 1 7 2 6 3 4 4 5 5 3 6 1 7 2 8 71 9 69 10 70 11 72 12 73 13
REMARK SMILES IDX 74 14 75 15 76 16 77 17 82 18 78 19 80 20 79 21 81 22 9 23
REMARK SMILES IDX 10 24 11 25 12 26 13 27 14 28 15 29 16 30 68 31 17 32 67 33
REMARK SMILES IDX 18 34 19 35 20 36 61 37 21 38 66 39 60 40 62 41 22 42 65 43
REMARK SMILES IDX 59 44 58 45 23 47 49 48 32 49 48 50 33 51 36 52 47 53 63 54
REMARK SMILES IDX 34 55 35 56 46 58 64 59 37 60 24 61 25 62 30 63 26 64 27 65
REMARK SMILES IDX 29 66 31 67 28 68 50 69 51 70 56 71 52 72 53 73 55 74 57 75
REMARK SMILES IDX 54 76 38 77 39 78 44 79 40 80 41 81 43 82 45 83 42 84
REMARK H PARENT 62 46 36 57
REMARK Flexibility Score: inf
ROOT
ATOM      1  C   UNL A   1      34.458  21.853  25.911  1.00  0.00     0.202 C 
ENDROOT
BRANCH   1   2
ATOM      2  C   UNL A   1      33.518  20.795  25.325  1.00  0.00     0.261 C 
BRANCH   2   3
ATOM      3  O   UNL A   1      32.248  21.404  25.020  1.00  0.00    -0.463 OA
BRANCH   3   4
ATOM      4  C   UNL A   1      32.116  22.000  23.820  1.00  0.00     0.311 C 
ATOM      5  O   UNL A   1      32.418  21.474  22.755  1.00  0.00    -0.252 OA
BRANCH   4   6
ATOM      6  C   UNL A   1      31.515  23.398  23.893  1.00  0.00     0.123 C 
ATOM      7  C   UNL A   1      33.736  24.582  23.047  1.00  0.00     0.032 C 
ATOM      8  C   UNL A   1      32.265  24.683  23.448  1.00  0.00     0.096 C 
ATOM      9  N   UNL A   1      32.072  25.644  24.551  1.00  0.00    -0.336 N 
ATOM     10  C   UNL A   1      31.047  23.667  25.338  1.00  0.00     0.039 C 
ATOM     11  C   UNL A   1      31.671  24.976  25.765  1.00  0.00     0.121 C 
BRANCH   9  12
ATOM     12  C   UNL A   1      32.316  27.003  24.602  1.00  0.00     0.246 C 
ATOM     13  O   UNL A   1      33.271  27.486  25.207  1.00  0.00    -0.270 OA
BRANCH  12  14
ATOM     14  C   UNL A   1      31.480  27.918  23.789  1.00  0.00     0.072 C 
ATOM     15  C   UNL A   1      30.721  28.890  24.314  1.00  0.00     0.014 C 
BRANCH  15  16
ATOM     16  C   UNL A   1      29.774  29.736  23.566  1.00  0.00    -0.023 A 
ATOM     17  C   UNL A   1      29.061  29.147  22.507  1.00  0.00     0.008 A 
ATOM     18  C   UNL A   1      29.563  31.094  23.834  1.00  0.00     0.047 A 
ATOM     19  C   UNL A   1      28.166  29.894  21.733  1.00  0.00     0.004 A 
ATOM     20  C   UNL A   1      28.670  31.830  23.057  1.00  0.00     0.123 A 
ATOM     21  C   UNL A   1      27.971  31.243  22.011  1.00  0.00     0.039 A 
ATOM     22  F   UNL A   1      28.487  33.129  23.322  1.00  0.00    -0.207 F 
ENDBRANCH  15  16
ENDBRANCH  12  14
ENDBRANCH   9  12
ENDBRANCH   4   6
ENDBRANCH   3   4
ENDBRANCH   2   3
ENDBRANCH   1   2
BRANCH   1  23
ATOM     23  O   UNL A   1      35.849  21.576  25.712  1.00  0.00    -0.374 OA
BRANCH  23  24
ATOM     24  C   UNL A   1      36.166  20.378  25.004  1.00  0.00     0.202 C 
BRANCH  24  25
ATOM     25  C   UNL A   1      37.657  20.034  24.946  1.00  0.00     0.261 C 
BRANCH  25  26
ATOM     26  O   UNL A   1      38.463  21.184  25.252  1.00  0.00    -0.460 OA
BRANCH  26  27
ATOM     27  C   UNL A   1      39.508  20.925  26.069  1.00  0.00     0.338 C 
ATOM     28  O   UNL A   1      40.161  19.891  26.124  1.00  0.00    -0.246 OA
BRANCH  27  29
ATOM     29  C   UNL A   1      39.887  22.133  26.826  1.00  0.00     0.060 A 
ATOM     30  C   UNL A   1      39.253  23.326  26.459  1.00  0.00     0.016 A 
ATOM     31  C   UNL A   1      40.882  22.133  27.809  1.00  0.00     0.016 A 
ATOM     32  C   UNL A   1      39.679  24.534  26.998  1.00  0.00     0.010 A 
ATOM     33  C   UNL A   1      41.304  23.350  28.357  1.00  0.00     0.010 A 
ATOM     34  C   UNL A   1      40.745  24.560  27.907  1.00  0.00    -0.014 A 
BRANCH  34  35
ATOM     35  C   UNL A   1      41.372  25.868  28.213  1.00  0.00     0.031 A 
ATOM     36  C   UNL A   1      42.754  26.152  27.686  1.00  0.00     0.074 A 
ATOM     37  C   UNL A   1      40.680  26.829  28.850  1.00  0.00     0.049 A 
ATOM     38  N   UNL A   1      43.451  27.259  27.736  1.00  0.00    -0.248 NA
ATOM     39  C   UNL A   1      43.442  25.040  27.010  1.00  0.00     0.031 C 
ATOM     40  C   UNL A   1      39.325  26.685  29.378  1.00  0.00     0.029 A 
ATOM     41  N   UNL A   1      41.021  28.125  29.143  1.00  0.00    -0.354 N 
ATOM     42  C   UNL A   1      44.652  26.977  27.096  1.00  0.00     0.074 A 
ATOM     43  C   UNL A   1      44.610  25.585  26.707  1.00  0.00     0.031 C 
ATOM     44  C   UNL A   1      38.943  27.854  29.921  1.00  0.00     0.029 A 
ATOM     45  C   UNL A   1      40.033  28.820  29.794  1.00  0.00     0.049 A 
ATOM     46  H   UNL A   1      41.892  28.519  28.908  1.00  0.00     0.167 HD
ATOM     47  C   UNL A   1      45.691  27.807  26.838  1.00  0.00     0.037 A 
ATOM     48  C   UNL A   1      40.011  30.093  30.234  1.00  0.00     0.037 A 
ATOM     49  C   UNL A   1      45.731  29.194  27.220  1.00  0.00     0.049 A 
ATOM     50  C   UNL A   1      41.197  30.982  29.976  1.00  0.00     0.074 A 
ATOM     51  C   UNL A   1      46.732  30.123  26.993  1.00  0.00     0.029 A 
ATOM     52  N   UNL A   1      44.727  29.849  27.915  1.00  0.00    -0.354 N 
ATOM     53  N   UNL A   1      42.313  30.715  29.340  1.00  0.00    -0.248 NA
ATOM     54  C   UNL A   1      41.115  32.358  30.488  1.00  0.00     0.031 C 
ATOM     55  C   UNL A   1      46.352  31.329  27.592  1.00  0.00     0.029 A 
ATOM     56  C   UNL A   1      45.091  31.166  28.146  1.00  0.00     0.049 A 
ATOM     57  H   UNL A   1      43.879  29.440  28.203  1.00  0.00     0.167 HD
ATOM     58  C   UNL A   1      43.050  31.893  29.349  1.00  0.00     0.074 A 
ATOM     59  C   UNL A   1      42.248  32.881  30.040  1.00  0.00     0.031 C 
ATOM     60  C   UNL A   1      44.279  32.137  28.832  1.00  0.00     0.037 A 
BRANCH  47  61
ATOM     61  C   UNL A   1      46.876  27.227  26.122  1.00  0.00     0.057 A 
ATOM     62  C   UNL A   1      47.020  27.321  24.731  1.00  0.00     0.134 A 
ATOM     63  C   UNL A   1      47.895  26.584  26.834  1.00  0.00     0.134 A 
ATOM     64  F   UNL A   1      46.073  27.910  23.987  1.00  0.00    -0.206 F 
ATOM     65  C   UNL A   1      48.124  26.775  24.073  1.00  0.00     0.040 A 
ATOM     66  C   UNL A   1      49.016  26.057  26.191  1.00  0.00     0.040 A 
ATOM     67  F   UNL A   1      47.820  26.460  28.169  1.00  0.00    -0.206 F 
ATOM     68  C   UNL A   1      49.129  26.146  24.805  1.00  0.00     0.006 A 
ENDBRANCH  47  61
BRANCH  48  69
ATOM     69  C   UNL A   1      38.821  30.609  30.956  1.00  0.00     0.057 A 
ATOM     70  C   UNL A   1      38.662  30.413  32.332  1.00  0.00     0.134 A 
ATOM     71  C   UNL A   1      37.802  31.293  30.280  1.00  0.00     0.134 A 
ATOM     72  F   UNL A   1      39.591  29.747  33.033  1.00  0.00    -0.206 F 
ATOM     73  C   UNL A   1      37.523  30.860  33.007  1.00  0.00     0.040 A 
ATOM     74  C   UNL A   1      36.672  31.766  30.946  1.00  0.00     0.040 A 
ATOM     75  F   UNL A   1      37.897  31.515  28.960  1.00  0.00    -0.206 F 
ATOM     76  C   UNL A   1      36.526  31.543  32.313  1.00  0.00     0.006 A 
ENDBRANCH  48  69
BRANCH  60  77
ATOM     77  C   UNL A   1      44.814  33.534  28.964  1.00  0.00     0.057 A 
ATOM     78  C   UNL A   1      45.608  33.926  30.048  1.00  0.00     0.134 A 
ATOM     79  C   UNL A   1      44.545  34.494  27.978  1.00  0.00     0.134 A 
ATOM     80  F   UNL A   1      45.894  33.057  31.030  1.00  0.00    -0.206 F 
ATOM     81  C   UNL A   1      46.091  35.230  30.164  1.00  0.00     0.040 A 
ATOM     82  C   UNL A   1      45.046  35.794  28.070  1.00  0.00     0.040 A 
ATOM     83  F   UNL A   1      43.800  34.183  26.908  1.00  0.00    -0.206 F 
ATOM     84  C   UNL A   1      45.814  36.167  29.171  1.00  0.00     0.006 A 
ENDBRANCH  60  77
ENDBRANCH  34  35
ENDBRANCH  27  29
ENDBRANCH  26  27
ENDBRANCH  25  26
ENDBRANCH  24  25
ENDBRANCH  23  24
ENDBRANCH   1  23
TORSDOF 17
ENDMDL
MODEL 3
REMARK VINA RESULT:     -10.7      4.137      9.878
REMARK SMILES C[C@H]1[C@@H](C(=O)OCCOCCOC(=O)c2ccc(-c3c4nc(c(-c5c(F)cccc5F)c5ccc([nH]5)c(-c5c(F)cccc5F)c5nc(c(-c6c(F)cccc6F)c6ccc3[nH]6)C=C5)C=C4)cc2)CCN1C(=O)/C=C/c1cccc(F)c1
REMARK SMILES IDX 8 1 7 2 6 3 4 4 5 5 3 6 1 7 2 8 71 9 69 10 70 11 72 12 73 13
REMARK SMILES IDX 74 14 75 15 76 16 77 17 82 18 78 19 80 20 79 21 81 22 9 23
REMARK SMILES IDX 10 24 11 25 12 26 13 27 14 28 15 29 16 30 68 31 17 32 67 33
REMARK SMILES IDX 18 34 19 35 20 36 61 37 21 38 66 39 60 40 62 41 22 42 65 43
REMARK SMILES IDX 59 44 58 45 23 47 49 48 32 49 48 50 33 51 36 52 47 53 63 54
REMARK SMILES IDX 34 55 35 56 46 58 64 59 37 60 24 61 25 62 30 63 26 64 27 65
REMARK SMILES IDX 29 66 31 67 28 68 50 69 51 70 56 71 52 72 53 73 55 74 57 75
REMARK SMILES IDX 54 76 38 77 39 78 44 79 40 80 41 81 43 82 45 83 42 84
REMARK H PARENT 62 46 36 57
REMARK Flexibility Score: inf
ROOT
ATOM      1  C   UNL A   1      32.370  29.925  26.956  1.00  0.00     0.202 C 
ENDROOT
BRANCH   1   2
ATOM      2  C   UNL A   1      33.134  28.903  26.109  1.00  0.00     0.261 C 
BRANCH   2   3
ATOM      3  O   UNL A   1      32.378  28.615  24.916  1.00  0.00    -0.463 OA
BRANCH   3   4
ATOM      4  C   UNL A   1      32.083  27.326  24.662  1.00  0.00     0.311 C 
ATOM      5  O   UNL A   1      31.674  26.915  23.582  1.00  0.00    -0.252 OA
BRANCH   4   6
ATOM      6  C   UNL A   1      32.339  26.395  25.840  1.00  0.00     0.123 C 
ATOM      7  C   UNL A   1      34.376  25.174  24.649  1.00  0.00     0.032 C 
ATOM      8  C   UNL A   1      33.509  25.374  25.892  1.00  0.00     0.096 C 
ATOM      9  N   UNL A   1      32.894  24.106  26.330  1.00  0.00    -0.336 N 
ATOM     10  C   UNL A   1      31.061  25.579  26.121  1.00  0.00     0.039 C 
ATOM     11  C   UNL A   1      31.465  24.122  26.142  1.00  0.00     0.121 C 
BRANCH   9  12
ATOM     12  C   UNL A   1      33.483  22.934  26.766  1.00  0.00     0.246 C 
ATOM     13  O   UNL A   1      34.195  22.878  27.768  1.00  0.00    -0.270 OA
BRANCH  12  14
ATOM     14  C   UNL A   1      33.145  21.660  26.088  1.00  0.00     0.072 C 
ATOM     15  C   UNL A   1      34.023  20.949  25.367  1.00  0.00     0.014 C 
BRANCH  15  16
ATOM     16  C   UNL A   1      33.705  19.752  24.567  1.00  0.00    -0.023 A 
ATOM     17  C   UNL A   1      32.570  19.797  23.740  1.00  0.00     0.008 A 
ATOM     18  C   UNL A   1      34.454  18.571  24.603  1.00  0.00     0.047 A 
ATOM     19  C   UNL A   1      32.188  18.690  22.974  1.00  0.00     0.004 A 
ATOM     20  C   UNL A   1      34.066  17.473  23.837  1.00  0.00     0.123 A 
ATOM     21  C   UNL A   1      32.942  17.522  23.024  1.00  0.00     0.039 A 
ATOM     22  F   UNL A   1      34.791  16.347  23.890  1.00  0.00    -0.207 F 
ENDBRANCH  15  16
ENDBRANCH  12  14
ENDBRANCH   9  12
ENDBRANCH   4   6
ENDBRANCH   3   4
ENDBRANCH   2   3
ENDBRANCH   1   2
BRANCH   1  23
ATOM     23  O   UNL A   1      31.458  30.739  26.211  1.00  0.00    -0.374 OA
BRANCH  23  24
ATOM     24  C   UNL A   1      31.430  32.128  26.535  1.00  0.00     0.202 C 
BRANCH  24  25
ATOM     25  C   UNL A   1      32.662  32.645  27.283  1.00  0.00     0.261 C 
BRANCH  25  26
ATOM     26  O   UNL A   1      32.469  34.001  27.719  1.00  0.00    -0.460 OA
BRANCH  26  27
ATOM     27  C   UNL A   1      33.126  34.315  28.857  1.00  0.00     0.338 C 
ATOM     28  O   UNL A   1      32.724  35.028  29.767  1.00  0.00    -0.246 OA
BRANCH  27  29
ATOM     29  C   UNL A   1      34.385  33.553  28.956  1.00  0.00     0.060 A 
ATOM     30  C   UNL A   1      34.304  32.283  29.538  1.00  0.00     0.016 A 
ATOM     31  C   UNL A   1      35.624  34.077  28.569  1.00  0.00     0.016 A 
ATOM     32  C   UNL A   1      35.465  31.576  29.828  1.00  0.00     0.010 A 
ATOM     33  C   UNL A   1      36.791  33.360  28.854  1.00  0.00     0.010 A 
ATOM     34  C   UNL A   1      36.718  32.134  29.540  1.00  0.00    -0.014 A 
BRANCH  34  35
ATOM     35  C   UNL A   1      37.919  31.507  30.142  1.00  0.00     0.031 A 
ATOM     36  C   UNL A   1      38.253  31.806  31.579  1.00  0.00     0.074 A 
ATOM     37  C   UNL A   1      38.635  30.598  29.457  1.00  0.00     0.049 A 
ATOM     38  N   UNL A   1      39.184  31.291  32.341  1.00  0.00    -0.248 NA
ATOM     39  C   UNL A   1      37.423  32.821  32.249  1.00  0.00     0.031 C 
ATOM     40  C   UNL A   1      38.391  30.200  28.071  1.00  0.00     0.029 A 
ATOM     41  N   UNL A   1      39.704  29.831  29.845  1.00  0.00    -0.354 N 
ATOM     42  C   UNL A   1      39.048  31.914  33.576  1.00  0.00     0.074 A 
ATOM     43  C   UNL A   1      37.977  32.877  33.451  1.00  0.00     0.031 C 
ATOM     44  C   UNL A   1      39.278  29.251  27.728  1.00  0.00     0.029 A 
ATOM     45  C   UNL A   1      40.162  28.989  28.863  1.00  0.00     0.049 A 
ATOM     46  H   UNL A   1      40.104  29.879  30.743  1.00  0.00     0.167 HD
ATOM     47  C   UNL A   1      39.741  31.692  34.719  1.00  0.00     0.037 A 
ATOM     48  C   UNL A   1      41.179  28.105  28.881  1.00  0.00     0.037 A 
ATOM     49  C   UNL A   1      40.803  30.730  34.846  1.00  0.00     0.049 A 
ATOM     50  C   UNL A   1      41.964  27.910  30.150  1.00  0.00     0.074 A 
ATOM     51  C   UNL A   1      41.558  30.420  35.964  1.00  0.00     0.029 A 
ATOM     52  N   UNL A   1      41.265  29.926  33.816  1.00  0.00    -0.354 N 
ATOM     53  N   UNL A   1      41.804  28.479  31.320  1.00  0.00    -0.248 NA
ATOM     54  C   UNL A   1      43.065  26.937  30.102  1.00  0.00     0.031 C 
ATOM     55  C   UNL A   1      42.507  29.460  35.597  1.00  0.00     0.029 A 
ATOM     56  C   UNL A   1      42.310  29.134  34.264  1.00  0.00     0.049 A 
ATOM     57  H   UNL A   1      40.904  29.918  32.900  1.00  0.00     0.167 HD
ATOM     58  C   UNL A   1      42.762  27.915  32.154  1.00  0.00     0.074 A 
ATOM     59  C   UNL A   1      43.487  26.946  31.359  1.00  0.00     0.031 C 
ATOM     60  C   UNL A   1      43.018  28.172  33.460  1.00  0.00     0.037 A 
BRANCH  47  61
ATOM     61  C   UNL A   1      39.378  32.520  35.917  1.00  0.00     0.057 A 
ATOM     62  C   UNL A   1      39.924  33.793  36.132  1.00  0.00     0.134 A 
ATOM     63  C   UNL A   1      38.454  32.048  36.857  1.00  0.00     0.134 A 
ATOM     64  F   UNL A   1      40.827  34.299  35.279  1.00  0.00    -0.206 F 
ATOM     65  C   UNL A   1      39.583  34.555  37.251  1.00  0.00     0.040 A 
ATOM     66  C   UNL A   1      38.085  32.811  37.967  1.00  0.00     0.040 A 
ATOM     67  F   UNL A   1      37.891  30.838  36.711  1.00  0.00    -0.206 F 
ATOM     68  C   UNL A   1      38.655  34.066  38.169  1.00  0.00     0.006 A 
ENDBRANCH  47  61
BRANCH  48  69
ATOM     69  C   UNL A   1      41.508  27.327  27.660  1.00  0.00     0.057 A 
ATOM     70  C   UNL A   1      42.314  27.863  26.649  1.00  0.00     0.134 A 
ATOM     71  C   UNL A   1      41.005  26.034  27.466  1.00  0.00     0.134 A 
ATOM     72  F   UNL A   1      42.808  29.104  26.766  1.00  0.00    -0.206 F 
ATOM     73  C   UNL A   1      42.590  27.150  25.480  1.00  0.00     0.040 A 
ATOM     74  C   UNL A   1      41.294  25.301  26.314  1.00  0.00     0.040 A 
ATOM     75  F   UNL A   1      40.229  25.463  28.400  1.00  0.00    -0.206 F 
ATOM     76  C   UNL A   1      42.083  25.863  25.313  1.00  0.00     0.006 A 
ENDBRANCH  48  69
BRANCH  60  77
ATOM     77  C   UNL A   1      44.105  27.369  34.117  1.00  0.00     0.057 A 
ATOM     78  C   UNL A   1      45.429  27.819  34.173  1.00  0.00     0.134 A 
ATOM     79  C   UNL A   1      43.813  26.139  34.722  1.00  0.00     0.134 A 
ATOM     80  F   UNL A   1      45.776  28.984  33.604  1.00  0.00    -0.206 F 
ATOM     81  C   UNL A   1      46.432  27.059  34.778  1.00  0.00     0.040 A 
ATOM     82  C   UNL A   1      44.802  25.384  35.354  1.00  0.00     0.040 A 
ATOM     83  F   UNL A   1      42.562  25.655  34.714  1.00  0.00    -0.206 F 
ATOM     84  C   UNL A   1      46.118  25.841  35.375  1.00  0.00     0.006 A 
ENDBRANCH  60  77
ENDBRANCH  34  35
ENDBRANCH  27  29
ENDBRANCH  26  27
ENDBRANCH  25  26
ENDBRANCH  24  25
ENDBRANCH  23  24
ENDBRANCH   1  23
TORSDOF 17
ENDMDL
