MODEL 1
REMARK VINA RESULT:      -8.6      0.000      0.000
REMARK SMILES CC[C@H](CCC1CC1)C(=O)OCCOCCOC(=O)c1ccc(-c2c3nc(c(-c4c(F)cccc4F)c4ccc([nH]4)c(-c4c(F)cccc4F)c4nc(c(-c5c(F)cccc5F)c5ccc2[nH]5)C=C4)C=C3)cc1
REMARK SMILES IDX 13 1 12 2 11 3 9 4 10 5 3 6 2 7 1 8 4 9 5 10 6 11 7 12 8 13
REMARK SMILES IDX 14 14 15 15 16 16 17 17 18 18 19 19 20 20 21 21 73 22 22 23
REMARK SMILES IDX 72 24 23 25 24 26 25 27 66 28 26 29 71 30 65 31 67 32 27 33
REMARK SMILES IDX 70 34 64 35 63 36 28 38 54 39 37 40 53 41 38 42 41 43 52 44
REMARK SMILES IDX 68 45 39 46 40 47 51 49 69 50 42 51 29 52 30 53 35 54 31 55
REMARK SMILES IDX 32 56 34 57 36 58 33 59 55 60 56 61 61 62 57 63 58 64 60 65
REMARK SMILES IDX 62 66 59 67 43 68 44 69 49 70 45 71 46 72 48 73 50 74 47 75
REMARK H PARENT 67 37 41 48
REMARK Flexibility Score: inf
ROOT
ATOM      1  C   UNL A   1      45.269  20.550  24.720  1.00  0.00     0.202 C 
ENDROOT
BRANCH   1   2
ATOM      2  C   UNL A   1      44.157  19.664  25.283  1.00  0.00     0.261 C 
BRANCH   2   3
ATOM      3  O   UNL A   1      42.920  20.392  25.397  1.00  0.00    -0.463 OA
BRANCH   3   4
ATOM      4  C   UNL A   1      42.394  20.483  26.646  1.00  0.00     0.308 C 
ATOM      5  O   UNL A   1      42.088  19.527  27.348  1.00  0.00    -0.252 OA
BRANCH   4   6
ATOM      6  C   UNL A   1      42.200  21.924  27.107  1.00  0.00     0.099 C 
BRANCH   6   7
ATOM      7  C   UNL A   1      43.298  22.244  28.138  1.00  0.00     0.012 C 
ATOM      8  C   UNL A   1      42.723  22.875  29.399  1.00  0.00     0.005 C 
ENDBRANCH   6   7
BRANCH   6   9
ATOM      9  C   UNL A   1      40.777  22.242  27.619  1.00  0.00     0.015 C 
BRANCH   9  10
ATOM     10  C   UNL A   1      39.757  22.585  26.526  1.00  0.00     0.004 C 
BRANCH  10  11
ATOM     11  C   UNL A   1      38.829  23.704  26.910  1.00  0.00    -0.011 C 
ATOM     12  C   UNL A   1      39.216  24.690  27.983  1.00  0.00     0.004 C 
ATOM     13  C   UNL A   1      39.197  25.120  26.542  1.00  0.00     0.004 C 
ENDBRANCH  10  11
ENDBRANCH   9  10
ENDBRANCH   6   9
ENDBRANCH   4   6
ENDBRANCH   3   4
ENDBRANCH   2   3
ENDBRANCH   1   2
BRANCH   1  14
ATOM     14  O   UNL A   1      46.001  21.318  25.675  1.00  0.00    -0.374 OA
BRANCH  14  15
ATOM     15  C   UNL A   1      45.868  22.737  25.623  1.00  0.00     0.202 C 
BRANCH  15  16
ATOM     16  C   UNL A   1      45.114  23.297  24.410  1.00  0.00     0.261 C 
BRANCH  16  17
ATOM     17  O   UNL A   1      44.189  24.338  24.775  1.00  0.00    -0.460 OA
BRANCH  17  18
ATOM     18  C   UNL A   1      44.766  25.505  25.145  1.00  0.00     0.338 C 
ATOM     19  O   UNL A   1      45.781  26.011  24.681  1.00  0.00    -0.246 OA
BRANCH  18  20
ATOM     20  C   UNL A   1      43.917  26.220  26.114  1.00  0.00     0.060 A 
ATOM     21  C   UNL A   1      44.156  27.589  26.292  1.00  0.00     0.016 A 
ATOM     22  C   UNL A   1      42.976  25.557  26.905  1.00  0.00     0.016 A 
ATOM     23  C   UNL A   1      43.497  28.289  27.300  1.00  0.00     0.010 A 
ATOM     24  C   UNL A   1      42.319  26.261  27.922  1.00  0.00     0.010 A 
ATOM     25  C   UNL A   1      42.605  27.619  28.149  1.00  0.00    -0.014 A 
BRANCH  25  26
ATOM     26  C   UNL A   1      42.099  28.312  29.359  1.00  0.00     0.031 A 
ATOM     27  C   UNL A   1      40.804  29.072  29.280  1.00  0.00     0.074 A 
ATOM     28  C   UNL A   1      42.757  28.226  30.529  1.00  0.00     0.049 A 
ATOM     29  N   UNL A   1      40.180  29.750  30.209  1.00  0.00    -0.248 NA
ATOM     30  C   UNL A   1      40.118  29.064  27.978  1.00  0.00     0.031 C 
ATOM     31  C   UNL A   1      44.000  27.491  30.748  1.00  0.00     0.029 A 
ATOM     32  N   UNL A   1      42.465  28.771  31.755  1.00  0.00    -0.354 N 
ATOM     33  C   UNL A   1      39.031  30.247  29.608  1.00  0.00     0.074 A 
ATOM     34  C   UNL A   1      39.059  29.821  28.225  1.00  0.00     0.031 C 
ATOM     35  C   UNL A   1      44.371  27.637  32.032  1.00  0.00     0.029 A 
ATOM     36  C   UNL A   1      43.406  28.496  32.716  1.00  0.00     0.049 A 
ATOM     37  H   UNL A   1      41.659  29.308  31.928  1.00  0.00     0.167 HD
ATOM     38  C   UNL A   1      38.036  30.983  30.158  1.00  0.00     0.037 A 
ATOM     39  C   UNL A   1      43.487  28.905  33.996  1.00  0.00     0.037 A 
ATOM     40  C   UNL A   1      38.005  31.410  31.531  1.00  0.00     0.049 A 
ATOM     41  C   UNL A   1      42.404  29.781  34.568  1.00  0.00     0.074 A 
ATOM     42  C   UNL A   1      37.032  32.150  32.183  1.00  0.00     0.029 A 
ATOM     43  N   UNL A   1      38.993  31.140  32.465  1.00  0.00    -0.354 N 
ATOM     44  N   UNL A   1      41.313  30.227  33.996  1.00  0.00    -0.248 NA
ATOM     45  C   UNL A   1      42.562  30.204  35.968  1.00  0.00     0.031 C 
ATOM     46  C   UNL A   1      37.453  32.362  33.501  1.00  0.00     0.029 A 
ATOM     47  C   UNL A   1      38.666  31.718  33.680  1.00  0.00     0.049 A 
ATOM     48  H   UNL A   1      39.808  30.615  32.289  1.00  0.00     0.167 HD
ATOM     49  C   UNL A   1      40.645  30.963  34.967  1.00  0.00     0.074 A 
ATOM     50  C   UNL A   1      41.448  30.894  36.170  1.00  0.00     0.031 C 
ATOM     51  C   UNL A   1      39.473  31.636  34.871  1.00  0.00     0.037 A 
BRANCH  38  52
ATOM     52  C   UNL A   1      36.905  31.389  29.262  1.00  0.00     0.057 A 
ATOM     53  C   UNL A   1      35.874  30.501  28.927  1.00  0.00     0.134 A 
ATOM     54  C   UNL A   1      36.831  32.689  28.749  1.00  0.00     0.134 A 
ATOM     55  F   UNL A   1      35.894  29.237  29.374  1.00  0.00    -0.206 F 
ATOM     56  C   UNL A   1      34.821  30.887  28.097  1.00  0.00     0.040 A 
ATOM     57  C   UNL A   1      35.771  33.094  27.937  1.00  0.00     0.040 A 
ATOM     58  F   UNL A   1      37.784  33.590  29.034  1.00  0.00    -0.206 F 
ATOM     59  C   UNL A   1      34.764  32.189  27.604  1.00  0.00     0.006 A 
ENDBRANCH  38  52
BRANCH  39  60
ATOM     60  C   UNL A   1      44.648  28.505  34.828  1.00  0.00     0.057 A 
ATOM     61  C   UNL A   1      44.665  27.287  35.517  1.00  0.00     0.134 A 
ATOM     62  C   UNL A   1      45.762  29.342  34.968  1.00  0.00     0.134 A 
ATOM     63  F   UNL A   1      43.615  26.456  35.442  1.00  0.00    -0.206 F 
ATOM     64  C   UNL A   1      45.741  26.920  36.326  1.00  0.00     0.040 A 
ATOM     65  C   UNL A   1      46.856  28.977  35.754  1.00  0.00     0.040 A 
ATOM     66  F   UNL A   1      45.806  30.523  34.333  1.00  0.00    -0.206 F 
ATOM     67  C   UNL A   1      46.844  27.766  36.441  1.00  0.00     0.006 A 
ENDBRANCH  39  60
BRANCH  51  68
ATOM     68  C   UNL A   1      38.971  32.326  36.106  1.00  0.00     0.057 A 
ATOM     69  C   UNL A   1      38.167  31.668  37.044  1.00  0.00     0.134 A 
ATOM     70  C   UNL A   1      39.335  33.651  36.380  1.00  0.00     0.134 A 
ATOM     71  F   UNL A   1      37.775  30.402  36.834  1.00  0.00    -0.206 F 
ATOM     72  C   UNL A   1      37.725  32.309  38.202  1.00  0.00     0.040 A 
ATOM     73  C   UNL A   1      38.917  34.296  37.545  1.00  0.00     0.040 A 
ATOM     74  F   UNL A   1      40.111  34.335  35.526  1.00  0.00    -0.206 F 
ATOM     75  C   UNL A   1      38.106  33.626  38.458  1.00  0.00     0.006 A 
ENDBRANCH  51  68
ENDBRANCH  25  26
ENDBRANCH  18  20
ENDBRANCH  17  18
ENDBRANCH  16  17
ENDBRANCH  15  16
ENDBRANCH  14  15
ENDBRANCH   1  14
TORSDOF 18
ENDMDL
MODEL 2
REMARK VINA RESULT:      -8.3      4.895     10.050
REMARK SMILES CC[C@H](CCC1CC1)C(=O)OCCOCCOC(=O)c1ccc(-c2c3nc(c(-c4c(F)cccc4F)c4ccc([nH]4)c(-c4c(F)cccc4F)c4nc(c(-c5c(F)cccc5F)c5ccc2[nH]5)C=C4)C=C3)cc1
REMARK SMILES IDX 13 1 12 2 11 3 9 4 10 5 3 6 2 7 1 8 4 9 5 10 6 11 7 12 8 13
REMARK SMILES IDX 14 14 15 15 16 16 17 17 18 18 19 19 20 20 21 21 73 22 22 23
REMARK SMILES IDX 72 24 23 25 24 26 25 27 66 28 26 29 71 30 65 31 67 32 27 33
REMARK SMILES IDX 70 34 64 35 63 36 28 38 54 39 37 40 53 41 38 42 41 43 52 44
REMARK SMILES IDX 68 45 39 46 40 47 51 49 69 50 42 51 29 52 30 53 35 54 31 55
REMARK SMILES IDX 32 56 34 57 36 58 33 59 55 60 56 61 61 62 57 63 58 64 60 65
REMARK SMILES IDX 62 66 59 67 43 68 44 69 49 70 45 71 46 72 48 73 50 74 47 75
REMARK H PARENT 67 37 41 48
REMARK Flexibility Score: inf
ROOT
ATOM      1  C   UNL A   1      32.268  29.729  27.226  1.00  0.00     0.202 C 
ENDROOT
BRANCH   1   2
ATOM      2  C   UNL A   1      32.286  28.314  26.644  1.00  0.00     0.261 C 
BRANCH   2   3
ATOM      3  O   UNL A   1      31.789  28.301  25.293  1.00  0.00    -0.463 OA
BRANCH   3   4
ATOM      4  C   UNL A   1      32.165  27.243  24.529  1.00  0.00     0.308 C 
ATOM      5  O   UNL A   1      33.294  26.767  24.499  1.00  0.00    -0.252 OA
BRANCH   4   6
ATOM      6  C   UNL A   1      31.029  26.689  23.677  1.00  0.00     0.099 C 
BRANCH   6   7
ATOM      7  C   UNL A   1      31.498  25.356  23.067  1.00  0.00     0.012 C 
ATOM      8  C   UNL A   1      30.512  24.228  23.343  1.00  0.00     0.005 C 
ENDBRANCH   6   7
BRANCH   6   9
ATOM      9  C   UNL A   1      30.482  27.678  22.623  1.00  0.00     0.015 C 
BRANCH   9  10
ATOM     10  C   UNL A   1      29.185  28.394  23.019  1.00  0.00     0.004 C 
BRANCH  10  11
ATOM     11  C   UNL A   1      29.131  29.823  22.554  1.00  0.00    -0.011 C 
ATOM     12  C   UNL A   1      27.844  30.416  22.038  1.00  0.00     0.004 C 
ATOM     13  C   UNL A   1      28.376  30.834  23.381  1.00  0.00     0.004 C 
ENDBRANCH  10  11
ENDBRANCH   9  10
ENDBRANCH   6   9
ENDBRANCH   4   6
ENDBRANCH   3   4
ENDBRANCH   2   3
ENDBRANCH   1   2
BRANCH   1  14
ATOM     14  O   UNL A   1      32.169  30.793  26.281  1.00  0.00    -0.374 OA
BRANCH  14  15
ATOM     15  C   UNL A   1      31.333  31.899  26.616  1.00  0.00     0.202 C 
BRANCH  15  16
ATOM     16  C   UNL A   1      32.037  33.253  26.768  1.00  0.00     0.261 C 
BRANCH  16  17
ATOM     17  O   UNL A   1      32.152  33.657  28.145  1.00  0.00    -0.460 OA
BRANCH  17  18
ATOM     18  C   UNL A   1      33.214  34.450  28.416  1.00  0.00     0.338 C 
ATOM     19  O   UNL A   1      33.212  35.663  28.580  1.00  0.00    -0.246 OA
BRANCH  18  20
ATOM     20  C   UNL A   1      34.420  33.637  28.655  1.00  0.00     0.060 A 
ATOM     21  C   UNL A   1      34.235  32.344  29.162  1.00  0.00     0.016 A 
ATOM     22  C   UNL A   1      35.707  34.153  28.484  1.00  0.00     0.016 A 
ATOM     23  C   UNL A   1      35.334  31.583  29.555  1.00  0.00     0.010 A 
ATOM     24  C   UNL A   1      36.810  33.389  28.886  1.00  0.00     0.010 A 
ATOM     25  C   UNL A   1      36.625  32.117  29.458  1.00  0.00    -0.014 A 
BRANCH  25  26
ATOM     26  C   UNL A   1      37.755  31.400  30.099  1.00  0.00     0.031 A 
ATOM     27  C   UNL A   1      38.068  31.671  31.545  1.00  0.00     0.074 A 
ATOM     28  C   UNL A   1      38.465  30.483  29.419  1.00  0.00     0.049 A 
ATOM     29  N   UNL A   1      39.007  31.162  32.302  1.00  0.00    -0.248 NA
ATOM     30  C   UNL A   1      37.203  32.644  32.232  1.00  0.00     0.031 C 
ATOM     31  C   UNL A   1      38.240  30.102  28.027  1.00  0.00     0.029 A 
ATOM     32  N   UNL A   1      39.527  29.708  29.815  1.00  0.00    -0.354 N 
ATOM     33  C   UNL A   1      38.846  31.750  33.550  1.00  0.00     0.074 A 
ATOM     34  C   UNL A   1      37.741  32.677  33.442  1.00  0.00     0.031 C 
ATOM     35  C   UNL A   1      39.143  29.169  27.680  1.00  0.00     0.029 A 
ATOM     36  C   UNL A   1      40.025  28.908  28.817  1.00  0.00     0.049 A 
ATOM     37  H   UNL A   1      39.896  29.725  30.727  1.00  0.00     0.167 HD
ATOM     38  C   UNL A   1      39.548  31.530  34.687  1.00  0.00     0.037 A 
ATOM     39  C   UNL A   1      41.081  28.073  28.817  1.00  0.00     0.037 A 
ATOM     40  C   UNL A   1      40.649  30.610  34.799  1.00  0.00     0.049 A 
ATOM     41  C   UNL A   1      41.890  27.896  30.074  1.00  0.00     0.074 A 
ATOM     42  C   UNL A   1      41.414  30.311  35.914  1.00  0.00     0.029 A 
ATOM     43  N   UNL A   1      41.144  29.842  33.757  1.00  0.00    -0.354 N 
ATOM     44  N   UNL A   1      41.717  28.441  31.253  1.00  0.00    -0.248 NA
ATOM     45  C   UNL A   1      43.040  26.981  30.001  1.00  0.00     0.031 C 
ATOM     46  C   UNL A   1      42.400  29.393  35.534  1.00  0.00     0.029 A 
ATOM     47  C   UNL A   1      42.220  29.088  34.195  1.00  0.00     0.049 A 
ATOM     48  H   UNL A   1      40.784  29.835  32.840  1.00  0.00     0.167 HD
ATOM     49  C   UNL A   1      42.717  27.922  32.066  1.00  0.00     0.074 A 
ATOM     50  C   UNL A   1      43.487  27.008  31.249  1.00  0.00     0.031 C 
ATOM     51  C   UNL A   1      42.974  28.179  33.371  1.00  0.00     0.037 A 
BRANCH  38  52
ATOM     52  C   UNL A   1      39.155  32.317  35.901  1.00  0.00     0.057 A 
ATOM     53  C   UNL A   1      39.641  33.611  36.131  1.00  0.00     0.134 A 
ATOM     54  C   UNL A   1      38.259  31.787  36.837  1.00  0.00     0.134 A 
ATOM     55  F   UNL A   1      40.514  34.170  35.279  1.00  0.00    -0.206 F 
ATOM     56  C   UNL A   1      39.266  34.341  37.259  1.00  0.00     0.040 A 
ATOM     57  C   UNL A   1      37.859  32.516  37.958  1.00  0.00     0.040 A 
ATOM     58  F   UNL A   1      37.754  30.554  36.675  1.00  0.00    -0.206 F 
ATOM     59  C   UNL A   1      38.368  33.795  38.174  1.00  0.00     0.006 A 
ENDBRANCH  38  52
BRANCH  39  60
ATOM     60  C   UNL A   1      41.450  27.347  27.577  1.00  0.00     0.057 A 
ATOM     61  C   UNL A   1      41.015  26.038  27.343  1.00  0.00     0.134 A 
ATOM     62  C   UNL A   1      42.262  27.942  26.604  1.00  0.00     0.134 A 
ATOM     63  F   UNL A   1      40.256  25.407  28.251  1.00  0.00    -0.206 F 
ATOM     64  C   UNL A   1      41.385  25.340  26.192  1.00  0.00     0.040 A 
ATOM     65  C   UNL A   1      42.621  27.264  25.437  1.00  0.00     0.040 A 
ATOM     66  F   UNL A   1      42.712  29.195  26.771  1.00  0.00    -0.206 F 
ATOM     67  C   UNL A   1      42.187  25.957  25.233  1.00  0.00     0.006 A 
ENDBRANCH  39  60
BRANCH  51  68
ATOM     68  C   UNL A   1      44.117  27.441  34.006  1.00  0.00     0.057 A 
ATOM     69  C   UNL A   1      45.410  27.977  34.046  1.00  0.00     0.134 A 
ATOM     70  C   UNL A   1      43.910  26.200  34.623  1.00  0.00     0.134 A 
ATOM     71  F   UNL A   1      45.676  29.155  33.464  1.00  0.00    -0.206 F 
ATOM     72  C   UNL A   1      46.462  27.295  34.660  1.00  0.00     0.040 A 
ATOM     73  C   UNL A   1      44.949  25.520  35.259  1.00  0.00     0.040 A 
ATOM     74  F   UNL A   1      42.693  25.636  34.628  1.00  0.00    -0.206 F 
ATOM     75  C   UNL A   1      46.231  26.065  35.274  1.00  0.00     0.006 A 
ENDBRANCH  51  68
ENDBRANCH  25  26
ENDBRANCH  18  20
ENDBRANCH  17  18
ENDBRANCH  16  17
ENDBRANCH  15  16
ENDBRANCH  14  15
ENDBRANCH   1  14
TORSDOF 18
ENDMDL
MODEL 3
REMARK VINA RESULT:      -8.1      4.374      9.346
REMARK SMILES CC[C@H](CCC1CC1)C(=O)OCCOCCOC(=O)c1ccc(-c2c3nc(c(-c4c(F)cccc4F)c4ccc([nH]4)c(-c4c(F)cccc4F)c4nc(c(-c5c(F)cccc5F)c5ccc2[nH]5)C=C4)C=C3)cc1
REMARK SMILES IDX 13 1 12 2 11 3 9 4 10 5 3 6 2 7 1 8 4 9 5 10 6 11 7 12 8 13
REMARK SMILES IDX 14 14 15 15 16 16 17 17 18 18 19 19 20 20 21 21 73 22 22 23
REMARK SMILES IDX 72 24 23 25 24 26 25 27 66 28 26 29 71 30 65 31 67 32 27 33
REMARK SMILES IDX 70 34 64 35 63 36 28 38 54 39 37 40 53 41 38 42 41 43 52 44
REMARK SMILES IDX 68 45 39 46 40 47 51 49 69 50 42 51 29 52 30 53 35 54 31 55
REMARK SMILES IDX 32 56 34 57 36 58 33 59 55 60 56 61 61 62 57 63 58 64 60 65
REMARK SMILES IDX 62 66 59 67 43 68 44 69 49 70 45 71 46 72 48 73 50 74 47 75
REMARK H PARENT 67 37 41 48
REMARK Flexibility Score: inf
ROOT
ATOM      1  C   UNL A   1      32.727  29.831  26.688  1.00  0.00     0.202 C 
ENDROOT
BRANCH   1   2
ATOM      2  C   UNL A   1      33.868  29.047  26.036  1.00  0.00     0.261 C 
BRANCH   2   3
ATOM      3  O   UNL A   1      33.378  27.856  25.393  1.00  0.00    -0.463 OA
BRANCH   3   4
ATOM      4  C   UNL A   1      33.785  27.659  24.111  1.00  0.00     0.308 C 
ATOM      5  O   UNL A   1      34.063  28.552  23.320  1.00  0.00    -0.252 OA
BRANCH   4   6
ATOM      6  C   UNL A   1      33.857  26.185  23.728  1.00  0.00     0.099 C 
BRANCH   6   7
ATOM      7  C   UNL A   1      33.044  25.989  22.436  1.00  0.00     0.012 C 
ATOM      8  C   UNL A   1      31.545  26.076  22.692  1.00  0.00     0.005 C 
ENDBRANCH   6   7
BRANCH   6   9
ATOM      9  C   UNL A   1      33.444  25.214  24.857  1.00  0.00     0.015 C 
BRANCH   9  10
ATOM     10  C   UNL A   1      34.558  24.280  25.348  1.00  0.00     0.004 C 
BRANCH  10  11
ATOM     11  C   UNL A   1      35.523  23.886  24.264  1.00  0.00    -0.011 C 
ATOM     12  C   UNL A   1      36.900  23.378  24.608  1.00  0.00     0.004 C 
ATOM     13  C   UNL A   1      35.862  22.428  24.079  1.00  0.00     0.004 C 
ENDBRANCH  10  11
ENDBRANCH   9  10
ENDBRANCH   6   9
ENDBRANCH   4   6
ENDBRANCH   3   4
ENDBRANCH   2   3
ENDBRANCH   1   2
BRANCH   1  14
ATOM     14  O   UNL A   1      32.031  30.744  25.841  1.00  0.00    -0.374 OA
BRANCH  14  15
ATOM     15  C   UNL A   1      31.210  31.730  26.466  1.00  0.00     0.202 C 
BRANCH  15  16
ATOM     16  C   UNL A   1      31.861  33.099  26.694  1.00  0.00     0.261 C 
BRANCH  16  17
ATOM     17  O   UNL A   1      32.369  33.247  28.033  1.00  0.00    -0.460 OA
BRANCH  17  18
ATOM     18  C   UNL A   1      33.440  34.066  28.145  1.00  0.00     0.338 C 
ATOM     19  O   UNL A   1      33.440  35.291  28.153  1.00  0.00    -0.246 OA
BRANCH  18  20
ATOM     20  C   UNL A   1      34.661  33.289  28.425  1.00  0.00     0.060 A 
ATOM     21  C   UNL A   1      34.497  31.980  28.897  1.00  0.00     0.016 A 
ATOM     22  C   UNL A   1      35.936  33.851  28.325  1.00  0.00     0.016 A 
ATOM     23  C   UNL A   1      35.602  31.248  29.325  1.00  0.00     0.010 A 
ATOM     24  C   UNL A   1      37.044  33.115  28.763  1.00  0.00     0.010 A 
ATOM     25  C   UNL A   1      36.877  31.826  29.301  1.00  0.00    -0.014 A 
BRANCH  25  26
ATOM     26  C   UNL A   1      38.000  31.134  29.979  1.00  0.00     0.031 A 
ATOM     27  C   UNL A   1      38.277  31.434  31.427  1.00  0.00     0.074 A 
ATOM     28  C   UNL A   1      38.735  30.213  29.332  1.00  0.00     0.049 A 
ATOM     29  N   UNL A   1      39.204  30.949  32.214  1.00  0.00    -0.248 NA
ATOM     30  C   UNL A   1      37.386  32.409  32.077  1.00  0.00     0.031 C 
ATOM     31  C   UNL A   1      38.545  29.804  27.943  1.00  0.00     0.029 A 
ATOM     32  N   UNL A   1      39.796  29.457  29.765  1.00  0.00    -0.354 N 
ATOM     33  C   UNL A   1      39.009  31.557  33.447  1.00  0.00     0.074 A 
ATOM     34  C   UNL A   1      37.897  32.470  33.298  1.00  0.00     0.031 C 
ATOM     35  C   UNL A   1      39.467  28.875  27.633  1.00  0.00     0.029 A 
ATOM     36  C   UNL A   1      40.325  28.645  28.794  1.00  0.00     0.049 A 
ATOM     37  H   UNL A   1      40.145  29.495  30.685  1.00  0.00     0.167 HD
ATOM     38  C   UNL A   1      39.688  31.366  34.604  1.00  0.00     0.037 A 
ATOM     39  C   UNL A   1      41.391  27.822  28.833  1.00  0.00     0.037 A 
ATOM     40  C   UNL A   1      40.795  30.460  34.757  1.00  0.00     0.049 A 
ATOM     41  C   UNL A   1      42.173  27.676  30.110  1.00  0.00     0.074 A 
ATOM     42  C   UNL A   1      41.538  30.190  35.894  1.00  0.00     0.029 A 
ATOM     43  N   UNL A   1      41.322  29.680  33.740  1.00  0.00    -0.354 N 
ATOM     44  N   UNL A   1      41.967  28.241  31.276  1.00  0.00    -0.248 NA
ATOM     45  C   UNL A   1      43.333  26.773  30.080  1.00  0.00     0.031 C 
ATOM     46  C   UNL A   1      42.542  29.277  35.553  1.00  0.00     0.029 A 
ATOM     47  C   UNL A   1      42.396  28.946  34.216  1.00  0.00     0.049 A 
ATOM     48  H   UNL A   1      40.983  29.652  32.815  1.00  0.00     0.167 HD
ATOM     49  C   UNL A   1      42.954  27.747  32.119  1.00  0.00     0.074 A 
ATOM     50  C   UNL A   1      43.752  26.828  31.337  1.00  0.00     0.031 C 
ATOM     51  C   UNL A   1      43.179  28.030  33.426  1.00  0.00     0.037 A 
BRANCH  38  52
ATOM     52  C   UNL A   1      39.258  32.170  35.794  1.00  0.00     0.057 A 
ATOM     53  C   UNL A   1      38.339  31.672  36.727  1.00  0.00     0.134 A 
ATOM     54  C   UNL A   1      39.788  33.445  36.023  1.00  0.00     0.134 A 
ATOM     55  F   UNL A   1      37.784  30.463  36.556  1.00  0.00    -0.206 F 
ATOM     56  C   UNL A   1      37.948  32.423  37.836  1.00  0.00     0.040 A 
ATOM     57  C   UNL A   1      39.422  34.196  37.141  1.00  0.00     0.040 A 
ATOM     58  F   UNL A   1      40.675  33.978  35.170  1.00  0.00    -0.206 F 
ATOM     59  C   UNL A   1      38.494  33.688  38.049  1.00  0.00     0.006 A 
ENDBRANCH  38  52
BRANCH  39  60
ATOM     60  C   UNL A   1      41.795  27.078  27.614  1.00  0.00     0.057 A 
ATOM     61  C   UNL A   1      42.717  27.612  26.708  1.00  0.00     0.134 A 
ATOM     62  C   UNL A   1      41.251  25.822  27.320  1.00  0.00     0.134 A 
ATOM     63  F   UNL A   1      43.252  28.822  26.924  1.00  0.00    -0.206 F 
ATOM     64  C   UNL A   1      43.077  26.929  25.545  1.00  0.00     0.040 A 
ATOM     65  C   UNL A   1      41.619  25.117  26.172  1.00  0.00     0.040 A 
ATOM     66  F   UNL A   1      40.361  25.257  28.149  1.00  0.00    -0.206 F 
ATOM     67  C   UNL A   1      42.530  25.674  25.278  1.00  0.00     0.006 A 
ENDBRANCH  39  60
BRANCH  51  68
ATOM     68  C   UNL A   1      44.315  27.317  34.099  1.00  0.00     0.057 A 
ATOM     69  C   UNL A   1      44.137  26.082  34.735  1.00  0.00     0.134 A 
ATOM     70  C   UNL A   1      45.609  27.853  34.073  1.00  0.00     0.134 A 
ATOM     71  F   UNL A   1      42.920  25.522  34.805  1.00  0.00    -0.206 F 
ATOM     72  C   UNL A   1      45.204  25.414  35.338  1.00  0.00     0.040 A 
ATOM     73  C   UNL A   1      46.687  27.183  34.653  1.00  0.00     0.040 A 
ATOM     74  F   UNL A   1      45.848  29.027  33.473  1.00  0.00    -0.206 F 
ATOM     75  C   UNL A   1      46.485  25.962  35.293  1.00  0.00     0.006 A 
ENDBRANCH  51  68
ENDBRANCH  25  26
ENDBRANCH  18  20
ENDBRANCH  17  18
ENDBRANCH  16  17
ENDBRANCH  15  16
ENDBRANCH  14  15
ENDBRANCH   1  14
TORSDOF 18
ENDMDL
