MODEL 1
REMARK VINA RESULT:     -11.9      0.000      0.000
REMARK SMILES C[C@@H](C(=O)OCCOCCOC(=O)c1ccc(-c2c3nc(c(-c4c(F)cccc4F)c4ccc([nH]4)c(-c4c(F)cccc4F)c4nc(c(-c5c(F)cccc5F)c5ccc2[nH]5)C=C4)C=C3)cc1)c1ccc2c3cc(Cl)ccc3n(C(=O)c3ccc(Cl)cc3)c2c1
REMARK SMILES IDX 7 1 6 2 5 3 3 4 4 5 2 6 1 7 68 8 69 9 90 10 70 11 89 12
REMARK SMILES IDX 71 13 79 14 72 15 78 16 73 17 77 18 74 19 76 20 75 21 80 22
REMARK SMILES IDX 81 23 82 24 83 25 88 26 84 27 87 28 85 29 86 30 8 31 9 32
REMARK SMILES IDX 10 33 11 34 12 35 13 36 14 37 15 38 67 39 16 40 66 41 17 42
REMARK SMILES IDX 18 43 19 44 60 45 20 46 65 47 59 48 61 49 21 50 64 51 58 52
REMARK SMILES IDX 57 53 22 55 48 56 31 57 47 58 32 59 35 60 46 61 62 62 33 63
REMARK SMILES IDX 34 64 45 66 63 67 36 68 23 69 24 70 29 71 25 72 26 73 28 74
REMARK SMILES IDX 30 75 27 76 49 77 50 78 55 79 51 80 52 81 54 82 56 83 53 84
REMARK SMILES IDX 37 85 38 86 43 87 39 88 40 89 42 90 44 91 41 92
REMARK H PARENT 61 54 35 65
REMARK Flexibility Score: inf
ROOT
ATOM      1  C   UNL A   1      37.528  22.487  25.180  1.00  0.00     0.202 C 
ENDROOT
BRANCH   1   2
ATOM      2  C   UNL A   1      36.061  22.784  25.510  1.00  0.00     0.261 C 
BRANCH   2   3
ATOM      3  O   UNL A   1      35.188  22.165  24.557  1.00  0.00    -0.463 OA
BRANCH   3   4
ATOM      4  C   UNL A   1      34.562  23.013  23.694  1.00  0.00     0.313 C 
ATOM      5  O   UNL A   1      35.101  23.520  22.715  1.00  0.00    -0.252 OA
BRANCH   4   6
ATOM      6  C   UNL A   1      33.076  23.187  24.025  1.00  0.00     0.126 C 
ATOM      7  C   UNL A   1      32.245  22.004  23.502  1.00  0.00     0.025 C 
BRANCH   6   8
ATOM      8  C   UNL A   1      32.490  24.558  23.647  1.00  0.00    -0.032 A 
ATOM      9  C   UNL A   1      32.087  24.812  22.329  1.00  0.00     0.005 A 
ATOM     10  C   UNL A   1      32.271  25.564  24.606  1.00  0.00     0.032 A 
ATOM     11  C   UNL A   1      31.433  26.001  21.974  1.00  0.00     0.011 A 
ATOM     12  C   UNL A   1      31.654  26.785  24.237  1.00  0.00     0.057 A 
ATOM     13  C   UNL A   1      31.180  26.986  22.949  1.00  0.00     0.008 A 
ATOM     14  N   UNL A   1      31.372  27.933  24.997  1.00  0.00    -0.276 N 
ATOM     15  C   UNL A   1      30.485  28.228  22.939  1.00  0.00     0.009 A 
ATOM     16  C   UNL A   1      30.648  28.828  24.197  1.00  0.00     0.057 A 
ATOM     17  C   UNL A   1      29.745  28.893  21.935  1.00  0.00     0.031 A 
ATOM     18  C   UNL A   1      30.181  30.141  24.420  1.00  0.00     0.029 A 
ATOM     19  C   UNL A   1      29.218  30.156  22.193  1.00  0.00     0.041 A 
ATOM     20  C   UNL A   1      29.448  30.781  23.410  1.00  0.00     0.023 A 
ATOM     21  Cl  UNL A   1      28.296  30.953  20.977  1.00  0.00    -0.084 Cl
BRANCH  14  22
ATOM     22  C   UNL A   1      31.852  28.105  26.321  1.00  0.00     0.262 C 
ATOM     23  O   UNL A   1      31.308  27.398  27.172  1.00  0.00    -0.268 OA
BRANCH  22  24
ATOM     24  C   UNL A   1      32.886  29.053  26.833  1.00  0.00     0.040 A 
ATOM     25  C   UNL A   1      32.453  30.360  27.141  1.00  0.00     0.015 A 
ATOM     26  C   UNL A   1      34.255  28.776  26.892  1.00  0.00     0.015 A 
ATOM     27  C   UNL A   1      33.355  31.357  27.515  1.00  0.00     0.021 A 
ATOM     28  C   UNL A   1      35.159  29.769  27.303  1.00  0.00     0.021 A 
ATOM     29  C   UNL A   1      34.708  31.054  27.605  1.00  0.00     0.041 A 
ATOM     30  Cl  UNL A   1      35.827  32.278  28.058  1.00  0.00    -0.084 Cl
ENDBRANCH  22  24
ENDBRANCH  14  22
ENDBRANCH   6   8
ENDBRANCH   4   6
ENDBRANCH   3   4
ENDBRANCH   2   3
ENDBRANCH   1   2
BRANCH   1  31
ATOM     31  O   UNL A   1      38.140  21.405  25.880  1.00  0.00    -0.374 OA
BRANCH  31  32
ATOM     32  C   UNL A   1      38.241  20.146  25.215  1.00  0.00     0.202 C 
BRANCH  32  33
ATOM     33  C   UNL A   1      39.339  19.192  25.705  1.00  0.00     0.261 C 
BRANCH  33  34
ATOM     34  O   UNL A   1      40.665  19.611  25.328  1.00  0.00    -0.460 OA
BRANCH  34  35
ATOM     35  C   UNL A   1      41.530  19.756  26.360  1.00  0.00     0.338 C 
ATOM     36  O   UNL A   1      42.295  18.914  26.815  1.00  0.00    -0.246 OA
BRANCH  35  37
ATOM     37  C   UNL A   1      41.568  21.157  26.812  1.00  0.00     0.060 A 
ATOM     38  C   UNL A   1      41.195  22.147  25.893  1.00  0.00     0.016 A 
ATOM     39  C   UNL A   1      42.075  21.507  28.064  1.00  0.00     0.016 A 
ATOM     40  C   UNL A   1      41.367  23.494  26.208  1.00  0.00     0.010 A 
ATOM     41  C   UNL A   1      42.255  22.860  28.375  1.00  0.00     0.010 A 
ATOM     42  C   UNL A   1      41.934  23.858  27.436  1.00  0.00    -0.014 A 
BRANCH  42  43
ATOM     43  C   UNL A   1      42.318  25.272  27.672  1.00  0.00     0.031 A 
ATOM     44  C   UNL A   1      43.646  25.767  27.171  1.00  0.00     0.074 A 
ATOM     45  C   UNL A   1      41.477  26.118  28.294  1.00  0.00     0.049 A 
ATOM     46  N   UNL A   1      44.192  26.951  27.292  1.00  0.00    -0.248 NA
ATOM     47  C   UNL A   1      44.471  24.797  26.435  1.00  0.00     0.031 C 
ATOM     48  C   UNL A   1      40.146  25.772  28.790  1.00  0.00     0.029 A 
ATOM     49  N   UNL A   1      41.625  27.444  28.618  1.00  0.00    -0.354 N 
ATOM     50  C   UNL A   1      45.422  26.868  26.651  1.00  0.00     0.074 A 
ATOM     51  C   UNL A   1      45.557  25.509  26.171  1.00  0.00     0.031 C 
ATOM     52  C   UNL A   1      39.602  26.857  29.368  1.00  0.00     0.029 A 
ATOM     53  C   UNL A   1      40.558  27.961  29.309  1.00  0.00     0.049 A 
ATOM     54  H   UNL A   1      42.420  27.971  28.379  1.00  0.00     0.167 HD
ATOM     55  C   UNL A   1      46.349  27.838  26.469  1.00  0.00     0.037 A 
ATOM     56  C   UNL A   1      40.381  29.182  29.852  1.00  0.00     0.037 A 
ATOM     57  C   UNL A   1      46.216  29.189  26.949  1.00  0.00     0.049 A 
ATOM     58  C   UNL A   1      41.458  30.224  29.700  1.00  0.00     0.074 A 
ATOM     59  C   UNL A   1      47.098  30.247  26.803  1.00  0.00     0.029 A 
ATOM     60  N   UNL A   1      45.134  29.667  27.671  1.00  0.00    -0.354 N 
ATOM     61  N   UNL A   1      42.609  30.140  29.076  1.00  0.00    -0.248 NA
ATOM     62  C   UNL A   1      41.210  31.531  30.326  1.00  0.00     0.031 C 
ATOM     63  C   UNL A   1      46.570  31.352  27.480  1.00  0.00     0.029 A 
ATOM     64  C   UNL A   1      45.337  30.998  28.001  1.00  0.00     0.049 A 
ATOM     65  H   UNL A   1      44.339  29.139  27.914  1.00  0.00     0.167 HD
ATOM     66  C   UNL A   1      43.208  31.387  29.210  1.00  0.00     0.074 A 
ATOM     67  C   UNL A   1      42.289  32.213  29.964  1.00  0.00     0.031 C 
ATOM     68  C   UNL A   1      44.411  31.810  28.749  1.00  0.00     0.037 A 
BRANCH  55  69
ATOM     69  C   UNL A   1      47.606  27.463  25.738  1.00  0.00     0.057 A 
ATOM     70  C   UNL A   1      47.709  27.566  24.344  1.00  0.00     0.134 A 
ATOM     71  C   UNL A   1      48.734  27.019  26.439  1.00  0.00     0.134 A 
ATOM     72  F   UNL A   1      46.661  27.972  23.612  1.00  0.00    -0.206 F 
ATOM     73  C   UNL A   1      48.882  27.218  23.672  1.00  0.00     0.040 A 
ATOM     74  C   UNL A   1      49.921  26.693  25.780  1.00  0.00     0.040 A 
ATOM     75  F   UNL A   1      48.704  26.903  27.775  1.00  0.00    -0.206 F 
ATOM     76  C   UNL A   1      49.995  26.786  24.392  1.00  0.00     0.006 A 
ENDBRANCH  55  69
BRANCH  56  77
ATOM     77  C   UNL A   1      39.140  29.484  30.608  1.00  0.00     0.057 A 
ATOM     78  C   UNL A   1      38.008  30.003  29.970  1.00  0.00     0.134 A 
ATOM     79  C   UNL A   1      39.063  29.275  31.990  1.00  0.00     0.134 A 
ATOM     80  F   UNL A   1      38.028  30.249  28.651  1.00  0.00    -0.206 F 
ATOM     81  C   UNL A   1      36.848  30.318  30.681  1.00  0.00     0.040 A 
ATOM     82  C   UNL A   1      37.902  29.560  32.710  1.00  0.00     0.040 A 
ATOM     83  F   UNL A   1      40.114  28.779  32.659  1.00  0.00    -0.206 F 
ATOM     84  C   UNL A   1      36.792  30.090  32.055  1.00  0.00     0.006 A 
ENDBRANCH  56  77
BRANCH  68  85
ATOM     85  C   UNL A   1      44.789  33.239  29.016  1.00  0.00     0.057 A 
ATOM     86  C   UNL A   1      45.450  33.623  30.190  1.00  0.00     0.134 A 
ATOM     87  C   UNL A   1      44.522  34.235  28.068  1.00  0.00     0.134 A 
ATOM     88  F   UNL A   1      45.724  32.719  31.143  1.00  0.00    -0.206 F 
ATOM     89  C   UNL A   1      45.814  34.951  30.419  1.00  0.00     0.040 A 
ATOM     90  C   UNL A   1      44.904  35.561  28.275  1.00  0.00     0.040 A 
ATOM     91  F   UNL A   1      43.899  33.933  26.919  1.00  0.00    -0.206 F 
ATOM     92  C   UNL A   1      45.547  35.923  29.457  1.00  0.00     0.006 A 
ENDBRANCH  68  85
ENDBRANCH  42  43
ENDBRANCH  35  37
ENDBRANCH  34  35
ENDBRANCH  33  34
ENDBRANCH  32  33
ENDBRANCH  31  32
ENDBRANCH   1  31
TORSDOF 17
ENDMDL
MODEL 2
REMARK VINA RESULT:     -11.8      0.347      5.917
REMARK SMILES C[C@@H](C(=O)OCCOCCOC(=O)c1ccc(-c2c3nc(c(-c4c(F)cccc4F)c4ccc([nH]4)c(-c4c(F)cccc4F)c4nc(c(-c5c(F)cccc5F)c5ccc2[nH]5)C=C4)C=C3)cc1)c1ccc2c3cc(Cl)ccc3n(C(=O)c3ccc(Cl)cc3)c2c1
REMARK SMILES IDX 7 1 6 2 5 3 3 4 4 5 2 6 1 7 68 8 69 9 90 10 70 11 89 12
REMARK SMILES IDX 71 13 79 14 72 15 78 16 73 17 77 18 74 19 76 20 75 21 80 22
REMARK SMILES IDX 81 23 82 24 83 25 88 26 84 27 87 28 85 29 86 30 8 31 9 32
REMARK SMILES IDX 10 33 11 34 12 35 13 36 14 37 15 38 67 39 16 40 66 41 17 42
REMARK SMILES IDX 18 43 19 44 60 45 20 46 65 47 59 48 61 49 21 50 64 51 58 52
REMARK SMILES IDX 57 53 22 55 48 56 31 57 47 58 32 59 35 60 46 61 62 62 33 63
REMARK SMILES IDX 34 64 45 66 63 67 36 68 23 69 24 70 29 71 25 72 26 73 28 74
REMARK SMILES IDX 30 75 27 76 49 77 50 78 55 79 51 80 52 81 54 82 56 83 53 84
REMARK SMILES IDX 37 85 38 86 43 87 39 88 40 89 42 90 44 91 41 92
REMARK H PARENT 61 54 35 65
REMARK Flexibility Score: inf
ROOT
ATOM      1  C   UNL A   1      37.497  22.412  25.082  1.00  0.00     0.202 C 
ENDROOT
BRANCH   1   2
ATOM      2  C   UNL A   1      36.029  22.638  25.457  1.00  0.00     0.261 C 
BRANCH   2   3
ATOM      3  O   UNL A   1      35.158  22.147  24.429  1.00  0.00    -0.463 OA
BRANCH   3   4
ATOM      4  C   UNL A   1      34.566  23.099  23.655  1.00  0.00     0.313 C 
ATOM      5  O   UNL A   1      35.135  23.705  22.753  1.00  0.00    -0.252 OA
BRANCH   4   6
ATOM      6  C   UNL A   1      33.075  23.260  23.971  1.00  0.00     0.126 C 
ATOM      7  C   UNL A   1      32.254  22.088  23.410  1.00  0.00     0.025 C 
BRANCH   6   8
ATOM      8  C   UNL A   1      32.489  24.637  23.619  1.00  0.00    -0.032 A 
ATOM      9  C   UNL A   1      32.068  24.909  22.311  1.00  0.00     0.005 A 
ATOM     10  C   UNL A   1      32.288  25.632  24.593  1.00  0.00     0.032 A 
ATOM     11  C   UNL A   1      31.414  26.105  21.979  1.00  0.00     0.011 A 
ATOM     12  C   UNL A   1      31.671  26.861  24.248  1.00  0.00     0.057 A 
ATOM     13  C   UNL A   1      31.178  27.079  22.970  1.00  0.00     0.008 A 
ATOM     14  N   UNL A   1      31.404  28.000  25.026  1.00  0.00    -0.276 N 
ATOM     15  C   UNL A   1      30.488  28.323  22.985  1.00  0.00     0.009 A 
ATOM     16  C   UNL A   1      30.672  28.908  24.248  1.00  0.00     0.057 A 
ATOM     17  C   UNL A   1      29.737  29.004  22.001  1.00  0.00     0.031 A 
ATOM     18  C   UNL A   1      30.213  30.219  24.493  1.00  0.00     0.029 A 
ATOM     19  C   UNL A   1      29.219  30.265  22.281  1.00  0.00     0.041 A 
ATOM     20  C   UNL A   1      29.469  30.875  23.503  1.00  0.00     0.023 A 
ATOM     21  Cl  UNL A   1      28.282  31.081  21.089  1.00  0.00    -0.084 Cl
BRANCH  14  22
ATOM     22  C   UNL A   1      31.904  28.154  26.345  1.00  0.00     0.262 C 
ATOM     23  O   UNL A   1      31.360  27.448  27.198  1.00  0.00    -0.268 OA
BRANCH  22  24
ATOM     24  C   UNL A   1      32.959  29.082  26.851  1.00  0.00     0.040 A 
ATOM     25  C   UNL A   1      32.540  30.373  27.233  1.00  0.00     0.015 A 
ATOM     26  C   UNL A   1      34.330  28.804  26.838  1.00  0.00     0.015 A 
ATOM     27  C   UNL A   1      33.458  31.356  27.609  1.00  0.00     0.021 A 
ATOM     28  C   UNL A   1      35.251  29.781  27.251  1.00  0.00     0.021 A 
ATOM     29  C   UNL A   1      34.813  31.051  27.626  1.00  0.00     0.041 A 
ATOM     30  Cl  UNL A   1      35.952  32.257  28.082  1.00  0.00    -0.084 Cl
ENDBRANCH  22  24
ENDBRANCH  14  22
ENDBRANCH   6   8
ENDBRANCH   4   6
ENDBRANCH   3   4
ENDBRANCH   2   3
ENDBRANCH   1   2
BRANCH   1  31
ATOM     31  O   UNL A   1      38.191  21.383  25.785  1.00  0.00    -0.374 OA
BRANCH  31  32
ATOM     32  C   UNL A   1      38.283  20.095  25.175  1.00  0.00     0.202 C 
BRANCH  32  33
ATOM     33  C   UNL A   1      39.327  19.130  25.752  1.00  0.00     0.261 C 
BRANCH  33  34
ATOM     34  O   UNL A   1      40.674  19.440  25.344  1.00  0.00    -0.460 OA
BRANCH  34  35
ATOM     35  C   UNL A   1      41.557  19.582  26.360  1.00  0.00     0.338 C 
ATOM     36  O   UNL A   1      42.281  18.720  26.843  1.00  0.00    -0.246 OA
BRANCH  35  37
ATOM     37  C   UNL A   1      41.674  20.997  26.752  1.00  0.00     0.060 A 
ATOM     38  C   UNL A   1      41.417  21.965  25.773  1.00  0.00     0.016 A 
ATOM     39  C   UNL A   1      42.146  21.370  28.011  1.00  0.00     0.016 A 
ATOM     40  C   UNL A   1      41.671  23.310  26.036  1.00  0.00     0.010 A 
ATOM     41  C   UNL A   1      42.409  22.720  28.271  1.00  0.00     0.010 A 
ATOM     42  C   UNL A   1      42.205  23.692  27.274  1.00  0.00    -0.014 A 
BRANCH  42  43
ATOM     43  C   UNL A   1      42.678  25.086  27.466  1.00  0.00     0.031 A 
ATOM     44  C   UNL A   1      41.807  26.062  28.209  1.00  0.00     0.074 A 
ATOM     45  C   UNL A   1      43.886  25.470  27.017  1.00  0.00     0.049 A 
ATOM     46  N   UNL A   1      42.011  27.329  28.465  1.00  0.00    -0.248 NA
ATOM     47  C   UNL A   1      40.536  25.539  28.733  1.00  0.00     0.031 C 
ATOM     48  C   UNL A   1      44.840  24.610  26.319  1.00  0.00     0.029 A 
ATOM     49  N   UNL A   1      44.513  26.690  27.078  1.00  0.00    -0.354 N 
ATOM     50  C   UNL A   1      40.896  27.755  29.177  1.00  0.00     0.074 A 
ATOM     51  C   UNL A   1      40.004  26.620  29.283  1.00  0.00     0.031 C 
ATOM     52  C   UNL A   1      45.928  25.333  26.005  1.00  0.00     0.029 A 
ATOM     53  C   UNL A   1      45.734  26.711  26.452  1.00  0.00     0.049 A 
ATOM     54  H   UNL A   1      44.123  27.474  27.527  1.00  0.00     0.167 HD
ATOM     55  C   UNL A   1      40.643  28.977  29.702  1.00  0.00     0.037 A 
ATOM     56  C   UNL A   1      46.588  27.731  26.244  1.00  0.00     0.037 A 
ATOM     57  C   UNL A   1      41.529  30.108  29.595  1.00  0.00     0.049 A 
ATOM     58  C   UNL A   1      46.252  29.100  26.775  1.00  0.00     0.074 A 
ATOM     59  C   UNL A   1      41.365  31.384  30.105  1.00  0.00     0.029 A 
ATOM     60  N   UNL A   1      42.742  30.097  28.926  1.00  0.00    -0.354 N 
ATOM     61  N   UNL A   1      45.204  29.487  27.462  1.00  0.00    -0.248 NA
ATOM     62  C   UNL A   1      47.220  30.173  26.504  1.00  0.00     0.031 C 
ATOM     63  C   UNL A   1      42.458  32.160  29.703  1.00  0.00     0.029 A 
ATOM     64  C   UNL A   1      43.327  31.352  28.988  1.00  0.00     0.049 A 
ATOM     65  H   UNL A   1      43.132  29.314  28.474  1.00  0.00     0.167 HD
ATOM     66  C   UNL A   1      45.398  30.837  27.728  1.00  0.00     0.074 A 
ATOM     67  C   UNL A   1      46.670  31.199  27.138  1.00  0.00     0.031 C 
ATOM     68  C   UNL A   1      44.596  31.699  28.400  1.00  0.00     0.037 A 
BRANCH  55  69
ATOM     69  C   UNL A   1      39.339  29.161  30.424  1.00  0.00     0.057 A 
ATOM     70  C   UNL A   1      39.194  28.845  31.782  1.00  0.00     0.134 A 
ATOM     71  C   UNL A   1      38.223  29.687  29.760  1.00  0.00     0.134 A 
ATOM     72  F   UNL A   1      40.220  28.326  32.473  1.00  0.00    -0.206 F 
ATOM     73  C   UNL A   1      37.979  29.023  32.446  1.00  0.00     0.040 A 
ATOM     74  C   UNL A   1      37.011  29.892  30.420  1.00  0.00     0.040 A 
ATOM     75  F   UNL A   1      38.296  30.015  28.461  1.00  0.00    -0.206 F 
ATOM     76  C   UNL A   1      36.884  29.554  31.766  1.00  0.00     0.006 A 
ENDBRANCH  55  69
BRANCH  56  77
ATOM     77  C   UNL A   1      47.841  27.505  25.481  1.00  0.00     0.057 A 
ATOM     78  C   UNL A   1      47.863  27.566  24.083  1.00  0.00     0.134 A 
ATOM     79  C   UNL A   1      49.044  27.206  26.133  1.00  0.00     0.134 A 
ATOM     80  F   UNL A   1      46.738  27.824  23.400  1.00  0.00    -0.206 F 
ATOM     81  C   UNL A   1      49.033  27.324  23.360  1.00  0.00     0.040 A 
ATOM     82  C   UNL A   1      50.226  26.987  25.424  1.00  0.00     0.040 A 
ATOM     83  F   UNL A   1      49.088  27.133  27.471  1.00  0.00    -0.206 F 
ATOM     84  C   UNL A   1      50.220  27.039  24.032  1.00  0.00     0.006 A 
ENDBRANCH  56  77
BRANCH  68  85
ATOM     85  C   UNL A   1      45.084  33.109  28.566  1.00  0.00     0.057 A 
ATOM     86  C   UNL A   1      44.762  34.117  27.648  1.00  0.00     0.134 A 
ATOM     87  C   UNL A   1      45.852  33.471  29.681  1.00  0.00     0.134 A 
ATOM     88  F   UNL A   1      44.040  33.834  26.554  1.00  0.00    -0.206 F 
ATOM     89  C   UNL A   1      45.205  35.430  27.823  1.00  0.00     0.040 A 
ATOM     90  C   UNL A   1      46.279  34.784  29.879  1.00  0.00     0.040 A 
ATOM     91  F   UNL A   1      46.188  32.556  30.603  1.00  0.00    -0.206 F 
ATOM     92  C   UNL A   1      45.960  35.767  28.944  1.00  0.00     0.006 A 
ENDBRANCH  68  85
ENDBRANCH  42  43
ENDBRANCH  35  37
ENDBRANCH  34  35
ENDBRANCH  33  34
ENDBRANCH  32  33
ENDBRANCH  31  32
ENDBRANCH   1  31
TORSDOF 17
ENDMDL
MODEL 3
REMARK VINA RESULT:     -11.7      4.635      9.023
REMARK SMILES C[C@@H](C(=O)OCCOCCOC(=O)c1ccc(-c2c3nc(c(-c4c(F)cccc4F)c4ccc([nH]4)c(-c4c(F)cccc4F)c4nc(c(-c5c(F)cccc5F)c5ccc2[nH]5)C=C4)C=C3)cc1)c1ccc2c3cc(Cl)ccc3n(C(=O)c3ccc(Cl)cc3)c2c1
REMARK SMILES IDX 7 1 6 2 5 3 3 4 4 5 2 6 1 7 68 8 69 9 90 10 70 11 89 12
REMARK SMILES IDX 71 13 79 14 72 15 78 16 73 17 77 18 74 19 76 20 75 21 80 22
REMARK SMILES IDX 81 23 82 24 83 25 88 26 84 27 87 28 85 29 86 30 8 31 9 32
REMARK SMILES IDX 10 33 11 34 12 35 13 36 14 37 15 38 67 39 16 40 66 41 17 42
REMARK SMILES IDX 18 43 19 44 60 45 20 46 65 47 59 48 61 49 21 50 64 51 58 52
REMARK SMILES IDX 57 53 22 55 48 56 31 57 47 58 32 59 35 60 46 61 62 62 33 63
REMARK SMILES IDX 34 64 45 66 63 67 36 68 23 69 24 70 29 71 25 72 26 73 28 74
REMARK SMILES IDX 30 75 27 76 49 77 50 78 55 79 51 80 52 81 54 82 56 83 53 84
REMARK SMILES IDX 37 85 38 86 43 87 39 88 40 89 42 90 44 91 41 92
REMARK H PARENT 61 54 35 65
REMARK Flexibility Score: inf
ROOT
ATOM      1  C   UNL A   1      43.678  21.272  25.384  1.00  0.00     0.202 C 
ENDROOT
BRANCH   1   2
ATOM      2  C   UNL A   1      42.379  21.092  26.177  1.00  0.00     0.261 C 
BRANCH   2   3
ATOM      3  O   UNL A   1      41.542  22.250  26.056  1.00  0.00    -0.463 OA
BRANCH   3   4
ATOM      4  C   UNL A   1      40.466  22.288  26.890  1.00  0.00     0.313 C 
ATOM      5  O   UNL A   1      40.477  21.881  28.047  1.00  0.00    -0.252 OA
BRANCH   4   6
ATOM      6  C   UNL A   1      39.262  22.990  26.252  1.00  0.00     0.126 C 
ATOM      7  C   UNL A   1      38.724  24.110  27.157  1.00  0.00     0.025 C 
BRANCH   6   8
ATOM      8  C   UNL A   1      38.165  22.043  25.738  1.00  0.00    -0.032 A 
ATOM      9  C   UNL A   1      38.502  20.773  25.254  1.00  0.00     0.005 A 
ATOM     10  C   UNL A   1      36.800  22.381  25.801  1.00  0.00     0.032 A 
ATOM     11  C   UNL A   1      37.522  19.836  24.895  1.00  0.00     0.011 A 
ATOM     12  C   UNL A   1      35.811  21.451  25.393  1.00  0.00     0.057 A 
ATOM     13  C   UNL A   1      36.156  20.166  25.001  1.00  0.00     0.008 A 
ATOM     14  N   UNL A   1      34.413  21.573  25.329  1.00  0.00    -0.276 N 
ATOM     15  C   UNL A   1      34.948  19.440  24.807  1.00  0.00     0.009 A 
ATOM     16  C   UNL A   1      33.875  20.330  24.967  1.00  0.00     0.057 A 
ATOM     17  C   UNL A   1      34.695  18.088  24.483  1.00  0.00     0.031 A 
ATOM     18  C   UNL A   1      32.558  19.907  24.686  1.00  0.00     0.029 A 
ATOM     19  C   UNL A   1      33.384  17.662  24.288  1.00  0.00     0.041 A 
ATOM     20  C   UNL A   1      32.330  18.561  24.369  1.00  0.00     0.023 A 
ATOM     21  Cl  UNL A   1      33.077  16.008  23.919  1.00  0.00    -0.084 Cl
BRANCH  14  22
ATOM     22  C   UNL A   1      33.748  22.809  25.532  1.00  0.00     0.262 C 
ATOM     23  O   UNL A   1      32.995  22.846  26.509  1.00  0.00    -0.268 OA
BRANCH  22  24
ATOM     24  C   UNL A   1      33.794  24.052  24.704  1.00  0.00     0.040 A 
ATOM     25  C   UNL A   1      33.818  25.278  25.399  1.00  0.00     0.015 A 
ATOM     26  C   UNL A   1      33.675  24.080  23.311  1.00  0.00     0.015 A 
ATOM     27  C   UNL A   1      33.744  26.499  24.726  1.00  0.00     0.021 A 
ATOM     28  C   UNL A   1      33.638  25.308  22.631  1.00  0.00     0.021 A 
ATOM     29  C   UNL A   1      33.664  26.509  23.340  1.00  0.00     0.041 A 
ATOM     30  Cl  UNL A   1      33.566  28.009  22.503  1.00  0.00    -0.084 Cl
ENDBRANCH  22  24
ENDBRANCH  14  22
ENDBRANCH   6   8
ENDBRANCH   4   6
ENDBRANCH   3   4
ENDBRANCH   2   3
ENDBRANCH   1   2
BRANCH   1  31
ATOM     31  O   UNL A   1      44.764  21.903  26.060  1.00  0.00    -0.374 OA
BRANCH  31  32
ATOM     32  C   UNL A   1      45.384  23.026  25.433  1.00  0.00     0.202 C 
BRANCH  32  33
ATOM     33  C   UNL A   1      45.219  24.384  26.128  1.00  0.00     0.261 C 
BRANCH  33  34
ATOM     34  O   UNL A   1      43.965  24.516  26.826  1.00  0.00    -0.460 OA
BRANCH  34  35
ATOM     35  C   UNL A   1      43.051  25.301  26.208  1.00  0.00     0.338 C 
ATOM     36  O   UNL A   1      42.656  25.215  25.052  1.00  0.00    -0.246 OA
BRANCH  35  37
ATOM     37  C   UNL A   1      42.433  26.233  27.167  1.00  0.00     0.060 A 
ATOM     38  C   UNL A   1      42.988  27.515  27.277  1.00  0.00     0.016 A 
ATOM     39  C   UNL A   1      41.415  25.824  28.030  1.00  0.00     0.016 A 
ATOM     40  C   UNL A   1      42.554  28.381  28.280  1.00  0.00     0.010 A 
ATOM     41  C   UNL A   1      40.987  26.692  29.042  1.00  0.00     0.010 A 
ATOM     42  C   UNL A   1      41.578  27.961  29.192  1.00  0.00    -0.014 A 
BRANCH  42  43
ATOM     43  C   UNL A   1      41.283  28.797  30.382  1.00  0.00     0.031 A 
ATOM     44  C   UNL A   1      40.139  29.772  30.331  1.00  0.00     0.074 A 
ATOM     45  C   UNL A   1      42.003  28.665  31.510  1.00  0.00     0.049 A 
ATOM     46  N   UNL A   1      39.725  30.616  31.242  1.00  0.00    -0.248 NA
ATOM     47  C   UNL A   1      39.356  29.797  29.086  1.00  0.00     0.031 C 
ATOM     48  C   UNL A   1      43.110  27.729  31.701  1.00  0.00     0.029 A 
ATOM     49  N   UNL A   1      41.911  29.328  32.709  1.00  0.00    -0.354 N 
ATOM     50  C   UNL A   1      38.637  31.275  30.680  1.00  0.00     0.074 A 
ATOM     51  C   UNL A   1      38.476  30.755  29.339  1.00  0.00     0.031 C 
ATOM     52  C   UNL A   1      43.603  27.886  32.941  1.00  0.00     0.029 A 
ATOM     53  C   UNL A   1      42.868  28.953  33.618  1.00  0.00     0.049 A 
ATOM     54  H   UNL A   1      41.225  30.008  32.897  1.00  0.00     0.167 HD
ATOM     55  C   UNL A   1      37.840  32.218  31.235  1.00  0.00     0.037 A 
ATOM     56  C   UNL A   1      43.135  29.431  34.850  1.00  0.00     0.037 A 
ATOM     57  C   UNL A   1      38.002  32.737  32.569  1.00  0.00     0.049 A 
ATOM     58  C   UNL A   1      42.279  30.532  35.419  1.00  0.00     0.074 A 
ATOM     59  C   UNL A   1      37.236  33.686  33.224  1.00  0.00     0.029 A 
ATOM     60  N   UNL A   1      39.002  32.354  33.448  1.00  0.00    -0.354 N 
ATOM     61  N   UNL A   1      41.242  31.133  34.887  1.00  0.00    -0.248 NA
ATOM     62  C   UNL A   1      42.630  31.017  36.762  1.00  0.00     0.031 C 
ATOM     63  C   UNL A   1      37.804  33.912  34.484  1.00  0.00     0.029 A 
ATOM     64  C   UNL A   1      38.890  33.065  34.632  1.00  0.00     0.049 A 
ATOM     65  H   UNL A   1      39.691  31.675  33.259  1.00  0.00     0.167 HD
ATOM     66  C   UNL A   1      40.801  32.047  35.837  1.00  0.00     0.074 A 
ATOM     67  C   UNL A   1      41.676  31.911  36.983  1.00  0.00     0.031 C 
ATOM     68  C   UNL A   1      39.765  32.918  35.767  1.00  0.00     0.037 A 
BRANCH  55  69
ATOM     69  C   UNL A   1      36.730  32.768  30.387  1.00  0.00     0.057 A 
ATOM     70  C   UNL A   1      35.430  32.248  30.442  1.00  0.00     0.134 A 
ATOM     71  C   UNL A   1      36.958  33.850  29.527  1.00  0.00     0.134 A 
ATOM     72  F   UNL A   1      35.147  31.204  31.235  1.00  0.00    -0.206 F 
ATOM     73  C   UNL A   1      34.403  32.768  29.652  1.00  0.00     0.040 A 
ATOM     74  C   UNL A   1      35.933  34.395  28.752  1.00  0.00     0.040 A 
ATOM     75  F   UNL A   1      38.178  34.399  29.431  1.00  0.00    -0.206 F 
ATOM     76  C   UNL A   1      34.652  33.850  28.808  1.00  0.00     0.006 A 
ENDBRANCH  55  69
BRANCH  56  77
ATOM     77  C   UNL A   1      44.276  28.884  35.626  1.00  0.00     0.057 A 
ATOM     78  C   UNL A   1      44.095  27.859  36.561  1.00  0.00     0.134 A 
ATOM     79  C   UNL A   1      45.572  29.385  35.460  1.00  0.00     0.134 A 
ATOM     80  F   UNL A   1      42.872  27.354  36.783  1.00  0.00    -0.206 F 
ATOM     81  C   UNL A   1      45.160  27.362  37.315  1.00  0.00     0.040 A 
ATOM     82  C   UNL A   1      46.651  28.881  36.188  1.00  0.00     0.040 A 
ATOM     83  F   UNL A   1      45.811  30.367  34.579  1.00  0.00    -0.206 F 
ATOM     84  C   UNL A   1      46.444  27.870  37.124  1.00  0.00     0.006 A 
ENDBRANCH  56  77
BRANCH  68  85
ATOM     85  C   UNL A   1      39.496  33.769  36.975  1.00  0.00     0.057 A 
ATOM     86  C   UNL A   1      40.000  35.071  37.090  1.00  0.00     0.134 A 
ATOM     87  C   UNL A   1      38.689  33.294  38.016  1.00  0.00     0.134 A 
ATOM     88  F   UNL A   1      40.790  35.582  36.133  1.00  0.00    -0.206 F 
ATOM     89  C   UNL A   1      39.728  35.861  38.209  1.00  0.00     0.040 A 
ATOM     90  C   UNL A   1      38.389  34.083  39.127  1.00  0.00     0.040 A 
ATOM     91  F   UNL A   1      38.167  32.059  37.965  1.00  0.00    -0.206 F 
ATOM     92  C   UNL A   1      38.915  35.370  39.228  1.00  0.00     0.006 A 
ENDBRANCH  68  85
ENDBRANCH  42  43
ENDBRANCH  35  37
ENDBRANCH  34  35
ENDBRANCH  33  34
ENDBRANCH  32  33
ENDBRANCH  31  32
ENDBRANCH   1  31
TORSDOF 17
ENDMDL
