MODEL 1
REMARK VINA RESULT:      -8.0      0.000      0.000
REMARK SMILES CCCCCCNC(=O)Oc1cccc(-c2ccc([C@@H](C)C(=O)OCCOCCOC(=O)c3ccc(-c4c5nc(c(-c6c(F)cccc6F)c6ccc([nH]6)c(-c6c(F)cccc6F)c6nc(c(-c7c(F)cccc7F)c7ccc4[nH]7)C=C6)C=C5)cc3)cc2F)c1
REMARK SMILES IDX 22 1 23 2 20 3 21 4 19 5 16 6 17 7 88 8 18 9 87 10 89 11
REMARK SMILES IDX 15 12 11 13 12 14 90 15 13 16 14 17 10 18 8 19 7 20 9 22
REMARK SMILES IDX 6 23 5 24 4 25 3 26 2 27 1 28 24 29 25 30 26 31 27 32 28 33
REMARK SMILES IDX 29 34 30 35 31 36 32 37 33 38 34 39 86 40 35 41 85 42 36 43
REMARK SMILES IDX 37 44 38 45 79 46 39 47 84 48 78 49 80 50 40 51 83 52 77 53
REMARK SMILES IDX 76 54 41 56 67 57 50 58 66 59 51 60 54 61 65 62 81 63 52 64
REMARK SMILES IDX 53 65 64 67 82 68 55 69 42 70 43 71 48 72 44 73 45 74 47 75
REMARK SMILES IDX 49 76 46 77 68 78 69 79 74 80 70 81 71 82 73 83 75 84 72 85
REMARK SMILES IDX 56 86 57 87 62 88 58 89 59 90 61 91 63 92 60 93
REMARK H PARENT 7 21 80 55 54 66
REMARK Flexibility Score: inf
ROOT
ATOM      1  C   UNL A   1      36.197  31.400  30.052  1.00  0.00     0.313 C 
ATOM      2  O   UNL A   1      35.791  30.675  30.955  1.00  0.00    -0.252 OA
ENDROOT
BRANCH   1   3
ATOM      3  C   UNL A   1      36.543  30.849  28.677  1.00  0.00     0.126 C 
ATOM      4  C   UNL A   1      35.257  30.435  27.968  1.00  0.00     0.025 C 
BRANCH   3   5
ATOM      5  C   UNL A   1      37.618  29.771  28.585  1.00  0.00    -0.031 A 
ATOM      6  C   UNL A   1      39.722  27.835  28.598  1.00  0.00     0.018 A 
ATOM      7  C   UNL A   1      39.602  28.777  27.563  1.00  0.00     0.012 A 
ATOM      8  C   UNL A   1      38.748  27.866  29.603  1.00  0.00     0.131 A 
ATOM      9  C   UNL A   1      38.568  29.730  27.555  1.00  0.00     0.005 A 
ATOM     10  C   UNL A   1      37.718  28.810  29.603  1.00  0.00     0.044 A 
ATOM     11  F   UNL A   1      38.803  26.999  30.627  1.00  0.00    -0.206 F 
BRANCH   6  12
ATOM     12  C   UNL A   1      40.847  26.885  28.644  1.00  0.00    -0.012 A 
ATOM     13  C   UNL A   1      41.931  24.829  27.930  1.00  0.00     0.133 A 
ATOM     14  C   UNL A   1      42.981  25.037  28.820  1.00  0.00     0.047 A 
ATOM     15  C   UNL A   1      40.863  25.727  27.848  1.00  0.00     0.056 A 
ATOM     16  C   UNL A   1      42.982  26.179  29.616  1.00  0.00     0.004 A 
ATOM     17  C   UNL A   1      41.927  27.094  29.525  1.00  0.00     0.009 A 
BRANCH  13  18
ATOM     18  O   UNL A   1      41.941  23.624  27.208  1.00  0.00    -0.410 OA
BRANCH  18  19
ATOM     19  C   UNL A   1      42.691  22.576  27.720  1.00  0.00     0.412 C 
ATOM     20  N   UNL A   1      43.773  22.255  26.948  1.00  0.00    -0.321 N 
ATOM     21  H   UNL A   1      44.351  21.531  27.283  1.00  0.00     0.167 HD
ATOM     22  O   UNL A   1      42.450  21.952  28.749  1.00  0.00    -0.224 OA
BRANCH  20  23
ATOM     23  C   UNL A   1      44.166  22.864  25.691  1.00  0.00     0.119 C 
BRANCH  23  24
ATOM     24  C   UNL A   1      45.061  24.087  25.895  1.00  0.00     0.021 C 
BRANCH  24  25
ATOM     25  C   UNL A   1      44.734  25.287  24.998  1.00  0.00     0.002 C 
BRANCH  25  26
ATOM     26  C   UNL A   1      45.348  26.624  25.426  1.00  0.00    -0.000 C 
BRANCH  26  27
ATOM     27  C   UNL A   1      44.845  27.187  26.757  1.00  0.00    -0.003 C 
ATOM     28  C   UNL A   1      43.831  28.308  26.596  1.00  0.00     0.004 C 
ENDBRANCH  26  27
ENDBRANCH  25  26
ENDBRANCH  24  25
ENDBRANCH  23  24
ENDBRANCH  20  23
ENDBRANCH  18  19
ENDBRANCH  13  18
ENDBRANCH   6  12
ENDBRANCH   3   5
ENDBRANCH   1   3
BRANCH   1  29
ATOM     29  O   UNL A   1      36.415  32.735  30.181  1.00  0.00    -0.463 OA
BRANCH  29  30
ATOM     30  C   UNL A   1      35.297  33.586  29.870  1.00  0.00     0.261 C 
BRANCH  30  31
ATOM     31  C   UNL A   1      34.707  34.210  31.137  1.00  0.00     0.202 C 
BRANCH  31  32
ATOM     32  O   UNL A   1      34.042  33.316  32.029  1.00  0.00    -0.374 OA
BRANCH  32  33
ATOM     33  C   UNL A   1      34.310  33.452  33.424  1.00  0.00     0.202 C 
BRANCH  33  34
ATOM     34  C   UNL A   1      35.784  33.467  33.847  1.00  0.00     0.261 C 
BRANCH  34  35
ATOM     35  O   UNL A   1      36.334  32.144  33.973  1.00  0.00    -0.460 OA
BRANCH  35  36
ATOM     36  C   UNL A   1      37.407  32.059  34.798  1.00  0.00     0.338 C 
ATOM     37  O   UNL A   1      37.404  32.032  36.015  1.00  0.00    -0.246 OA
BRANCH  36  38
ATOM     38  C   UNL A   1      38.633  31.804  34.013  1.00  0.00     0.060 A 
ATOM     39  C   UNL A   1      38.495  31.020  32.861  1.00  0.00     0.016 A 
ATOM     40  C   UNL A   1      39.893  32.233  34.435  1.00  0.00     0.016 A 
ATOM     41  C   UNL A   1      39.624  30.602  32.163  1.00  0.00     0.010 A 
ATOM     42  C   UNL A   1      41.028  31.810  33.732  1.00  0.00     0.010 A 
ATOM     43  C   UNL A   1      40.900  30.954  32.621  1.00  0.00    -0.014 A 
BRANCH  43  44
ATOM     44  C   UNL A   1      42.083  30.277  32.035  1.00  0.00     0.031 A 
ATOM     45  C   UNL A   1      42.795  30.925  30.877  1.00  0.00     0.074 A 
ATOM     46  C   UNL A   1      42.569  29.144  32.571  1.00  0.00     0.049 A 
ATOM     47  N   UNL A   1      43.874  30.540  30.243  1.00  0.00    -0.248 NA
ATOM     48  C   UNL A   1      42.213  32.178  30.370  1.00  0.00     0.031 C 
ATOM     49  C   UNL A   1      42.002  28.446  33.723  1.00  0.00     0.029 A 
ATOM     50  N   UNL A   1      43.660  28.391  32.221  1.00  0.00    -0.354 N 
ATOM     51  C   UNL A   1      44.100  31.501  29.265  1.00  0.00     0.074 A 
ATOM     52  C   UNL A   1      43.024  32.463  29.362  1.00  0.00     0.031 C 
ATOM     53  C   UNL A   1      42.759  27.369  33.993  1.00  0.00     0.029 A 
ATOM     54  C   UNL A   1      43.845  27.288  33.017  1.00  0.00     0.049 A 
ATOM     55  H   UNL A   1      44.255  28.619  31.470  1.00  0.00     0.167 HD
ATOM     56  C   UNL A   1      45.119  31.585  28.377  1.00  0.00     0.037 A 
ATOM     57  C   UNL A   1      44.783  26.323  32.963  1.00  0.00     0.037 A 
ATOM     58  C   UNL A   1      46.188  30.627  28.275  1.00  0.00     0.049 A 
ATOM     59  C   UNL A   1      45.856  26.388  31.909  1.00  0.00     0.074 A 
ATOM     60  C   UNL A   1      47.272  30.630  27.414  1.00  0.00     0.029 A 
ATOM     61  N   UNL A   1      46.301  29.487  29.056  1.00  0.00    -0.354 N 
ATOM     62  N   UNL A   1      46.072  27.312  31.004  1.00  0.00    -0.248 NA
ATOM     63  C   UNL A   1      46.817  25.276  31.873  1.00  0.00     0.031 C 
ATOM     64  C   UNL A   1      48.013  29.465  27.642  1.00  0.00     0.029 A 
ATOM     65  C   UNL A   1      47.420  28.764  28.679  1.00  0.00     0.049 A 
ATOM     66  H   UNL A   1      45.678  29.230  29.773  1.00  0.00     0.167 HD
ATOM     67  C   UNL A   1      47.208  26.909  30.312  1.00  0.00     0.074 A 
ATOM     68  C   UNL A   1      47.639  25.661  30.907  1.00  0.00     0.031 C 
ATOM     69  C   UNL A   1      47.840  27.523  29.280  1.00  0.00     0.037 A 
BRANCH  56  70
ATOM     70  C   UNL A   1      45.101  32.748  27.426  1.00  0.00     0.057 A 
ATOM     71  C   UNL A   1      44.352  32.725  26.242  1.00  0.00     0.134 A 
ATOM     72  C   UNL A   1      45.843  33.904  27.699  1.00  0.00     0.134 A 
ATOM     73  F   UNL A   1      43.630  31.644  25.914  1.00  0.00    -0.206 F 
ATOM     74  C   UNL A   1      44.372  33.796  25.345  1.00  0.00     0.040 A 
ATOM     75  C   UNL A   1      45.848  34.991  26.825  1.00  0.00     0.040 A 
ATOM     76  F   UNL A   1      46.577  33.994  28.819  1.00  0.00    -0.206 F 
ATOM     77  C   UNL A   1      45.120  34.936  25.638  1.00  0.00     0.006 A 
ENDBRANCH  56  70
BRANCH  57  78
ATOM     78  C   UNL A   1      44.758  25.213  33.947  1.00  0.00     0.057 A 
ATOM     79  C   UNL A   1      45.241  25.391  35.249  1.00  0.00     0.134 A 
ATOM     80  C   UNL A   1      44.254  23.951  33.612  1.00  0.00     0.134 A 
ATOM     81  F   UNL A   1      45.756  26.571  35.622  1.00  0.00    -0.206 F 
ATOM     82  C   UNL A   1      45.229  24.351  36.180  1.00  0.00     0.040 A 
ATOM     83  C   UNL A   1      44.216  22.909  34.540  1.00  0.00     0.040 A 
ATOM     84  F   UNL A   1      43.778  23.717  32.379  1.00  0.00    -0.206 F 
ATOM     85  C   UNL A   1      44.710  23.107  35.827  1.00  0.00     0.006 A 
ENDBRANCH  57  78
BRANCH  69  86
ATOM     86  C   UNL A   1      49.084  26.871  28.748  1.00  0.00     0.057 A 
ATOM     87  C   UNL A   1      50.356  27.189  29.238  1.00  0.00     0.134 A 
ATOM     88  C   UNL A   1      49.002  25.883  27.758  1.00  0.00     0.134 A 
ATOM     89  F   UNL A   1      50.505  28.137  30.178  1.00  0.00    -0.206 F 
ATOM     90  C   UNL A   1      51.504  26.564  28.747  1.00  0.00     0.040 A 
ATOM     91  C   UNL A   1      50.140  25.233  27.278  1.00  0.00     0.040 A 
ATOM     92  F   UNL A   1      47.813  25.524  27.250  1.00  0.00    -0.206 F 
ATOM     93  C   UNL A   1      51.397  25.578  27.770  1.00  0.00     0.006 A 
ENDBRANCH  69  86
ENDBRANCH  43  44
ENDBRANCH  36  38
ENDBRANCH  35  36
ENDBRANCH  34  35
ENDBRANCH  33  34
ENDBRANCH  32  33
ENDBRANCH  31  32
ENDBRANCH  30  31
ENDBRANCH  29  30
ENDBRANCH   1  29
TORSDOF 23
ENDMDL
MODEL 2
REMARK VINA RESULT:      -8.0      2.898      7.212
REMARK SMILES CCCCCCNC(=O)Oc1cccc(-c2ccc([C@@H](C)C(=O)OCCOCCOC(=O)c3ccc(-c4c5nc(c(-c6c(F)cccc6F)c6ccc([nH]6)c(-c6c(F)cccc6F)c6nc(c(-c7c(F)cccc7F)c7ccc4[nH]7)C=C6)C=C5)cc3)cc2F)c1
REMARK SMILES IDX 22 1 23 2 20 3 21 4 19 5 16 6 17 7 88 8 18 9 87 10 89 11
REMARK SMILES IDX 15 12 11 13 12 14 90 15 13 16 14 17 10 18 8 19 7 20 9 22
REMARK SMILES IDX 6 23 5 24 4 25 3 26 2 27 1 28 24 29 25 30 26 31 27 32 28 33
REMARK SMILES IDX 29 34 30 35 31 36 32 37 33 38 34 39 86 40 35 41 85 42 36 43
REMARK SMILES IDX 37 44 38 45 79 46 39 47 84 48 78 49 80 50 40 51 83 52 77 53
REMARK SMILES IDX 76 54 41 56 67 57 50 58 66 59 51 60 54 61 65 62 81 63 52 64
REMARK SMILES IDX 53 65 64 67 82 68 55 69 42 70 43 71 48 72 44 73 45 74 47 75
REMARK SMILES IDX 49 76 46 77 68 78 69 79 74 80 70 81 71 82 73 83 75 84 72 85
REMARK SMILES IDX 56 86 57 87 62 88 58 89 59 90 61 91 63 92 60 93
REMARK H PARENT 7 21 80 55 54 66
REMARK Flexibility Score: inf
ROOT
ATOM      1  C   UNL A   1      36.619  33.452  32.571  1.00  0.00     0.313 C 
ATOM      2  O   UNL A   1      37.450  34.249  32.147  1.00  0.00    -0.252 OA
ENDROOT
BRANCH   1   3
ATOM      3  C   UNL A   1      36.868  32.627  33.824  1.00  0.00     0.126 C 
ATOM      4  C   UNL A   1      36.878  33.553  35.037  1.00  0.00     0.025 C 
BRANCH   3   5
ATOM      5  C   UNL A   1      38.054  31.667  33.829  1.00  0.00    -0.031 A 
ATOM      6  C   UNL A   1      40.154  29.731  33.962  1.00  0.00     0.018 A 
ATOM      7  C   UNL A   1      40.300  31.009  34.527  1.00  0.00     0.012 A 
ATOM      8  C   UNL A   1      38.949  29.461  33.303  1.00  0.00     0.131 A 
ATOM      9  C   UNL A   1      39.269  31.962  34.463  1.00  0.00     0.005 A 
ATOM     10  C   UNL A   1      37.918  30.403  33.235  1.00  0.00     0.044 A 
ATOM     11  F   UNL A   1      38.736  28.259  32.745  1.00  0.00    -0.206 F 
BRANCH   6  12
ATOM     12  C   UNL A   1      41.206  28.708  34.094  1.00  0.00    -0.012 A 
ATOM     13  C   UNL A   1      42.575  27.222  35.445  1.00  0.00     0.133 A 
ATOM     14  C   UNL A   1      43.290  26.810  34.324  1.00  0.00     0.047 A 
ATOM     15  C   UNL A   1      41.555  28.172  35.345  1.00  0.00     0.056 A 
ATOM     16  C   UNL A   1      42.957  27.331  33.077  1.00  0.00     0.004 A 
ATOM     17  C   UNL A   1      41.924  28.267  32.964  1.00  0.00     0.009 A 
BRANCH  13  18
ATOM     18  O   UNL A   1      43.002  26.724  36.687  1.00  0.00    -0.410 OA
BRANCH  18  19
ATOM     19  C   UNL A   1      42.477  25.512  37.107  1.00  0.00     0.412 C 
ATOM     20  N   UNL A   1      43.431  24.566  37.367  1.00  0.00    -0.321 N 
ATOM     21  H   UNL A   1      43.108  23.695  37.691  1.00  0.00     0.167 HD
ATOM     22  O   UNL A   1      41.285  25.249  37.239  1.00  0.00    -0.224 OA
BRANCH  20  23
ATOM     23  C   UNL A   1      44.867  24.707  37.219  1.00  0.00     0.119 C 
BRANCH  23  24
ATOM     24  C   UNL A   1      45.410  23.894  36.043  1.00  0.00     0.021 C 
BRANCH  24  25
ATOM     25  C   UNL A   1      44.440  22.852  35.472  1.00  0.00     0.002 C 
BRANCH  25  26
ATOM     26  C   UNL A   1      45.087  21.585  34.900  1.00  0.00    -0.000 C 
BRANCH  26  27
ATOM     27  C   UNL A   1      45.560  20.560  35.932  1.00  0.00    -0.003 C 
ATOM     28  C   UNL A   1      45.693  19.154  35.372  1.00  0.00     0.004 C 
ENDBRANCH  26  27
ENDBRANCH  25  26
ENDBRANCH  24  25
ENDBRANCH  23  24
ENDBRANCH  20  23
ENDBRANCH  18  19
ENDBRANCH  13  18
ENDBRANCH   6  12
ENDBRANCH   3   5
ENDBRANCH   1   3
BRANCH   1  29
ATOM     29  O   UNL A   1      35.429  33.192  31.968  1.00  0.00    -0.463 OA
BRANCH  29  30
ATOM     30  C   UNL A   1      34.363  34.112  32.263  1.00  0.00     0.261 C 
BRANCH  30  31
ATOM     31  C   UNL A   1      33.971  34.921  31.023  1.00  0.00     0.202 C 
BRANCH  31  32
ATOM     32  O   UNL A   1      34.597  34.541  29.799  1.00  0.00    -0.374 OA
BRANCH  32  33
ATOM     33  C   UNL A   1      33.768  34.415  28.643  1.00  0.00     0.202 C 
BRANCH  33  34
ATOM     34  C   UNL A   1      33.747  33.045  27.954  1.00  0.00     0.261 C 
BRANCH  34  35
ATOM     35  O   UNL A   1      34.437  32.037  28.712  1.00  0.00    -0.460 OA
BRANCH  35  36
ATOM     36  C   UNL A   1      34.449  30.810  28.134  1.00  0.00     0.338 C 
ATOM     37  O   UNL A   1      33.585  30.314  27.435  1.00  0.00    -0.246 OA
BRANCH  36  38
ATOM     38  C   UNL A   1      35.775  30.182  28.302  1.00  0.00     0.060 A 
ATOM     39  C   UNL A   1      36.084  29.684  29.574  1.00  0.00     0.016 A 
ATOM     40  C   UNL A   1      36.727  30.160  27.281  1.00  0.00     0.016 A 
ATOM     41  C   UNL A   1      37.370  29.228  29.852  1.00  0.00     0.010 A 
ATOM     42  C   UNL A   1      38.020  29.702  27.562  1.00  0.00     0.010 A 
ATOM     43  C   UNL A   1      38.358  29.278  28.862  1.00  0.00    -0.014 A 
BRANCH  43  44
ATOM     44  C   UNL A   1      39.773  29.053  29.251  1.00  0.00     0.031 A 
ATOM     45  C   UNL A   1      40.450  27.776  28.830  1.00  0.00     0.074 A 
ATOM     46  C   UNL A   1      40.472  30.000  29.899  1.00  0.00     0.049 A 
ATOM     47  N   UNL A   1      41.688  27.391  29.014  1.00  0.00    -0.248 NA
ATOM     48  C   UNL A   1      39.620  26.806  28.099  1.00  0.00     0.031 C 
ATOM     49  C   UNL A   1      39.947  31.299  30.316  1.00  0.00     0.029 A 
ATOM     50  N   UNL A   1      41.782  30.018  30.307  1.00  0.00    -0.354 N 
ATOM     51  C   UNL A   1      41.785  26.138  28.424  1.00  0.00     0.074 A 
ATOM     52  C   UNL A   1      40.472  25.808  27.913  1.00  0.00     0.031 C 
ATOM     53  C   UNL A   1      40.930  31.993  30.913  1.00  0.00     0.029 A 
ATOM     54  C   UNL A   1      42.144  31.178  30.943  1.00  0.00     0.049 A 
ATOM     55  H   UNL A   1      42.403  29.268  30.157  1.00  0.00     0.167 HD
ATOM     56  C   UNL A   1      42.872  25.337  28.302  1.00  0.00     0.037 A 
ATOM     57  C   UNL A   1      43.321  31.540  31.490  1.00  0.00     0.037 A 
ATOM     58  C   UNL A   1      44.178  25.660  28.813  1.00  0.00     0.049 A 
ATOM     59  C   UNL A   1      44.492  30.598  31.422  1.00  0.00     0.074 A 
ATOM     60  C   UNL A   1      45.345  24.919  28.732  1.00  0.00     0.029 A 
ATOM     61  N   UNL A   1      44.486  26.817  29.512  1.00  0.00    -0.354 N 
ATOM     62  N   UNL A   1      44.578  29.425  30.843  1.00  0.00    -0.248 NA
ATOM     63  C   UNL A   1      45.731  31.033  32.083  1.00  0.00     0.031 C 
ATOM     64  C   UNL A   1      46.347  25.607  29.425  1.00  0.00     0.029 A 
ATOM     65  C   UNL A   1      45.818  26.799  29.893  1.00  0.00     0.049 A 
ATOM     66  H   UNL A   1      43.853  27.544  29.708  1.00  0.00     0.167 HD
ATOM     67  C   UNL A   1      45.885  28.995  31.043  1.00  0.00     0.074 A 
ATOM     68  C   UNL A   1      46.557  30.038  31.791  1.00  0.00     0.031 C 
ATOM     69  C   UNL A   1      46.476  27.844  30.637  1.00  0.00     0.037 A 
BRANCH  56  70
ATOM     70  C   UNL A   1      42.675  24.020  27.608  1.00  0.00     0.057 A 
ATOM     71  C   UNL A   1      42.404  22.842  28.317  1.00  0.00     0.134 A 
ATOM     72  C   UNL A   1      42.759  23.929  26.212  1.00  0.00     0.134 A 
ATOM     73  F   UNL A   1      42.323  22.857  29.655  1.00  0.00    -0.206 F 
ATOM     74  C   UNL A   1      42.260  21.615  27.666  1.00  0.00     0.040 A 
ATOM     75  C   UNL A   1      42.589  22.714  25.549  1.00  0.00     0.040 A 
ATOM     76  F   UNL A   1      43.010  25.020  25.473  1.00  0.00    -0.206 F 
ATOM     77  C   UNL A   1      42.349  21.549  26.276  1.00  0.00     0.006 A 
ENDBRANCH  56  70
BRANCH  57  78
ATOM     78  C   UNL A   1      43.456  32.867  32.140  1.00  0.00     0.057 A 
ATOM     79  C   UNL A   1      43.691  34.021  31.385  1.00  0.00     0.134 A 
ATOM     80  C   UNL A   1      43.354  33.013  33.529  1.00  0.00     0.134 A 
ATOM     81  F   UNL A   1      43.820  33.942  30.053  1.00  0.00    -0.206 F 
ATOM     82  C   UNL A   1      43.827  35.273  31.988  1.00  0.00     0.040 A 
ATOM     83  C   UNL A   1      43.466  34.261  34.143  1.00  0.00     0.040 A 
ATOM     84  F   UNL A   1      43.131  31.943  34.308  1.00  0.00    -0.206 F 
ATOM     85  C   UNL A   1      43.709  35.395  33.372  1.00  0.00     0.006 A 
ENDBRANCH  57  78
BRANCH  69  86
ATOM     86  C   UNL A   1      47.930  27.662  30.965  1.00  0.00     0.057 A 
ATOM     87  C   UNL A   1      48.351  27.005  32.128  1.00  0.00     0.134 A 
ATOM     88  C   UNL A   1      48.921  28.118  30.086  1.00  0.00     0.134 A 
ATOM     89  F   UNL A   1      47.453  26.556  33.018  1.00  0.00    -0.206 F 
ATOM     90  C   UNL A   1      49.706  26.826  32.415  1.00  0.00     0.040 A 
ATOM     91  C   UNL A   1      50.277  27.922  30.349  1.00  0.00     0.040 A 
ATOM     92  F   UNL A   1      48.586  28.748  28.950  1.00  0.00    -0.206 F 
ATOM     93  C   UNL A   1      50.673  27.279  31.520  1.00  0.00     0.006 A 
ENDBRANCH  69  86
ENDBRANCH  43  44
ENDBRANCH  36  38
ENDBRANCH  35  36
ENDBRANCH  34  35
ENDBRANCH  33  34
ENDBRANCH  32  33
ENDBRANCH  31  32
ENDBRANCH  30  31
ENDBRANCH  29  30
ENDBRANCH   1  29
TORSDOF 23
ENDMDL
MODEL 3
REMARK VINA RESULT:      -7.9      1.600      2.849
REMARK SMILES CCCCCCNC(=O)Oc1cccc(-c2ccc([C@@H](C)C(=O)OCCOCCOC(=O)c3ccc(-c4c5nc(c(-c6c(F)cccc6F)c6ccc([nH]6)c(-c6c(F)cccc6F)c6nc(c(-c7c(F)cccc7F)c7ccc4[nH]7)C=C6)C=C5)cc3)cc2F)c1
REMARK SMILES IDX 22 1 23 2 20 3 21 4 19 5 16 6 17 7 88 8 18 9 87 10 89 11
REMARK SMILES IDX 15 12 11 13 12 14 90 15 13 16 14 17 10 18 8 19 7 20 9 22
REMARK SMILES IDX 6 23 5 24 4 25 3 26 2 27 1 28 24 29 25 30 26 31 27 32 28 33
REMARK SMILES IDX 29 34 30 35 31 36 32 37 33 38 34 39 86 40 35 41 85 42 36 43
REMARK SMILES IDX 37 44 38 45 79 46 39 47 84 48 78 49 80 50 40 51 83 52 77 53
REMARK SMILES IDX 76 54 41 56 67 57 50 58 66 59 51 60 54 61 65 62 81 63 52 64
REMARK SMILES IDX 53 65 64 67 82 68 55 69 42 70 43 71 48 72 44 73 45 74 47 75
REMARK SMILES IDX 49 76 46 77 68 78 69 79 74 80 70 81 71 82 73 83 75 84 72 85
REMARK SMILES IDX 56 86 57 87 62 88 58 89 59 90 61 91 63 92 60 93
REMARK H PARENT 7 21 80 55 54 66
REMARK Flexibility Score: inf
ROOT
ATOM      1  C   UNL A   1      34.023  34.521  30.109  1.00  0.00     0.313 C 
ATOM      2  O   UNL A   1      32.882  34.893  29.852  1.00  0.00    -0.252 OA
ENDROOT
BRANCH   1   3
ATOM      3  C   UNL A   1      35.108  34.474  29.044  1.00  0.00     0.126 C 
ATOM      4  C   UNL A   1      34.467  34.651  27.671  1.00  0.00     0.025 C 
BRANCH   3   5
ATOM      5  C   UNL A   1      36.090  33.307  29.069  1.00  0.00    -0.031 A 
ATOM      6  C   UNL A   1      37.778  31.004  29.233  1.00  0.00     0.018 A 
ATOM      7  C   UNL A   1      38.140  32.221  29.835  1.00  0.00     0.012 A 
ATOM      8  C   UNL A   1      36.572  30.980  28.523  1.00  0.00     0.131 A 
ATOM      9  C   UNL A   1      37.312  33.354  29.756  1.00  0.00     0.005 A 
ATOM     10  C   UNL A   1      35.742  32.101  28.440  1.00  0.00     0.044 A 
ATOM     11  F   UNL A   1      36.159  29.850  27.928  1.00  0.00    -0.206 F 
BRANCH   6  12
ATOM     12  C   UNL A   1      38.611  29.798  29.379  1.00  0.00    -0.012 A 
ATOM     13  C   UNL A   1      40.629  28.531  28.896  1.00  0.00     0.133 A 
ATOM     14  C   UNL A   1      40.149  27.435  29.607  1.00  0.00     0.047 A 
ATOM     15  C   UNL A   1      39.870  29.697  28.763  1.00  0.00     0.056 A 
ATOM     16  C   UNL A   1      38.904  27.518  30.225  1.00  0.00     0.004 A 
ATOM     17  C   UNL A   1      38.146  28.689  30.113  1.00  0.00     0.009 A 
BRANCH  13  18
ATOM     18  O   UNL A   1      41.854  28.366  28.229  1.00  0.00    -0.410 OA
BRANCH  18  19
ATOM     19  C   UNL A   1      41.854  27.615  27.064  1.00  0.00     0.412 C 
ATOM     20  N   UNL A   1      42.645  26.502  27.134  1.00  0.00    -0.321 N 
ATOM     21  H   UNL A   1      42.659  25.924  26.337  1.00  0.00     0.167 HD
ATOM     22  O   UNL A   1      41.236  27.879  26.036  1.00  0.00    -0.224 OA
BRANCH  20  23
ATOM     23  C   UNL A   1      43.466  26.079  28.253  1.00  0.00     0.119 C 
BRANCH  23  24
ATOM     24  C   UNL A   1      43.047  24.711  28.793  1.00  0.00     0.021 C 
BRANCH  24  25
ATOM     25  C   UNL A   1      43.994  23.557  28.441  1.00  0.00     0.002 C 
BRANCH  25  26
ATOM     26  C   UNL A   1      45.236  23.942  27.629  1.00  0.00    -0.000 C 
BRANCH  26  27
ATOM     27  C   UNL A   1      45.371  23.259  26.266  1.00  0.00    -0.003 C 
ATOM     28  C   UNL A   1      44.611  23.967  25.156  1.00  0.00     0.004 C 
ENDBRANCH  26  27
ENDBRANCH  25  26
ENDBRANCH  24  25
ENDBRANCH  23  24
ENDBRANCH  20  23
ENDBRANCH  18  19
ENDBRANCH  13  18
ENDBRANCH   6  12
ENDBRANCH   3   5
ENDBRANCH   1   3
BRANCH   1  29
ATOM     29  O   UNL A   1      34.431  34.085  31.330  1.00  0.00    -0.463 OA
BRANCH  29  30
ATOM     30  C   UNL A   1      33.761  34.670  32.461  1.00  0.00     0.261 C 
BRANCH  30  31
ATOM     31  C   UNL A   1      34.764  35.115  33.529  1.00  0.00     0.202 C 
BRANCH  31  32
ATOM     32  O   UNL A   1      36.104  35.321  33.088  1.00  0.00    -0.374 OA
BRANCH  32  33
ATOM     33  C   UNL A   1      37.108  34.436  33.584  1.00  0.00     0.202 C 
BRANCH  33  34
ATOM     34  C   UNL A   1      36.673  33.426  34.653  1.00  0.00     0.261 C 
BRANCH  34  35
ATOM     35  O   UNL A   1      37.695  33.191  35.637  1.00  0.00    -0.460 OA
BRANCH  35  36
ATOM     36  C   UNL A   1      38.126  31.907  35.703  1.00  0.00     0.338 C 
ATOM     37  O   UNL A   1      37.660  31.005  36.374  1.00  0.00    -0.246 OA
BRANCH  36  38
ATOM     38  C   UNL A   1      39.163  31.665  34.679  1.00  0.00     0.060 A 
ATOM     39  C   UNL A   1      38.844  30.764  33.655  1.00  0.00     0.016 A 
ATOM     40  C   UNL A   1      40.440  32.223  34.762  1.00  0.00     0.016 A 
ATOM     41  C   UNL A   1      39.823  30.361  32.751  1.00  0.00     0.010 A 
ATOM     42  C   UNL A   1      41.423  31.817  33.851  1.00  0.00     0.010 A 
ATOM     43  C   UNL A   1      41.130  30.849  32.872  1.00  0.00    -0.014 A 
BRANCH  43  44
ATOM     44  C   UNL A   1      42.210  30.205  32.083  1.00  0.00     0.031 A 
ATOM     45  C   UNL A   1      42.783  30.936  30.898  1.00  0.00     0.074 A 
ATOM     46  C   UNL A   1      42.731  29.024  32.458  1.00  0.00     0.049 A 
ATOM     47  N   UNL A   1      43.760  30.588  30.100  1.00  0.00    -0.248 NA
ATOM     48  C   UNL A   1      42.173  32.235  30.575  1.00  0.00     0.031 C 
ATOM     49  C   UNL A   1      42.299  28.241  33.614  1.00  0.00     0.029 A 
ATOM     50  N   UNL A   1      43.748  28.285  31.909  1.00  0.00    -0.354 N 
ATOM     51  C   UNL A   1      43.883  31.624  29.182  1.00  0.00     0.074 A 
ATOM     52  C   UNL A   1      42.854  32.592  29.495  1.00  0.00     0.031 C 
ATOM     53  C   UNL A   1      43.056  27.134  33.695  1.00  0.00     0.029 A 
ATOM     54  C   UNL A   1      44.005  27.118  32.582  1.00  0.00     0.049 A 
ATOM     55  H   UNL A   1      44.246  28.566  31.107  1.00  0.00     0.167 HD
ATOM     56  C   UNL A   1      44.781  31.767  28.177  1.00  0.00     0.037 A 
ATOM     57  C   UNL A   1      44.902  26.146  32.328  1.00  0.00     0.037 A 
ATOM     58  C   UNL A   1      45.803  30.804  27.859  1.00  0.00     0.049 A 
ATOM     59  C   UNL A   1      45.832  26.283  31.152  1.00  0.00     0.074 A 
ATOM     60  C   UNL A   1      46.767  30.862  26.867  1.00  0.00     0.029 A 
ATOM     61  N   UNL A   1      45.986  29.601  28.525  1.00  0.00    -0.354 N 
ATOM     62  N   UNL A   1      45.953  27.275  30.304  1.00  0.00    -0.248 NA
ATOM     63  C   UNL A   1      46.751  25.162  30.901  1.00  0.00     0.031 C 
ATOM     64  C   UNL A   1      47.500  29.671  26.902  1.00  0.00     0.029 A 
ATOM     65  C   UNL A   1      47.028  28.894  27.947  1.00  0.00     0.049 A 
ATOM     66  H   UNL A   1      45.454  29.295  29.294  1.00  0.00     0.167 HD
ATOM     67  C   UNL A   1      46.979  26.914  29.438  1.00  0.00     0.074 A 
ATOM     68  C   UNL A   1      47.451  25.614  29.870  1.00  0.00     0.031 C 
ATOM     69  C   UNL A   1      47.489  27.601  28.386  1.00  0.00     0.037 A 
BRANCH  56  70
ATOM     70  C   UNL A   1      44.671  33.005  27.334  1.00  0.00     0.057 A 
ATOM     71  C   UNL A   1      45.246  34.221  27.725  1.00  0.00     0.134 A 
ATOM     72  C   UNL A   1      43.978  32.980  26.116  1.00  0.00     0.134 A 
ATOM     73  F   UNL A   1      45.911  34.317  28.885  1.00  0.00    -0.206 F 
ATOM     74  C   UNL A   1      45.106  35.377  26.953  1.00  0.00     0.040 A 
ATOM     75  C   UNL A   1      43.855  34.121  25.323  1.00  0.00     0.040 A 
ATOM     76  F   UNL A   1      43.408  31.846  25.680  1.00  0.00    -0.206 F 
ATOM     77  C   UNL A   1      44.410  35.327  25.745  1.00  0.00     0.006 A 
ENDBRANCH  56  70
BRANCH  57  78
ATOM     78  C   UNL A   1      44.976  24.958  33.214  1.00  0.00     0.057 A 
ATOM     79  C   UNL A   1      45.705  24.992  34.408  1.00  0.00     0.134 A 
ATOM     80  C   UNL A   1      44.322  23.764  32.890  1.00  0.00     0.134 A 
ATOM     81  F   UNL A   1      46.371  26.101  34.761  1.00  0.00    -0.206 F 
ATOM     82  C   UNL A   1      45.787  23.878  35.245  1.00  0.00     0.040 A 
ATOM     83  C   UNL A   1      44.377  22.650  33.729  1.00  0.00     0.040 A 
ATOM     84  F   UNL A   1      43.608  23.668  31.758  1.00  0.00    -0.206 F 
ATOM     85  C   UNL A   1      45.116  22.704  34.908  1.00  0.00     0.006 A 
ENDBRANCH  57  78
BRANCH  69  86
ATOM     86  C   UNL A   1      48.636  26.977  27.645  1.00  0.00     0.057 A 
ATOM     87  C   UNL A   1      48.447  26.249  26.464  1.00  0.00     0.134 A 
ATOM     88  C   UNL A   1      49.951  27.140  28.100  1.00  0.00     0.134 A 
ATOM     89  F   UNL A   1      47.211  26.044  25.981  1.00  0.00    -0.206 F 
ATOM     90  C   UNL A   1      49.523  25.687  25.773  1.00  0.00     0.040 A 
ATOM     91  C   UNL A   1      51.036  26.606  27.404  1.00  0.00     0.040 A 
ATOM     92  F   UNL A   1      50.203  27.833  29.221  1.00  0.00    -0.206 F 
ATOM     93  C   UNL A   1      50.823  25.871  26.240  1.00  0.00     0.006 A 
ENDBRANCH  69  86
ENDBRANCH  43  44
ENDBRANCH  36  38
ENDBRANCH  35  36
ENDBRANCH  34  35
ENDBRANCH  33  34
ENDBRANCH  32  33
ENDBRANCH  31  32
ENDBRANCH  30  31
ENDBRANCH  29  30
ENDBRANCH   1  29
TORSDOF 23
ENDMDL
