MODEL 1
REMARK VINA RESULT:     -11.0      0.000      0.000
REMARK SMILES O=C(CCC(=O)OCCOCCOC(=O)c1ccc(-c2c3nc(c(-c4c(F)cccc4F)c4ccc([nH]4)c(-c4c(F)cccc4F)c4nc(c(-c5c(F)cccc5F)c5ccc2[nH]5)C=C4)C=C3)cc1)/[NH+]=C1\S[C@H]2CS(=O)(=O)C[C@@H]2N1c1ccc2c(c1)OCO2
REMARK SMILES IDX 9 1 8 2 7 3 5 4 6 5 4 6 3 7 2 8 1 9 70 10 71 11 72 13 80 14
REMARK SMILES IDX 73 15 79 16 74 17 78 18 75 19 76 20 77 21 81 22 82 23 86 24
REMARK SMILES IDX 83 25 85 26 84 27 87 28 89 29 88 30 10 31 11 32 12 33 13 34
REMARK SMILES IDX 14 35 15 36 16 37 17 38 69 39 18 40 68 41 19 42 20 43 21 44
REMARK SMILES IDX 62 45 22 46 67 47 61 48 63 49 23 50 66 51 60 52 59 53 24 55
REMARK SMILES IDX 50 56 33 57 49 58 34 59 37 60 48 61 64 62 35 63 36 64 47 66
REMARK SMILES IDX 65 67 38 68 25 69 26 70 31 71 27 72 28 73 30 74 32 75 29 76
REMARK SMILES IDX 51 77 52 78 57 79 53 80 54 81 56 82 58 83 55 84 39 85 40 86
REMARK SMILES IDX 45 87 41 88 42 89 44 90 46 91 43 92
REMARK H PARENT 70 12 63 54 37 65
REMARK Flexibility Score: inf
ROOT
ATOM      1  C   UNL A   1      33.444  24.600  25.412  1.00  0.00     0.202 C 
ENDROOT
BRANCH   1   2
ATOM      2  C   UNL A   1      34.846  24.353  24.797  1.00  0.00     0.261 C 
BRANCH   2   3
ATOM      3  O   UNL A   1      35.085  22.953  24.661  1.00  0.00    -0.463 OA
BRANCH   3   4
ATOM      4  C   UNL A   1      36.405  22.714  24.532  1.00  0.00     0.306 C 
ATOM      5  O   UNL A   1      37.068  23.043  23.557  1.00  0.00    -0.252 OA
BRANCH   4   6
ATOM      6  C   UNL A   1      36.956  22.075  25.774  1.00  0.00     0.135 C 
BRANCH   6   7
ATOM      7  C   UNL A   1      38.475  21.814  25.815  1.00  0.00     0.139 C 
BRANCH   7   8
ATOM      8  C   UNL A   1      39.573  22.818  26.203  1.00  0.00     0.308 C 
ATOM      9  O   UNL A   1      39.179  23.760  26.901  1.00  0.00    -0.247 OA
ATOM     10  N   UNL A   1      40.936  22.783  25.859  1.00  0.00    -0.204 N 
ATOM     11  C   UNL A   1      41.887  21.918  26.074  1.00  0.00     0.319 C 
ATOM     12  H   UNL A   1      41.232  23.573  25.354  1.00  0.00     0.316 HD
ATOM     13  S   UNL A   1      41.733  20.207  26.547  1.00  0.00    -0.029 SA
ATOM     14  N   UNL A   1      43.288  22.124  25.952  1.00  0.00    -0.216 N 
ATOM     15  C   UNL A   1      43.320  19.682  25.965  1.00  0.00     0.120 C 
ATOM     16  C   UNL A   1      43.880  20.934  25.295  1.00  0.00     0.212 C 
ATOM     17  C   UNL A   1      43.574  18.569  24.981  1.00  0.00     0.156 C 
ATOM     18  C   UNL A   1      45.358  20.634  25.228  1.00  0.00     0.188 C 
ATOM     19  S   UNL A   1      45.309  18.922  24.591  1.00  0.00     0.155 S 
ATOM     20  O   UNL A   1      46.134  18.085  25.415  1.00  0.00    -0.229 OA
ATOM     21  O   UNL A   1      45.429  18.967  23.140  1.00  0.00    -0.229 OA
BRANCH  14  22
ATOM     22  C   UNL A   1      43.935  22.584  27.140  1.00  0.00     0.132 A 
ATOM     23  C   UNL A   1      45.038  23.458  27.051  1.00  0.00     0.056 A 
ATOM     24  C   UNL A   1      43.391  22.352  28.418  1.00  0.00     0.102 A 
ATOM     25  C   UNL A   1      45.549  24.112  28.191  1.00  0.00     0.055 A 
ATOM     26  C   UNL A   1      43.882  23.021  29.504  1.00  0.00     0.170 A 
ATOM     27  C   UNL A   1      44.915  23.905  29.397  1.00  0.00     0.166 A 
ATOM     28  O   UNL A   1      43.324  22.983  30.742  1.00  0.00    -0.453 OA
ATOM     29  O   UNL A   1      45.111  24.567  30.570  1.00  0.00    -0.454 OA
ATOM     30  C   UNL A   1      43.906  24.183  31.272  1.00  0.00     0.468 C 
ENDBRANCH  14  22
ENDBRANCH   7   8
ENDBRANCH   6   7
ENDBRANCH   4   6
ENDBRANCH   3   4
ENDBRANCH   2   3
ENDBRANCH   1   2
BRANCH   1  31
ATOM     31  O   UNL A   1      33.106  25.891  25.935  1.00  0.00    -0.374 OA
BRANCH  31  32
ATOM     32  C   UNL A   1      33.033  27.049  25.056  1.00  0.00     0.202 C 
BRANCH  32  33
ATOM     33  C   UNL A   1      32.271  28.511  25.235  1.00  0.00     0.261 C 
BRANCH  33  34
ATOM     34  O   UNL A   1      31.915  29.153  26.533  1.00  0.00    -0.460 OA
BRANCH  34  35
ATOM     35  C   UNL A   1      32.422  30.427  26.799  1.00  0.00     0.338 C 
ATOM     36  O   UNL A   1      31.754  31.451  26.695  1.00  0.00    -0.246 OA
BRANCH  35  37
ATOM     37  C   UNL A   1      33.858  30.522  27.338  1.00  0.00     0.060 A 
ATOM     38  C   UNL A   1      34.582  29.391  27.709  1.00  0.00     0.016 A 
ATOM     39  C   UNL A   1      34.438  31.726  27.747  1.00  0.00     0.016 A 
ATOM     40  C   UNL A   1      35.848  29.408  28.343  1.00  0.00     0.010 A 
ATOM     41  C   UNL A   1      35.727  31.764  28.383  1.00  0.00     0.010 A 
ATOM     42  C   UNL A   1      36.469  30.599  28.687  1.00  0.00    -0.014 A 
BRANCH  42  43
ATOM     43  C   UNL A   1      37.783  30.609  29.449  1.00  0.00     0.031 A 
ATOM     44  C   UNL A   1      38.991  29.892  28.874  1.00  0.00     0.074 A 
ATOM     45  C   UNL A   1      37.989  31.305  30.597  1.00  0.00     0.049 A 
ATOM     46  N   UNL A   1      40.153  29.613  29.417  1.00  0.00    -0.248 NA
ATOM     47  C   UNL A   1      38.889  29.478  27.469  1.00  0.00     0.031 C 
ATOM     48  C   UNL A   1      37.046  32.227  31.234  1.00  0.00     0.029 A 
ATOM     49  N   UNL A   1      39.077  31.322  31.459  1.00  0.00    -0.354 N 
ATOM     50  C   UNL A   1      40.902  28.986  28.425  1.00  0.00     0.074 A 
ATOM     51  C   UNL A   1      40.091  28.975  27.231  1.00  0.00     0.031 C 
ATOM     52  C   UNL A   1      37.574  32.682  32.385  1.00  0.00     0.029 A 
ATOM     53  C   UNL A   1      38.849  32.013  32.632  1.00  0.00     0.049 A 
ATOM     54  H   UNL A   1      39.932  30.881  31.252  1.00  0.00     0.167 HD
ATOM     55  C   UNL A   1      42.129  28.414  28.504  1.00  0.00     0.037 A 
ATOM     56  C   UNL A   1      39.529  32.038  33.803  1.00  0.00     0.037 A 
ATOM     57  C   UNL A   1      42.922  28.353  29.700  1.00  0.00     0.049 A 
ATOM     58  C   UNL A   1      40.784  31.204  33.956  1.00  0.00     0.074 A 
ATOM     59  C   UNL A   1      44.119  27.688  29.912  1.00  0.00     0.029 A 
ATOM     60  N   UNL A   1      42.587  28.967  30.893  1.00  0.00    -0.354 N 
ATOM     61  N   UNL A   1      41.433  30.510  33.053  1.00  0.00    -0.248 NA
ATOM     62  C   UNL A   1      41.385  31.128  35.301  1.00  0.00     0.031 C 
ATOM     63  C   UNL A   1      44.474  27.848  31.253  1.00  0.00     0.029 A 
ATOM     64  C   UNL A   1      43.536  28.671  31.855  1.00  0.00     0.049 A 
ATOM     65  H   UNL A   1      41.792  29.529  31.037  1.00  0.00     0.167 HD
ATOM     66  C   UNL A   1      42.526  29.952  33.709  1.00  0.00     0.074 A 
ATOM     67  C   UNL A   1      42.464  30.389  35.085  1.00  0.00     0.031 C 
ATOM     68  C   UNL A   1      43.495  29.146  33.212  1.00  0.00     0.037 A 
BRANCH  55  69
ATOM     69  C   UNL A   1      42.633  27.689  27.290  1.00  0.00     0.057 A 
ATOM     70  C   UNL A   1      43.575  28.245  26.418  1.00  0.00     0.134 A 
ATOM     71  C   UNL A   1      42.177  26.393  27.011  1.00  0.00     0.134 A 
ATOM     72  F   UNL A   1      44.035  29.489  26.617  1.00  0.00    -0.206 F 
ATOM     73  C   UNL A   1      44.035  27.542  25.301  1.00  0.00     0.040 A 
ATOM     74  C   UNL A   1      42.644  25.674  25.912  1.00  0.00     0.040 A 
ATOM     75  F   UNL A   1      41.274  25.804  27.809  1.00  0.00    -0.206 F 
ATOM     76  C   UNL A   1      43.573  26.251  25.049  1.00  0.00     0.006 A 
ENDBRANCH  55  69
BRANCH  56  77
ATOM     77  C   UNL A   1      38.981  32.752  35.001  1.00  0.00     0.057 A 
ATOM     78  C   UNL A   1      39.309  34.085  35.291  1.00  0.00     0.134 A 
ATOM     79  C   UNL A   1      38.203  32.076  35.952  1.00  0.00     0.134 A 
ATOM     80  F   UNL A   1      40.092  34.786  34.457  1.00  0.00    -0.206 F 
ATOM     81  C   UNL A   1      38.907  34.703  36.481  1.00  0.00     0.040 A 
ATOM     82  C   UNL A   1      37.761  32.693  37.126  1.00  0.00     0.040 A 
ATOM     83  F   UNL A   1      37.872  30.789  35.767  1.00  0.00    -0.206 F 
ATOM     84  C   UNL A   1      38.125  34.007  37.400  1.00  0.00     0.006 A 
ENDBRANCH  56  77
BRANCH  68  85
ATOM     85  C   UNL A   1      44.619  28.736  34.118  1.00  0.00     0.057 A 
ATOM     86  C   UNL A   1      45.760  29.525  34.297  1.00  0.00     0.134 A 
ATOM     87  C   UNL A   1      44.504  27.578  34.899  1.00  0.00     0.134 A 
ATOM     88  F   UNL A   1      45.935  30.643  33.577  1.00  0.00    -0.206 F 
ATOM     89  C   UNL A   1      46.750  29.175  35.219  1.00  0.00     0.040 A 
ATOM     90  C   UNL A   1      45.473  27.231  35.841  1.00  0.00     0.040 A 
ATOM     91  F   UNL A   1      43.429  26.783  34.784  1.00  0.00    -0.206 F 
ATOM     92  C   UNL A   1      46.601  28.031  36.002  1.00  0.00     0.006 A 
ENDBRANCH  68  85
ENDBRANCH  42  43
ENDBRANCH  35  37
ENDBRANCH  34  35
ENDBRANCH  33  34
ENDBRANCH  32  33
ENDBRANCH  31  32
ENDBRANCH   1  31
TORSDOF 17
ENDMDL
MODEL 2
REMARK VINA RESULT:     -10.8      2.488      8.903
REMARK SMILES O=C(CCC(=O)OCCOCCOC(=O)c1ccc(-c2c3nc(c(-c4c(F)cccc4F)c4ccc([nH]4)c(-c4c(F)cccc4F)c4nc(c(-c5c(F)cccc5F)c5ccc2[nH]5)C=C4)C=C3)cc1)/[NH+]=C1\S[C@H]2CS(=O)(=O)C[C@@H]2N1c1ccc2c(c1)OCO2
REMARK SMILES IDX 9 1 8 2 7 3 5 4 6 5 4 6 3 7 2 8 1 9 70 10 71 11 72 13 80 14
REMARK SMILES IDX 73 15 79 16 74 17 78 18 75 19 76 20 77 21 81 22 82 23 86 24
REMARK SMILES IDX 83 25 85 26 84 27 87 28 89 29 88 30 10 31 11 32 12 33 13 34
REMARK SMILES IDX 14 35 15 36 16 37 17 38 69 39 18 40 68 41 19 42 20 43 21 44
REMARK SMILES IDX 62 45 22 46 67 47 61 48 63 49 23 50 66 51 60 52 59 53 24 55
REMARK SMILES IDX 50 56 33 57 49 58 34 59 37 60 48 61 64 62 35 63 36 64 47 66
REMARK SMILES IDX 65 67 38 68 25 69 26 70 31 71 27 72 28 73 30 74 32 75 29 76
REMARK SMILES IDX 51 77 52 78 57 79 53 80 54 81 56 82 58 83 55 84 39 85 40 86
REMARK SMILES IDX 45 87 41 88 42 89 44 90 46 91 43 92
REMARK H PARENT 70 12 63 54 37 65
REMARK Flexibility Score: inf
ROOT
ATOM      1  C   UNL A   1      44.177  20.135  25.412  1.00  0.00     0.202 C 
ENDROOT
BRANCH   1   2
ATOM      2  C   UNL A   1      42.730  20.332  25.934  1.00  0.00     0.261 C 
BRANCH   2   3
ATOM      3  O   UNL A   1      42.446  21.722  26.087  1.00  0.00    -0.463 OA
BRANCH   3   4
ATOM      4  C   UNL A   1      42.094  21.990  27.360  1.00  0.00     0.306 C 
ATOM      5  O   UNL A   1      42.891  22.260  28.248  1.00  0.00    -0.252 OA
BRANCH   4   6
ATOM      6  C   UNL A   1      40.600  21.999  27.510  1.00  0.00     0.135 C 
BRANCH   6   7
ATOM      7  C   UNL A   1      39.785  22.659  26.380  1.00  0.00     0.139 C 
BRANCH   7   8
ATOM      8  C   UNL A   1      38.716  23.755  26.532  1.00  0.00     0.308 C 
ATOM      9  O   UNL A   1      39.168  24.906  26.556  1.00  0.00    -0.247 OA
ATOM     10  N   UNL A   1      37.324  23.594  26.644  1.00  0.00    -0.204 N 
ATOM     11  C   UNL A   1      36.423  23.061  25.869  1.00  0.00     0.319 C 
ATOM     12  H   UNL A   1      36.954  23.961  27.479  1.00  0.00     0.316 HD
ATOM     13  S   UNL A   1      36.668  21.932  24.511  1.00  0.00    -0.029 SA
ATOM     14  N   UNL A   1      35.013  23.227  25.937  1.00  0.00    -0.216 N 
ATOM     15  C   UNL A   1      35.036  21.246  24.508  1.00  0.00     0.120 C 
ATOM     16  C   UNL A   1      34.376  21.906  25.715  1.00  0.00     0.212 C 
ATOM     17  C   UNL A   1      34.695  19.784  24.631  1.00  0.00     0.156 C 
ATOM     18  C   UNL A   1      32.907  21.696  25.439  1.00  0.00     0.188 C 
ATOM     19  S   UNL A   1      32.920  19.930  24.966  1.00  0.00     0.155 S 
ATOM     20  O   UNL A   1      32.213  19.766  23.727  1.00  0.00    -0.229 OA
ATOM     21  O   UNL A   1      32.633  19.136  26.152  1.00  0.00    -0.229 OA
BRANCH  14  22
ATOM     22  C   UNL A   1      34.498  24.319  25.175  1.00  0.00     0.132 A 
ATOM     23  C   UNL A   1      34.457  24.241  23.767  1.00  0.00     0.056 A 
ATOM     24  C   UNL A   1      33.843  25.407  25.785  1.00  0.00     0.102 A 
ATOM     25  C   UNL A   1      33.748  25.189  23.001  1.00  0.00     0.055 A 
ATOM     26  C   UNL A   1      33.136  26.295  25.025  1.00  0.00     0.170 A 
ATOM     27  C   UNL A   1      33.058  26.179  23.668  1.00  0.00     0.166 A 
ATOM     28  O   UNL A   1      32.347  27.278  25.532  1.00  0.00    -0.453 OA
ATOM     29  O   UNL A   1      32.167  27.069  23.154  1.00  0.00    -0.454 OA
ATOM     30  C   UNL A   1      31.530  27.510  24.375  1.00  0.00     0.468 C 
ENDBRANCH  14  22
ENDBRANCH   7   8
ENDBRANCH   6   7
ENDBRANCH   4   6
ENDBRANCH   3   4
ENDBRANCH   2   3
ENDBRANCH   1   2
BRANCH   1  31
ATOM     31  O   UNL A   1      44.487  20.401  24.038  1.00  0.00    -0.374 OA
BRANCH  31  32
ATOM     32  C   UNL A   1      44.894  21.733  23.615  1.00  0.00     0.202 C 
BRANCH  32  33
ATOM     33  C   UNL A   1      45.160  23.122  24.480  1.00  0.00     0.261 C 
BRANCH  33  34
ATOM     34  O   UNL A   1      44.175  24.223  24.682  1.00  0.00    -0.460 OA
BRANCH  34  35
ATOM     35  C   UNL A   1      44.648  25.456  25.135  1.00  0.00     0.338 C 
ATOM     36  O   UNL A   1      45.600  26.039  24.626  1.00  0.00    -0.246 OA
BRANCH  35  37
ATOM     37  C   UNL A   1      43.866  26.145  26.264  1.00  0.00     0.060 A 
ATOM     38  C   UNL A   1      44.369  27.258  26.937  1.00  0.00     0.016 A 
ATOM     39  C   UNL A   1      42.750  25.568  26.878  1.00  0.00     0.016 A 
ATOM     40  C   UNL A   1      43.776  27.856  28.075  1.00  0.00     0.010 A 
ATOM     41  C   UNL A   1      42.129  26.167  28.029  1.00  0.00     0.010 A 
ATOM     42  C   UNL A   1      42.626  27.337  28.649  1.00  0.00    -0.014 A 
BRANCH  42  43
ATOM     43  C   UNL A   1      42.047  27.928  29.923  1.00  0.00     0.031 A 
ATOM     44  C   UNL A   1      40.815  28.811  29.851  1.00  0.00     0.074 A 
ATOM     45  C   UNL A   1      42.511  27.647  31.168  1.00  0.00     0.049 A 
ATOM     46  N   UNL A   1      40.253  29.564  30.767  1.00  0.00    -0.248 NA
ATOM     47  C   UNL A   1      40.085  28.800  28.576  1.00  0.00     0.031 C 
ATOM     48  C   UNL A   1      43.552  26.674  31.508  1.00  0.00     0.029 A 
ATOM     49  N   UNL A   1      42.171  28.187  32.401  1.00  0.00    -0.354 N 
ATOM     50  C   UNL A   1      39.122  30.117  30.171  1.00  0.00     0.074 A 
ATOM     51  C   UNL A   1      39.041  29.571  28.837  1.00  0.00     0.031 C 
ATOM     52  C   UNL A   1      43.786  26.714  32.832  1.00  0.00     0.029 A 
ATOM     53  C   UNL A   1      42.994  27.783  33.434  1.00  0.00     0.049 A 
ATOM     54  H   UNL A   1      41.414  28.803  32.526  1.00  0.00     0.167 HD
ATOM     55  C   UNL A   1      38.255  31.040  30.658  1.00  0.00     0.037 A 
ATOM     56  C   UNL A   1      43.162  28.270  34.686  1.00  0.00     0.037 A 
ATOM     57  C   UNL A   1      38.358  31.646  31.956  1.00  0.00     0.049 A 
ATOM     58  C   UNL A   1      42.345  29.460  35.142  1.00  0.00     0.074 A 
ATOM     59  C   UNL A   1      37.606  32.679  32.491  1.00  0.00     0.029 A 
ATOM     60  N   UNL A   1      39.285  31.285  32.917  1.00  0.00    -0.354 N 
ATOM     61  N   UNL A   1      41.353  30.067  34.535  1.00  0.00    -0.248 NA
ATOM     62  C   UNL A   1      42.691  30.059  36.445  1.00  0.00     0.031 C 
ATOM     63  C   UNL A   1      38.121  32.985  33.753  1.00  0.00     0.029 A 
ATOM     64  C   UNL A   1      39.146  32.095  34.030  1.00  0.00     0.049 A 
ATOM     65  H   UNL A   1      39.945  30.560  32.823  1.00  0.00     0.167 HD
ATOM     66  C   UNL A   1      40.940  31.083  35.391  1.00  0.00     0.074 A 
ATOM     67  C   UNL A   1      41.780  31.014  36.566  1.00  0.00     0.031 C 
ATOM     68  C   UNL A   1      39.953  31.993  35.216  1.00  0.00     0.037 A 
BRANCH  55  69
ATOM     69  C   UNL A   1      37.193  31.550  29.728  1.00  0.00     0.057 A 
ATOM     70  C   UNL A   1      35.979  30.885  29.536  1.00  0.00     0.134 A 
ATOM     71  C   UNL A   1      37.393  32.751  29.032  1.00  0.00     0.134 A 
ATOM     72  F   UNL A   1      35.735  29.720  30.155  1.00  0.00    -0.206 F 
ATOM     73  C   UNL A   1      35.003  31.389  28.671  1.00  0.00     0.040 A 
ATOM     74  C   UNL A   1      36.419  33.275  28.183  1.00  0.00     0.040 A 
ATOM     75  F   UNL A   1      38.537  33.437  29.173  1.00  0.00    -0.206 F 
ATOM     76  C   UNL A   1      35.221  32.590  27.997  1.00  0.00     0.006 A 
ENDBRANCH  55  69
BRANCH  56  77
ATOM     77  C   UNL A   1      44.250  27.752  35.577  1.00  0.00     0.057 A 
ATOM     78  C   UNL A   1      44.020  26.751  36.534  1.00  0.00     0.134 A 
ATOM     79  C   UNL A   1      45.527  28.333  35.571  1.00  0.00     0.134 A 
ATOM     80  F   UNL A   1      42.810  26.182  36.638  1.00  0.00    -0.206 F 
ATOM     81  C   UNL A   1      45.002  26.370  37.455  1.00  0.00     0.040 A 
ATOM     82  C   UNL A   1      46.530  27.934  36.459  1.00  0.00     0.040 A 
ATOM     83  F   UNL A   1      45.819  29.319  34.710  1.00  0.00    -0.206 F 
ATOM     84  C   UNL A   1      46.265  26.958  37.415  1.00  0.00     0.006 A 
ENDBRANCH  56  77
BRANCH  68  85
ATOM     85  C   UNL A   1      39.653  32.948  36.335  1.00  0.00     0.057 A 
ATOM     86  C   UNL A   1      40.233  34.219  36.408  1.00  0.00     0.134 A 
ATOM     87  C   UNL A   1      38.689  32.620  37.297  1.00  0.00     0.134 A 
ATOM     88  F   UNL A   1      41.167  34.593  35.522  1.00  0.00    -0.206 F 
ATOM     89  C   UNL A   1      39.867  35.129  37.403  1.00  0.00     0.040 A 
ATOM     90  C   UNL A   1      38.296  33.530  38.279  1.00  0.00     0.040 A 
ATOM     91  F   UNL A   1      38.086  31.421  37.276  1.00  0.00    -0.206 F 
ATOM     92  C   UNL A   1      38.887  34.790  38.334  1.00  0.00     0.006 A 
ENDBRANCH  68  85
ENDBRANCH  42  43
ENDBRANCH  35  37
ENDBRANCH  34  35
ENDBRANCH  33  34
ENDBRANCH  32  33
ENDBRANCH  31  32
ENDBRANCH   1  31
TORSDOF 17
ENDMDL
MODEL 3
REMARK VINA RESULT:     -10.6      3.694      9.966
REMARK SMILES O=C(CCC(=O)OCCOCCOC(=O)c1ccc(-c2c3nc(c(-c4c(F)cccc4F)c4ccc([nH]4)c(-c4c(F)cccc4F)c4nc(c(-c5c(F)cccc5F)c5ccc2[nH]5)C=C4)C=C3)cc1)/[NH+]=C1\S[C@H]2CS(=O)(=O)C[C@@H]2N1c1ccc2c(c1)OCO2
REMARK SMILES IDX 9 1 8 2 7 3 5 4 6 5 4 6 3 7 2 8 1 9 70 10 71 11 72 13 80 14
REMARK SMILES IDX 73 15 79 16 74 17 78 18 75 19 76 20 77 21 81 22 82 23 86 24
REMARK SMILES IDX 83 25 85 26 84 27 87 28 89 29 88 30 10 31 11 32 12 33 13 34
REMARK SMILES IDX 14 35 15 36 16 37 17 38 69 39 18 40 68 41 19 42 20 43 21 44
REMARK SMILES IDX 62 45 22 46 67 47 61 48 63 49 23 50 66 51 60 52 59 53 24 55
REMARK SMILES IDX 50 56 33 57 49 58 34 59 37 60 48 61 64 62 35 63 36 64 47 66
REMARK SMILES IDX 65 67 38 68 25 69 26 70 31 71 27 72 28 73 30 74 32 75 29 76
REMARK SMILES IDX 51 77 52 78 57 79 53 80 54 81 56 82 58 83 55 84 39 85 40 86
REMARK SMILES IDX 45 87 41 88 42 89 44 90 46 91 43 92
REMARK H PARENT 70 12 63 54 37 65
REMARK Flexibility Score: inf
ROOT
ATOM      1  C   UNL A   1      36.237  23.669  24.492  1.00  0.00     0.202 C 
ENDROOT
BRANCH   1   2
ATOM      2  C   UNL A   1      34.884  23.021  24.884  1.00  0.00     0.261 C 
BRANCH   2   3
ATOM      3  O   UNL A   1      34.700  23.081  26.297  1.00  0.00    -0.463 OA
BRANCH   3   4
ATOM      4  C   UNL A   1      33.650  22.321  26.666  1.00  0.00     0.306 C 
ATOM      5  O   UNL A   1      33.360  22.071  27.828  1.00  0.00    -0.252 OA
BRANCH   4   6
ATOM      6  C   UNL A   1      32.845  21.907  25.468  1.00  0.00     0.135 C 
BRANCH   6   7
ATOM      7  C   UNL A   1      31.532  22.671  25.205  1.00  0.00     0.139 C 
BRANCH   7   8
ATOM      8  C   UNL A   1      31.213  23.571  23.999  1.00  0.00     0.308 C 
ATOM      9  O   UNL A   1      30.501  23.037  23.140  1.00  0.00    -0.247 OA
ATOM     10  N   UNL A   1      31.632  24.894  23.774  1.00  0.00    -0.204 N 
ATOM     11  C   UNL A   1      31.466  26.005  24.432  1.00  0.00     0.319 C 
ATOM     12  H   UNL A   1      32.160  25.001  22.950  1.00  0.00     0.316 HD
ATOM     13  S   UNL A   1      30.972  26.215  26.133  1.00  0.00    -0.029 SA
ATOM     14  N   UNL A   1      31.667  27.331  23.959  1.00  0.00    -0.216 N 
ATOM     15  C   UNL A   1      31.639  27.841  26.348  1.00  0.00     0.120 C 
ATOM     16  C   UNL A   1      32.348  28.108  25.023  1.00  0.00     0.212 C 
ATOM     17  C   UNL A   1      32.627  28.255  27.407  1.00  0.00     0.156 C 
ATOM     18  C   UNL A   1      32.496  29.610  25.029  1.00  0.00     0.188 C 
ATOM     19  S   UNL A   1      33.117  29.863  26.730  1.00  0.00     0.155 S 
ATOM     20  O   UNL A   1      32.334  30.880  27.374  1.00  0.00    -0.229 OA
ATOM     21  O   UNL A   1      34.572  29.894  26.687  1.00  0.00    -0.229 OA
BRANCH  14  22
ATOM     22  C   UNL A   1      30.521  27.937  23.361  1.00  0.00     0.132 A 
ATOM     23  C   UNL A   1      29.238  27.389  23.577  1.00  0.00     0.056 A 
ATOM     24  C   UNL A   1      30.593  29.187  22.716  1.00  0.00     0.102 A 
ATOM     25  C   UNL A   1      28.072  28.086  23.202  1.00  0.00     0.055 A 
ATOM     26  C   UNL A   1      29.448  29.858  22.390  1.00  0.00     0.170 A 
ATOM     27  C   UNL A   1      28.213  29.342  22.652  1.00  0.00     0.166 A 
ATOM     28  O   UNL A   1      29.417  31.128  21.912  1.00  0.00    -0.453 OA
ATOM     29  O   UNL A   1      27.240  30.258  22.398  1.00  0.00    -0.454 OA
ATOM     30  C   UNL A   1      28.055  31.443  22.238  1.00  0.00     0.468 C 
ENDBRANCH  14  22
ENDBRANCH   7   8
ENDBRANCH   6   7
ENDBRANCH   4   6
ENDBRANCH   3   4
ENDBRANCH   2   3
ENDBRANCH   1   2
BRANCH   1  31
ATOM     31  O   UNL A   1      37.393  23.472  25.316  1.00  0.00    -0.374 OA
BRANCH  31  32
ATOM     32  C   UNL A   1      37.928  22.135  25.534  1.00  0.00     0.202 C 
BRANCH  32  33
ATOM     33  C   UNL A   1      39.390  21.626  26.128  1.00  0.00     0.261 C 
BRANCH  33  34
ATOM     34  O   UNL A   1      40.175  22.301  27.202  1.00  0.00    -0.460 OA
BRANCH  34  35
ATOM     35  C   UNL A   1      41.038  23.335  26.837  1.00  0.00     0.338 C 
ATOM     36  O   UNL A   1      41.873  23.230  25.945  1.00  0.00    -0.246 OA
BRANCH  35  37
ATOM     37  C   UNL A   1      40.854  24.693  27.533  1.00  0.00     0.060 A 
ATOM     38  C   UNL A   1      41.918  25.571  27.731  1.00  0.00     0.016 A 
ATOM     39  C   UNL A   1      39.700  25.031  28.247  1.00  0.00     0.016 A 
ATOM     40  C   UNL A   1      41.855  26.768  28.485  1.00  0.00     0.010 A 
ATOM     41  C   UNL A   1      39.614  26.247  29.009  1.00  0.00     0.010 A 
ATOM     42  C   UNL A   1      40.693  27.152  29.137  1.00  0.00    -0.014 A 
BRANCH  42  43
ATOM     43  C   UNL A   1      40.659  28.389  30.018  1.00  0.00     0.031 A 
ATOM     44  C   UNL A   1      41.667  28.540  31.143  1.00  0.00     0.074 A 
ATOM     45  C   UNL A   1      39.825  29.441  29.815  1.00  0.00     0.049 A 
ATOM     46  N   UNL A   1      41.722  29.407  32.125  1.00  0.00    -0.248 NA
ATOM     47  C   UNL A   1      42.804  27.609  31.121  1.00  0.00     0.031 C 
ATOM     48  C   UNL A   1      38.910  29.619  28.685  1.00  0.00     0.029 A 
ATOM     49  N   UNL A   1      39.596  30.572  30.586  1.00  0.00    -0.354 N 
ATOM     50  C   UNL A   1      42.884  29.114  32.835  1.00  0.00     0.074 A 
ATOM     51  C   UNL A   1      43.536  28.029  32.141  1.00  0.00     0.031 C 
ATOM     52  C   UNL A   1      38.203  30.752  28.856  1.00  0.00     0.029 A 
ATOM     53  C   UNL A   1      38.532  31.338  30.152  1.00  0.00     0.049 A 
ATOM     54  H   UNL A   1      40.141  30.806  31.372  1.00  0.00     0.167 HD
ATOM     55  C   UNL A   1      43.346  29.650  33.992  1.00  0.00     0.037 A 
ATOM     56  C   UNL A   1      37.838  32.332  30.758  1.00  0.00     0.037 A 
ATOM     57  C   UNL A   1      42.676  30.682  34.734  1.00  0.00     0.049 A 
ATOM     58  C   UNL A   1      38.223  32.767  32.157  1.00  0.00     0.074 A 
ATOM     59  C   UNL A   1      42.998  31.202  35.977  1.00  0.00     0.029 A 
ATOM     60  N   UNL A   1      41.535  31.338  34.307  1.00  0.00    -0.354 N 
ATOM     61  N   UNL A   1      39.252  32.405  32.884  1.00  0.00    -0.248 NA
ATOM     62  C   UNL A   1      37.330  33.724  32.836  1.00  0.00     0.031 C 
ATOM     63  C   UNL A   1      42.014  32.128  36.329  1.00  0.00     0.029 A 
ATOM     64  C   UNL A   1      41.122  32.235  35.275  1.00  0.00     0.049 A 
ATOM     65  H   UNL A   1      41.086  31.189  33.444  1.00  0.00     0.167 HD
ATOM     66  C   UNL A   1      39.148  33.113  34.077  1.00  0.00     0.074 A 
ATOM     67  C   UNL A   1      37.961  33.932  33.983  1.00  0.00     0.031 C 
ATOM     68  C   UNL A   1      39.965  33.083  35.157  1.00  0.00     0.037 A 
BRANCH  55  69
ATOM     69  C   UNL A   1      44.574  29.035  34.597  1.00  0.00     0.057 A 
ATOM     70  C   UNL A   1      44.518  27.937  35.460  1.00  0.00     0.134 A 
ATOM     71  C   UNL A   1      45.840  29.549  34.282  1.00  0.00     0.134 A 
ATOM     72  F   UNL A   1      43.337  27.412  35.819  1.00  0.00    -0.206 F 
ATOM     73  C   UNL A   1      45.680  27.377  36.001  1.00  0.00     0.040 A 
ATOM     74  C   UNL A   1      47.007  28.987  34.798  1.00  0.00     0.040 A 
ATOM     75  F   UNL A   1      45.961  30.602  33.460  1.00  0.00    -0.206 F 
ATOM     76  C   UNL A   1      46.928  27.900  35.665  1.00  0.00     0.006 A 
ENDBRANCH  55  69
BRANCH  56  77
ATOM     77  C   UNL A   1      36.602  32.904  30.133  1.00  0.00     0.057 A 
ATOM     78  C   UNL A   1      35.327  32.370  30.374  1.00  0.00     0.134 A 
ATOM     79  C   UNL A   1      36.683  33.932  29.183  1.00  0.00     0.134 A 
ATOM     80  F   UNL A   1      35.173  31.349  31.231  1.00  0.00    -0.206 F 
ATOM     81  C   UNL A   1      34.195  32.818  29.684  1.00  0.00     0.040 A 
ATOM     82  C   UNL A   1      35.555  34.418  28.515  1.00  0.00     0.040 A 
ATOM     83  F   UNL A   1      37.869  34.476  28.870  1.00  0.00    -0.206 F 
ATOM     84  C   UNL A   1      34.307  33.851  28.754  1.00  0.00     0.006 A 
ENDBRANCH  56  77
BRANCH  68  85
ATOM     85  C   UNL A   1      39.672  34.008  36.302  1.00  0.00     0.057 A 
ATOM     86  C   UNL A   1      38.998  33.583  37.452  1.00  0.00     0.134 A 
ATOM     87  C   UNL A   1      40.167  35.319  36.289  1.00  0.00     0.134 A 
ATOM     88  F   UNL A   1      38.494  32.342  37.527  1.00  0.00    -0.206 F 
ATOM     89  C   UNL A   1      38.821  34.432  38.548  1.00  0.00     0.040 A 
ATOM     90  C   UNL A   1      40.019  36.168  37.387  1.00  0.00     0.040 A 
ATOM     91  F   UNL A   1      40.833  35.785  35.222  1.00  0.00    -0.206 F 
ATOM     92  C   UNL A   1      39.343  35.724  38.521  1.00  0.00     0.006 A 
ENDBRANCH  68  85
ENDBRANCH  42  43
ENDBRANCH  35  37
ENDBRANCH  34  35
ENDBRANCH  33  34
ENDBRANCH  32  33
ENDBRANCH  31  32
ENDBRANCH   1  31
TORSDOF 17
ENDMDL
