MODEL 1
REMARK VINA RESULT:     -11.8      0.000      0.000
REMARK SMILES O=C(CCn1cc(/C=C\C(=O)c2ccc(F)cc2)c(-c2cccc(Cl)c2)n1)OCCOCCOC(=O)c1ccc(-c2c3nc(c(-c4c(F)cccc4F)c4ccc([nH]4)c(-c4c(F)cccc4F)c4nc(c(-c5c(F)cccc5F)c5ccc2[nH]5)C=C4)C=C3)cc1
REMARK SMILES IDX 29 1 28 2 2 3 1 4 3 5 4 6 5 7 6 8 27 9 7 10 19 11 8 12 9 13
REMARK SMILES IDX 10 14 11 15 12 16 13 17 18 18 14 19 17 20 15 21 16 22 20 23
REMARK SMILES IDX 21 24 26 25 22 26 24 27 23 28 25 29 30 30 31 31 32 32 33 33
REMARK SMILES IDX 34 34 35 35 36 36 37 37 38 38 90 39 39 40 89 41 40 42 41 43
REMARK SMILES IDX 42 44 83 45 43 46 88 47 82 48 84 49 44 50 87 51 81 52 80 53
REMARK SMILES IDX 45 55 71 56 54 57 70 58 55 59 58 60 69 61 85 62 56 63 57 64
REMARK SMILES IDX 68 66 86 67 59 68 46 69 47 70 52 71 48 72 49 73 51 74 53 75
REMARK SMILES IDX 50 76 72 77 73 78 78 79 74 80 75 81 77 82 79 83 76 84 60 85
REMARK SMILES IDX 61 86 66 87 62 88 63 89 65 90 67 91 64 92
REMARK H PARENT 84 54 58 65
REMARK Flexibility Score: inf
ROOT
ATOM      1  C   UNL A   1      34.860  33.190  28.004  1.00  0.00     0.261 C 
ENDROOT
BRANCH   1   2
ATOM      2  O   UNL A   1      35.067  31.779  28.066  1.00  0.00    -0.463 OA
BRANCH   2   3
ATOM      3  C   UNL A   1      34.152  30.917  27.557  1.00  0.00     0.307 C 
ATOM      4  O   UNL A   1      33.024  31.305  27.271  1.00  0.00    -0.252 OA
BRANCH   3   5
ATOM      5  C   UNL A   1      34.514  29.456  27.608  1.00  0.00     0.146 C 
BRANCH   5   6
ATOM      6  C   UNL A   1      34.391  28.680  26.306  1.00  0.00     0.156 C 
BRANCH   6   7
ATOM      7  N   UNL A   1      33.114  28.035  26.073  1.00  0.00    -0.271 N 
ATOM      8  C   UNL A   1      32.734  26.745  26.344  1.00  0.00     0.117 A 
ATOM      9  N   UNL A   1      32.168  28.734  25.437  1.00  0.00    -0.172 NA
ATOM     10  C   UNL A   1      31.591  26.518  25.590  1.00  0.00     0.021 A 
ATOM     11  C   UNL A   1      31.296  27.810  25.025  1.00  0.00     0.100 A 
BRANCH  10  12
ATOM     12  C   UNL A   1      30.968  25.222  25.412  1.00  0.00     0.016 C 
ATOM     13  C   UNL A   1      31.313  23.960  25.769  1.00  0.00     0.053 C 
BRANCH  13  14
ATOM     14  C   UNL A   1      32.471  23.267  26.499  1.00  0.00     0.185 C 
ATOM     15  O   UNL A   1      32.316  22.904  27.659  1.00  0.00    -0.289 OA
BRANCH  14  16
ATOM     16  C   UNL A   1      33.840  23.178  25.784  1.00  0.00     0.022 A 
ATOM     17  C   UNL A   1      33.835  21.419  25.333  1.00  0.00     0.015 A 
ATOM     18  C   UNL A   1      35.631  24.126  25.765  1.00  0.00     0.015 A 
ATOM     19  C   UNL A   1      35.379  20.627  25.013  1.00  0.00     0.040 A 
ATOM     20  C   UNL A   1      37.116  23.164  25.438  1.00  0.00     0.040 A 
ATOM     21  C   UNL A   1      36.930  21.466  25.098  1.00  0.00     0.123 A 
ATOM     22  F   UNL A   1      38.036  20.750  24.844  1.00  0.00    -0.207 F 
ENDBRANCH  14  16
ENDBRANCH  13  14
ENDBRANCH  10  12
BRANCH  11  23
ATOM     23  C   UNL A   1      30.123  28.091  24.105  1.00  0.00     0.004 A 
ATOM     24  C   UNL A   1      28.313  27.281  23.688  1.00  0.00     0.010 A 
ATOM     25  C   UNL A   1      30.272  29.896  23.865  1.00  0.00     0.031 A 
ATOM     26  C   UNL A   1      26.961  28.353  23.219  1.00  0.00     0.002 A 
ATOM     27  C   UNL A   1      28.840  30.803  23.400  1.00  0.00     0.041 A 
ATOM     28  C   UNL A   1      27.268  30.061  23.108  1.00  0.00     0.020 A 
ATOM     29  Cl  UNL A   1      28.980  32.507  23.183  1.00  0.00    -0.084 Cl
ENDBRANCH  11  23
ENDBRANCH   6   7
ENDBRANCH   5   6
ENDBRANCH   3   5
ENDBRANCH   2   3
ENDBRANCH   1   2
BRANCH   1  30
ATOM     30  C   UNL A   1      34.252  33.912  29.211  1.00  0.00     0.202 C 
BRANCH  30  31
ATOM     31  O   UNL A   1      35.008  34.199  30.377  1.00  0.00    -0.374 OA
BRANCH  31  32
ATOM     32  C   UNL A   1      34.486  33.971  31.677  1.00  0.00     0.202 C 
BRANCH  32  33
ATOM     33  C   UNL A   1      34.940  32.729  32.424  1.00  0.00     0.261 C 
BRANCH  33  34
ATOM     34  O   UNL A   1      35.584  31.790  31.580  1.00  0.00    -0.460 OA
BRANCH  34  35
ATOM     35  C   UNL A   1      36.926  31.744  31.717  1.00  0.00     0.338 C 
ATOM     36  O   UNL A   1      37.589  32.127  32.665  1.00  0.00    -0.246 OA
BRANCH  35  37
ATOM     37  C   UNL A   1      37.503  31.255  30.456  1.00  0.00     0.060 A 
ATOM     38  C   UNL A   1      37.039  30.006  30.050  1.00  0.00     0.016 A 
ATOM     39  C   UNL A   1      38.796  31.700  30.157  1.00  0.00     0.016 A 
ATOM     40  C   UNL A   1      37.993  29.045  29.823  1.00  0.00     0.010 A 
ATOM     41  C   UNL A   1      39.734  30.751  29.868  1.00  0.00     0.010 A 
ATOM     42  C   UNL A   1      39.339  29.420  29.906  1.00  0.00    -0.014 A 
BRANCH  42  43
ATOM     43  C   UNL A   1      40.368  28.404  29.891  1.00  0.00     0.031 A 
ATOM     44  C   UNL A   1      40.909  28.233  31.256  1.00  0.00     0.074 A 
ATOM     45  C   UNL A   1      40.692  27.681  28.795  1.00  0.00     0.049 A 
ATOM     46  N   UNL A   1      42.042  28.665  31.695  1.00  0.00    -0.248 NA
ATOM     47  C   UNL A   1      39.973  27.814  32.316  1.00  0.00     0.031 C 
ATOM     48  C   UNL A   1      40.071  27.640  27.466  1.00  0.00     0.029 A 
ATOM     49  N   UNL A   1      41.683  26.747  28.680  1.00  0.00    -0.354 N 
ATOM     50  C   UNL A   1      42.044  28.355  33.047  1.00  0.00     0.074 A 
ATOM     51  C   UNL A   1      40.680  28.091  33.410  1.00  0.00     0.031 C 
ATOM     52  C   UNL A   1      40.535  26.566  26.775  1.00  0.00     0.029 A 
ATOM     53  C   UNL A   1      41.590  25.932  27.541  1.00  0.00     0.049 A 
ATOM     54  H   UNL A   1      42.405  26.654  29.343  1.00  0.00     0.167 HD
ATOM     55  C   UNL A   1      43.197  28.049  33.694  1.00  0.00     0.037 A 
ATOM     56  C   UNL A   1      42.335  24.810  27.330  1.00  0.00     0.037 A 
ATOM     57  C   UNL A   1      44.342  28.495  32.943  1.00  0.00     0.049 A 
ATOM     58  C   UNL A   1      43.527  24.927  28.219  1.00  0.00     0.074 A 
ATOM     59  C   UNL A   1      44.808  29.741  32.575  1.00  0.00     0.029 A 
ATOM     60  N   UNL A   1      44.901  27.602  32.060  1.00  0.00    -0.354 N 
ATOM     61  N   UNL A   1      44.436  25.853  28.067  1.00  0.00    -0.248 NA
ATOM     62  C   UNL A   1      43.386  24.389  29.566  1.00  0.00     0.031 C 
ATOM     63  C   UNL A   1      45.223  29.595  31.220  1.00  0.00     0.029 A 
ATOM     64  C   UNL A   1      45.108  28.250  30.867  1.00  0.00     0.049 A 
ATOM     65  H   UNL A   1      45.116  26.659  32.251  1.00  0.00     0.167 HD
ATOM     66  C   UNL A   1      44.679  26.318  29.351  1.00  0.00     0.074 A 
ATOM     67  C   UNL A   1      44.000  25.369  30.237  1.00  0.00     0.031 C 
ATOM     68  C   UNL A   1      45.128  27.586  29.580  1.00  0.00     0.037 A 
BRANCH  55  69
ATOM     69  C   UNL A   1      43.263  27.046  34.807  1.00  0.00     0.057 A 
ATOM     70  C   UNL A   1      43.432  25.657  34.613  1.00  0.00     0.134 A 
ATOM     71  C   UNL A   1      43.396  27.485  36.132  1.00  0.00     0.134 A 
ATOM     72  F   UNL A   1      43.481  25.101  33.396  1.00  0.00    -0.206 F 
ATOM     73  C   UNL A   1      43.662  24.764  35.659  1.00  0.00     0.040 A 
ATOM     74  C   UNL A   1      43.685  26.606  37.182  1.00  0.00     0.040 A 
ATOM     75  F   UNL A   1      43.307  28.788  36.435  1.00  0.00    -0.206 F 
ATOM     76  C   UNL A   1      43.810  25.240  36.948  1.00  0.00     0.006 A 
ENDBRANCH  55  69
BRANCH  56  77
ATOM     77  C   UNL A   1      41.898  23.479  26.817  1.00  0.00     0.057 A 
ATOM     78  C   UNL A   1      40.702  22.893  27.261  1.00  0.00     0.134 A 
ATOM     79  C   UNL A   1      42.788  22.615  26.153  1.00  0.00     0.134 A 
ATOM     80  F   UNL A   1      39.808  23.602  27.965  1.00  0.00    -0.206 F 
ATOM     81  C   UNL A   1      40.419  21.530  27.090  1.00  0.00     0.040 A 
ATOM     82  C   UNL A   1      42.515  21.248  25.970  1.00  0.00     0.040 A 
ATOM     83  F   UNL A   1      43.980  23.061  25.728  1.00  0.00    -0.206 F 
ATOM     84  C   UNL A   1      41.333  20.698  26.455  1.00  0.00     0.006 A 
ENDBRANCH  56  77
BRANCH  68  85
ATOM     85  C   UNL A   1      45.515  28.434  28.393  1.00  0.00     0.057 A 
ATOM     86  C   UNL A   1      46.863  28.473  28.027  1.00  0.00     0.134 A 
ATOM     87  C   UNL A   1      44.662  29.347  27.750  1.00  0.00     0.134 A 
ATOM     88  F   UNL A   1      47.747  27.664  28.632  1.00  0.00    -0.206 F 
ATOM     89  C   UNL A   1      47.352  29.384  27.088  1.00  0.00     0.040 A 
ATOM     90  C   UNL A   1      45.132  30.246  26.783  1.00  0.00     0.040 A 
ATOM     91  F   UNL A   1      43.370  29.445  28.086  1.00  0.00    -0.206 F 
ATOM     92  C   UNL A   1      46.485  30.274  26.459  1.00  0.00     0.006 A 
ENDBRANCH  68  85
ENDBRANCH  42  43
ENDBRANCH  35  37
ENDBRANCH  34  35
ENDBRANCH  33  34
ENDBRANCH  32  33
ENDBRANCH  31  32
ENDBRANCH  30  31
ENDBRANCH   1  30
TORSDOF 20
ENDMDL
MODEL 2
REMARK VINA RESULT:     -11.5      2.757      4.698
REMARK SMILES O=C(CCn1cc(/C=C\C(=O)c2ccc(F)cc2)c(-c2cccc(Cl)c2)n1)OCCOCCOC(=O)c1ccc(-c2c3nc(c(-c4c(F)cccc4F)c4ccc([nH]4)c(-c4c(F)cccc4F)c4nc(c(-c5c(F)cccc5F)c5ccc2[nH]5)C=C4)C=C3)cc1
REMARK SMILES IDX 29 1 28 2 2 3 1 4 3 5 4 6 5 7 6 8 27 9 7 10 19 11 8 12 9 13
REMARK SMILES IDX 10 14 11 15 12 16 13 17 18 18 14 19 17 20 15 21 16 22 20 23
REMARK SMILES IDX 21 24 26 25 22 26 24 27 23 28 25 29 30 30 31 31 32 32 33 33
REMARK SMILES IDX 34 34 35 35 36 36 37 37 38 38 90 39 39 40 89 41 40 42 41 43
REMARK SMILES IDX 42 44 83 45 43 46 88 47 82 48 84 49 44 50 87 51 81 52 80 53
REMARK SMILES IDX 45 55 71 56 54 57 70 58 55 59 58 60 69 61 85 62 56 63 57 64
REMARK SMILES IDX 68 66 86 67 59 68 46 69 47 70 52 71 48 72 49 73 51 74 53 75
REMARK SMILES IDX 50 76 72 77 73 78 78 79 74 80 75 81 77 82 79 83 76 84 60 85
REMARK SMILES IDX 61 86 66 87 62 88 63 89 65 90 67 91 64 92
REMARK H PARENT 84 54 58 65
REMARK Flexibility Score: inf
ROOT
ATOM      1  C   UNL A   1      32.273  29.974  27.001  1.00  0.00     0.261 C 
ENDROOT
BRANCH   1   2
ATOM      2  O   UNL A   1      32.258  28.661  27.561  1.00  0.00    -0.463 OA
BRANCH   2   3
ATOM      3  C   UNL A   1      32.576  27.578  26.809  1.00  0.00     0.307 C 
ATOM      4  O   UNL A   1      33.723  27.417  26.404  1.00  0.00    -0.252 OA
BRANCH   3   5
ATOM      5  C   UNL A   1      31.419  26.756  26.306  1.00  0.00     0.146 C 
BRANCH   5   6
ATOM      6  C   UNL A   1      31.406  25.288  26.701  1.00  0.00     0.156 C 
BRANCH   6   7
ATOM      7  N   UNL A   1      32.221  24.407  25.887  1.00  0.00    -0.271 N 
ATOM      8  C   UNL A   1      32.609  24.552  24.579  1.00  0.00     0.117 A 
ATOM      9  N   UNL A   1      32.605  23.242  26.418  1.00  0.00    -0.172 NA
ATOM     10  C   UNL A   1      33.020  23.294  24.161  1.00  0.00     0.021 A 
ATOM     11  C   UNL A   1      32.976  22.506  25.368  1.00  0.00     0.100 A 
BRANCH  10  12
ATOM     12  C   UNL A   1      33.318  22.941  22.789  1.00  0.00     0.016 C 
ATOM     13  C   UNL A   1      33.281  23.622  21.616  1.00  0.00     0.053 C 
BRANCH  13  14
ATOM     14  C   UNL A   1      32.921  25.036  21.141  1.00  0.00     0.185 C 
ATOM     15  O   UNL A   1      32.902  25.276  19.940  1.00  0.00    -0.289 OA
BRANCH  14  16
ATOM     16  C   UNL A   1      32.729  26.141  22.207  1.00  0.00     0.022 A 
ATOM     17  C   UNL A   1      30.916  26.162  22.303  1.00  0.00     0.015 A 
ATOM     18  C   UNL A   1      33.707  27.759  22.938  1.00  0.00     0.015 A 
ATOM     19  C   UNL A   1      30.122  27.610  22.923  1.00  0.00     0.040 A 
ATOM     20  C   UNL A   1      32.743  29.164  23.515  1.00  0.00     0.040 A 
ATOM     21  C   UNL A   1      31.007  29.039  23.465  1.00  0.00     0.123 A 
ATOM     22  F   UNL A   1      30.287  30.083  23.905  1.00  0.00    -0.207 F 
ENDBRANCH  14  16
ENDBRANCH  13  14
ENDBRANCH  10  12
BRANCH  11  23
ATOM     23  C   UNL A   1      33.337  21.035  25.438  1.00  0.00     0.004 A 
ATOM     24  C   UNL A   1      32.531  19.261  24.880  1.00  0.00     0.010 A 
ATOM     25  C   UNL A   1      35.162  21.110  25.489  1.00  0.00     0.031 A 
ATOM     26  C   UNL A   1      33.611  17.927  24.380  1.00  0.00     0.002 A 
ATOM     27  C   UNL A   1      36.076  19.703  24.962  1.00  0.00     0.041 A 
ATOM     28  C   UNL A   1      35.328  18.200  24.424  1.00  0.00     0.020 A 
ATOM     29  Cl  UNL A   1      37.797  19.779  25.001  1.00  0.00    -0.084 Cl
ENDBRANCH  11  23
ENDBRANCH   6   7
ENDBRANCH   5   6
ENDBRANCH   3   5
ENDBRANCH   2   3
ENDBRANCH   1   2
BRANCH   1  30
ATOM     30  C   UNL A   1      33.482  30.882  27.251  1.00  0.00     0.202 C 
BRANCH  30  31
ATOM     31  O   UNL A   1      33.388  32.067  28.026  1.00  0.00    -0.374 OA
BRANCH  31  32
ATOM     32  C   UNL A   1      34.479  32.967  28.146  1.00  0.00     0.202 C 
BRANCH  32  33
ATOM     33  C   UNL A   1      35.168  33.083  29.494  1.00  0.00     0.261 C 
BRANCH  33  34
ATOM     34  O   UNL A   1      35.157  31.865  30.218  1.00  0.00    -0.460 OA
BRANCH  34  35
ATOM     35  C   UNL A   1      36.362  31.489  30.695  1.00  0.00     0.338 C 
ATOM     36  O   UNL A   1      36.755  31.544  31.848  1.00  0.00    -0.246 OA
BRANCH  35  37
ATOM     37  C   UNL A   1      37.209  31.100  29.557  1.00  0.00     0.060 A 
ATOM     38  C   UNL A   1      36.880  29.875  28.981  1.00  0.00     0.016 A 
ATOM     39  C   UNL A   1      38.522  31.585  29.571  1.00  0.00     0.016 A 
ATOM     40  C   UNL A   1      37.890  28.947  28.900  1.00  0.00     0.010 A 
ATOM     41  C   UNL A   1      39.529  30.674  29.428  1.00  0.00     0.010 A 
ATOM     42  C   UNL A   1      39.175  29.337  29.294  1.00  0.00    -0.014 A 
BRANCH  42  43
ATOM     43  C   UNL A   1      40.214  28.341  29.433  1.00  0.00     0.031 A 
ATOM     44  C   UNL A   1      40.588  28.217  30.857  1.00  0.00     0.074 A 
ATOM     45  C   UNL A   1      40.681  27.596  28.405  1.00  0.00     0.049 A 
ATOM     46  N   UNL A   1      41.652  28.682  31.418  1.00  0.00    -0.248 NA
ATOM     47  C   UNL A   1      39.537  27.807  31.807  1.00  0.00     0.031 C 
ATOM     48  C   UNL A   1      40.227  27.508  27.011  1.00  0.00     0.029 A 
ATOM     49  N   UNL A   1      41.693  26.678  28.437  1.00  0.00    -0.354 N 
ATOM     50  C   UNL A   1      41.494  28.408  32.768  1.00  0.00     0.074 A 
ATOM     51  C   UNL A   1      40.101  28.126  32.971  1.00  0.00     0.031 C 
ATOM     52  C   UNL A   1      40.788  26.425  26.412  1.00  0.00     0.029 A 
ATOM     53  C   UNL A   1      41.753  25.832  27.319  1.00  0.00     0.049 A 
ATOM     54  H   UNL A   1      42.330  26.616  29.185  1.00  0.00     0.167 HD
ATOM     55  C   UNL A   1      42.565  28.141  33.558  1.00  0.00     0.037 A 
ATOM     56  C   UNL A   1      42.536  24.719  27.231  1.00  0.00     0.037 A 
ATOM     57  C   UNL A   1      43.785  28.589  32.939  1.00  0.00     0.049 A 
ATOM     58  C   UNL A   1      43.608  24.883  28.255  1.00  0.00     0.074 A 
ATOM     59  C   UNL A   1      44.273  29.834  32.596  1.00  0.00     0.029 A 
ATOM     60  N   UNL A   1      44.461  27.683  32.157  1.00  0.00    -0.354 N 
ATOM     61  N   UNL A   1      44.514  25.821  28.188  1.00  0.00    -0.248 NA
ATOM     62  C   UNL A   1      43.313  24.378  29.590  1.00  0.00     0.031 C 
ATOM     63  C   UNL A   1      44.852  29.659  31.306  1.00  0.00     0.029 A 
ATOM     64  C   UNL A   1      44.802  28.304  30.979  1.00  0.00     0.049 A 
ATOM     65  H   UNL A   1      44.667  26.751  32.399  1.00  0.00     0.167 HD
ATOM     66  C   UNL A   1      44.591  26.325  29.478  1.00  0.00     0.074 A 
ATOM     67  C   UNL A   1      43.825  25.387  30.302  1.00  0.00     0.031 C 
ATOM     68  C   UNL A   1      44.989  27.607  29.724  1.00  0.00     0.037 A 
BRANCH  55  69
ATOM     69  C   UNL A   1      42.511  27.169  34.700  1.00  0.00     0.057 A 
ATOM     70  C   UNL A   1      41.918  27.449  35.951  1.00  0.00     0.134 A 
ATOM     71  C   UNL A   1      42.852  25.826  34.487  1.00  0.00     0.134 A 
ATOM     72  F   UNL A   1      41.403  28.648  36.252  1.00  0.00    -0.206 F 
ATOM     73  C   UNL A   1      41.725  26.481  36.937  1.00  0.00     0.040 A 
ATOM     74  C   UNL A   1      42.610  24.836  35.446  1.00  0.00     0.040 A 
ATOM     75  F   UNL A   1      43.376  25.428  33.318  1.00  0.00    -0.206 F 
ATOM     76  C   UNL A   1      42.053  25.163  36.678  1.00  0.00     0.006 A 
ENDBRANCH  55  69
BRANCH  56  77
ATOM     77  C   UNL A   1      42.185  23.368  26.708  1.00  0.00     0.057 A 
ATOM     78  C   UNL A   1      41.081  22.662  27.213  1.00  0.00     0.134 A 
ATOM     79  C   UNL A   1      43.100  22.607  25.957  1.00  0.00     0.134 A 
ATOM     80  F   UNL A   1      40.179  23.268  27.998  1.00  0.00    -0.206 F 
ATOM     81  C   UNL A   1      40.911  21.284  27.018  1.00  0.00     0.040 A 
ATOM     82  C   UNL A   1      42.940  21.225  25.750  1.00  0.00     0.040 A 
ATOM     83  F   UNL A   1      44.214  23.171  25.467  1.00  0.00    -0.206 F 
ATOM     84  C   UNL A   1      41.850  20.556  26.297  1.00  0.00     0.006 A 
ENDBRANCH  56  77
BRANCH  68  85
ATOM     85  C   UNL A   1      45.504  28.430  28.569  1.00  0.00     0.057 A 
ATOM     86  C   UNL A   1      46.888  28.544  28.410  1.00  0.00     0.134 A 
ATOM     87  C   UNL A   1      44.709  29.259  27.759  1.00  0.00     0.134 A 
ATOM     88  F   UNL A   1      47.714  27.820  29.182  1.00  0.00    -0.206 F 
ATOM     89  C   UNL A   1      47.461  29.447  27.512  1.00  0.00     0.040 A 
ATOM     90  C   UNL A   1      45.269  30.148  26.831  1.00  0.00     0.040 A 
ATOM     91  F   UNL A   1      43.376  29.284  27.890  1.00  0.00    -0.206 F 
ATOM     92  C   UNL A   1      46.651  30.253  26.716  1.00  0.00     0.006 A 
ENDBRANCH  68  85
ENDBRANCH  42  43
ENDBRANCH  35  37
ENDBRANCH  34  35
ENDBRANCH  33  34
ENDBRANCH  32  33
ENDBRANCH  31  32
ENDBRANCH  30  31
ENDBRANCH   1  30
TORSDOF 20
ENDMDL
MODEL 3
REMARK VINA RESULT:     -11.2      2.829      4.622
REMARK SMILES O=C(CCn1cc(/C=C\C(=O)c2ccc(F)cc2)c(-c2cccc(Cl)c2)n1)OCCOCCOC(=O)c1ccc(-c2c3nc(c(-c4c(F)cccc4F)c4ccc([nH]4)c(-c4c(F)cccc4F)c4nc(c(-c5c(F)cccc5F)c5ccc2[nH]5)C=C4)C=C3)cc1
REMARK SMILES IDX 29 1 28 2 2 3 1 4 3 5 4 6 5 7 6 8 27 9 7 10 19 11 8 12 9 13
REMARK SMILES IDX 10 14 11 15 12 16 13 17 18 18 14 19 17 20 15 21 16 22 20 23
REMARK SMILES IDX 21 24 26 25 22 26 24 27 23 28 25 29 30 30 31 31 32 32 33 33
REMARK SMILES IDX 34 34 35 35 36 36 37 37 38 38 90 39 39 40 89 41 40 42 41 43
REMARK SMILES IDX 42 44 83 45 43 46 88 47 82 48 84 49 44 50 87 51 81 52 80 53
REMARK SMILES IDX 45 55 71 56 54 57 70 58 55 59 58 60 69 61 85 62 56 63 57 64
REMARK SMILES IDX 68 66 86 67 59 68 46 69 47 70 52 71 48 72 49 73 51 74 53 75
REMARK SMILES IDX 50 76 72 77 73 78 78 79 74 80 75 81 77 82 79 83 76 84 60 85
REMARK SMILES IDX 61 86 66 87 62 88 63 89 65 90 67 91 64 92
REMARK H PARENT 84 54 58 65
REMARK Flexibility Score: inf
ROOT
ATOM      1  C   UNL A   1      30.701  29.860  24.231  1.00  0.00     0.261 C 
ENDROOT
BRANCH   1   2
ATOM      2  O   UNL A   1      31.166  29.007  23.185  1.00  0.00    -0.463 OA
BRANCH   2   3
ATOM      3  C   UNL A   1      30.300  28.243  22.472  1.00  0.00     0.307 C 
ATOM      4  O   UNL A   1      29.275  28.732  22.009  1.00  0.00    -0.252 OA
BRANCH   3   5
ATOM      5  C   UNL A   1      30.542  26.757  22.505  1.00  0.00     0.146 C 
BRANCH   5   6
ATOM      6  C   UNL A   1      31.782  26.254  21.784  1.00  0.00     0.156 C 
BRANCH   6   7
ATOM      7  N   UNL A   1      32.390  25.057  22.332  1.00  0.00    -0.271 N 
ATOM      8  C   UNL A   1      33.697  24.837  22.689  1.00  0.00     0.117 A 
ATOM      9  N   UNL A   1      31.627  23.966  22.451  1.00  0.00    -0.172 NA
ATOM     10  C   UNL A   1      33.842  23.459  22.772  1.00  0.00     0.021 A 
ATOM     11  C   UNL A   1      32.500  22.966  22.593  1.00  0.00     0.100 A 
BRANCH  10  12
ATOM     12  C   UNL A   1      35.110  22.775  22.921  1.00  0.00     0.016 C 
ATOM     13  C   UNL A   1      36.038  22.724  23.910  1.00  0.00     0.053 C 
BRANCH  13  14
ATOM     14  C   UNL A   1      36.236  23.328  25.306  1.00  0.00     0.185 C 
ATOM     15  O   UNL A   1      37.302  23.157  25.886  1.00  0.00    -0.289 OA
BRANCH  14  16
ATOM     16  C   UNL A   1      35.028  24.015  25.985  1.00  0.00     0.022 A 
ATOM     17  C   UNL A   1      34.263  22.573  26.780  1.00  0.00     0.015 A 
ATOM     18  C   UNL A   1      33.869  25.663  25.762  1.00  0.00     0.015 A 
ATOM     19  C   UNL A   1      32.554  22.655  27.209  1.00  0.00     0.040 A 
ATOM     20  C   UNL A   1      32.135  25.571  26.233  1.00  0.00     0.040 A 
ATOM     21  C   UNL A   1      31.551  24.078  26.913  1.00  0.00     0.123 A 
ATOM     22  F   UNL A   1      30.261  24.012  27.275  1.00  0.00    -0.207 F 
ENDBRANCH  14  16
ENDBRANCH  13  14
ENDBRANCH  10  12
BRANCH  11  23
ATOM     23  C   UNL A   1      32.124  21.496  22.597  1.00  0.00     0.004 A 
ATOM     24  C   UNL A   1      32.113  19.944  21.294  1.00  0.00     0.010 A 
ATOM     25  C   UNL A   1      32.352  21.068  24.358  1.00  0.00     0.031 A 
ATOM     26  C   UNL A   1      32.420  18.290  21.899  1.00  0.00     0.002 A 
ATOM     27  C   UNL A   1      32.643  19.387  24.783  1.00  0.00     0.041 A 
ATOM     28  C   UNL A   1      32.687  18.077  23.605  1.00  0.00     0.020 A 
ATOM     29  Cl  UNL A   1      32.868  18.985  26.444  1.00  0.00    -0.084 Cl
ENDBRANCH  11  23
ENDBRANCH   6   7
ENDBRANCH   5   6
ENDBRANCH   3   5
ENDBRANCH   2   3
ENDBRANCH   1   2
BRANCH   1  30
ATOM     30  C   UNL A   1      31.620  30.159  25.420  1.00  0.00     0.202 C 
BRANCH  30  31
ATOM     31  O   UNL A   1      31.965  29.166  26.374  1.00  0.00    -0.374 OA
BRANCH  31  32
ATOM     32  C   UNL A   1      33.224  29.170  27.029  1.00  0.00     0.202 C 
BRANCH  32  33
ATOM     33  C   UNL A   1      33.826  30.510  27.416  1.00  0.00     0.261 C 
BRANCH  33  34
ATOM     34  O   UNL A   1      35.241  30.471  27.487  1.00  0.00    -0.460 OA
BRANCH  34  35
ATOM     35  C   UNL A   1      35.801  31.555  28.064  1.00  0.00     0.338 C 
ATOM     36  O   UNL A   1      35.853  32.689  27.620  1.00  0.00    -0.246 OA
BRANCH  35  37
ATOM     37  C   UNL A   1      36.473  31.126  29.301  1.00  0.00     0.060 A 
ATOM     38  C   UNL A   1      37.607  31.864  29.631  1.00  0.00     0.016 A 
ATOM     39  C   UNL A   1      36.344  29.773  29.634  1.00  0.00     0.016 A 
ATOM     40  C   UNL A   1      38.768  31.152  29.812  1.00  0.00     0.010 A 
ATOM     41  C   UNL A   1      37.492  29.075  29.877  1.00  0.00     0.010 A 
ATOM     42  C   UNL A   1      38.698  29.755  29.760  1.00  0.00    -0.014 A 
BRANCH  42  43
ATOM     43  C   UNL A   1      39.917  28.978  29.726  1.00  0.00     0.031 A 
ATOM     44  C   UNL A   1      40.351  28.684  31.107  1.00  0.00     0.074 A 
ATOM     45  C   UNL A   1      40.489  28.532  28.585  1.00  0.00     0.049 A 
ATOM     46  N   UNL A   1      41.319  29.247  31.747  1.00  0.00    -0.248 NA
ATOM     47  C   UNL A   1      39.431  27.914  31.965  1.00  0.00     0.031 C 
ATOM     48  C   UNL A   1      40.019  28.599  27.196  1.00  0.00     0.029 A 
ATOM     49  N   UNL A   1      41.663  27.844  28.459  1.00  0.00    -0.354 N 
ATOM     50  C   UNL A   1      41.260  28.715  33.027  1.00  0.00     0.074 A 
ATOM     51  C   UNL A   1      39.956  28.131  33.170  1.00  0.00     0.031 C 
ATOM     52  C   UNL A   1      40.765  27.772  26.417  1.00  0.00     0.029 A 
ATOM     53  C   UNL A   1      41.854  27.235  27.209  1.00  0.00     0.049 A 
ATOM     54  H   UNL A   1      42.323  27.781  29.187  1.00  0.00     0.167 HD
ATOM     55  C   UNL A   1      42.386  28.534  33.762  1.00  0.00     0.037 A 
ATOM     56  C   UNL A   1      42.838  26.333  26.929  1.00  0.00     0.037 A 
ATOM     57  C   UNL A   1      43.474  29.318  33.238  1.00  0.00     0.049 A 
ATOM     58  C   UNL A   1      43.888  26.526  27.971  1.00  0.00     0.074 A 
ATOM     59  C   UNL A   1      43.696  30.675  33.123  1.00  0.00     0.029 A 
ATOM     60  N   UNL A   1      44.292  28.716  32.311  1.00  0.00    -0.354 N 
ATOM     61  N   UNL A   1      44.589  27.624  28.075  1.00  0.00    -0.248 NA
ATOM     62  C   UNL A   1      43.739  25.747  29.194  1.00  0.00     0.031 C 
ATOM     63  C   UNL A   1      44.259  30.848  31.825  1.00  0.00     0.029 A 
ATOM     64  C   UNL A   1      44.467  29.588  31.264  1.00  0.00     0.049 A 
ATOM     65  H   UNL A   1      44.684  27.816  32.386  1.00  0.00     0.167 HD
ATOM     66  C   UNL A   1      44.605  27.899  29.435  1.00  0.00     0.074 A 
ATOM     67  C   UNL A   1      44.064  26.698  30.076  1.00  0.00     0.031 C 
ATOM     68  C   UNL A   1      44.749  29.172  29.906  1.00  0.00     0.037 A 
BRANCH  55  69
ATOM     69  C   UNL A   1      42.560  27.387  34.713  1.00  0.00     0.057 A 
ATOM     70  C   UNL A   1      43.181  26.164  34.374  1.00  0.00     0.134 A 
ATOM     71  C   UNL A   1      42.313  27.573  36.080  1.00  0.00     0.134 A 
ATOM     72  F   UNL A   1      43.614  25.896  33.136  1.00  0.00    -0.206 F 
ATOM     73  C   UNL A   1      43.486  25.178  35.313  1.00  0.00     0.040 A 
ATOM     74  C   UNL A   1      42.668  26.616  37.038  1.00  0.00     0.040 A 
ATOM     75  F   UNL A   1      41.774  28.716  36.531  1.00  0.00    -0.206 F 
ATOM     76  C   UNL A   1      43.249  25.411  36.655  1.00  0.00     0.006 A 
ENDBRANCH  55  69
BRANCH  56  77
ATOM     77  C   UNL A   1      42.746  25.051  26.173  1.00  0.00     0.057 A 
ATOM     78  C   UNL A   1      41.936  24.000  26.632  1.00  0.00     0.134 A 
ATOM     79  C   UNL A   1      43.688  24.706  25.187  1.00  0.00     0.134 A 
ATOM     80  F   UNL A   1      41.049  24.195  27.618  1.00  0.00    -0.206 F 
ATOM     81  C   UNL A   1      42.074  22.683  26.171  1.00  0.00     0.040 A 
ATOM     82  C   UNL A   1      43.834  23.390  24.712  1.00  0.00     0.040 A 
ATOM     83  F   UNL A   1      44.543  25.624  24.712  1.00  0.00    -0.206 F 
ATOM     84  C   UNL A   1      43.035  22.370  25.217  1.00  0.00     0.006 A 
ENDBRANCH  56  77
BRANCH  68  85
ATOM     85  C   UNL A   1      45.056  30.270  28.918  1.00  0.00     0.057 A 
ATOM     86  C   UNL A   1      46.390  30.658  28.761  1.00  0.00     0.134 A 
ATOM     87  C   UNL A   1      44.090  31.076  28.290  1.00  0.00     0.134 A 
ATOM     88  F   UNL A   1      47.366  29.967  29.370  1.00  0.00    -0.206 F 
ATOM     89  C   UNL A   1      46.752  31.797  28.039  1.00  0.00     0.040 A 
ATOM     90  C   UNL A   1      44.441  32.204  27.536  1.00  0.00     0.040 A 
ATOM     91  F   UNL A   1      42.782  30.836  28.444  1.00  0.00    -0.206 F 
ATOM     92  C   UNL A   1      45.776  32.575  27.421  1.00  0.00     0.006 A 
ENDBRANCH  68  85
ENDBRANCH  42  43
ENDBRANCH  35  37
ENDBRANCH  34  35
ENDBRANCH  33  34
ENDBRANCH  32  33
ENDBRANCH  31  32
ENDBRANCH  30  31
ENDBRANCH   1  30
TORSDOF 20
ENDMDL
