MODEL 1
REMARK VINA RESULT:     -10.3      0.000      0.000
REMARK SMILES C[C@H]1CCCN1c1cccc(OCC(=O)OCCOCCOC(=O)c2ccc(-c3c4nc(c(-c5c(F)cccc5F)c5ccc([nH]5)c(-c5c(F)cccc5F)c5nc(c(-c6c(F)cccc6F)c6ccc3[nH]6)C=C5)C=C4)cc2)c1
REMARK SMILES IDX 18 1 17 2 16 3 14 4 15 5 13 6 12 7 11 8 7 9 8 10 79 11 9 12
REMARK SMILES IDX 10 13 6 14 1 15 2 16 3 17 4 18 5 19 19 20 20 21 21 22 22 23
REMARK SMILES IDX 23 24 24 25 25 26 26 27 78 28 27 29 77 30 28 31 29 32 30 33
REMARK SMILES IDX 71 34 31 35 76 36 70 37 72 38 32 39 75 40 69 41 68 42 33 44
REMARK SMILES IDX 59 45 42 46 58 47 43 48 46 49 57 50 73 51 44 52 45 53 56 55
REMARK SMILES IDX 74 56 47 57 34 58 35 59 40 60 36 61 37 62 39 63 41 64 38 65
REMARK SMILES IDX 60 66 61 67 66 68 62 69 63 70 65 71 67 72 64 73 48 74 49 75
REMARK SMILES IDX 54 76 50 77 51 78 53 79 55 80 52 81
REMARK H PARENT 72 43 46 54
REMARK Flexibility Score: inf
ROOT
ATOM      1  C   UNL A   1      45.325  20.246  24.395  1.00  0.00     0.202 C 
ENDROOT
BRANCH   1   2
ATOM      2  C   UNL A   1      44.633  18.986  24.945  1.00  0.00     0.261 C 
BRANCH   2   3
ATOM      3  O   UNL A   1      43.188  19.083  24.967  1.00  0.00    -0.461 OA
BRANCH   3   4
ATOM      4  C   UNL A   1      42.595  18.865  26.179  1.00  0.00     0.344 C 
ATOM      5  O   UNL A   1      43.072  18.162  27.066  1.00  0.00    -0.248 OA
BRANCH   4   6
ATOM      6  C   UNL A   1      41.244  19.579  26.350  1.00  0.00     0.351 C 
BRANCH   6   7
ATOM      7  O   UNL A   1      41.160  20.903  26.837  1.00  0.00    -0.482 OA
BRANCH   7   8
ATOM      8  C   UNL A   1      40.154  21.759  26.467  1.00  0.00     0.122 A 
ATOM      9  C   UNL A   1      37.909  22.364  25.649  1.00  0.00     0.041 A 
ATOM     10  C   UNL A   1      38.047  23.591  26.324  1.00  0.00     0.026 A 
ATOM     11  C   UNL A   1      39.013  21.474  25.687  1.00  0.00     0.072 A 
ATOM     12  C   UNL A   1      39.201  23.914  27.040  1.00  0.00     0.006 A 
ATOM     13  C   UNL A   1      40.246  22.998  27.114  1.00  0.00     0.046 A 
BRANCH   9  14
ATOM     14  N   UNL A   1      36.718  22.095  25.010  1.00  0.00    -0.369 N 
ATOM     15  C   UNL A   1      36.337  23.066  22.732  1.00  0.00     0.031 C 
ATOM     16  C   UNL A   1      35.868  22.972  24.187  1.00  0.00     0.079 C 
ATOM     17  C   UNL A   1      34.498  22.267  24.160  1.00  0.00     0.026 C 
ATOM     18  C   UNL A   1      34.572  21.240  25.272  1.00  0.00     0.023 C 
ATOM     19  C   UNL A   1      36.040  20.834  25.284  1.00  0.00     0.117 C 
ENDBRANCH   9  14
ENDBRANCH   7   8
ENDBRANCH   6   7
ENDBRANCH   4   6
ENDBRANCH   3   4
ENDBRANCH   2   3
ENDBRANCH   1   2
BRANCH   1  20
ATOM     20  O   UNL A   1      45.706  21.258  25.322  1.00  0.00    -0.374 OA
BRANCH  20  21
ATOM     21  C   UNL A   1      44.674  22.109  25.788  1.00  0.00     0.202 C 
BRANCH  21  22
ATOM     22  C   UNL A   1      43.739  22.796  24.796  1.00  0.00     0.261 C 
BRANCH  22  23
ATOM     23  O   UNL A   1      43.206  23.997  25.274  1.00  0.00    -0.460 OA
BRANCH  23  24
ATOM     24  C   UNL A   1      44.121  24.975  25.360  1.00  0.00     0.338 C 
ATOM     25  O   UNL A   1      45.028  25.280  24.611  1.00  0.00    -0.246 OA
BRANCH  24  26
ATOM     26  C   UNL A   1      43.691  25.694  26.540  1.00  0.00     0.060 A 
ATOM     27  C   UNL A   1      42.886  25.012  27.446  1.00  0.00     0.016 A 
ATOM     28  C   UNL A   1      44.200  26.979  26.773  1.00  0.00     0.016 A 
ATOM     29  C   UNL A   1      42.518  25.666  28.600  1.00  0.00     0.010 A 
ATOM     30  C   UNL A   1      43.852  27.620  27.940  1.00  0.00     0.010 A 
ATOM     31  C   UNL A   1      42.971  26.977  28.817  1.00  0.00    -0.014 A 
BRANCH  31  32
ATOM     32  C   UNL A   1      42.355  27.756  29.889  1.00  0.00     0.031 A 
ATOM     33  C   UNL A   1      43.015  27.727  31.229  1.00  0.00     0.074 A 
ATOM     34  C   UNL A   1      41.266  28.484  29.615  1.00  0.00     0.049 A 
ATOM     35  N   UNL A   1      42.670  28.340  32.326  1.00  0.00    -0.248 NA
ATOM     36  C   UNL A   1      44.223  26.890  31.357  1.00  0.00     0.031 C 
ATOM     37  C   UNL A   1      40.598  28.551  28.314  1.00  0.00     0.029 A 
ATOM     38  N   UNL A   1      40.539  29.311  30.418  1.00  0.00    -0.354 N 
ATOM     39  C   UNL A   1      43.613  27.962  33.270  1.00  0.00     0.074 A 
ATOM     40  C   UNL A   1      44.516  27.029  32.639  1.00  0.00     0.031 C 
ATOM     41  C   UNL A   1      39.554  29.391  28.409  1.00  0.00     0.029 A 
ATOM     42  C   UNL A   1      39.470  29.882  29.780  1.00  0.00     0.049 A 
ATOM     43  H   UNL A   1      40.760  29.480  31.363  1.00  0.00     0.167 HD
ATOM     44  C   UNL A   1      43.716  28.382  34.549  1.00  0.00     0.037 A 
ATOM     45  C   UNL A   1      38.527  30.699  30.275  1.00  0.00     0.037 A 
ATOM     46  C   UNL A   1      42.795  29.314  35.140  1.00  0.00     0.049 A 
ATOM     47  C   UNL A   1      38.637  31.107  31.718  1.00  0.00     0.074 A 
ATOM     48  C   UNL A   1      42.791  29.831  36.420  1.00  0.00     0.029 A 
ATOM     49  N   UNL A   1      41.703  29.859  34.477  1.00  0.00    -0.354 N 
ATOM     50  N   UNL A   1      39.549  30.778  32.604  1.00  0.00    -0.248 NA
ATOM     51  C   UNL A   1      37.595  32.004  32.228  1.00  0.00     0.031 C 
ATOM     52  C   UNL A   1      41.664  30.647  36.548  1.00  0.00     0.029 A 
ATOM     53  C   UNL A   1      41.000  30.690  35.330  1.00  0.00     0.049 A 
ATOM     54  H   UNL A   1      41.463  29.681  33.539  1.00  0.00     0.167 HD
ATOM     55  C   UNL A   1      39.207  31.448  33.770  1.00  0.00     0.074 A 
ATOM     56  C   UNL A   1      38.013  32.216  33.467  1.00  0.00     0.031 C 
ATOM     57  C   UNL A   1      39.817  31.437  34.982  1.00  0.00     0.037 A 
BRANCH  44  58
ATOM     58  C   UNL A   1      44.832  27.820  35.377  1.00  0.00     0.057 A 
ATOM     59  C   UNL A   1      44.682  26.645  36.129  1.00  0.00     0.134 A 
ATOM     60  C   UNL A   1      46.077  28.458  35.421  1.00  0.00     0.134 A 
ATOM     61  F   UNL A   1      43.508  25.998  36.155  1.00  0.00    -0.206 F 
ATOM     62  C   UNL A   1      45.726  26.138  36.905  1.00  0.00     0.040 A 
ATOM     63  C   UNL A   1      47.135  27.944  36.170  1.00  0.00     0.040 A 
ATOM     64  F   UNL A   1      46.285  29.592  34.734  1.00  0.00    -0.206 F 
ATOM     65  C   UNL A   1      46.960  26.783  36.920  1.00  0.00     0.006 A 
ENDBRANCH  44  58
BRANCH  45  66
ATOM     66  C   UNL A   1      37.424  31.169  29.406  1.00  0.00     0.057 A 
ATOM     67  C   UNL A   1      36.322  30.355  29.123  1.00  0.00     0.134 A 
ATOM     68  C   UNL A   1      37.438  32.453  28.845  1.00  0.00     0.134 A 
ATOM     69  F   UNL A   1      36.253  29.114  29.626  1.00  0.00    -0.206 F 
ATOM     70  C   UNL A   1      35.288  30.788  28.292  1.00  0.00     0.040 A 
ATOM     71  C   UNL A   1      36.397  32.910  28.036  1.00  0.00     0.040 A 
ATOM     72  F   UNL A   1      38.457  33.289  29.093  1.00  0.00    -0.206 F 
ATOM     73  C   UNL A   1      35.323  32.072  27.750  1.00  0.00     0.006 A 
ENDBRANCH  45  66
BRANCH  57  74
ATOM     74  C   UNL A   1      39.221  32.308  36.046  1.00  0.00     0.057 A 
ATOM     75  C   UNL A   1      38.279  31.820  36.960  1.00  0.00     0.134 A 
ATOM     76  C   UNL A   1      39.629  33.641  36.181  1.00  0.00     0.134 A 
ATOM     77  F   UNL A   1      37.840  30.555  36.875  1.00  0.00    -0.206 F 
ATOM     78  C   UNL A   1      37.742  32.638  37.954  1.00  0.00     0.040 A 
ATOM     79  C   UNL A   1      39.126  34.457  37.192  1.00  0.00     0.040 A 
ATOM     80  F   UNL A   1      40.539  34.164  35.345  1.00  0.00    -0.206 F 
ATOM     81  C   UNL A   1      38.173  33.957  38.077  1.00  0.00     0.006 A 
ENDBRANCH  57  74
ENDBRANCH  31  32
ENDBRANCH  24  26
ENDBRANCH  23  24
ENDBRANCH  22  23
ENDBRANCH  21  22
ENDBRANCH  20  21
ENDBRANCH   1  20
TORSDOF 17
ENDMDL
MODEL 2
REMARK VINA RESULT:     -10.2      2.046      3.367
REMARK SMILES C[C@H]1CCCN1c1cccc(OCC(=O)OCCOCCOC(=O)c2ccc(-c3c4nc(c(-c5c(F)cccc5F)c5ccc([nH]5)c(-c5c(F)cccc5F)c5nc(c(-c6c(F)cccc6F)c6ccc3[nH]6)C=C5)C=C4)cc2)c1
REMARK SMILES IDX 18 1 17 2 16 3 14 4 15 5 13 6 12 7 11 8 7 9 8 10 79 11 9 12
REMARK SMILES IDX 10 13 6 14 1 15 2 16 3 17 4 18 5 19 19 20 20 21 21 22 22 23
REMARK SMILES IDX 23 24 24 25 25 26 26 27 78 28 27 29 77 30 28 31 29 32 30 33
REMARK SMILES IDX 71 34 31 35 76 36 70 37 72 38 32 39 75 40 69 41 68 42 33 44
REMARK SMILES IDX 59 45 42 46 58 47 43 48 46 49 57 50 73 51 44 52 45 53 56 55
REMARK SMILES IDX 74 56 47 57 34 58 35 59 40 60 36 61 37 62 39 63 41 64 38 65
REMARK SMILES IDX 60 66 61 67 66 68 62 69 63 70 65 71 67 72 64 73 48 74 49 75
REMARK SMILES IDX 54 76 50 77 51 78 53 79 55 80 52 81
REMARK H PARENT 72 43 46 54
REMARK Flexibility Score: inf
ROOT
ATOM      1  C   UNL A   1      40.667  20.688  26.422  1.00  0.00     0.202 C 
ENDROOT
BRANCH   1   2
ATOM      2  C   UNL A   1      39.816  21.888  25.970  1.00  0.00     0.261 C 
BRANCH   2   3
ATOM      3  O   UNL A   1      38.393  21.687  26.148  1.00  0.00    -0.461 OA
BRANCH   3   4
ATOM      4  C   UNL A   1      37.721  21.194  25.064  1.00  0.00     0.344 C 
ATOM      5  O   UNL A   1      37.786  20.029  24.682  1.00  0.00    -0.248 OA
BRANCH   4   6
ATOM      6  C   UNL A   1      36.861  22.239  24.335  1.00  0.00     0.351 C 
BRANCH   6   7
ATOM      7  O   UNL A   1      36.059  23.164  25.041  1.00  0.00    -0.482 OA
BRANCH   7   8
ATOM      8  C   UNL A   1      34.955  23.756  24.481  1.00  0.00     0.122 A 
ATOM      9  C   UNL A   1      33.476  25.634  23.884  1.00  0.00     0.041 A 
ATOM     10  C   UNL A   1      33.007  24.859  22.808  1.00  0.00     0.026 A 
ATOM     11  C   UNL A   1      34.421  25.034  24.753  1.00  0.00     0.072 A 
ATOM     12  C   UNL A   1      33.474  23.565  22.571  1.00  0.00     0.006 A 
ATOM     13  C   UNL A   1      34.449  23.021  23.402  1.00  0.00     0.046 A 
BRANCH   9  14
ATOM     14  N   UNL A   1      33.006  26.923  24.021  1.00  0.00    -0.369 N 
ATOM     15  C   UNL A   1      34.121  28.747  22.713  1.00  0.00     0.031 C 
ATOM     16  C   UNL A   1      33.745  28.195  24.092  1.00  0.00     0.079 C 
ATOM     17  C   UNL A   1      32.742  29.192  24.702  1.00  0.00     0.026 C 
ATOM     18  C   UNL A   1      31.638  28.325  25.273  1.00  0.00     0.023 C 
ATOM     19  C   UNL A   1      31.597  27.133  24.326  1.00  0.00     0.117 C 
ENDBRANCH   9  14
ENDBRANCH   7   8
ENDBRANCH   6   7
ENDBRANCH   4   6
ENDBRANCH   3   4
ENDBRANCH   2   3
ENDBRANCH   1   2
BRANCH   1  20
ATOM     20  O   UNL A   1      41.898  20.449  25.747  1.00  0.00    -0.374 OA
BRANCH  20  21
ATOM     21  C   UNL A   1      42.984  21.289  26.096  1.00  0.00     0.202 C 
BRANCH  21  22
ATOM     22  C   UNL A   1      43.592  22.228  25.059  1.00  0.00     0.261 C 
BRANCH  22  23
ATOM     23  O   UNL A   1      43.016  23.502  25.053  1.00  0.00    -0.460 OA
BRANCH  23  24
ATOM     24  C   UNL A   1      43.919  24.482  25.212  1.00  0.00     0.338 C 
ATOM     25  O   UNL A   1      44.958  24.706  24.623  1.00  0.00    -0.246 OA
BRANCH  24  26
ATOM     26  C   UNL A   1      43.288  25.320  26.209  1.00  0.00     0.060 A 
ATOM     27  C   UNL A   1      43.774  26.615  26.355  1.00  0.00     0.016 A 
ATOM     28  C   UNL A   1      42.156  24.839  26.881  1.00  0.00     0.016 A 
ATOM     29  C   UNL A   1      43.146  27.441  27.259  1.00  0.00     0.010 A 
ATOM     30  C   UNL A   1      41.513  25.675  27.764  1.00  0.00     0.010 A 
ATOM     31  C   UNL A   1      42.047  26.951  27.984  1.00  0.00    -0.014 A 
BRANCH  31  32
ATOM     32  C   UNL A   1      41.570  27.723  29.129  1.00  0.00     0.031 A 
ATOM     33  C   UNL A   1      42.322  27.590  30.413  1.00  0.00     0.074 A 
ATOM     34  C   UNL A   1      40.520  28.537  28.967  1.00  0.00     0.049 A 
ATOM     35  N   UNL A   1      42.104  28.177  31.555  1.00  0.00    -0.248 NA
ATOM     36  C   UNL A   1      43.472  26.666  30.416  1.00  0.00     0.031 C 
ATOM     37  C   UNL A   1      39.764  28.707  27.724  1.00  0.00     0.029 A 
ATOM     38  N   UNL A   1      39.915  29.377  29.854  1.00  0.00    -0.354 N 
ATOM     39  C   UNL A   1      43.084  27.694  32.409  1.00  0.00     0.074 A 
ATOM     40  C   UNL A   1      43.868  26.729  31.676  1.00  0.00     0.031 C 
ATOM     41  C   UNL A   1      38.794  29.613  27.930  1.00  0.00     0.029 A 
ATOM     42  C   UNL A   1      38.847  30.048  29.321  1.00  0.00     0.049 A 
ATOM     43  H   UNL A   1      40.217  29.489  30.785  1.00  0.00     0.167 HD
ATOM     44  C   UNL A   1      43.311  28.050  33.692  1.00  0.00     0.037 A 
ATOM     45  C   UNL A   1      38.005  30.907  29.918  1.00  0.00     0.037 A 
ATOM     46  C   UNL A   1      42.506  29.016  34.386  1.00  0.00     0.049 A 
ATOM     47  C   UNL A   1      38.250  31.243  31.362  1.00  0.00     0.074 A 
ATOM     48  C   UNL A   1      42.634  29.477  35.681  1.00  0.00     0.029 A 
ATOM     49  N   UNL A   1      41.410  29.665  33.829  1.00  0.00    -0.354 N 
ATOM     50  N   UNL A   1      39.198  30.813  32.163  1.00  0.00    -0.248 NA
ATOM     51  C   UNL A   1      37.316  32.187  31.984  1.00  0.00     0.031 C 
ATOM     52  C   UNL A   1      41.581  30.363  35.927  1.00  0.00     0.029 A 
ATOM     53  C   UNL A   1      40.835  30.505  34.765  1.00  0.00     0.049 A 
ATOM     54  H   UNL A   1      41.091  29.545  32.907  1.00  0.00     0.167 HD
ATOM     55  C   UNL A   1      38.992  31.454  33.377  1.00  0.00     0.074 A 
ATOM     56  C   UNL A   1      37.839  32.316  33.195  1.00  0.00     0.031 C 
ATOM     57  C   UNL A   1      39.687  31.347  34.537  1.00  0.00     0.037 A 
BRANCH  44  58
ATOM     58  C   UNL A   1      44.440  27.375  34.411  1.00  0.00     0.057 A 
ATOM     59  C   UNL A   1      44.314  26.089  34.955  1.00  0.00     0.134 A 
ATOM     60  C   UNL A   1      45.675  28.018  34.557  1.00  0.00     0.134 A 
ATOM     61  F   UNL A   1      43.151  25.426  34.874  1.00  0.00    -0.206 F 
ATOM     62  C   UNL A   1      45.370  25.476  35.631  1.00  0.00     0.040 A 
ATOM     63  C   UNL A   1      46.746  27.404  35.206  1.00  0.00     0.040 A 
ATOM     64  F   UNL A   1      45.860  29.255  34.070  1.00  0.00    -0.206 F 
ATOM     65  C   UNL A   1      46.594  26.131  35.751  1.00  0.00     0.006 A 
ENDBRANCH  44  58
BRANCH  45  66
ATOM     66  C   UNL A   1      36.878  31.491  29.154  1.00  0.00     0.057 A 
ATOM     67  C   UNL A   1      36.918  32.811  28.693  1.00  0.00     0.134 A 
ATOM     68  C   UNL A   1      35.735  30.738  28.856  1.00  0.00     0.134 A 
ATOM     69  F   UNL A   1      37.983  33.584  28.951  1.00  0.00    -0.206 F 
ATOM     70  C   UNL A   1      35.852  33.370  27.987  1.00  0.00     0.040 A 
ATOM     71  C   UNL A   1      34.675  31.275  28.126  1.00  0.00     0.040 A 
ATOM     72  F   UNL A   1      35.642  29.460  29.254  1.00  0.00    -0.206 F 
ATOM     73  C   UNL A   1      34.728  32.599  27.698  1.00  0.00     0.006 A 
ENDBRANCH  45  66
BRANCH  57  74
ATOM     74  C   UNL A   1      39.236  32.211  35.676  1.00  0.00     0.057 A 
ATOM     75  C   UNL A   1      38.370  31.735  36.668  1.00  0.00     0.134 A 
ATOM     76  C   UNL A   1      39.710  33.523  35.801  1.00  0.00     0.134 A 
ATOM     77  F   UNL A   1      37.873  30.490  36.597  1.00  0.00    -0.206 F 
ATOM     78  C   UNL A   1      37.969  32.544  37.730  1.00  0.00     0.040 A 
ATOM     79  C   UNL A   1      39.343  34.330  36.876  1.00  0.00     0.040 A 
ATOM     80  F   UNL A   1      40.553  34.034  34.890  1.00  0.00    -0.206 F 
ATOM     81  C   UNL A   1      38.463  33.843  37.841  1.00  0.00     0.006 A 
ENDBRANCH  57  74
ENDBRANCH  31  32
ENDBRANCH  24  26
ENDBRANCH  23  24
ENDBRANCH  22  23
ENDBRANCH  21  22
ENDBRANCH  20  21
ENDBRANCH   1  20
TORSDOF 17
ENDMDL
MODEL 3
REMARK VINA RESULT:     -10.2      1.976      3.287
REMARK SMILES C[C@H]1CCCN1c1cccc(OCC(=O)OCCOCCOC(=O)c2ccc(-c3c4nc(c(-c5c(F)cccc5F)c5ccc([nH]5)c(-c5c(F)cccc5F)c5nc(c(-c6c(F)cccc6F)c6ccc3[nH]6)C=C5)C=C4)cc2)c1
REMARK SMILES IDX 18 1 17 2 16 3 14 4 15 5 13 6 12 7 11 8 7 9 8 10 79 11 9 12
REMARK SMILES IDX 10 13 6 14 1 15 2 16 3 17 4 18 5 19 19 20 20 21 21 22 22 23
REMARK SMILES IDX 23 24 24 25 25 26 26 27 78 28 27 29 77 30 28 31 29 32 30 33
REMARK SMILES IDX 71 34 31 35 76 36 70 37 72 38 32 39 75 40 69 41 68 42 33 44
REMARK SMILES IDX 59 45 42 46 58 47 43 48 46 49 57 50 73 51 44 52 45 53 56 55
REMARK SMILES IDX 74 56 47 57 34 58 35 59 40 60 36 61 37 62 39 63 41 64 38 65
REMARK SMILES IDX 60 66 61 67 66 68 62 69 63 70 65 71 67 72 64 73 48 74 49 75
REMARK SMILES IDX 54 76 50 77 51 78 53 79 55 80 52 81
REMARK H PARENT 72 43 46 54
REMARK Flexibility Score: inf
ROOT
ATOM      1  C   UNL A   1      41.007  20.736  26.604  1.00  0.00     0.202 C 
ENDROOT
BRANCH   1   2
ATOM      2  C   UNL A   1      40.084  21.892  26.179  1.00  0.00     0.261 C 
BRANCH   2   3
ATOM      3  O   UNL A   1      38.692  21.510  26.071  1.00  0.00    -0.461 OA
BRANCH   3   4
ATOM      4  C   UNL A   1      37.867  22.427  25.481  1.00  0.00     0.344 C 
ATOM      5  O   UNL A   1      37.797  23.607  25.810  1.00  0.00    -0.248 OA
BRANCH   4   6
ATOM      6  C   UNL A   1      37.004  21.849  24.347  1.00  0.00     0.351 C 
BRANCH   6   7
ATOM      7  O   UNL A   1      35.625  21.592  24.521  1.00  0.00    -0.482 OA
BRANCH   7   8
ATOM      8  C   UNL A   1      34.852  22.302  25.404  1.00  0.00     0.122 A 
ATOM      9  C   UNL A   1      33.190  23.993  26.077  1.00  0.00     0.041 A 
ATOM     10  C   UNL A   1      32.946  23.224  27.229  1.00  0.00     0.026 A 
ATOM     11  C   UNL A   1      34.201  23.536  25.193  1.00  0.00     0.072 A 
ATOM     12  C   UNL A   1      33.635  22.037  27.485  1.00  0.00     0.006 A 
ATOM     13  C   UNL A   1      34.579  21.577  26.572  1.00  0.00     0.046 A 
BRANCH   9  14
ATOM     14  N   UNL A   1      32.430  25.123  25.866  1.00  0.00    -0.369 N 
ATOM     15  C   UNL A   1      33.590  27.343  25.774  1.00  0.00     0.031 C 
ATOM     16  C   UNL A   1      32.544  26.464  26.467  1.00  0.00     0.079 C 
ATOM     17  C   UNL A   1      31.176  27.122  26.205  1.00  0.00     0.026 C 
ATOM     18  C   UNL A   1      30.268  25.977  25.807  1.00  0.00     0.023 C 
ATOM     19  C   UNL A   1      31.204  25.016  25.086  1.00  0.00     0.117 C 
ENDBRANCH   9  14
ENDBRANCH   7   8
ENDBRANCH   6   7
ENDBRANCH   4   6
ENDBRANCH   3   4
ENDBRANCH   2   3
ENDBRANCH   1   2
BRANCH   1  20
ATOM     20  O   UNL A   1      42.189  20.510  25.841  1.00  0.00    -0.374 OA
BRANCH  20  21
ATOM     21  C   UNL A   1      43.253  21.424  26.038  1.00  0.00     0.202 C 
BRANCH  21  22
ATOM     22  C   UNL A   1      43.670  22.370  24.916  1.00  0.00     0.261 C 
BRANCH  22  23
ATOM     23  O   UNL A   1      43.071  23.631  24.998  1.00  0.00    -0.460 OA
BRANCH  23  24
ATOM     24  C   UNL A   1      43.961  24.618  25.188  1.00  0.00     0.338 C 
ATOM     25  O   UNL A   1      45.008  24.863  24.621  1.00  0.00    -0.246 OA
BRANCH  24  26
ATOM     26  C   UNL A   1      43.305  25.434  26.187  1.00  0.00     0.060 A 
ATOM     27  C   UNL A   1      43.770  26.733  26.358  1.00  0.00     0.016 A 
ATOM     28  C   UNL A   1      42.171  24.926  26.837  1.00  0.00     0.016 A 
ATOM     29  C   UNL A   1      43.116  27.537  27.264  1.00  0.00     0.010 A 
ATOM     30  C   UNL A   1      41.503  25.741  27.722  1.00  0.00     0.010 A 
ATOM     31  C   UNL A   1      42.015  27.021  27.967  1.00  0.00    -0.014 A 
BRANCH  31  32
ATOM     32  C   UNL A   1      41.511  27.770  29.115  1.00  0.00     0.031 A 
ATOM     33  C   UNL A   1      42.246  27.629  30.408  1.00  0.00     0.074 A 
ATOM     34  C   UNL A   1      40.453  28.573  28.949  1.00  0.00     0.049 A 
ATOM     35  N   UNL A   1      42.003  28.196  31.556  1.00  0.00    -0.248 NA
ATOM     36  C   UNL A   1      43.407  26.719  30.415  1.00  0.00     0.031 C 
ATOM     37  C   UNL A   1      39.714  28.752  27.697  1.00  0.00     0.029 A 
ATOM     38  N   UNL A   1      39.825  29.393  29.839  1.00  0.00    -0.354 N 
ATOM     39  C   UNL A   1      42.977  27.713  32.417  1.00  0.00     0.074 A 
ATOM     40  C   UNL A   1      43.783  26.768  31.683  1.00  0.00     0.031 C 
ATOM     41  C   UNL A   1      38.730  29.642  27.902  1.00  0.00     0.029 A 
ATOM     42  C   UNL A   1      38.756  30.058  29.299  1.00  0.00     0.049 A 
ATOM     43  H   UNL A   1      40.111  29.495  30.776  1.00  0.00     0.167 HD
ATOM     44  C   UNL A   1      43.179  28.053  33.708  1.00  0.00     0.037 A 
ATOM     45  C   UNL A   1      37.894  30.897  29.896  1.00  0.00     0.037 A 
ATOM     46  C   UNL A   1      42.352  28.999  34.404  1.00  0.00     0.049 A 
ATOM     47  C   UNL A   1      38.113  31.215  31.348  1.00  0.00     0.074 A 
ATOM     48  C   UNL A   1      42.454  29.442  35.708  1.00  0.00     0.029 A 
ATOM     49  N   UNL A   1      41.257  29.642  33.840  1.00  0.00    -0.354 N 
ATOM     50  N   UNL A   1      39.055  30.786  32.157  1.00  0.00    -0.248 NA
ATOM     51  C   UNL A   1      37.158  32.139  31.969  1.00  0.00     0.031 C 
ATOM     52  C   UNL A   1      41.387  30.312  35.949  1.00  0.00     0.029 A 
ATOM     53  C   UNL A   1      40.656  30.461  34.779  1.00  0.00     0.049 A 
ATOM     54  H   UNL A   1      40.952  29.531  32.911  1.00  0.00     0.167 HD
ATOM     55  C   UNL A   1      38.823  31.407  33.376  1.00  0.00     0.074 A 
ATOM     56  C   UNL A   1      37.661  32.256  33.190  1.00  0.00     0.031 C 
ATOM     57  C   UNL A   1      39.502  31.292  34.546  1.00  0.00     0.037 A 
BRANCH  44  58
ATOM     58  C   UNL A   1      44.306  27.382  34.434  1.00  0.00     0.057 A 
ATOM     59  C   UNL A   1      45.594  27.937  34.487  1.00  0.00     0.134 A 
ATOM     60  C   UNL A   1      44.102  26.166  35.096  1.00  0.00     0.134 A 
ATOM     61  F   UNL A   1      45.866  29.086  33.852  1.00  0.00    -0.206 F 
ATOM     62  C   UNL A   1      46.637  27.296  35.157  1.00  0.00     0.040 A 
ATOM     63  C   UNL A   1      45.130  25.532  35.793  1.00  0.00     0.040 A 
ATOM     64  F   UNL A   1      42.897  25.574  35.077  1.00  0.00    -0.206 F 
ATOM     65  C   UNL A   1      46.405  26.094  35.820  1.00  0.00     0.006 A 
ENDBRANCH  44  58
BRANCH  45  66
ATOM     66  C   UNL A   1      36.772  31.478  29.123  1.00  0.00     0.057 A 
ATOM     67  C   UNL A   1      35.656  30.710  28.771  1.00  0.00     0.134 A 
ATOM     68  C   UNL A   1      36.781  32.821  28.727  1.00  0.00     0.134 A 
ATOM     69  F   UNL A   1      35.591  29.416  29.117  1.00  0.00    -0.206 F 
ATOM     70  C   UNL A   1      34.604  31.249  28.029  1.00  0.00     0.040 A 
ATOM     71  C   UNL A   1      35.722  33.380  28.011  1.00  0.00     0.040 A 
ATOM     72  F   UNL A   1      37.813  33.615  29.049  1.00  0.00    -0.206 F 
ATOM     73  C   UNL A   1      34.634  32.590  27.651  1.00  0.00     0.006 A 
ENDBRANCH  45  66
BRANCH  57  74
ATOM     74  C   UNL A   1      39.022  32.133  35.690  1.00  0.00     0.057 A 
ATOM     75  C   UNL A   1      39.369  33.484  35.812  1.00  0.00     0.134 A 
ATOM     76  C   UNL A   1      38.167  31.590  36.658  1.00  0.00     0.134 A 
ATOM     77  F   UNL A   1      40.193  34.057  34.922  1.00  0.00    -0.206 F 
ATOM     78  C   UNL A   1      38.904  34.259  36.874  1.00  0.00     0.040 A 
ATOM     79  C   UNL A   1      37.669  32.364  37.705  1.00  0.00     0.040 A 
ATOM     80  F   UNL A   1      37.787  30.305  36.590  1.00  0.00    -0.206 F 
ATOM     81  C   UNL A   1      38.045  33.701  37.818  1.00  0.00     0.006 A 
ENDBRANCH  57  74
ENDBRANCH  31  32
ENDBRANCH  24  26
ENDBRANCH  23  24
ENDBRANCH  22  23
ENDBRANCH  21  22
ENDBRANCH  20  21
ENDBRANCH   1  20
TORSDOF 17
ENDMDL
