MODEL 1
REMARK VINA RESULT:     -12.2      0.000      0.000
REMARK SMILES COc1ccc(NC(=O)N[C@@H]2C=C[C@H](C(=O)OCCOCCOC(=O)c3ccc(-c4c5nc(c(-c6c(F)cccc6F)c6ccc([nH]6)c(-c6c(F)cccc6F)c6nc(c(-c7c(F)cccc7F)c7ccc4[nH]7)C=C6)C=C5)cc3)C2)c(C)c1
REMARK SMILES IDX 19 1 18 2 17 3 15 4 16 5 14 6 11 7 12 8 80 9 13 10 10 11
REMARK SMILES IDX 7 12 8 13 9 15 6 17 3 18 4 19 83 20 5 21 81 22 82 23 2 24
REMARK SMILES IDX 1 25 20 26 21 27 22 28 23 29 24 30 25 31 26 32 27 33 79 34
REMARK SMILES IDX 28 35 78 36 29 37 30 38 31 39 72 40 32 41 77 42 71 43 73 44
REMARK SMILES IDX 33 45 76 46 70 47 69 48 34 50 60 51 43 52 59 53 44 54 47 55
REMARK SMILES IDX 58 56 74 57 45 58 46 59 57 61 75 62 48 63 35 64 36 65 41 66
REMARK SMILES IDX 37 67 38 68 40 69 42 70 39 71 61 72 62 73 67 74 63 75 64 76
REMARK SMILES IDX 66 77 68 78 65 79 49 80 50 81 55 82 51 83 52 84 54 85 56 86
REMARK SMILES IDX 53 87
REMARK H PARENT 7 14 10 16 73 49 47 60
REMARK Flexibility Score: inf
ROOT
ATOM      1  C   UNL A   1      34.673  32.066  28.300  1.00  0.00     0.202 C 
ENDROOT
BRANCH   1   2
ATOM      2  C   UNL A   1      34.355  30.971  27.325  1.00  0.00     0.261 C 
BRANCH   2   3
ATOM      3  O   UNL A   1      32.990  30.651  27.061  1.00  0.00    -0.463 OA
BRANCH   3   4
ATOM      4  C   UNL A   1      32.927  29.601  26.188  1.00  0.00     0.312 C 
ATOM      5  O   UNL A   1      33.083  29.756  24.976  1.00  0.00    -0.252 OA
BRANCH   4   6
ATOM      6  C   UNL A   1      33.040  28.082  26.904  1.00  0.00     0.124 C 
ATOM      7  C   UNL A   1      32.417  25.522  24.940  1.00  0.00     0.107 C 
ATOM      8  C   UNL A   1      30.830  26.471  25.583  1.00  0.00    -0.006 C 
ATOM      9  C   UNL A   1      33.986  26.250  25.983  1.00  0.00     0.048 C 
ATOM     10  C   UNL A   1      31.082  27.710  26.521  1.00  0.00    -0.014 C 
BRANCH   7  11
ATOM     11  N   UNL A   1      32.699  26.004  23.397  1.00  0.00    -0.332 N 
ATOM     12  N   UNL A   1      33.219  23.929  22.111  1.00  0.00    -0.308 N 
ATOM     13  C   UNL A   1      33.108  25.341  22.200  1.00  0.00     0.319 C 
ATOM     14  H   UNL A   1      33.183  23.507  21.222  1.00  0.00     0.171 HD
ATOM     15  O   UNL A   1      33.377  26.032  21.212  1.00  0.00    -0.248 OA
ATOM     16  H   UNL A   1      32.553  26.968  23.268  1.00  0.00     0.165 HD
BRANCH  12  17
ATOM     17  C   UNL A   1      33.379  23.112  23.242  1.00  0.00     0.046 A 
ATOM     18  C   UNL A   1      33.872  19.715  24.480  1.00  0.00     0.119 A 
ATOM     19  C   UNL A   1      32.414  20.102  23.687  1.00  0.00     0.048 A 
ATOM     20  C   UNL A   1      34.942  20.942  24.656  1.00  0.00     0.052 A 
ATOM     21  C   UNL A   1      32.138  22.044  23.161  1.00  0.00     0.030 A 
ATOM     22  C   UNL A   1      34.752  22.548  24.077  1.00  0.00    -0.024 A 
ATOM     23  C   UNL A   1      35.859  23.377  24.678  1.00  0.00     0.047 C 
BRANCH  18  24
ATOM     24  O   UNL A   1      33.934  18.482  25.029  1.00  0.00    -0.497 OA
ATOM     25  C   UNL A   1      34.685  17.501  24.332  1.00  0.00     0.278 C 
ENDBRANCH  18  24
ENDBRANCH  12  17
ENDBRANCH   7  11
ENDBRANCH   4   6
ENDBRANCH   3   4
ENDBRANCH   2   3
ENDBRANCH   1   2
BRANCH   1  26
ATOM     26  O   UNL A   1      34.667  33.434  27.967  1.00  0.00    -0.374 OA
BRANCH  26  27
ATOM     27  C   UNL A   1      33.439  34.070  28.418  1.00  0.00     0.202 C 
BRANCH  27  28
ATOM     28  C   UNL A   1      33.536  35.238  29.468  1.00  0.00     0.261 C 
BRANCH  28  29
ATOM     29  O   UNL A   1      33.080  34.793  30.789  1.00  0.00    -0.460 OA
BRANCH  29  30
ATOM     30  C   UNL A   1      33.857  35.082  31.885  1.00  0.00     0.338 C 
ATOM     31  O   UNL A   1      34.358  36.170  32.121  1.00  0.00    -0.246 OA
BRANCH  30  32
ATOM     32  C   UNL A   1      34.338  33.801  32.535  1.00  0.00     0.060 A 
ATOM     33  C   UNL A   1      35.108  33.884  33.703  1.00  0.00     0.016 A 
ATOM     34  C   UNL A   1      34.376  32.606  31.821  1.00  0.00     0.016 A 
ATOM     35  C   UNL A   1      36.139  32.953  33.934  1.00  0.00     0.010 A 
ATOM     36  C   UNL A   1      35.421  31.699  32.052  1.00  0.00     0.010 A 
ATOM     37  C   UNL A   1      36.443  31.991  32.967  1.00  0.00    -0.014 A 
BRANCH  37  38
ATOM     38  C   UNL A   1      37.861  31.551  32.702  1.00  0.00     0.031 A 
ATOM     39  C   UNL A   1      38.166  30.550  31.641  1.00  0.00     0.074 A 
ATOM     40  C   UNL A   1      38.963  32.199  33.177  1.00  0.00     0.049 A 
ATOM     41  N   UNL A   1      38.747  29.403  31.818  1.00  0.00    -0.248 NA
ATOM     42  C   UNL A   1      37.820  30.824  30.240  1.00  0.00     0.031 C 
ATOM     43  C   UNL A   1      40.345  31.983  32.743  1.00  0.00     0.029 A 
ATOM     44  N   UNL A   1      39.097  33.264  34.064  1.00  0.00    -0.354 N 
ATOM     45  C   UNL A   1      39.000  28.912  30.543  1.00  0.00     0.074 A 
ATOM     46  C   UNL A   1      38.177  29.688  29.641  1.00  0.00     0.031 C 
ATOM     47  C   UNL A   1      41.190  32.784  33.420  1.00  0.00     0.029 A 
ATOM     48  C   UNL A   1      40.430  33.452  34.450  1.00  0.00     0.049 A 
ATOM     49  H   UNL A   1      38.347  33.817  34.381  1.00  0.00     0.167 HD
ATOM     50  C   UNL A   1      40.180  28.319  30.188  1.00  0.00     0.037 A 
ATOM     51  C   UNL A   1      40.765  33.417  35.773  1.00  0.00     0.037 A 
ATOM     52  C   UNL A   1      41.254  28.720  31.102  1.00  0.00     0.049 A 
ATOM     53  C   UNL A   1      41.367  32.052  36.039  1.00  0.00     0.074 A 
ATOM     54  C   UNL A   1      42.339  29.569  30.928  1.00  0.00     0.029 A 
ATOM     55  N   UNL A   1      41.154  28.500  32.472  1.00  0.00    -0.354 N 
ATOM     56  N   UNL A   1      41.166  31.046  35.227  1.00  0.00    -0.248 NA
ATOM     57  C   UNL A   1      42.359  31.732  37.060  1.00  0.00     0.031 C 
ATOM     58  C   UNL A   1      42.875  29.870  32.212  1.00  0.00     0.029 A 
ATOM     59  C   UNL A   1      42.117  29.211  33.170  1.00  0.00     0.049 A 
ATOM     60  H   UNL A   1      40.483  27.914  32.892  1.00  0.00     0.167 HD
ATOM     61  C   UNL A   1      42.089  30.082  35.450  1.00  0.00     0.074 A 
ATOM     62  C   UNL A   1      42.745  30.498  36.676  1.00  0.00     0.031 C 
ATOM     63  C   UNL A   1      42.281  29.028  34.608  1.00  0.00     0.037 A 
BRANCH  50  64
ATOM     64  C   UNL A   1      40.427  27.707  28.808  1.00  0.00     0.057 A 
ATOM     65  C   UNL A   1      39.917  26.443  28.454  1.00  0.00     0.134 A 
ATOM     66  C   UNL A   1      41.080  28.374  27.748  1.00  0.00     0.134 A 
ATOM     67  F   UNL A   1      39.151  25.735  29.293  1.00  0.00    -0.206 F 
ATOM     68  C   UNL A   1      40.124  25.855  27.194  1.00  0.00     0.040 A 
ATOM     69  C   UNL A   1      41.334  27.780  26.498  1.00  0.00     0.040 A 
ATOM     70  F   UNL A   1      41.462  29.657  27.855  1.00  0.00    -0.206 F 
ATOM     71  C   UNL A   1      40.859  26.510  26.218  1.00  0.00     0.006 A 
ENDBRANCH  50  64
BRANCH  51  72
ATOM     72  C   UNL A   1      39.818  34.271  36.552  1.00  0.00     0.057 A 
ATOM     73  C   UNL A   1      38.968  33.560  37.433  1.00  0.00     0.134 A 
ATOM     74  C   UNL A   1      40.162  35.571  36.934  1.00  0.00     0.134 A 
ATOM     75  F   UNL A   1      38.565  32.318  37.118  1.00  0.00    -0.206 F 
ATOM     76  C   UNL A   1      38.688  34.018  38.726  1.00  0.00     0.040 A 
ATOM     77  C   UNL A   1      39.861  36.047  38.222  1.00  0.00     0.040 A 
ATOM     78  F   UNL A   1      40.979  36.309  36.171  1.00  0.00    -0.206 F 
ATOM     79  C   UNL A   1      39.188  35.244  39.143  1.00  0.00     0.006 A 
ENDBRANCH  51  72
BRANCH  63  80
ATOM     80  C   UNL A   1      42.657  27.684  35.134  1.00  0.00     0.057 A 
ATOM     81  C   UNL A   1      41.896  27.051  36.127  1.00  0.00     0.134 A 
ATOM     82  C   UNL A   1      43.623  26.891  34.487  1.00  0.00     0.134 A 
ATOM     83  F   UNL A   1      40.866  27.666  36.725  1.00  0.00    -0.206 F 
ATOM     84  C   UNL A   1      42.123  25.729  36.501  1.00  0.00     0.040 A 
ATOM     85  C   UNL A   1      43.816  25.551  34.813  1.00  0.00     0.040 A 
ATOM     86  F   UNL A   1      44.378  27.368  33.487  1.00  0.00    -0.206 F 
ATOM     87  C   UNL A   1      43.078  24.971  35.836  1.00  0.00     0.006 A 
ENDBRANCH  63  80
ENDBRANCH  37  38
ENDBRANCH  30  32
ENDBRANCH  29  30
ENDBRANCH  28  29
ENDBRANCH  27  28
ENDBRANCH  26  27
ENDBRANCH   1  26
TORSDOF 17
ENDMDL
MODEL 2
REMARK VINA RESULT:     -12.0      3.820      9.298
REMARK SMILES COc1ccc(NC(=O)N[C@@H]2C=C[C@H](C(=O)OCCOCCOC(=O)c3ccc(-c4c5nc(c(-c6c(F)cccc6F)c6ccc([nH]6)c(-c6c(F)cccc6F)c6nc(c(-c7c(F)cccc7F)c7ccc4[nH]7)C=C6)C=C5)cc3)C2)c(C)c1
REMARK SMILES IDX 19 1 18 2 17 3 15 4 16 5 14 6 11 7 12 8 80 9 13 10 10 11
REMARK SMILES IDX 7 12 8 13 9 15 6 17 3 18 4 19 83 20 5 21 81 22 82 23 2 24
REMARK SMILES IDX 1 25 20 26 21 27 22 28 23 29 24 30 25 31 26 32 27 33 79 34
REMARK SMILES IDX 28 35 78 36 29 37 30 38 31 39 72 40 32 41 77 42 71 43 73 44
REMARK SMILES IDX 33 45 76 46 70 47 69 48 34 50 60 51 43 52 59 53 44 54 47 55
REMARK SMILES IDX 58 56 74 57 45 58 46 59 57 61 75 62 48 63 35 64 36 65 41 66
REMARK SMILES IDX 37 67 38 68 40 69 42 70 39 71 61 72 62 73 67 74 63 75 64 76
REMARK SMILES IDX 66 77 68 78 65 79 49 80 50 81 55 82 51 83 52 84 54 85 56 86
REMARK SMILES IDX 53 87
REMARK H PARENT 7 14 10 16 73 49 47 60
REMARK Flexibility Score: inf
ROOT
ATOM      1  C   UNL A   1      39.497  21.235  25.958  1.00  0.00     0.202 C 
ENDROOT
BRANCH   1   2
ATOM      2  C   UNL A   1      38.240  21.953  25.562  1.00  0.00     0.261 C 
BRANCH   2   3
ATOM      3  O   UNL A   1      37.077  21.192  25.244  1.00  0.00    -0.463 OA
BRANCH   3   4
ATOM      4  C   UNL A   1      35.958  21.917  25.548  1.00  0.00     0.312 C 
ATOM      5  O   UNL A   1      35.264  21.656  26.531  1.00  0.00    -0.252 OA
BRANCH   4   6
ATOM      6  C   UNL A   1      35.842  23.396  24.754  1.00  0.00     0.124 C 
ATOM      7  C   UNL A   1      32.808  24.621  24.442  1.00  0.00     0.107 C 
ATOM      8  C   UNL A   1      33.253  23.193  23.178  1.00  0.00    -0.006 C 
ATOM      9  C   UNL A   1      34.530  25.129  25.366  1.00  0.00     0.048 C 
ATOM     10  C   UNL A   1      34.695  22.572  23.297  1.00  0.00    -0.014 C 
BRANCH   7  11
ATOM     11  N   UNL A   1      31.888  23.967  25.632  1.00  0.00    -0.332 N 
ATOM     12  N   UNL A   1      29.847  25.396  25.789  1.00  0.00    -0.308 N 
ATOM     13  C   UNL A   1      30.657  24.330  26.260  1.00  0.00     0.319 C 
ATOM     14  H   UNL A   1      28.892  25.406  26.028  1.00  0.00     0.171 HD
ATOM     15  O   UNL A   1      30.295  23.689  27.251  1.00  0.00    -0.248 OA
ATOM     16  H   UNL A   1      32.271  23.137  25.996  1.00  0.00     0.165 HD
BRANCH  12  17
ATOM     17  C   UNL A   1      30.357  26.437  24.995  1.00  0.00     0.046 A 
ATOM     18  C   UNL A   1      29.712  29.705  23.507  1.00  0.00     0.119 A 
ATOM     19  C   UNL A   1      28.798  28.365  22.985  1.00  0.00     0.048 A 
ATOM     20  C   UNL A   1      30.857  29.399  24.637  1.00  0.00     0.052 A 
ATOM     21  C   UNL A   1      29.311  26.550  23.738  1.00  0.00     0.030 A 
ATOM     22  C   UNL A   1      31.181  27.879  25.369  1.00  0.00    -0.024 A 
ATOM     23  C   UNL A   1      32.462  28.022  26.151  1.00  0.00     0.047 C 
BRANCH  18  24
ATOM     24  O   UNL A   1      29.516  30.855  22.823  1.00  0.00    -0.497 OA
ATOM     25  C   UNL A   1      28.796  31.884  23.482  1.00  0.00     0.278 C 
ENDBRANCH  18  24
ENDBRANCH  12  17
ENDBRANCH   7  11
ENDBRANCH   4   6
ENDBRANCH   3   4
ENDBRANCH   2   3
ENDBRANCH   1   2
BRANCH   1  26
ATOM     26  O   UNL A   1      40.038  21.266  27.257  1.00  0.00    -0.374 OA
BRANCH  26  27
ATOM     27  C   UNL A   1      41.427  20.834  27.248  1.00  0.00     0.202 C 
BRANCH  27  28
ATOM     28  C   UNL A   1      42.457  21.622  26.356  1.00  0.00     0.261 C 
BRANCH  28  29
ATOM     29  O   UNL A   1      42.662  22.981  26.870  1.00  0.00    -0.460 OA
BRANCH  29  30
ATOM     30  C   UNL A   1      42.560  24.037  25.997  1.00  0.00     0.338 C 
ATOM     31  O   UNL A   1      43.465  24.452  25.291  1.00  0.00    -0.246 OA
BRANCH  30  32
ATOM     32  C   UNL A   1      41.327  24.858  26.315  1.00  0.00     0.060 A 
ATOM     33  C   UNL A   1      41.211  26.142  25.766  1.00  0.00     0.016 A 
ATOM     34  C   UNL A   1      40.524  24.550  27.410  1.00  0.00     0.016 A 
ATOM     35  C   UNL A   1      40.596  27.171  26.504  1.00  0.00     0.010 A 
ATOM     36  C   UNL A   1      39.934  25.589  28.145  1.00  0.00     0.010 A 
ATOM     37  C   UNL A   1      40.166  26.932  27.812  1.00  0.00    -0.014 A 
BRANCH  37  38
ATOM     38  C   UNL A   1      40.273  27.984  28.888  1.00  0.00     0.031 A 
ATOM     39  C   UNL A   1      39.199  29.001  29.074  1.00  0.00     0.074 A 
ATOM     40  C   UNL A   1      41.164  27.933  29.920  1.00  0.00     0.049 A 
ATOM     41  N   UNL A   1      39.345  30.288  28.993  1.00  0.00    -0.248 NA
ATOM     42  C   UNL A   1      37.828  28.584  29.395  1.00  0.00     0.031 C 
ATOM     43  C   UNL A   1      41.140  28.767  31.123  1.00  0.00     0.029 A 
ATOM     44  N   UNL A   1      42.218  27.062  30.186  1.00  0.00    -0.354 N 
ATOM     45  C   UNL A   1      38.144  30.829  29.433  1.00  0.00     0.074 A 
ATOM     46  C   UNL A   1      37.181  29.749  29.404  1.00  0.00     0.031 C 
ATOM     47  C   UNL A   1      42.167  28.463  31.937  1.00  0.00     0.029 A 
ATOM     48  C   UNL A   1      43.017  27.525  31.240  1.00  0.00     0.049 A 
ATOM     49  H   UNL A   1      42.381  26.226  29.695  1.00  0.00     0.167 HD
ATOM     50  C   UNL A   1      38.068  31.903  30.276  1.00  0.00     0.037 A 
ATOM     51  C   UNL A   1      44.352  27.725  31.041  1.00  0.00     0.037 A 
ATOM     52  C   UNL A   1      39.320  32.061  31.024  1.00  0.00     0.049 A 
ATOM     53  C   UNL A   1      44.551  29.215  30.851  1.00  0.00     0.074 A 
ATOM     54  C   UNL A   1      39.631  31.818  32.354  1.00  0.00     0.029 A 
ATOM     55  N   UNL A   1      40.536  32.220  30.367  1.00  0.00    -0.354 N 
ATOM     56  N   UNL A   1      43.557  30.003  30.529  1.00  0.00    -0.248 NA
ATOM     57  C   UNL A   1      45.755  29.973  31.179  1.00  0.00     0.031 C 
ATOM     58  C   UNL A   1      41.049  31.815  32.483  1.00  0.00     0.029 A 
ATOM     59  C   UNL A   1      41.604  32.051  31.233  1.00  0.00     0.049 A 
ATOM     60  H   UNL A   1      40.625  32.427  29.408  1.00  0.00     0.167 HD
ATOM     61  C   UNL A   1      43.881  31.289  30.796  1.00  0.00     0.074 A 
ATOM     62  C   UNL A   1      45.301  31.241  31.094  1.00  0.00     0.031 C 
ATOM     63  C   UNL A   1      42.971  32.302  30.788  1.00  0.00     0.037 A 
BRANCH  50  64
ATOM     64  C   UNL A   1      36.745  32.546  30.695  1.00  0.00     0.057 A 
ATOM     65  C   UNL A   1      36.120  33.537  29.913  1.00  0.00     0.134 A 
ATOM     66  C   UNL A   1      35.987  32.147  31.819  1.00  0.00     0.134 A 
ATOM     67  F   UNL A   1      36.632  33.931  28.740  1.00  0.00    -0.206 F 
ATOM     68  C   UNL A   1      34.904  34.146  30.269  1.00  0.00     0.040 A 
ATOM     69  C   UNL A   1      34.793  32.778  32.211  1.00  0.00     0.040 A 
ATOM     70  F   UNL A   1      36.343  31.090  32.565  1.00  0.00    -0.206 F 
ATOM     71  C   UNL A   1      34.248  33.788  31.436  1.00  0.00     0.006 A 
ENDBRANCH  50  64
BRANCH  51  72
ATOM     72  C   UNL A   1      44.940  26.535  30.357  1.00  0.00     0.057 A 
ATOM     73  C   UNL A   1      44.957  25.353  31.136  1.00  0.00     0.134 A 
ATOM     74  C   UNL A   1      44.826  26.365  28.974  1.00  0.00     0.134 A 
ATOM     75  F   UNL A   1      45.100  25.432  32.470  1.00  0.00    -0.206 F 
ATOM     76  C   UNL A   1      44.629  24.103  30.599  1.00  0.00     0.040 A 
ATOM     77  C   UNL A   1      44.522  25.108  28.424  1.00  0.00     0.040 A 
ATOM     78  F   UNL A   1      44.780  27.429  28.160  1.00  0.00    -0.206 F 
ATOM     79  C   UNL A   1      44.351  23.990  29.243  1.00  0.00     0.006 A 
ENDBRANCH  51  72
BRANCH  63  80
ATOM     80  C   UNL A   1      43.347  33.670  30.329  1.00  0.00     0.057 A 
ATOM     81  C   UNL A   1      43.487  33.970  28.967  1.00  0.00     0.134 A 
ATOM     82  C   UNL A   1      43.326  34.767  31.210  1.00  0.00     0.134 A 
ATOM     83  F   UNL A   1      43.398  33.021  28.024  1.00  0.00    -0.206 F 
ATOM     84  C   UNL A   1      43.660  35.274  28.511  1.00  0.00     0.040 A 
ATOM     85  C   UNL A   1      43.439  36.079  30.758  1.00  0.00     0.040 A 
ATOM     86  F   UNL A   1      43.148  34.613  32.530  1.00  0.00    -0.206 F 
ATOM     87  C   UNL A   1      43.625  36.334  29.406  1.00  0.00     0.006 A 
ENDBRANCH  63  80
ENDBRANCH  37  38
ENDBRANCH  30  32
ENDBRANCH  29  30
ENDBRANCH  28  29
ENDBRANCH  27  28
ENDBRANCH  26  27
ENDBRANCH   1  26
TORSDOF 17
ENDMDL
MODEL 3
REMARK VINA RESULT:     -11.8      2.318      3.558
REMARK SMILES COc1ccc(NC(=O)N[C@@H]2C=C[C@H](C(=O)OCCOCCOC(=O)c3ccc(-c4c5nc(c(-c6c(F)cccc6F)c6ccc([nH]6)c(-c6c(F)cccc6F)c6nc(c(-c7c(F)cccc7F)c7ccc4[nH]7)C=C6)C=C5)cc3)C2)c(C)c1
REMARK SMILES IDX 19 1 18 2 17 3 15 4 16 5 14 6 11 7 12 8 80 9 13 10 10 11
REMARK SMILES IDX 7 12 8 13 9 15 6 17 3 18 4 19 83 20 5 21 81 22 82 23 2 24
REMARK SMILES IDX 1 25 20 26 21 27 22 28 23 29 24 30 25 31 26 32 27 33 79 34
REMARK SMILES IDX 28 35 78 36 29 37 30 38 31 39 72 40 32 41 77 42 71 43 73 44
REMARK SMILES IDX 33 45 76 46 70 47 69 48 34 50 60 51 43 52 59 53 44 54 47 55
REMARK SMILES IDX 58 56 74 57 45 58 46 59 57 61 75 62 48 63 35 64 36 65 41 66
REMARK SMILES IDX 37 67 38 68 40 69 42 70 39 71 61 72 62 73 67 74 63 75 64 76
REMARK SMILES IDX 66 77 68 78 65 79 49 80 50 81 55 82 51 83 52 84 54 85 56 86
REMARK SMILES IDX 53 87
REMARK H PARENT 7 14 10 16 73 49 47 60
REMARK Flexibility Score: inf
ROOT
ATOM      1  C   UNL A   1      33.327  33.934  28.003  1.00  0.00     0.202 C 
ENDROOT
BRANCH   1   2
ATOM      2  C   UNL A   1      33.876  32.568  27.713  1.00  0.00     0.261 C 
BRANCH   2   3
ATOM      3  O   UNL A   1      33.103  31.421  28.063  1.00  0.00    -0.463 OA
BRANCH   3   4
ATOM      4  C   UNL A   1      32.643  30.815  26.927  1.00  0.00     0.312 C 
ATOM      5  O   UNL A   1      31.597  31.170  26.382  1.00  0.00    -0.252 OA
BRANCH   4   6
ATOM      6  C   UNL A   1      33.780  29.872  26.122  1.00  0.00     0.124 C 
ATOM      7  C   UNL A   1      32.601  27.249  24.532  1.00  0.00     0.107 C 
ATOM      8  C   UNL A   1      32.771  27.029  26.470  1.00  0.00    -0.006 C 
ATOM      9  C   UNL A   1      33.540  28.975  24.064  1.00  0.00     0.048 C 
ATOM     10  C   UNL A   1      33.325  28.265  27.273  1.00  0.00    -0.014 C 
BRANCH   7  11
ATOM     11  N   UNL A   1      31.023  27.544  24.197  1.00  0.00    -0.332 N 
ATOM     12  N   UNL A   1      29.890  25.320  24.202  1.00  0.00    -0.308 N 
ATOM     13  C   UNL A   1      29.874  26.722  23.987  1.00  0.00     0.319 C 
ATOM     14  H   UNL A   1      29.037  24.855  24.361  1.00  0.00     0.171 HD
ATOM     15  O   UNL A   1      28.833  27.262  23.599  1.00  0.00    -0.248 OA
ATOM     16  H   UNL A   1      30.823  28.504  24.125  1.00  0.00     0.165 HD
BRANCH  12  17
ATOM     17  C   UNL A   1      31.077  24.570  24.196  1.00  0.00     0.046 A 
ATOM     18  C   UNL A   1      32.554  21.235  24.061  1.00  0.00     0.119 A 
ATOM     19  C   UNL A   1      31.616  21.669  25.416  1.00  0.00     0.048 A 
ATOM     20  C   UNL A   1      32.747  22.394  22.920  1.00  0.00     0.052 A 
ATOM     21  C   UNL A   1      30.954  23.588  25.503  1.00  0.00     0.030 A 
ATOM     22  C   UNL A   1      32.059  23.968  22.942  1.00  0.00    -0.024 A 
ATOM     23  C   UNL A   1      32.703  24.756  21.829  1.00  0.00     0.047 C 
BRANCH  18  24
ATOM     24  O   UNL A   1      33.179  20.039  24.135  1.00  0.00    -0.497 OA
ATOM     25  C   UNL A   1      32.494  18.918  23.601  1.00  0.00     0.278 C 
ENDBRANCH  18  24
ENDBRANCH  12  17
ENDBRANCH   7  11
ENDBRANCH   4   6
ENDBRANCH   3   4
ENDBRANCH   2   3
ENDBRANCH   1   2
BRANCH   1  26
ATOM     26  O   UNL A   1      32.894  34.347  29.277  1.00  0.00    -0.374 OA
BRANCH  26  27
ATOM     27  C   UNL A   1      34.020  34.793  30.084  1.00  0.00     0.202 C 
BRANCH  27  28
ATOM     28  C   UNL A   1      34.295  34.075  31.458  1.00  0.00     0.261 C 
BRANCH  28  29
ATOM     29  O   UNL A   1      34.350  32.619  31.286  1.00  0.00    -0.460 OA
BRANCH  29  30
ATOM     30  C   UNL A   1      35.500  31.958  31.642  1.00  0.00     0.338 C 
ATOM     31  O   UNL A   1      36.119  32.137  32.679  1.00  0.00    -0.246 OA
BRANCH  30  32
ATOM     32  C   UNL A   1      36.113  31.288  30.429  1.00  0.00     0.060 A 
ATOM     33  C   UNL A   1      36.195  29.889  30.399  1.00  0.00     0.016 A 
ATOM     34  C   UNL A   1      36.927  32.001  29.552  1.00  0.00     0.016 A 
ATOM     35  C   UNL A   1      37.296  29.261  29.786  1.00  0.00     0.010 A 
ATOM     36  C   UNL A   1      38.030  31.363  28.965  1.00  0.00     0.010 A 
ATOM     37  C   UNL A   1      38.343  30.031  29.272  1.00  0.00    -0.014 A 
BRANCH  37  38
ATOM     38  C   UNL A   1      39.780  29.579  29.361  1.00  0.00     0.031 A 
ATOM     39  C   UNL A   1      40.251  28.376  28.618  1.00  0.00     0.074 A 
ATOM     40  C   UNL A   1      40.791  30.344  29.864  1.00  0.00     0.049 A 
ATOM     41  N   UNL A   1      40.776  27.312  29.143  1.00  0.00    -0.248 NA
ATOM     42  C   UNL A   1      40.159  28.325  27.153  1.00  0.00     0.031 C 
ATOM     43  C   UNL A   1      42.224  30.073  29.735  1.00  0.00     0.029 A 
ATOM     44  N   UNL A   1      40.782  31.583  30.501  1.00  0.00    -0.354 N 
ATOM     45  C   UNL A   1      41.242  26.558  28.074  1.00  0.00     0.074 A 
ATOM     46  C   UNL A   1      40.599  27.094  26.893  1.00  0.00     0.031 C 
ATOM     47  C   UNL A   1      42.948  31.025  30.352  1.00  0.00     0.029 A 
ATOM     48  C   UNL A   1      42.030  31.885  31.060  1.00  0.00     0.049 A 
ATOM     49  H   UNL A   1      39.995  32.172  30.552  1.00  0.00     0.167 HD
ATOM     50  C   UNL A   1      42.457  25.931  28.069  1.00  0.00     0.037 A 
ATOM     51  C   UNL A   1      42.127  32.153  32.395  1.00  0.00     0.037 A 
ATOM     52  C   UNL A   1      43.361  26.552  29.043  1.00  0.00     0.049 A 
ATOM     53  C   UNL A   1      42.655  30.897  33.059  1.00  0.00     0.074 A 
ATOM     54  C   UNL A   1      44.470  27.369  28.876  1.00  0.00     0.029 A 
ATOM     55  N   UNL A   1      43.020  26.638  30.389  1.00  0.00    -0.354 N 
ATOM     56  N   UNL A   1      42.586  29.730  32.468  1.00  0.00    -0.248 NA
ATOM     57  C   UNL A   1      43.449  30.836  34.281  1.00  0.00     0.031 C 
ATOM     58  C   UNL A   1      44.778  27.960  30.133  1.00  0.00     0.029 A 
ATOM     59  C   UNL A   1      43.855  27.510  31.068  1.00  0.00     0.049 A 
ATOM     60  H   UNL A   1      42.277  26.143  30.806  1.00  0.00     0.167 HD
ATOM     61  C   UNL A   1      43.442  28.864  33.056  1.00  0.00     0.074 A 
ATOM     62  C   UNL A   1      43.880  29.557  34.254  1.00  0.00     0.031 C 
ATOM     63  C   UNL A   1      43.763  27.655  32.517  1.00  0.00     0.037 A 
BRANCH  50  64
ATOM     64  C   UNL A   1      42.933  25.036  26.924  1.00  0.00     0.057 A 
ATOM     65  C   UNL A   1      42.498  23.703  26.794  1.00  0.00     0.134 A 
ATOM     66  C   UNL A   1      43.747  25.476  25.856  1.00  0.00     0.134 A 
ATOM     67  F   UNL A   1      41.610  23.168  27.641  1.00  0.00    -0.206 F 
ATOM     68  C   UNL A   1      42.915  22.855  25.753  1.00  0.00     0.040 A 
ATOM     69  C   UNL A   1      44.207  24.627  24.833  1.00  0.00     0.040 A 
ATOM     70  F   UNL A   1      44.095  26.765  25.724  1.00  0.00    -0.206 F 
ATOM     71  C   UNL A   1      43.795  23.306  24.781  1.00  0.00     0.006 A 
ENDBRANCH  50  64
BRANCH  51  72
ATOM     72  C   UNL A   1      41.071  33.133  32.789  1.00  0.00     0.057 A 
ATOM     73  C   UNL A   1      40.021  32.590  33.568  1.00  0.00     0.134 A 
ATOM     74  C   UNL A   1      41.379  34.478  33.011  1.00  0.00     0.134 A 
ATOM     75  F   UNL A   1      39.643  31.313  33.387  1.00  0.00    -0.206 F 
ATOM     76  C   UNL A   1      39.486  33.268  34.669  1.00  0.00     0.040 A 
ATOM     77  C   UNL A   1      40.825  35.174  34.100  1.00  0.00     0.040 A 
ATOM     78  F   UNL A   1      42.373  35.069  32.334  1.00  0.00    -0.206 F 
ATOM     79  C   UNL A   1      39.934  34.547  34.972  1.00  0.00     0.006 A 
ENDBRANCH  51  72
BRANCH  63  80
ATOM     80  C   UNL A   1      44.023  26.471  33.385  1.00  0.00     0.057 A 
ATOM     81  C   UNL A   1      43.033  25.959  34.236  1.00  0.00     0.134 A 
ATOM     82  C   UNL A   1      45.165  25.669  33.203  1.00  0.00     0.134 A 
ATOM     83  F   UNL A   1      41.851  26.572  34.390  1.00  0.00    -0.206 F 
ATOM     84  C   UNL A   1      43.193  24.755  34.916  1.00  0.00     0.040 A 
ATOM     85  C   UNL A   1      45.308  24.435  33.833  1.00  0.00     0.040 A 
ATOM     86  F   UNL A   1      46.158  26.026  32.376  1.00  0.00    -0.206 F 
ATOM     87  C   UNL A   1      44.328  23.983  34.707  1.00  0.00     0.006 A 
ENDBRANCH  63  80
ENDBRANCH  37  38
ENDBRANCH  30  32
ENDBRANCH  29  30
ENDBRANCH  28  29
ENDBRANCH  27  28
ENDBRANCH  26  27
ENDBRANCH   1  26
TORSDOF 17
ENDMDL
