MODEL 1
REMARK VINA RESULT:     -11.8      0.000      0.000
REMARK SMILES Cc1nc(C(=O)OCCOCCOC(=O)c2ccc(-c3c4nc(c(-c5c(F)cccc5F)c5ccc([nH]5)c(-c5c(F)cccc5F)c5nc(c(-c6c(F)cccc6F)c6ccc3[nH]6)C=C5)C=C4)cc2)nn1-c1cccc(C(F)(F)F)c1
REMARK SMILES IDX 10 1 9 2 8 3 7 4 5 5 6 6 4 7 1 8 2 9 3 10 71 11 70 12 72 13
REMARK SMILES IDX 73 14 81 15 74 16 76 17 75 18 77 19 78 20 79 21 80 22 11 23
REMARK SMILES IDX 12 24 13 25 14 26 15 27 16 28 17 29 69 30 18 31 68 32 19 33
REMARK SMILES IDX 20 34 21 35 62 36 22 37 67 38 61 39 63 40 23 41 66 42 60 43
REMARK SMILES IDX 59 44 24 46 50 47 33 48 49 49 34 50 37 51 48 52 64 53 35 54
REMARK SMILES IDX 36 55 47 57 65 58 38 59 25 60 26 61 31 62 27 63 28 64 30 65
REMARK SMILES IDX 32 66 29 67 51 68 52 69 57 70 53 71 54 72 56 73 58 74 55 75
REMARK SMILES IDX 39 76 40 77 45 78 41 79 42 80 44 81 46 82 43 83
REMARK H PARENT 63 45 37 56
REMARK Flexibility Score: inf
ROOT
ATOM      1  O   UNL A   1      34.402  34.791  28.268  1.00  0.00    -0.374 OA
ENDROOT
BRANCH   1   2
ATOM      2  C   UNL A   1      33.678  33.579  28.052  1.00  0.00     0.202 C 
BRANCH   2   3
ATOM      3  C   UNL A   1      34.492  32.291  27.935  1.00  0.00     0.261 C 
BRANCH   3   4
ATOM      4  O   UNL A   1      33.649  31.127  27.868  1.00  0.00    -0.457 OA
BRANCH   4   5
ATOM      5  C   UNL A   1      34.226  30.012  27.325  1.00  0.00     0.378 C 
ATOM      6  O   UNL A   1      35.177  29.415  27.827  1.00  0.00    -0.242 OA
BRANCH   5   7
ATOM      7  C   UNL A   1      33.500  29.510  26.145  1.00  0.00     0.260 A 
ATOM      8  C   UNL A   1      33.440  27.941  22.947  1.00  0.00     0.090 C 
ATOM      9  C   UNL A   1      33.175  28.510  24.292  1.00  0.00     0.130 A 
ATOM     10  N   UNL A   1      34.112  28.726  25.191  1.00  0.00    -0.206 NA
ATOM     11  N   UNL A   1      31.997  29.102  24.716  1.00  0.00    -0.217 N 
ATOM     12  N   UNL A   1      32.208  29.767  25.881  1.00  0.00    -0.138 NA
BRANCH  11  13
ATOM     13  C   UNL A   1      30.721  29.136  24.103  1.00  0.00     0.067 A 
ATOM     14  C   UNL A   1      30.152  27.928  23.677  1.00  0.00     0.028 A 
ATOM     15  C   UNL A   1      30.041  30.342  23.890  1.00  0.00     0.041 A 
ATOM     16  C   UNL A   1      28.880  27.918  23.106  1.00  0.00     0.003 A 
ATOM     17  C   UNL A   1      28.776  30.341  23.272  1.00  0.00     0.058 A 
ATOM     18  C   UNL A   1      28.195  29.116  22.907  1.00  0.00     0.013 A 
BRANCH  17  19
ATOM     19  C   UNL A   1      28.048  31.630  22.967  1.00  0.00     0.416 C 
ATOM     20  F   UNL A   1      27.634  31.698  21.672  1.00  0.00    -0.166 F 
ATOM     21  F   UNL A   1      26.933  31.793  23.729  1.00  0.00    -0.166 F 
ATOM     22  F   UNL A   1      28.808  32.742  23.174  1.00  0.00    -0.166 F 
ENDBRANCH  17  19
ENDBRANCH  11  13
ENDBRANCH   5   7
ENDBRANCH   4   5
ENDBRANCH   3   4
ENDBRANCH   2   3
ENDBRANCH   1   2
BRANCH   1  23
ATOM     23  C   UNL A   1      33.697  35.982  28.610  1.00  0.00     0.202 C 
BRANCH  23  24
ATOM     24  C   UNL A   1      32.890  35.965  29.901  1.00  0.00     0.261 C 
BRANCH  24  25
ATOM     25  O   UNL A   1      33.736  35.841  31.032  1.00  0.00    -0.460 OA
BRANCH  25  26
ATOM     26  C   UNL A   1      33.179  35.232  32.099  1.00  0.00     0.338 C 
ATOM     27  O   UNL A   1      32.011  35.301  32.474  1.00  0.00    -0.246 OA
BRANCH  26  28
ATOM     28  C   UNL A   1      34.255  34.593  32.861  1.00  0.00     0.060 A 
ATOM     29  C   UNL A   1      35.420  35.348  32.982  1.00  0.00     0.016 A 
ATOM     30  C   UNL A   1      34.235  33.201  33.055  1.00  0.00     0.016 A 
ATOM     31  C   UNL A   1      36.614  34.674  32.970  1.00  0.00     0.010 A 
ATOM     32  C   UNL A   1      35.430  32.527  33.023  1.00  0.00     0.010 A 
ATOM     33  C   UNL A   1      36.590  33.278  32.865  1.00  0.00    -0.014 A 
BRANCH  33  34
ATOM     34  C   UNL A   1      37.840  32.633  32.559  1.00  0.00     0.031 A 
ATOM     35  C   UNL A   1      38.772  32.567  33.695  1.00  0.00     0.074 A 
ATOM     36  C   UNL A   1      38.104  32.115  31.347  1.00  0.00     0.049 A 
ATOM     37  N   UNL A   1      39.886  33.201  33.836  1.00  0.00    -0.248 NA
ATOM     38  C   UNL A   1      38.331  31.823  34.882  1.00  0.00     0.031 C 
ATOM     39  C   UNL A   1      37.192  31.860  30.232  1.00  0.00     0.029 A 
ATOM     40  N   UNL A   1      39.283  31.612  30.906  1.00  0.00    -0.354 N 
ATOM     41  C   UNL A   1      40.377  32.813  35.075  1.00  0.00     0.074 A 
ATOM     42  C   UNL A   1      39.313  32.102  35.736  1.00  0.00     0.031 C 
ATOM     43  C   UNL A   1      37.808  31.044  29.344  1.00  0.00     0.029 A 
ATOM     44  C   UNL A   1      39.179  30.823  29.776  1.00  0.00     0.049 A 
ATOM     45  H   UNL A   1      40.141  31.794  31.353  1.00  0.00     0.167 HD
ATOM     46  C   UNL A   1      41.695  32.930  35.382  1.00  0.00     0.037 A 
ATOM     47  C   UNL A   1      40.137  29.976  29.328  1.00  0.00     0.037 A 
ATOM     48  C   UNL A   1      42.376  33.820  34.480  1.00  0.00     0.049 A 
ATOM     49  C   UNL A   1      41.432  30.407  29.930  1.00  0.00     0.074 A 
ATOM     50  C   UNL A   1      42.242  35.158  34.158  1.00  0.00     0.029 A 
ATOM     51  N   UNL A   1      43.134  33.270  33.475  1.00  0.00    -0.354 N 
ATOM     52  N   UNL A   1      42.051  31.512  29.612  1.00  0.00    -0.248 NA
ATOM     53  C   UNL A   1      41.810  29.837  31.218  1.00  0.00     0.031 C 
ATOM     54  C   UNL A   1      42.509  35.232  32.760  1.00  0.00     0.029 A 
ATOM     55  C   UNL A   1      42.822  33.945  32.322  1.00  0.00     0.049 A 
ATOM     56  H   UNL A   1      43.779  32.530  33.565  1.00  0.00     0.167 HD
ATOM     57  C   UNL A   1      42.569  31.992  30.809  1.00  0.00     0.074 A 
ATOM     58  C   UNL A   1      42.467  30.875  31.744  1.00  0.00     0.031 C 
ATOM     59  C   UNL A   1      42.762  33.328  31.017  1.00  0.00     0.037 A 
BRANCH  46  60
ATOM     60  C   UNL A   1      42.423  31.987  36.297  1.00  0.00     0.057 A 
ATOM     61  C   UNL A   1      43.149  32.504  37.382  1.00  0.00     0.134 A 
ATOM     62  C   UNL A   1      42.663  30.629  36.002  1.00  0.00     0.134 A 
ATOM     63  F   UNL A   1      43.022  33.789  37.745  1.00  0.00    -0.206 F 
ATOM     64  C   UNL A   1      44.089  31.741  38.083  1.00  0.00     0.040 A 
ATOM     65  C   UNL A   1      43.556  29.843  36.732  1.00  0.00     0.040 A 
ATOM     66  F   UNL A   1      42.129  30.018  34.936  1.00  0.00    -0.206 F 
ATOM     67  C   UNL A   1      44.297  30.407  37.757  1.00  0.00     0.006 A 
ENDBRANCH  46  60
BRANCH  47  68
ATOM     68  C   UNL A   1      39.941  28.647  28.703  1.00  0.00     0.057 A 
ATOM     69  C   UNL A   1      40.473  28.358  27.439  1.00  0.00     0.134 A 
ATOM     70  C   UNL A   1      39.444  27.545  29.424  1.00  0.00     0.134 A 
ATOM     71  F   UNL A   1      41.016  29.329  26.690  1.00  0.00    -0.206 F 
ATOM     72  C   UNL A   1      40.523  27.052  26.931  1.00  0.00     0.040 A 
ATOM     73  C   UNL A   1      39.474  26.240  28.924  1.00  0.00     0.040 A 
ATOM     74  F   UNL A   1      38.989  27.677  30.677  1.00  0.00    -0.206 F 
ATOM     75  C   UNL A   1      40.028  25.987  27.676  1.00  0.00     0.006 A 
ENDBRANCH  47  68
BRANCH  59  76
ATOM     76  C   UNL A   1      42.616  34.255  29.842  1.00  0.00     0.057 A 
ATOM     77  C   UNL A   1      43.644  34.503  28.919  1.00  0.00     0.134 A 
ATOM     78  C   UNL A   1      41.353  34.774  29.536  1.00  0.00     0.134 A 
ATOM     79  F   UNL A   1      44.855  33.954  29.068  1.00  0.00    -0.206 F 
ATOM     80  C   UNL A   1      43.435  35.273  27.771  1.00  0.00     0.040 A 
ATOM     81  C   UNL A   1      41.124  35.515  28.375  1.00  0.00     0.040 A 
ATOM     82  F   UNL A   1      40.307  34.523  30.338  1.00  0.00    -0.206 F 
ATOM     83  C   UNL A   1      42.169  35.776  27.492  1.00  0.00     0.006 A 
ENDBRANCH  59  76
ENDBRANCH  33  34
ENDBRANCH  26  28
ENDBRANCH  25  26
ENDBRANCH  24  25
ENDBRANCH  23  24
ENDBRANCH   1  23
TORSDOF 16
ENDMDL
MODEL 2
REMARK VINA RESULT:     -11.6      6.982     11.660
REMARK SMILES Cc1nc(C(=O)OCCOCCOC(=O)c2ccc(-c3c4nc(c(-c5c(F)cccc5F)c5ccc([nH]5)c(-c5c(F)cccc5F)c5nc(c(-c6c(F)cccc6F)c6ccc3[nH]6)C=C5)C=C4)cc2)nn1-c1cccc(C(F)(F)F)c1
REMARK SMILES IDX 10 1 9 2 8 3 7 4 5 5 6 6 4 7 1 8 2 9 3 10 71 11 70 12 72 13
REMARK SMILES IDX 73 14 81 15 74 16 76 17 75 18 77 19 78 20 79 21 80 22 11 23
REMARK SMILES IDX 12 24 13 25 14 26 15 27 16 28 17 29 69 30 18 31 68 32 19 33
REMARK SMILES IDX 20 34 21 35 62 36 22 37 67 38 61 39 63 40 23 41 66 42 60 43
REMARK SMILES IDX 59 44 24 46 50 47 33 48 49 49 34 50 37 51 48 52 64 53 35 54
REMARK SMILES IDX 36 55 47 57 65 58 38 59 25 60 26 61 31 62 27 63 28 64 30 65
REMARK SMILES IDX 32 66 29 67 51 68 52 69 57 70 53 71 54 72 56 73 58 74 55 75
REMARK SMILES IDX 39 76 40 77 45 78 41 79 42 80 44 81 46 82 43 83
REMARK H PARENT 63 45 37 56
REMARK Flexibility Score: inf
ROOT
ATOM      1  O   UNL A   1      42.172  20.310  26.844  1.00  0.00    -0.374 OA
ENDROOT
BRANCH   1   2
ATOM      2  C   UNL A   1      40.890  20.874  27.125  1.00  0.00     0.202 C 
BRANCH   2   3
ATOM      3  C   UNL A   1      40.349  21.907  26.138  1.00  0.00     0.261 C 
BRANCH   3   4
ATOM      4  O   UNL A   1      38.985  21.638  25.772  1.00  0.00    -0.457 OA
BRANCH   4   5
ATOM      5  C   UNL A   1      38.104  22.664  25.985  1.00  0.00     0.378 C 
ATOM      6  O   UNL A   1      38.440  23.834  26.159  1.00  0.00    -0.242 OA
BRANCH   5   7
ATOM      7  C   UNL A   1      36.698  22.248  25.843  1.00  0.00     0.260 A 
ATOM      8  C   UNL A   1      33.280  22.393  26.838  1.00  0.00     0.090 C 
ATOM      9  C   UNL A   1      34.591  22.232  26.161  1.00  0.00     0.130 A 
ATOM     10  N   UNL A   1      35.675  22.896  26.501  1.00  0.00    -0.206 NA
ATOM     11  N   UNL A   1      34.936  21.231  25.268  1.00  0.00    -0.217 N 
ATOM     12  N   UNL A   1      36.282  21.219  25.086  1.00  0.00    -0.138 NA
BRANCH  11  13
ATOM     13  C   UNL A   1      34.126  20.269  24.617  1.00  0.00     0.067 A 
ATOM     14  C   UNL A   1      32.942  20.699  24.003  1.00  0.00     0.028 A 
ATOM     15  C   UNL A   1      34.465  18.910  24.606  1.00  0.00     0.041 A 
ATOM     16  C   UNL A   1      32.139  19.787  23.319  1.00  0.00     0.003 A 
ATOM     17  C   UNL A   1      33.634  17.979  23.955  1.00  0.00     0.058 A 
ATOM     18  C   UNL A   1      32.484  18.437  23.293  1.00  0.00     0.013 A 
BRANCH  17  19
ATOM     19  C   UNL A   1      33.937  16.499  23.983  1.00  0.00     0.416 C 
ATOM     20  F   UNL A   1      34.923  16.188  24.870  1.00  0.00    -0.166 F 
ATOM     21  F   UNL A   1      32.858  15.751  24.341  1.00  0.00    -0.166 F 
ATOM     22  F   UNL A   1      34.350  16.009  22.781  1.00  0.00    -0.166 F 
ENDBRANCH  17  19
ENDBRANCH  11  13
ENDBRANCH   5   7
ENDBRANCH   4   5
ENDBRANCH   3   4
ENDBRANCH   2   3
ENDBRANCH   1   2
BRANCH   1  23
ATOM     23  C   UNL A   1      42.263  18.968  26.372  1.00  0.00     0.202 C 
BRANCH  23  24
ATOM     24  C   UNL A   1      43.586  18.536  25.756  1.00  0.00     0.261 C 
BRANCH  24  25
ATOM     25  O   UNL A   1      44.468  19.638  25.610  1.00  0.00    -0.460 OA
BRANCH  25  26
ATOM     26  C   UNL A   1      44.586  20.114  24.354  1.00  0.00     0.338 C 
ATOM     27  O   UNL A   1      44.477  19.486  23.303  1.00  0.00    -0.246 OA
BRANCH  26  28
ATOM     28  C   UNL A   1      45.047  21.501  24.443  1.00  0.00     0.060 A 
ATOM     29  C   UNL A   1      45.977  21.750  25.452  1.00  0.00     0.016 A 
ATOM     30  C   UNL A   1      44.289  22.524  23.848  1.00  0.00     0.016 A 
ATOM     31  C   UNL A   1      45.908  22.961  26.090  1.00  0.00     0.010 A 
ATOM     32  C   UNL A   1      44.206  23.728  24.500  1.00  0.00     0.010 A 
ATOM     33  C   UNL A   1      44.934  23.878  25.675  1.00  0.00    -0.014 A 
BRANCH  33  34
ATOM     34  C   UNL A   1      44.694  25.000  26.545  1.00  0.00     0.031 A 
ATOM     35  C   UNL A   1      45.784  25.988  26.559  1.00  0.00     0.074 A 
ATOM     36  C   UNL A   1      43.557  25.134  27.249  1.00  0.00     0.049 A 
ATOM     37  N   UNL A   1      46.595  26.249  27.527  1.00  0.00    -0.248 NA
ATOM     38  C   UNL A   1      46.104  26.653  25.290  1.00  0.00     0.031 C 
ATOM     39  C   UNL A   1      42.299  24.398  27.122  1.00  0.00     0.029 A 
ATOM     40  N   UNL A   1      43.279  26.066  28.193  1.00  0.00    -0.354 N 
ATOM     41  C   UNL A   1      47.441  27.238  27.044  1.00  0.00     0.074 A 
ATOM     42  C   UNL A   1      47.202  27.328  25.626  1.00  0.00     0.031 C 
ATOM     43  C   UNL A   1      41.333  25.068  27.794  1.00  0.00     0.029 A 
ATOM     44  C   UNL A   1      41.933  26.200  28.482  1.00  0.00     0.049 A 
ATOM     45  H   UNL A   1      43.976  26.601  28.636  1.00  0.00     0.167 HD
ATOM     46  C   UNL A   1      48.132  28.052  27.884  1.00  0.00     0.037 A 
ATOM     47  C   UNL A   1      41.381  27.245  29.144  1.00  0.00     0.037 A 
ATOM     48  C   UNL A   1      48.182  27.521  29.220  1.00  0.00     0.049 A 
ATOM     49  C   UNL A   1      42.471  27.915  29.910  1.00  0.00     0.074 A 
ATOM     50  C   UNL A   1      48.691  26.365  29.781  1.00  0.00     0.029 A 
ATOM     51  N   UNL A   1      47.327  28.046  30.159  1.00  0.00    -0.354 N 
ATOM     52  N   UNL A   1      43.069  27.385  30.943  1.00  0.00    -0.248 NA
ATOM     53  C   UNL A   1      43.213  28.983  29.250  1.00  0.00     0.031 C 
ATOM     54  C   UNL A   1      47.765  26.009  30.805  1.00  0.00     0.029 A 
ATOM     55  C   UNL A   1      46.769  26.986  30.829  1.00  0.00     0.049 A 
ATOM     56  H   UNL A   1      47.149  29.001  30.321  1.00  0.00     0.167 HD
ATOM     57  C   UNL A   1      44.404  27.746  30.812  1.00  0.00     0.074 A 
ATOM     58  C   UNL A   1      44.416  28.803  29.804  1.00  0.00     0.031 C 
ATOM     59  C   UNL A   1      45.407  26.965  31.311  1.00  0.00     0.037 A 
BRANCH  46  60
ATOM     60  C   UNL A   1      48.476  29.478  27.563  1.00  0.00     0.057 A 
ATOM     61  C   UNL A   1      49.811  29.903  27.666  1.00  0.00     0.134 A 
ATOM     62  C   UNL A   1      47.524  30.509  27.422  1.00  0.00     0.134 A 
ATOM     63  F   UNL A   1      50.805  29.016  27.825  1.00  0.00    -0.206 F 
ATOM     64  C   UNL A   1      50.164  31.256  27.688  1.00  0.00     0.040 A 
ATOM     65  C   UNL A   1      47.871  31.860  27.384  1.00  0.00     0.040 A 
ATOM     66  F   UNL A   1      46.205  30.274  27.417  1.00  0.00    -0.206 F 
ATOM     67  C   UNL A   1      49.193  32.240  27.550  1.00  0.00     0.006 A 
ENDBRANCH  46  60
BRANCH  47  68
ATOM     68  C   UNL A   1      40.069  27.881  28.884  1.00  0.00     0.057 A 
ATOM     69  C   UNL A   1      39.089  27.953  29.885  1.00  0.00     0.134 A 
ATOM     70  C   UNL A   1      39.826  28.657  27.734  1.00  0.00     0.134 A 
ATOM     71  F   UNL A   1      39.247  27.292  31.040  1.00  0.00    -0.206 F 
ATOM     72  C   UNL A   1      37.948  28.758  29.756  1.00  0.00     0.040 A 
ATOM     73  C   UNL A   1      38.686  29.451  27.586  1.00  0.00     0.040 A 
ATOM     74  F   UNL A   1      40.726  28.741  26.745  1.00  0.00    -0.206 F 
ATOM     75  C   UNL A   1      37.747  29.515  28.607  1.00  0.00     0.006 A 
ENDBRANCH  47  68
BRANCH  59  76
ATOM     76  C   UNL A   1      45.030  25.816  32.206  1.00  0.00     0.057 A 
ATOM     77  C   UNL A   1      44.818  25.947  33.586  1.00  0.00     0.134 A 
ATOM     78  C   UNL A   1      44.701  24.584  31.630  1.00  0.00     0.134 A 
ATOM     79  F   UNL A   1      44.996  27.120  34.206  1.00  0.00    -0.206 F 
ATOM     80  C   UNL A   1      44.348  24.886  34.365  1.00  0.00     0.040 A 
ATOM     81  C   UNL A   1      44.198  23.527  32.392  1.00  0.00     0.040 A 
ATOM     82  F   UNL A   1      44.814  24.404  30.305  1.00  0.00    -0.206 F 
ATOM     83  C   UNL A   1      44.029  23.672  33.767  1.00  0.00     0.006 A 
ENDBRANCH  59  76
ENDBRANCH  33  34
ENDBRANCH  26  28
ENDBRANCH  25  26
ENDBRANCH  24  25
ENDBRANCH  23  24
ENDBRANCH   1  23
TORSDOF 16
ENDMDL
MODEL 3
REMARK VINA RESULT:     -11.4      6.104     10.654
REMARK SMILES Cc1nc(C(=O)OCCOCCOC(=O)c2ccc(-c3c4nc(c(-c5c(F)cccc5F)c5ccc([nH]5)c(-c5c(F)cccc5F)c5nc(c(-c6c(F)cccc6F)c6ccc3[nH]6)C=C5)C=C4)cc2)nn1-c1cccc(C(F)(F)F)c1
REMARK SMILES IDX 10 1 9 2 8 3 7 4 5 5 6 6 4 7 1 8 2 9 3 10 71 11 70 12 72 13
REMARK SMILES IDX 73 14 81 15 74 16 76 17 75 18 77 19 78 20 79 21 80 22 11 23
REMARK SMILES IDX 12 24 13 25 14 26 15 27 16 28 17 29 69 30 18 31 68 32 19 33
REMARK SMILES IDX 20 34 21 35 62 36 22 37 67 38 61 39 63 40 23 41 66 42 60 43
REMARK SMILES IDX 59 44 24 46 50 47 33 48 49 49 34 50 37 51 48 52 64 53 35 54
REMARK SMILES IDX 36 55 47 57 65 58 38 59 25 60 26 61 31 62 27 63 28 64 30 65
REMARK SMILES IDX 32 66 29 67 51 68 52 69 57 70 53 71 54 72 56 73 58 74 55 75
REMARK SMILES IDX 39 76 40 77 45 78 41 79 42 80 44 81 46 82 43 83
REMARK H PARENT 63 45 37 56
REMARK Flexibility Score: inf
ROOT
ATOM      1  O   UNL A   1      40.141  20.410  26.139  1.00  0.00    -0.374 OA
ENDROOT
BRANCH   1   2
ATOM      2  C   UNL A   1      39.450  21.647  26.313  1.00  0.00     0.202 C 
BRANCH   2   3
ATOM      3  C   UNL A   1      38.301  21.946  25.349  1.00  0.00     0.261 C 
BRANCH   3   4
ATOM      4  O   UNL A   1      37.020  21.849  25.995  1.00  0.00    -0.457 OA
BRANCH   4   5
ATOM      5  C   UNL A   1      36.005  21.358  25.218  1.00  0.00     0.378 C 
ATOM      6  O   UNL A   1      35.854  20.166  24.956  1.00  0.00    -0.242 OA
BRANCH   5   7
ATOM      7  C   UNL A   1      35.023  22.390  24.842  1.00  0.00     0.260 A 
ATOM      8  C   UNL A   1      33.182  24.207  22.392  1.00  0.00     0.090 C 
ATOM      9  C   UNL A   1      33.728  23.538  23.600  1.00  0.00     0.130 A 
ATOM     10  N   UNL A   1      34.538  22.501  23.557  1.00  0.00    -0.206 NA
ATOM     11  N   UNL A   1      33.675  24.018  24.898  1.00  0.00    -0.217 N 
ATOM     12  N   UNL A   1      34.524  23.308  25.686  1.00  0.00    -0.138 NA
BRANCH  11  13
ATOM     13  C   UNL A   1      32.944  25.101  25.442  1.00  0.00     0.067 A 
ATOM     14  C   UNL A   1      31.554  24.974  25.565  1.00  0.00     0.028 A 
ATOM     15  C   UNL A   1      33.572  26.294  25.823  1.00  0.00     0.041 A 
ATOM     16  C   UNL A   1      30.805  26.003  26.133  1.00  0.00     0.003 A 
ATOM     17  C   UNL A   1      32.814  27.354  26.354  1.00  0.00     0.058 A 
ATOM     18  C   UNL A   1      31.431  27.185  26.527  1.00  0.00     0.013 A 
BRANCH  17  19
ATOM     19  C   UNL A   1      33.452  28.676  26.711  1.00  0.00     0.416 C 
ATOM     20  F   UNL A   1      34.688  28.525  27.262  1.00  0.00    -0.166 F 
ATOM     21  F   UNL A   1      33.618  29.485  25.629  1.00  0.00    -0.166 F 
ATOM     22  F   UNL A   1      32.730  29.400  27.611  1.00  0.00    -0.166 F 
ENDBRANCH  17  19
ENDBRANCH  11  13
ENDBRANCH   5   7
ENDBRANCH   4   5
ENDBRANCH   3   4
ENDBRANCH   2   3
ENDBRANCH   1   2
BRANCH   1  23
ATOM     23  C   UNL A   1      41.219  20.077  27.011  1.00  0.00     0.202 C 
BRANCH  23  24
ATOM     24  C   UNL A   1      42.394  19.321  26.407  1.00  0.00     0.261 C 
BRANCH  24  25
ATOM     25  O   UNL A   1      42.722  19.826  25.122  1.00  0.00    -0.460 OA
BRANCH  25  26
ATOM     26  C   UNL A   1      44.029  19.761  24.799  1.00  0.00     0.338 C 
ATOM     27  O   UNL A   1      44.716  18.751  24.658  1.00  0.00    -0.246 OA
BRANCH  26  28
ATOM     28  C   UNL A   1      44.561  21.126  24.810  1.00  0.00     0.060 A 
ATOM     29  C   UNL A   1      45.490  21.389  25.815  1.00  0.00     0.016 A 
ATOM     30  C   UNL A   1      43.863  22.147  24.142  1.00  0.00     0.016 A 
ATOM     31  C   UNL A   1      45.476  22.638  26.377  1.00  0.00     0.010 A 
ATOM     32  C   UNL A   1      43.835  23.392  24.718  1.00  0.00     0.010 A 
ATOM     33  C   UNL A   1      44.557  23.577  25.893  1.00  0.00    -0.014 A 
BRANCH  33  34
ATOM     34  C   UNL A   1      44.364  24.761  26.688  1.00  0.00     0.031 A 
ATOM     35  C   UNL A   1      45.479  25.719  26.611  1.00  0.00     0.074 A 
ATOM     36  C   UNL A   1      43.249  24.972  27.407  1.00  0.00     0.049 A 
ATOM     37  N   UNL A   1      46.318  26.024  27.541  1.00  0.00    -0.248 NA
ATOM     38  C   UNL A   1      45.785  26.287  25.293  1.00  0.00     0.031 C 
ATOM     39  C   UNL A   1      41.970  24.262  27.358  1.00  0.00     0.029 A 
ATOM     40  N   UNL A   1      43.016  25.973  28.291  1.00  0.00    -0.354 N 
ATOM     41  C   UNL A   1      47.177  26.955  26.973  1.00  0.00     0.074 A 
ATOM     42  C   UNL A   1      46.906  26.955  25.558  1.00  0.00     0.031 C 
ATOM     43  C   UNL A   1      41.037  25.001  28.004  1.00  0.00     0.029 A 
ATOM     44  C   UNL A   1      41.681  26.161  28.600  1.00  0.00     0.049 A 
ATOM     45  H   UNL A   1      43.736  26.519  28.681  1.00  0.00     0.167 HD
ATOM     46  C   UNL A   1      47.907  27.806  27.739  1.00  0.00     0.037 A 
ATOM     47  C   UNL A   1      41.171  27.263  29.201  1.00  0.00     0.037 A 
ATOM     48  C   UNL A   1      47.976  27.366  29.107  1.00  0.00     0.049 A 
ATOM     49  C   UNL A   1      42.295  27.955  29.895  1.00  0.00     0.074 A 
ATOM     50  C   UNL A   1      48.469  26.238  29.735  1.00  0.00     0.029 A 
ATOM     51  N   UNL A   1      47.157  27.976  30.027  1.00  0.00    -0.354 N 
ATOM     52  N   UNL A   1      42.904  27.481  30.948  1.00  0.00    -0.248 NA
ATOM     53  C   UNL A   1      43.047  28.956  29.147  1.00  0.00     0.031 C 
ATOM     54  C   UNL A   1      47.560  25.977  30.801  1.00  0.00     0.029 A 
ATOM     55  C   UNL A   1      46.589  26.979  30.779  1.00  0.00     0.049 A 
ATOM     56  H   UNL A   1      47.006  28.944  30.127  1.00  0.00     0.167 HD
ATOM     57  C   UNL A   1      44.244  27.798  30.763  1.00  0.00     0.074 A 
ATOM     58  C   UNL A   1      44.258  28.783  29.685  1.00  0.00     0.031 C 
ATOM     59  C   UNL A   1      45.239  27.026  31.292  1.00  0.00     0.037 A 
BRANCH  46  60
ATOM     60  C   UNL A   1      48.279  29.198  27.314  1.00  0.00     0.057 A 
ATOM     61  C   UNL A   1      49.627  29.589  27.343  1.00  0.00     0.134 A 
ATOM     62  C   UNL A   1      47.350  30.245  27.138  1.00  0.00     0.134 A 
ATOM     63  F   UNL A   1      50.602  28.685  27.525  1.00  0.00    -0.206 F 
ATOM     64  C   UNL A   1      50.018  30.929  27.264  1.00  0.00     0.040 A 
ATOM     65  C   UNL A   1      47.733  31.580  27.000  1.00  0.00     0.040 A 
ATOM     66  F   UNL A   1      46.026  30.050  27.194  1.00  0.00    -0.206 F 
ATOM     67  C   UNL A   1      49.070  31.931  27.095  1.00  0.00     0.006 A 
ENDBRANCH  46  60
BRANCH  47  68
ATOM     68  C   UNL A   1      39.868  27.914  28.927  1.00  0.00     0.057 A 
ATOM     69  C   UNL A   1      38.882  28.003  29.919  1.00  0.00     0.134 A 
ATOM     70  C   UNL A   1      39.645  28.687  27.771  1.00  0.00     0.134 A 
ATOM     71  F   UNL A   1      39.022  27.345  31.079  1.00  0.00    -0.206 F 
ATOM     72  C   UNL A   1      37.752  28.821  29.777  1.00  0.00     0.040 A 
ATOM     73  C   UNL A   1      38.516  29.495  27.610  1.00  0.00     0.040 A 
ATOM     74  F   UNL A   1      40.554  28.756  26.789  1.00  0.00    -0.206 F 
ATOM     75  C   UNL A   1      37.569  29.575  28.622  1.00  0.00     0.006 A 
ENDBRANCH  47  68
BRANCH  59  76
ATOM     76  C   UNL A   1      44.855  25.951  32.271  1.00  0.00     0.057 A 
ATOM     77  C   UNL A   1      44.519  24.643  31.892  1.00  0.00     0.134 A 
ATOM     78  C   UNL A   1      44.998  26.195  33.642  1.00  0.00     0.134 A 
ATOM     79  F   UNL A   1      44.470  24.286  30.603  1.00  0.00    -0.206 F 
ATOM     80  C   UNL A   1      44.287  23.637  32.835  1.00  0.00     0.040 A 
ATOM     81  C   UNL A   1      44.803  25.189  34.592  1.00  0.00     0.040 A 
ATOM     82  F   UNL A   1      45.382  27.404  34.078  1.00  0.00    -0.206 F 
ATOM     83  C   UNL A   1      44.437  23.907  34.190  1.00  0.00     0.006 A 
ENDBRANCH  59  76
ENDBRANCH  33  34
ENDBRANCH  26  28
ENDBRANCH  25  26
ENDBRANCH  24  25
ENDBRANCH  23  24
ENDBRANCH   1  23
TORSDOF 16
ENDMDL
