MODEL 1
REMARK VINA RESULT:     -11.3      0.000      0.000
REMARK SMILES Cc1coc2c(C)c3oc(=O)c(CCC(=O)N[C@H](CC(C)C)C(=O)OCCOCCOC(=O)c4ccc(-c5c6nc(c(-c7c(F)cccc7F)c7ccc([nH]7)c(-c7c(F)cccc7F)c7nc(c(-c8c(F)cccc8F)c8ccc5[nH]8)C=C7)C=C6)cc4)c(C)c3cc12
REMARK SMILES IDX 27 1 26 2 25 3 23 4 24 5 18 6 17 7 15 8 16 9 14 11 13 12
REMARK SMILES IDX 12 13 1 14 2 15 3 16 92 17 4 18 5 19 91 20 6 21 90 22 7 23
REMARK SMILES IDX 8 24 88 25 9 26 89 27 10 28 11 29 19 30 20 31 21 32 22 33
REMARK SMILES IDX 28 34 29 35 30 36 31 37 32 38 33 39 34 40 35 41 87 42 36 43
REMARK SMILES IDX 86 44 37 45 38 46 39 47 80 48 40 49 85 50 79 51 81 52 41 53
REMARK SMILES IDX 84 54 78 55 77 56 42 58 68 59 51 60 67 61 52 62 55 63 66 64
REMARK SMILES IDX 82 65 53 66 54 67 65 69 83 70 56 71 43 72 44 73 49 74 45 75
REMARK SMILES IDX 46 76 48 77 50 78 47 79 69 80 70 81 75 82 71 83 72 84 74 85
REMARK SMILES IDX 76 86 73 87 57 88 58 89 63 90 59 91 60 92 62 93 64 94 61 95
REMARK H PARENT 17 10 81 57 55 68
REMARK Flexibility Score: inf
ROOT
ATOM      1  C   UNL A   1      38.074  20.446  24.691  1.00  0.00     0.202 C 
ENDROOT
BRANCH   1   2
ATOM      2  C   UNL A   1      36.591  20.213  25.009  1.00  0.00     0.261 C 
BRANCH   2   3
ATOM      3  O   UNL A   1      35.713  21.335  26.030  1.00  0.00    -0.462 OA
BRANCH   3   4
ATOM      4  C   UNL A   1      34.155  21.851  26.943  1.00  0.00     0.328 C 
ATOM      5  O   UNL A   1      34.158  22.146  28.175  1.00  0.00    -0.250 OA
BRANCH   4   6
ATOM      6  C   UNL A   1      32.591  21.825  26.447  1.00  0.00     0.192 C 
BRANCH   6   7
ATOM      7  N   UNL A   1      32.190  21.266  25.137  1.00  0.00    -0.343 N 
ATOM      8  C   UNL A   1      32.712  21.353  23.878  1.00  0.00     0.221 C 
ATOM      9  O   UNL A   1      32.235  20.596  23.028  1.00  0.00    -0.275 OA
ATOM     10  H   UNL A   1      31.376  20.714  25.183  1.00  0.00     0.164 HD
BRANCH   8  11
ATOM     11  C   UNL A   1      33.747  22.396  23.467  1.00  0.00     0.105 C 
BRANCH  11  12
ATOM     12  C   UNL A   1      33.174  23.500  22.583  1.00  0.00     0.053 C 
BRANCH  12  13
ATOM     13  C   UNL A   1      32.845  24.628  23.482  1.00  0.00     0.042 A 
ATOM     14  C   UNL A   1      36.143  29.572  28.044  1.00  0.00     0.048 C 
ATOM     15  C   UNL A   1      34.824  29.796  27.397  1.00  0.00    -0.005 A 
ATOM     16  C   UNL A   1      34.123  30.980  27.376  1.00  0.00     0.199 A 
ATOM     17  C   UNL A   1      34.036  28.850  26.644  1.00  0.00     0.024 A 
ATOM     18  O   UNL A   1      32.996  30.863  26.641  1.00  0.00    -0.464 OA
ATOM     19  C   UNL A   1      32.928  29.585  26.142  1.00  0.00     0.140 A 
ATOM     20  C   UNL A   1      34.267  27.465  26.356  1.00  0.00     0.024 A 
ATOM     21  C   UNL A   1      31.845  29.175  25.304  1.00  0.00     0.036 A 
ATOM     22  C   UNL A   1      33.429  26.904  25.417  1.00  0.00     0.022 A 
ATOM     23  C   UNL A   1      30.717  30.060  24.934  1.00  0.00     0.052 C 
ATOM     24  C   UNL A   1      32.070  27.867  24.936  1.00  0.00     0.145 A 
ATOM     25  C   UNL A   1      33.817  25.257  24.575  1.00  0.00    -0.030 A 
ATOM     26  O   UNL A   1      30.899  27.074  23.780  1.00  0.00    -0.422 OA
ATOM     27  C   UNL A   1      35.115  24.666  25.044  1.00  0.00     0.046 C 
ATOM     28  C   UNL A   1      31.067  25.404  23.052  1.00  0.00     0.339 A 
ATOM     29  O   UNL A   1      30.165  24.862  22.446  1.00  0.00    -0.246 OA
ENDBRANCH  12  13
ENDBRANCH  11  12
ENDBRANCH   8  11
ENDBRANCH   6   7
BRANCH   6  30
ATOM     30  C   UNL A   1      31.791  23.073  26.844  1.00  0.00     0.040 C 
BRANCH  30  31
ATOM     31  C   UNL A   1      30.379  23.463  26.393  1.00  0.00    -0.015 C 
ATOM     32  C   UNL A   1      29.278  22.870  27.274  1.00  0.00     0.007 C 
ATOM     33  C   UNL A   1      30.297  25.001  26.547  1.00  0.00     0.007 C 
ENDBRANCH  30  31
ENDBRANCH   6  30
ENDBRANCH   4   6
ENDBRANCH   3   4
ENDBRANCH   2   3
ENDBRANCH   1   2
BRANCH   1  34
ATOM     34  O   UNL A   1      39.050  19.998  25.630  1.00  0.00    -0.374 OA
BRANCH  34  35
ATOM     35  C   UNL A   1      39.743  21.035  26.298  1.00  0.00     0.202 C 
BRANCH  35  36
ATOM     36  C   UNL A   1      41.247  21.127  26.128  1.00  0.00     0.261 C 
BRANCH  36  37
ATOM     37  O   UNL A   1      41.618  22.469  25.820  1.00  0.00    -0.460 OA
BRANCH  37  38
ATOM     38  C   UNL A   1      42.593  22.982  26.602  1.00  0.00     0.338 C 
ATOM     39  O   UNL A   1      43.754  22.626  26.674  1.00  0.00    -0.246 OA
BRANCH  38  40
ATOM     40  C   UNL A   1      41.984  23.988  27.477  1.00  0.00     0.060 A 
ATOM     41  C   UNL A   1      40.904  24.669  26.959  1.00  0.00     0.016 A 
ATOM     42  C   UNL A   1      42.618  24.421  28.645  1.00  0.00     0.016 A 
ATOM     43  C   UNL A   1      40.705  25.951  27.413  1.00  0.00     0.010 A 
ATOM     44  C   UNL A   1      42.350  25.666  29.167  1.00  0.00     0.010 A 
ATOM     45  C   UNL A   1      41.499  26.476  28.456  1.00  0.00    -0.014 A 
BRANCH  45  46
ATOM     46  C   UNL A   1      41.265  27.847  28.867  1.00  0.00     0.031 A 
ATOM     47  C   UNL A   1      42.377  28.690  28.405  1.00  0.00     0.074 A 
ATOM     48  C   UNL A   1      40.265  28.313  29.640  1.00  0.00     0.049 A 
ATOM     49  N   UNL A   1      43.415  28.953  29.119  1.00  0.00    -0.248 NA
ATOM     50  C   UNL A   1      42.530  28.966  26.973  1.00  0.00     0.031 C 
ATOM     51  C   UNL A   1      38.995  27.703  30.031  1.00  0.00     0.029 A 
ATOM     52  N   UNL A   1      40.224  29.526  30.270  1.00  0.00    -0.354 N 
ATOM     53  C   UNL A   1      44.297  29.600  28.280  1.00  0.00     0.074 A 
ATOM     54  C   UNL A   1      43.786  29.419  26.945  1.00  0.00     0.031 C 
ATOM     55  C   UNL A   1      38.219  28.632  30.646  1.00  0.00     0.029 A 
ATOM     56  C   UNL A   1      38.995  29.846  30.842  1.00  0.00     0.049 A 
ATOM     57  H   UNL A   1      41.004  30.126  30.315  1.00  0.00     0.167 HD
ATOM     58  C   UNL A   1      45.196  30.452  28.833  1.00  0.00     0.037 A 
ATOM     59  C   UNL A   1      38.674  31.035  31.424  1.00  0.00     0.037 A 
ATOM     60  C   UNL A   1      45.385  30.141  30.238  1.00  0.00     0.049 A 
ATOM     61  C   UNL A   1      39.950  31.657  31.874  1.00  0.00     0.074 A 
ATOM     62  C   UNL A   1      45.830  29.033  30.940  1.00  0.00     0.029 A 
ATOM     63  N   UNL A   1      44.687  30.900  31.148  1.00  0.00    -0.354 N 
ATOM     64  N   UNL A   1      40.673  31.178  32.849  1.00  0.00    -0.248 NA
ATOM     65  C   UNL A   1      40.664  32.483  30.909  1.00  0.00     0.031 C 
ATOM     66  C   UNL A   1      44.999  28.963  32.099  1.00  0.00     0.029 A 
ATOM     67  C   UNL A   1      44.146  30.066  32.088  1.00  0.00     0.049 A 
ATOM     68  H   UNL A   1      44.592  31.881  31.126  1.00  0.00     0.167 HD
ATOM     69  C   UNL A   1      41.975  31.242  32.379  1.00  0.00     0.074 A 
ATOM     70  C   UNL A   1      41.911  32.098  31.193  1.00  0.00     0.031 C 
ATOM     71  C   UNL A   1      42.927  30.362  32.806  1.00  0.00     0.037 A 
BRANCH  58  72
ATOM     72  C   UNL A   1      45.425  31.833  28.271  1.00  0.00     0.057 A 
ATOM     73  C   UNL A   1      44.295  32.629  28.012  1.00  0.00     0.134 A 
ATOM     74  C   UNL A   1      46.619  32.271  27.660  1.00  0.00     0.134 A 
ATOM     75  F   UNL A   1      43.103  32.330  28.549  1.00  0.00    -0.206 F 
ATOM     76  C   UNL A   1      44.322  33.687  27.102  1.00  0.00     0.040 A 
ATOM     77  C   UNL A   1      46.664  33.353  26.782  1.00  0.00     0.040 A 
ATOM     78  F   UNL A   1      47.789  31.640  27.794  1.00  0.00    -0.206 F 
ATOM     79  C   UNL A   1      45.505  34.038  26.467  1.00  0.00     0.006 A 
ENDBRANCH  58  72
BRANCH  59  80
ATOM     80  C   UNL A   1      37.443  31.850  31.237  1.00  0.00     0.057 A 
ATOM     81  C   UNL A   1      37.145  32.446  29.997  1.00  0.00     0.134 A 
ATOM     82  C   UNL A   1      36.385  31.811  32.161  1.00  0.00     0.134 A 
ATOM     83  F   UNL A   1      38.069  32.498  29.026  1.00  0.00    -0.206 F 
ATOM     84  C   UNL A   1      35.867  32.936  29.685  1.00  0.00     0.040 A 
ATOM     85  C   UNL A   1      35.106  32.299  31.863  1.00  0.00     0.040 A 
ATOM     86  F   UNL A   1      36.530  31.215  33.353  1.00  0.00    -0.206 F 
ATOM     87  C   UNL A   1      34.838  32.849  30.615  1.00  0.00     0.006 A 
ENDBRANCH  59  80
BRANCH  71  88
ATOM     88  C   UNL A   1      42.619  29.486  33.988  1.00  0.00     0.057 A 
ATOM     89  C   UNL A   1      41.951  28.254  33.916  1.00  0.00     0.134 A 
ATOM     90  C   UNL A   1      43.199  29.819  35.218  1.00  0.00     0.134 A 
ATOM     91  F   UNL A   1      41.431  27.812  32.760  1.00  0.00    -0.206 F 
ATOM     92  C   UNL A   1      41.858  27.402  35.023  1.00  0.00     0.040 A 
ATOM     93  C   UNL A   1      43.143  28.965  36.319  1.00  0.00     0.040 A 
ATOM     94  F   UNL A   1      43.888  30.965  35.349  1.00  0.00    -0.206 F 
ATOM     95  C   UNL A   1      42.468  27.752  36.225  1.00  0.00     0.006 A 
ENDBRANCH  71  88
ENDBRANCH  45  46
ENDBRANCH  38  40
ENDBRANCH  37  38
ENDBRANCH  36  37
ENDBRANCH  35  36
ENDBRANCH  34  35
ENDBRANCH   1  34
TORSDOF 20
ENDMDL
MODEL 2
REMARK VINA RESULT:     -10.7      1.621      3.027
REMARK SMILES Cc1coc2c(C)c3oc(=O)c(CCC(=O)N[C@H](CC(C)C)C(=O)OCCOCCOC(=O)c4ccc(-c5c6nc(c(-c7c(F)cccc7F)c7ccc([nH]7)c(-c7c(F)cccc7F)c7nc(c(-c8c(F)cccc8F)c8ccc5[nH]8)C=C7)C=C6)cc4)c(C)c3cc12
REMARK SMILES IDX 27 1 26 2 25 3 23 4 24 5 18 6 17 7 15 8 16 9 14 11 13 12
REMARK SMILES IDX 12 13 1 14 2 15 3 16 92 17 4 18 5 19 91 20 6 21 90 22 7 23
REMARK SMILES IDX 8 24 88 25 9 26 89 27 10 28 11 29 19 30 20 31 21 32 22 33
REMARK SMILES IDX 28 34 29 35 30 36 31 37 32 38 33 39 34 40 35 41 87 42 36 43
REMARK SMILES IDX 86 44 37 45 38 46 39 47 80 48 40 49 85 50 79 51 81 52 41 53
REMARK SMILES IDX 84 54 78 55 77 56 42 58 68 59 51 60 67 61 52 62 55 63 66 64
REMARK SMILES IDX 82 65 53 66 54 67 65 69 83 70 56 71 43 72 44 73 49 74 45 75
REMARK SMILES IDX 46 76 48 77 50 78 47 79 69 80 70 81 75 82 71 83 72 84 74 85
REMARK SMILES IDX 76 86 73 87 57 88 58 89 63 90 59 91 60 92 62 93 64 94 61 95
REMARK H PARENT 17 10 81 57 55 68
REMARK Flexibility Score: inf
ROOT
ATOM      1  C   UNL A   1      39.360  20.458  25.584  1.00  0.00     0.202 C 
ENDROOT
BRANCH   1   2
ATOM      2  C   UNL A   1      38.121  19.751  25.019  1.00  0.00     0.261 C 
BRANCH   2   3
ATOM      3  O   UNL A   1      36.529  20.458  25.208  1.00  0.00    -0.462 OA
BRANCH   3   4
ATOM      4  C   UNL A   1      34.659  20.298  25.289  1.00  0.00     0.328 C 
ATOM      5  O   UNL A   1      33.968  20.868  26.184  1.00  0.00    -0.250 OA
BRANCH   4   6
ATOM      6  C   UNL A   1      33.651  19.320  24.437  1.00  0.00     0.192 C 
BRANCH   6   7
ATOM      7  N   UNL A   1      32.696  19.853  23.441  1.00  0.00    -0.343 N 
ATOM      8  C   UNL A   1      32.399  21.111  23.001  1.00  0.00     0.221 C 
ATOM      9  O   UNL A   1      31.673  21.192  22.007  1.00  0.00    -0.275 OA
ATOM     10  H   UNL A   1      32.161  19.152  23.003  1.00  0.00     0.164 HD
BRANCH   8  11
ATOM     11  C   UNL A   1      32.820  22.380  23.736  1.00  0.00     0.105 C 
BRANCH  11  12
ATOM     12  C   UNL A   1      33.870  23.194  22.985  1.00  0.00     0.053 C 
BRANCH  12  13
ATOM     13  C   UNL A   1      33.607  24.614  23.304  1.00  0.00     0.042 A 
ATOM     14  C   UNL A   1      28.985  30.219  21.472  1.00  0.00     0.048 C 
ATOM     15  C   UNL A   1      29.716  30.138  22.763  1.00  0.00    -0.005 A 
ATOM     16  C   UNL A   1      29.512  30.944  23.861  1.00  0.00     0.199 A 
ATOM     17  C   UNL A   1      30.744  29.198  23.141  1.00  0.00     0.024 A 
ATOM     18  O   UNL A   1      30.290  30.559  24.895  1.00  0.00    -0.464 OA
ATOM     19  C   UNL A   1      31.028  29.468  24.508  1.00  0.00     0.140 A 
ATOM     20  C   UNL A   1      31.364  28.145  22.393  1.00  0.00     0.024 A 
ATOM     21  C   UNL A   1      31.932  28.827  25.412  1.00  0.00     0.036 A 
ATOM     22  C   UNL A   1      32.155  27.283  23.121  1.00  0.00     0.022 A 
ATOM     23  C   UNL A   1      32.166  29.290  26.798  1.00  0.00     0.052 C 
ATOM     24  C   UNL A   1      32.493  27.755  24.755  1.00  0.00     0.145 A 
ATOM     25  C   UNL A   1      32.705  25.606  22.445  1.00  0.00    -0.030 A 
ATOM     26  O   UNL A   1      33.636  26.669  25.679  1.00  0.00    -0.422 OA
ATOM     27  C   UNL A   1      32.181  25.345  21.063  1.00  0.00     0.046 C 
ATOM     28  C   UNL A   1      34.390  25.121  25.058  1.00  0.00     0.339 A 
ATOM     29  O   UNL A   1      35.286  24.550  25.647  1.00  0.00    -0.246 OA
ENDBRANCH  12  13
ENDBRANCH  11  12
ENDBRANCH   8  11
ENDBRANCH   6   7
BRANCH   6  30
ATOM     30  C   UNL A   1      33.091  18.145  25.249  1.00  0.00     0.040 C 
BRANCH  30  31
ATOM     31  C   UNL A   1      33.581  16.693  25.254  1.00  0.00    -0.015 C 
ATOM     32  C   UNL A   1      32.473  15.682  25.550  1.00  0.00     0.007 C 
ATOM     33  C   UNL A   1      34.075  16.410  23.815  1.00  0.00     0.007 C 
ENDBRANCH  30  31
ENDBRANCH   6  30
ENDBRANCH   4   6
ENDBRANCH   3   4
ENDBRANCH   2   3
ENDBRANCH   1   2
BRANCH   1  34
ATOM     34  O   UNL A   1      40.349  19.672  26.245  1.00  0.00    -0.374 OA
BRANCH  34  35
ATOM     35  C   UNL A   1      41.663  19.845  25.752  1.00  0.00     0.202 C 
BRANCH  35  36
ATOM     36  C   UNL A   1      42.566  20.855  26.433  1.00  0.00     0.261 C 
BRANCH  36  37
ATOM     37  O   UNL A   1      41.993  22.158  26.338  1.00  0.00    -0.460 OA
BRANCH  37  38
ATOM     38  C   UNL A   1      41.539  22.663  27.505  1.00  0.00     0.338 C 
ATOM     39  O   UNL A   1      41.019  22.061  28.426  1.00  0.00    -0.246 OA
BRANCH  38  40
ATOM     40  C   UNL A   1      41.657  24.123  27.439  1.00  0.00     0.060 A 
ATOM     41  C   UNL A   1      42.514  24.704  28.349  1.00  0.00     0.016 A 
ATOM     42  C   UNL A   1      40.764  24.896  26.693  1.00  0.00     0.016 A 
ATOM     43  C   UNL A   1      42.217  25.985  28.747  1.00  0.00     0.010 A 
ATOM     44  C   UNL A   1      40.534  26.213  27.021  1.00  0.00     0.010 A 
ATOM     45  C   UNL A   1      41.160  26.700  28.143  1.00  0.00    -0.014 A 
BRANCH  45  46
ATOM     46  C   UNL A   1      40.872  28.034  28.631  1.00  0.00     0.031 A 
ATOM     47  C   UNL A   1      41.966  28.938  28.250  1.00  0.00     0.074 A 
ATOM     48  C   UNL A   1      39.839  28.421  29.405  1.00  0.00     0.049 A 
ATOM     49  N   UNL A   1      42.978  29.189  29.005  1.00  0.00    -0.248 NA
ATOM     50  C   UNL A   1      42.144  29.307  26.842  1.00  0.00     0.031 C 
ATOM     51  C   UNL A   1      38.581  27.749  29.725  1.00  0.00     0.029 A 
ATOM     52  N   UNL A   1      39.743  29.591  30.106  1.00  0.00    -0.354 N 
ATOM     53  C   UNL A   1      43.858  29.914  28.230  1.00  0.00     0.074 A 
ATOM     54  C   UNL A   1      43.385  29.800  26.874  1.00  0.00     0.031 C 
ATOM     55  C   UNL A   1      37.760  28.614  30.375  1.00  0.00     0.029 A 
ATOM     56  C   UNL A   1      38.491  29.836  30.665  1.00  0.00     0.049 A 
ATOM     57  H   UNL A   1      40.501  30.211  30.208  1.00  0.00     0.167 HD
ATOM     58  C   UNL A   1      44.715  30.758  28.857  1.00  0.00     0.037 A 
ATOM     59  C   UNL A   1      38.117  30.977  31.310  1.00  0.00     0.037 A 
ATOM     60  C   UNL A   1      44.881  30.367  30.245  1.00  0.00     0.049 A 
ATOM     61  C   UNL A   1      39.362  31.610  31.829  1.00  0.00     0.074 A 
ATOM     62  C   UNL A   1      45.345  29.233  30.889  1.00  0.00     0.029 A 
ATOM     63  N   UNL A   1      44.136  31.047  31.181  1.00  0.00    -0.354 N 
ATOM     64  N   UNL A   1      40.076  31.094  32.791  1.00  0.00    -0.248 NA
ATOM     65  C   UNL A   1      40.071  32.515  30.935  1.00  0.00     0.031 C 
ATOM     66  C   UNL A   1      44.489  29.065  32.020  1.00  0.00     0.029 A 
ATOM     67  C   UNL A   1      43.601  30.140  32.054  1.00  0.00     0.049 A 
ATOM     68  H   UNL A   1      44.010  32.023  31.216  1.00  0.00     0.167 HD
ATOM     69  C   UNL A   1      41.386  31.228  32.360  1.00  0.00     0.074 A 
ATOM     70  C   UNL A   1      41.323  32.153  31.227  1.00  0.00     0.031 C 
ATOM     71  C   UNL A   1      42.356  30.353  32.757  1.00  0.00     0.037 A 
BRANCH  58  72
ATOM     72  C   UNL A   1      44.912  32.178  28.386  1.00  0.00     0.057 A 
ATOM     73  C   UNL A   1      46.227  32.608  28.138  1.00  0.00     0.134 A 
ATOM     74  C   UNL A   1      43.956  33.209  28.502  1.00  0.00     0.134 A 
ATOM     75  F   UNL A   1      47.226  31.724  27.990  1.00  0.00    -0.206 F 
ATOM     76  C   UNL A   1      46.586  33.957  28.153  1.00  0.00     0.040 A 
ATOM     77  C   UNL A   1      44.299  34.561  28.475  1.00  0.00     0.040 A 
ATOM     78  F   UNL A   1      42.659  32.989  28.736  1.00  0.00    -0.206 F 
ATOM     79  C   UNL A   1      45.622  34.938  28.344  1.00  0.00     0.006 A 
ENDBRANCH  58  72
BRANCH  59  80
ATOM     80  C   UNL A   1      36.865  31.764  31.140  1.00  0.00     0.057 A 
ATOM     81  C   UNL A   1      36.077  32.125  32.248  1.00  0.00     0.134 A 
ATOM     82  C   UNL A   1      36.576  32.440  29.943  1.00  0.00     0.134 A 
ATOM     83  F   UNL A   1      36.296  31.573  33.451  1.00  0.00    -0.206 F 
ATOM     84  C   UNL A   1      35.090  33.121  32.177  1.00  0.00     0.040 A 
ATOM     85  C   UNL A   1      35.593  33.433  29.858  1.00  0.00     0.040 A 
ATOM     86  F   UNL A   1      37.301  32.225  28.836  1.00  0.00    -0.206 F 
ATOM     87  C   UNL A   1      34.856  33.790  30.981  1.00  0.00     0.006 A 
ENDBRANCH  59  80
BRANCH  71  88
ATOM     88  C   UNL A   1      42.049  29.396  33.875  1.00  0.00     0.057 A 
ATOM     89  C   UNL A   1      41.527  28.105  33.700  1.00  0.00     0.134 A 
ATOM     90  C   UNL A   1      42.486  29.733  35.162  1.00  0.00     0.134 A 
ATOM     91  F   UNL A   1      41.155  27.664  32.489  1.00  0.00    -0.206 F 
ATOM     92  C   UNL A   1      41.436  27.200  34.764  1.00  0.00     0.040 A 
ATOM     93  C   UNL A   1      42.432  28.829  36.223  1.00  0.00     0.040 A 
ATOM     94  F   UNL A   1      43.033  30.937  35.394  1.00  0.00    -0.206 F 
ATOM     95  C   UNL A   1      41.903  27.556  36.027  1.00  0.00     0.006 A 
ENDBRANCH  71  88
ENDBRANCH  45  46
ENDBRANCH  38  40
ENDBRANCH  37  38
ENDBRANCH  36  37
ENDBRANCH  35  36
ENDBRANCH  34  35
ENDBRANCH   1  34
TORSDOF 20
ENDMDL
MODEL 3
REMARK VINA RESULT:     -10.7      1.769      4.431
REMARK SMILES Cc1coc2c(C)c3oc(=O)c(CCC(=O)N[C@H](CC(C)C)C(=O)OCCOCCOC(=O)c4ccc(-c5c6nc(c(-c7c(F)cccc7F)c7ccc([nH]7)c(-c7c(F)cccc7F)c7nc(c(-c8c(F)cccc8F)c8ccc5[nH]8)C=C7)C=C6)cc4)c(C)c3cc12
REMARK SMILES IDX 27 1 26 2 25 3 23 4 24 5 18 6 17 7 15 8 16 9 14 11 13 12
REMARK SMILES IDX 12 13 1 14 2 15 3 16 92 17 4 18 5 19 91 20 6 21 90 22 7 23
REMARK SMILES IDX 8 24 88 25 9 26 89 27 10 28 11 29 19 30 20 31 21 32 22 33
REMARK SMILES IDX 28 34 29 35 30 36 31 37 32 38 33 39 34 40 35 41 87 42 36 43
REMARK SMILES IDX 86 44 37 45 38 46 39 47 80 48 40 49 85 50 79 51 81 52 41 53
REMARK SMILES IDX 84 54 78 55 77 56 42 58 68 59 51 60 67 61 52 62 55 63 66 64
REMARK SMILES IDX 82 65 53 66 54 67 65 69 83 70 56 71 43 72 44 73 49 74 45 75
REMARK SMILES IDX 46 76 48 77 50 78 47 79 69 80 70 81 75 82 71 83 72 84 74 85
REMARK SMILES IDX 76 86 73 87 57 88 58 89 63 90 59 91 60 92 62 93 64 94 61 95
REMARK H PARENT 17 10 81 57 55 68
REMARK Flexibility Score: inf
ROOT
ATOM      1  C   UNL A   1      36.746  23.135  23.650  1.00  0.00     0.202 C 
ENDROOT
BRANCH   1   2
ATOM      2  C   UNL A   1      35.543  23.404  24.564  1.00  0.00     0.261 C 
BRANCH   2   3
ATOM      3  O   UNL A   1      34.378  24.648  24.158  1.00  0.00    -0.462 OA
BRANCH   3   4
ATOM      4  C   UNL A   1      33.814  26.085  23.088  1.00  0.00     0.328 C 
ATOM      5  O   UNL A   1      34.028  26.125  21.840  1.00  0.00    -0.250 OA
BRANCH   4   6
ATOM      6  C   UNL A   1      33.182  27.535  23.526  1.00  0.00     0.192 C 
BRANCH   6   7
ATOM      7  N   UNL A   1      32.429  28.383  22.576  1.00  0.00    -0.343 N 
ATOM      8  C   UNL A   1      31.100  28.641  22.394  1.00  0.00     0.221 C 
ATOM      9  O   UNL A   1      30.815  29.560  21.622  1.00  0.00    -0.275 OA
ATOM     10  H   UNL A   1      33.008  28.863  21.940  1.00  0.00     0.164 HD
BRANCH   8  11
ATOM     11  C   UNL A   1      29.988  27.789  22.998  1.00  0.00     0.105 C 
BRANCH  11  12
ATOM     12  C   UNL A   1      29.907  27.889  24.518  1.00  0.00     0.053 C 
BRANCH  12  13
ATOM     13  C   UNL A   1      30.296  26.564  25.048  1.00  0.00     0.042 A 
ATOM     14  C   UNL A   1      32.189  19.702  22.711  1.00  0.00     0.048 C 
ATOM     15  C   UNL A   1      32.585  20.266  24.028  1.00  0.00    -0.005 A 
ATOM     16  C   UNL A   1      33.492  19.715  24.905  1.00  0.00     0.199 A 
ATOM     17  C   UNL A   1      32.139  21.497  24.634  1.00  0.00     0.024 A 
ATOM     18  O   UNL A   1      33.679  20.517  25.975  1.00  0.00    -0.464 OA
ATOM     19  C   UNL A   1      32.899  21.637  25.827  1.00  0.00     0.140 A 
ATOM     20  C   UNL A   1      31.187  22.468  24.179  1.00  0.00     0.024 A 
ATOM     21  C   UNL A   1      32.907  22.679  26.805  1.00  0.00     0.036 A 
ATOM     22  C   UNL A   1      31.154  23.649  24.890  1.00  0.00     0.022 A 
ATOM     23  C   UNL A   1      33.714  22.629  28.045  1.00  0.00     0.052 C 
ATOM     24  C   UNL A   1      32.062  23.674  26.366  1.00  0.00     0.145 A 
ATOM     25  C   UNL A   1      30.313  25.203  24.222  1.00  0.00    -0.030 A 
ATOM     26  O   UNL A   1      31.923  25.200  27.362  1.00  0.00    -0.422 OA
ATOM     27  C   UNL A   1      29.712  24.991  22.863  1.00  0.00     0.046 C 
ATOM     28  C   UNL A   1      30.974  26.698  26.911  1.00  0.00     0.339 A 
ATOM     29  O   UNL A   1      30.765  27.600  27.698  1.00  0.00    -0.246 OA
ENDBRANCH  12  13
ENDBRANCH  11  12
ENDBRANCH   8  11
ENDBRANCH   6   7
BRANCH   6  30
ATOM     30  C   UNL A   1      34.070  28.339  24.485  1.00  0.00     0.040 C 
BRANCH  30  31
ATOM     31  C   UNL A   1      33.776  28.713  25.941  1.00  0.00    -0.015 C 
ATOM     32  C   UNL A   1      35.006  29.220  26.695  1.00  0.00     0.007 C 
ATOM     33  C   UNL A   1      32.771  29.889  25.879  1.00  0.00     0.007 C 
ENDBRANCH  30  31
ENDBRANCH   6  30
ENDBRANCH   4   6
ENDBRANCH   3   4
ENDBRANCH   2   3
ENDBRANCH   1   2
BRANCH   1  34
ATOM     34  O   UNL A   1      37.397  21.869  23.737  1.00  0.00    -0.374 OA
BRANCH  34  35
ATOM     35  C   UNL A   1      37.427  21.312  25.037  1.00  0.00     0.202 C 
BRANCH  35  36
ATOM     36  C   UNL A   1      38.774  21.054  25.684  1.00  0.00     0.261 C 
BRANCH  36  37
ATOM     37  O   UNL A   1      39.498  22.278  25.800  1.00  0.00    -0.460 OA
BRANCH  37  38
ATOM     38  C   UNL A   1      40.557  22.233  26.636  1.00  0.00     0.338 C 
ATOM     39  O   UNL A   1      41.409  21.367  26.713  1.00  0.00    -0.246 OA
BRANCH  38  40
ATOM     40  C   UNL A   1      40.451  23.369  27.557  1.00  0.00     0.060 A 
ATOM     41  C   UNL A   1      39.309  24.132  27.451  1.00  0.00     0.016 A 
ATOM     42  C   UNL A   1      41.548  23.810  28.303  1.00  0.00     0.016 A 
ATOM     43  C   UNL A   1      39.418  25.459  27.791  1.00  0.00     0.010 A 
ATOM     44  C   UNL A   1      41.619  25.114  28.737  1.00  0.00     0.010 A 
ATOM     45  C   UNL A   1      40.613  25.964  28.346  1.00  0.00    -0.014 A 
BRANCH  45  46
ATOM     46  C   UNL A   1      40.680  27.379  28.652  1.00  0.00     0.031 A 
ATOM     47  C   UNL A   1      41.833  27.973  27.962  1.00  0.00     0.074 A 
ATOM     48  C   UNL A   1      39.902  28.072  29.507  1.00  0.00     0.049 A 
ATOM     49  N   UNL A   1      42.998  28.094  28.496  1.00  0.00    -0.248 NA
ATOM     50  C   UNL A   1      41.810  28.115  26.502  1.00  0.00     0.031 C 
ATOM     51  C   UNL A   1      38.623  27.731  30.126  1.00  0.00     0.029 A 
ATOM     52  N   UNL A   1      40.163  29.314  30.016  1.00  0.00    -0.354 N 
ATOM     53  C   UNL A   1      43.838  28.510  27.485  1.00  0.00     0.074 A 
ATOM     54  C   UNL A   1      43.105  28.330  26.258  1.00  0.00     0.031 C 
ATOM     55  C   UNL A   1      38.118  28.827  30.750  1.00  0.00     0.029 A 
ATOM     56  C   UNL A   1      39.107  29.891  30.719  1.00  0.00     0.049 A 
ATOM     57  H   UNL A   1      41.030  29.765  29.895  1.00  0.00     0.167 HD
ATOM     58  C   UNL A   1      44.941  29.223  27.824  1.00  0.00     0.037 A 
ATOM     59  C   UNL A   1      39.084  31.156  31.223  1.00  0.00     0.037 A 
ATOM     60  C   UNL A   1      45.288  28.982  29.213  1.00  0.00     0.049 A 
ATOM     61  C   UNL A   1      40.501  31.568  31.429  1.00  0.00     0.074 A 
ATOM     62  C   UNL A   1      45.641  27.865  29.950  1.00  0.00     0.029 A 
ATOM     63  N   UNL A   1      44.874  29.918  30.133  1.00  0.00    -0.354 N 
ATOM     64  N   UNL A   1      41.272  31.037  32.336  1.00  0.00    -0.248 NA
ATOM     65  C   UNL A   1      41.186  32.180  30.300  1.00  0.00     0.031 C 
ATOM     66  C   UNL A   1      44.998  28.028  31.214  1.00  0.00     0.029 A 
ATOM     67  C   UNL A   1      44.351  29.264  31.215  1.00  0.00     0.049 A 
ATOM     68  H   UNL A   1      44.943  30.896  30.030  1.00  0.00     0.167 HD
ATOM     69  C   UNL A   1      42.479  30.831  31.688  1.00  0.00     0.074 A 
ATOM     70  C   UNL A   1      42.380  31.598  30.445  1.00  0.00     0.031 C 
ATOM     71  C   UNL A   1      43.323  29.825  32.062  1.00  0.00     0.037 A 
BRANCH  58  72
ATOM     72  C   UNL A   1      45.310  30.496  27.105  1.00  0.00     0.057 A 
ATOM     73  C   UNL A   1      46.674  30.738  26.862  1.00  0.00     0.134 A 
ATOM     74  C   UNL A   1      44.468  31.619  26.963  1.00  0.00     0.134 A 
ATOM     75  F   UNL A   1      47.575  29.748  26.947  1.00  0.00    -0.206 F 
ATOM     76  C   UNL A   1      47.175  32.022  26.643  1.00  0.00     0.040 A 
ATOM     77  C   UNL A   1      44.956  32.899  26.702  1.00  0.00     0.040 A 
ATOM     78  F   UNL A   1      43.146  31.578  27.154  1.00  0.00    -0.206 F 
ATOM     79  C   UNL A   1      46.317  33.111  26.583  1.00  0.00     0.006 A 
ENDBRANCH  58  72
BRANCH  59  80
ATOM     80  C   UNL A   1      37.994  32.166  31.129  1.00  0.00     0.057 A 
ATOM     81  C   UNL A   1      37.523  32.616  29.881  1.00  0.00     0.134 A 
ATOM     82  C   UNL A   1      37.183  32.479  32.233  1.00  0.00     0.134 A 
ATOM     83  F   UNL A   1      38.197  32.335  28.756  1.00  0.00    -0.206 F 
ATOM     84  C   UNL A   1      36.306  33.301  29.739  1.00  0.00     0.040 A 
ATOM     85  C   UNL A   1      35.968  33.164  32.104  1.00  0.00     0.040 A 
ATOM     86  F   UNL A   1      37.496  32.051  33.464  1.00  0.00    -0.206 F 
ATOM     87  C   UNL A   1      35.516  33.564  30.852  1.00  0.00     0.006 A 
ENDBRANCH  59  80
BRANCH  71  88
ATOM     88  C   UNL A   1      43.057  29.105  33.355  1.00  0.00     0.057 A 
ATOM     89  C   UNL A   1      43.543  29.509  34.608  1.00  0.00     0.134 A 
ATOM     90  C   UNL A   1      42.110  28.074  33.345  1.00  0.00     0.134 A 
ATOM     91  F   UNL A   1      44.393  30.540  34.724  1.00  0.00    -0.206 F 
ATOM     92  C   UNL A   1      43.110  28.904  35.793  1.00  0.00     0.040 A 
ATOM     93  C   UNL A   1      41.644  27.486  34.521  1.00  0.00     0.040 A 
ATOM     94  F   UNL A   1      41.573  27.664  32.185  1.00  0.00    -0.206 F 
ATOM     95  C   UNL A   1      42.146  27.898  35.752  1.00  0.00     0.006 A 
ENDBRANCH  71  88
ENDBRANCH  45  46
ENDBRANCH  38  40
ENDBRANCH  37  38
ENDBRANCH  36  37
ENDBRANCH  35  36
ENDBRANCH  34  35
ENDBRANCH   1  34
TORSDOF 20
ENDMDL
