MODEL 1
REMARK VINA RESULT:     -10.0      0.000      0.000
REMARK SMILES CCC([NH3+])(CC)C(=O)N1CCC(CC(=O)OCCOCCOC(=O)c2ccc(-c3c4nc(c(-c5c(F)cccc5F)c5ccc([nH]5)c(-c5c(F)cccc5F)c5nc(c(-c6c(F)cccc6F)c6ccc3[nH]6)C=C5)C=C4)cc2)CC1
REMARK SMILES IDX 18 1 17 2 16 3 14 4 15 5 13 6 12 7 7 8 8 9 9 10 10 11 80 12
REMARK SMILES IDX 11 13 79 14 3 15 2 16 1 17 4 18 5 22 6 23 19 24 20 25 21 26
REMARK SMILES IDX 22 27 23 28 24 29 25 30 26 31 78 32 27 33 77 34 28 35 29 36
REMARK SMILES IDX 30 37 71 38 31 39 76 40 70 41 72 42 32 43 75 44 69 45 68 46
REMARK SMILES IDX 33 48 59 49 42 50 58 51 43 52 46 53 57 54 73 55 44 56 45 57
REMARK SMILES IDX 56 59 74 60 47 61 34 62 35 63 40 64 36 65 37 66 39 67 41 68
REMARK SMILES IDX 38 69 60 70 61 71 66 72 62 73 63 74 65 75 67 76 64 77 48 78
REMARK SMILES IDX 49 79 54 80 50 81 51 82 53 83 55 84 52 85
REMARK H PARENT 4 19 4 20 4 21 72 47 46 58
REMARK Flexibility Score: inf
ROOT
ATOM      1  C   UNL A   1      40.872  20.460  26.900  1.00  0.00     0.202 C 
ENDROOT
BRANCH   1   2
ATOM      2  C   UNL A   1      40.004  21.720  26.928  1.00  0.00     0.261 C 
BRANCH   2   3
ATOM      3  O   UNL A   1      39.416  21.963  25.635  1.00  0.00    -0.463 OA
BRANCH   3   4
ATOM      4  C   UNL A   1      38.130  21.565  25.470  1.00  0.00     0.306 C 
ATOM      5  O   UNL A   1      37.785  20.493  24.990  1.00  0.00    -0.252 OA
BRANCH   4   6
ATOM      6  C   UNL A   1      37.129  22.618  25.899  1.00  0.00     0.126 C 
BRANCH   6   7
ATOM      7  C   UNL A   1      35.884  22.842  25.016  1.00  0.00     0.003 C 
ATOM      8  C   UNL A   1      32.345  24.249  25.972  1.00  0.00     0.283 C 
ATOM      9  O   UNL A   1      32.271  23.554  26.990  1.00  0.00    -0.268 OA
ATOM     10  N   UNL A   1      33.138  23.828  24.898  1.00  0.00    -0.337 N 
ATOM     11  C   UNL A   1      33.388  22.398  24.771  1.00  0.00     0.120 C 
ATOM     12  C   UNL A   1      34.197  24.642  24.320  1.00  0.00     0.120 C 
ATOM     13  C   UNL A   1      34.681  21.993  25.475  1.00  0.00     0.026 C 
ATOM     14  C   UNL A   1      35.520  24.346  25.034  1.00  0.00     0.026 C 
BRANCH   8  15
ATOM     15  C   UNL A   1      31.443  25.538  25.796  1.00  0.00     0.173 C 
BRANCH  15  16
ATOM     16  C   UNL A   1      32.113  26.755  26.510  1.00  0.00     0.075 C 
ATOM     17  C   UNL A   1      32.948  27.693  25.640  1.00  0.00     0.011 C 
ENDBRANCH  15  16
BRANCH  15  18
ATOM     18  N   UNL A   1      30.121  25.271  26.430  1.00  0.00    -0.345 N 
ATOM     19  H   UNL A   1      30.258  25.032  27.413  1.00  0.00     0.345 HD
ATOM     20  H   UNL A   1      29.665  24.495  25.952  1.00  0.00     0.345 HD
ATOM     21  H   UNL A   1      29.537  26.105  26.361  1.00  0.00     0.345 HD
ENDBRANCH  15  18
BRANCH  15  22
ATOM     22  C   UNL A   1      31.164  25.952  24.330  1.00  0.00     0.075 C 
ATOM     23  C   UNL A   1      29.695  25.934  23.928  1.00  0.00     0.011 C 
ENDBRANCH  15  22
ENDBRANCH   8  15
ENDBRANCH   6   7
ENDBRANCH   4   6
ENDBRANCH   3   4
ENDBRANCH   2   3
ENDBRANCH   1   2
BRANCH   1  24
ATOM     24  O   UNL A   1      41.694  20.299  25.743  1.00  0.00    -0.374 OA
BRANCH  24  25
ATOM     25  C   UNL A   1      43.104  20.379  25.934  1.00  0.00     0.202 C 
BRANCH  25  26
ATOM     26  C   UNL A   1      43.805  21.550  25.235  1.00  0.00     0.261 C 
BRANCH  26  27
ATOM     27  O   UNL A   1      44.124  22.617  26.147  1.00  0.00    -0.460 OA
BRANCH  27  28
ATOM     28  C   UNL A   1      44.114  23.854  25.596  1.00  0.00     0.338 C 
ATOM     29  O   UNL A   1      44.503  24.172  24.479  1.00  0.00    -0.246 OA
BRANCH  28  30
ATOM     30  C   UNL A   1      43.398  24.797  26.474  1.00  0.00     0.060 A 
ATOM     31  C   UNL A   1      43.842  26.127  26.497  1.00  0.00     0.016 A 
ATOM     32  C   UNL A   1      42.359  24.383  27.310  1.00  0.00     0.016 A 
ATOM     33  C   UNL A   1      43.277  27.038  27.386  1.00  0.00     0.010 A 
ATOM     34  C   UNL A   1      41.800  25.297  28.209  1.00  0.00     0.010 A 
ATOM     35  C   UNL A   1      42.277  26.618  28.274  1.00  0.00    -0.014 A 
BRANCH  35  36
ATOM     36  C   UNL A   1      41.831  27.522  29.363  1.00  0.00     0.031 A 
ATOM     37  C   UNL A   1      42.552  27.486  30.682  1.00  0.00     0.074 A 
ATOM     38  C   UNL A   1      40.808  28.374  29.177  1.00  0.00     0.049 A 
ATOM     39  N   UNL A   1      42.290  28.132  31.790  1.00  0.00    -0.248 NA
ATOM     40  C   UNL A   1      43.725  26.602  30.762  1.00  0.00     0.031 C 
ATOM     41  C   UNL A   1      40.061  28.541  27.932  1.00  0.00     0.029 A 
ATOM     42  N   UNL A   1      40.216  29.255  30.048  1.00  0.00    -0.354 N 
ATOM     43  C   UNL A   1      43.259  27.726  32.700  1.00  0.00     0.074 A 
ATOM     44  C   UNL A   1      44.097  26.760  32.023  1.00  0.00     0.031 C 
ATOM     45  C   UNL A   1      39.099  29.459  28.123  1.00  0.00     0.029 A 
ATOM     46  C   UNL A   1      39.139  29.917  29.510  1.00  0.00     0.049 A 
ATOM     47  H   UNL A   1      40.533  29.398  30.969  1.00  0.00     0.167 HD
ATOM     48  C   UNL A   1      43.436  28.128  33.981  1.00  0.00     0.037 A 
ATOM     49  C   UNL A   1      38.271  30.773  30.083  1.00  0.00     0.037 A 
ATOM     50  C   UNL A   1      42.603  29.089  34.652  1.00  0.00     0.049 A 
ATOM     51  C   UNL A   1      38.436  31.136  31.535  1.00  0.00     0.074 A 
ATOM     52  C   UNL A   1      42.712  29.572  35.945  1.00  0.00     0.029 A 
ATOM     53  N   UNL A   1      41.500  29.709  34.086  1.00  0.00    -0.354 N 
ATOM     54  N   UNL A   1      39.363  30.761  32.382  1.00  0.00    -0.248 NA
ATOM     55  C   UNL A   1      37.430  32.042  32.111  1.00  0.00     0.031 C 
ATOM     56  C   UNL A   1      41.647  30.449  36.176  1.00  0.00     0.029 A 
ATOM     57  C   UNL A   1      40.904  30.550  35.011  1.00  0.00     0.049 A 
ATOM     58  H   UNL A   1      41.186  29.572  33.163  1.00  0.00     0.167 HD
ATOM     59  C   UNL A   1      39.072  31.406  33.579  1.00  0.00     0.074 A 
ATOM     60  C   UNL A   1      37.884  32.202  33.346  1.00  0.00     0.031 C 
ATOM     61  C   UNL A   1      39.730  31.348  34.761  1.00  0.00     0.037 A 
BRANCH  48  62
ATOM     62  C   UNL A   1      44.563  27.503  34.749  1.00  0.00     0.057 A 
ATOM     63  C   UNL A   1      45.842  28.072  34.782  1.00  0.00     0.134 A 
ATOM     64  C   UNL A   1      44.358  26.331  35.487  1.00  0.00     0.134 A 
ATOM     65  F   UNL A   1      46.109  29.187  34.085  1.00  0.00    -0.206 F 
ATOM     66  C   UNL A   1      46.884  27.484  35.503  1.00  0.00     0.040 A 
ATOM     67  C   UNL A   1      45.384  25.747  36.231  1.00  0.00     0.040 A 
ATOM     68  F   UNL A   1      43.155  25.736  35.501  1.00  0.00    -0.206 F 
ATOM     69  C   UNL A   1      46.654  26.322  36.235  1.00  0.00     0.006 A 
ENDBRANCH  48  62
BRANCH  49  70
ATOM     70  C   UNL A   1      37.150  31.335  29.290  1.00  0.00     0.057 A 
ATOM     71  C   UNL A   1      35.999  30.583  29.028  1.00  0.00     0.134 A 
ATOM     72  C   UNL A   1      37.210  32.629  28.758  1.00  0.00     0.134 A 
ATOM     73  F   UNL A   1      35.893  29.328  29.489  1.00  0.00    -0.206 F 
ATOM     74  C   UNL A   1      34.955  31.091  28.252  1.00  0.00     0.040 A 
ATOM     75  C   UNL A   1      36.164  33.159  28.001  1.00  0.00     0.040 A 
ATOM     76  F   UNL A   1      38.286  33.400  28.972  1.00  0.00    -0.206 F 
ATOM     77  C   UNL A   1      35.034  32.385  27.740  1.00  0.00     0.006 A 
ENDBRANCH  49  70
BRANCH  61  78
ATOM     78  C   UNL A   1      39.214  32.200  35.884  1.00  0.00     0.057 A 
ATOM     79  C   UNL A   1      39.639  33.521  36.069  1.00  0.00     0.134 A 
ATOM     80  C   UNL A   1      38.237  31.707  36.759  1.00  0.00     0.134 A 
ATOM     81  F   UNL A   1      40.582  34.049  35.273  1.00  0.00    -0.206 F 
ATOM     82  C   UNL A   1      39.125  34.316  37.095  1.00  0.00     0.040 A 
ATOM     83  C   UNL A   1      37.696  32.499  37.773  1.00  0.00     0.040 A 
ATOM     84  F   UNL A   1      37.778  30.453  36.630  1.00  0.00    -0.206 F 
ATOM     85  C   UNL A   1      38.145  33.807  37.946  1.00  0.00     0.006 A 
ENDBRANCH  61  78
ENDBRANCH  35  36
ENDBRANCH  28  30
ENDBRANCH  27  28
ENDBRANCH  26  27
ENDBRANCH  25  26
ENDBRANCH  24  25
ENDBRANCH   1  24
TORSDOF 19
ENDMDL
MODEL 2
REMARK VINA RESULT:      -9.9      1.143      6.531
REMARK SMILES CCC([NH3+])(CC)C(=O)N1CCC(CC(=O)OCCOCCOC(=O)c2ccc(-c3c4nc(c(-c5c(F)cccc5F)c5ccc([nH]5)c(-c5c(F)cccc5F)c5nc(c(-c6c(F)cccc6F)c6ccc3[nH]6)C=C5)C=C4)cc2)CC1
REMARK SMILES IDX 18 1 17 2 16 3 14 4 15 5 13 6 12 7 7 8 8 9 9 10 10 11 80 12
REMARK SMILES IDX 11 13 79 14 3 15 2 16 1 17 4 18 5 22 6 23 19 24 20 25 21 26
REMARK SMILES IDX 22 27 23 28 24 29 25 30 26 31 78 32 27 33 77 34 28 35 29 36
REMARK SMILES IDX 30 37 71 38 31 39 76 40 70 41 72 42 32 43 75 44 69 45 68 46
REMARK SMILES IDX 33 48 59 49 42 50 58 51 43 52 46 53 57 54 73 55 44 56 45 57
REMARK SMILES IDX 56 59 74 60 47 61 34 62 35 63 40 64 36 65 37 66 39 67 41 68
REMARK SMILES IDX 38 69 60 70 61 71 66 72 62 73 63 74 65 75 67 76 64 77 48 78
REMARK SMILES IDX 49 79 54 80 50 81 51 82 53 83 55 84 52 85
REMARK H PARENT 4 19 4 20 4 21 72 47 46 58
REMARK Flexibility Score: inf
ROOT
ATOM      1  C   UNL A   1      42.945  20.325  25.740  1.00  0.00     0.202 C 
ENDROOT
BRANCH   1   2
ATOM      2  C   UNL A   1      41.989  21.469  26.086  1.00  0.00     0.261 C 
BRANCH   2   3
ATOM      3  O   UNL A   1      40.620  21.071  25.877  1.00  0.00    -0.463 OA
BRANCH   3   4
ATOM      4  C   UNL A   1      39.669  21.853  26.445  1.00  0.00     0.306 C 
ATOM      5  O   UNL A   1      39.871  22.665  27.339  1.00  0.00    -0.252 OA
BRANCH   4   6
ATOM      6  C   UNL A   1      38.284  21.589  25.890  1.00  0.00     0.126 C 
BRANCH   6   7
ATOM      7  C   UNL A   1      37.567  22.735  25.146  1.00  0.00     0.003 C 
ATOM      8  C   UNL A   1      33.755  23.207  24.335  1.00  0.00     0.283 C 
ATOM      9  O   UNL A   1      33.623  22.039  23.957  1.00  0.00    -0.268 OA
ATOM     10  N   UNL A   1      35.008  23.825  24.259  1.00  0.00    -0.337 N 
ATOM     11  C   UNL A   1      35.947  23.316  23.268  1.00  0.00     0.120 C 
ATOM     12  C   UNL A   1      35.668  24.436  25.404  1.00  0.00     0.120 C 
ATOM     13  C   UNL A   1      36.861  22.247  23.864  1.00  0.00     0.026 C 
ATOM     14  C   UNL A   1      36.548  23.396  26.105  1.00  0.00     0.026 C 
BRANCH   8  15
ATOM     15  C   UNL A   1      32.500  24.071  24.767  1.00  0.00     0.173 C 
BRANCH  15  16
ATOM     16  C   UNL A   1      31.193  23.424  24.210  1.00  0.00     0.075 C 
ATOM     17  C   UNL A   1      30.343  24.279  23.271  1.00  0.00     0.011 C 
ENDBRANCH  15  16
BRANCH  15  18
ATOM     18  N   UNL A   1      32.652  25.435  24.188  1.00  0.00    -0.345 N 
ATOM     19  H   UNL A   1      31.966  26.062  24.610  1.00  0.00     0.345 HD
ATOM     20  H   UNL A   1      32.500  25.395  23.180  1.00  0.00     0.345 HD
ATOM     21  H   UNL A   1      33.592  25.783  24.377  1.00  0.00     0.345 HD
ENDBRANCH  15  18
BRANCH  15  22
ATOM     22  C   UNL A   1      32.319  24.249  26.295  1.00  0.00     0.075 C 
ATOM     23  C   UNL A   1      31.706  23.053  27.011  1.00  0.00     0.011 C 
ENDBRANCH  15  22
ENDBRANCH   8  15
ENDBRANCH   6   7
ENDBRANCH   4   6
ENDBRANCH   3   4
ENDBRANCH   2   3
ENDBRANCH   1   2
BRANCH   1  24
ATOM     24  O   UNL A   1      44.069  20.679  24.934  1.00  0.00    -0.374 OA
BRANCH  24  25
ATOM     25  C   UNL A   1      44.719  21.912  25.233  1.00  0.00     0.202 C 
BRANCH  25  26
ATOM     26  C   UNL A   1      44.560  23.020  24.185  1.00  0.00     0.261 C 
BRANCH  26  27
ATOM     27  O   UNL A   1      43.733  24.100  24.656  1.00  0.00    -0.460 OA
BRANCH  27  28
ATOM     28  C   UNL A   1      44.416  25.177  25.112  1.00  0.00     0.338 C 
ATOM     29  O   UNL A   1      45.470  25.627  24.677  1.00  0.00    -0.246 OA
BRANCH  28  30
ATOM     30  C   UNL A   1      43.629  25.882  26.139  1.00  0.00     0.060 A 
ATOM     31  C   UNL A   1      43.921  27.235  26.365  1.00  0.00     0.016 A 
ATOM     32  C   UNL A   1      42.673  25.224  26.916  1.00  0.00     0.016 A 
ATOM     33  C   UNL A   1      43.287  27.924  27.398  1.00  0.00     0.010 A 
ATOM     34  C   UNL A   1      42.045  25.916  27.958  1.00  0.00     0.010 A 
ATOM     35  C   UNL A   1      42.373  27.257  28.223  1.00  0.00    -0.014 A 
BRANCH  35  36
ATOM     36  C   UNL A   1      41.865  27.922  29.449  1.00  0.00     0.031 A 
ATOM     37  C   UNL A   1      40.625  28.767  29.361  1.00  0.00     0.074 A 
ATOM     38  C   UNL A   1      42.490  27.765  30.629  1.00  0.00     0.049 A 
ATOM     39  N   UNL A   1      40.046  29.493  30.283  1.00  0.00    -0.248 NA
ATOM     40  C   UNL A   1      39.946  28.797  28.055  1.00  0.00     0.031 C 
ATOM     41  C   UNL A   1      43.671  26.933  30.857  1.00  0.00     0.029 A 
ATOM     42  N   UNL A   1      42.219  28.311  31.859  1.00  0.00    -0.354 N 
ATOM     43  C   UNL A   1      38.943  30.072  29.669  1.00  0.00     0.074 A 
ATOM     44  C   UNL A   1      38.947  29.635  28.290  1.00  0.00     0.031 C 
ATOM     45  C   UNL A   1      44.031  27.036  32.147  1.00  0.00     0.029 A 
ATOM     46  C   UNL A   1      43.131  27.966  32.825  1.00  0.00     0.049 A 
ATOM     47  H   UNL A   1      41.445  28.895  32.030  1.00  0.00     0.167 HD
ATOM     48  C   UNL A   1      38.008  30.890  30.208  1.00  0.00     0.037 A 
ATOM     49  C   UNL A   1      43.240  28.378  34.103  1.00  0.00     0.037 A 
ATOM     50  C   UNL A   1      38.004  31.325  31.580  1.00  0.00     0.049 A 
ATOM     51  C   UNL A   1      42.239  29.358  34.656  1.00  0.00     0.074 A 
ATOM     52  C   UNL A   1      37.090  32.141  32.223  1.00  0.00     0.029 A 
ATOM     53  N   UNL A   1      38.965  30.984  32.518  1.00  0.00    -0.354 N 
ATOM     54  N   UNL A   1      41.191  29.887  34.073  1.00  0.00    -0.248 NA
ATOM     55  C   UNL A   1      42.439  29.799  36.045  1.00  0.00     0.031 C 
ATOM     56  C   UNL A   1      37.524  32.332  33.539  1.00  0.00     0.029 A 
ATOM     57  C   UNL A   1      38.681  31.594  33.728  1.00  0.00     0.049 A 
ATOM     58  H   UNL A   1      39.736  30.395  32.349  1.00  0.00     0.167 HD
ATOM     59  C   UNL A   1      40.590  30.697  35.030  1.00  0.00     0.074 A 
ATOM     60  C   UNL A   1      41.388  30.585  36.234  1.00  0.00     0.031 C 
ATOM     61  C   UNL A   1      39.477  31.462  34.923  1.00  0.00     0.037 A 
BRANCH  48  62
ATOM     62  C   UNL A   1      36.925  31.392  29.299  1.00  0.00     0.057 A 
ATOM     63  C   UNL A   1      35.835  30.591  28.933  1.00  0.00     0.134 A 
ATOM     64  C   UNL A   1      36.959  32.702  28.805  1.00  0.00     0.134 A 
ATOM     65  F   UNL A   1      35.750  29.322  29.361  1.00  0.00    -0.206 F 
ATOM     66  C   UNL A   1      34.830  31.068  28.089  1.00  0.00     0.040 A 
ATOM     67  C   UNL A   1      35.948  33.198  27.981  1.00  0.00     0.040 A 
ATOM     68  F   UNL A   1      37.973  33.522  29.120  1.00  0.00    -0.206 F 
ATOM     69  C   UNL A   1      34.882  32.377  27.616  1.00  0.00     0.006 A 
ENDBRANCH  48  62
BRANCH  49  70
ATOM     70  C   UNL A   1      44.352  27.881  34.952  1.00  0.00     0.057 A 
ATOM     71  C   UNL A   1      45.596  28.522  34.963  1.00  0.00     0.134 A 
ATOM     72  C   UNL A   1      44.206  26.743  35.754  1.00  0.00     0.134 A 
ATOM     73  F   UNL A   1      45.806  29.602  34.196  1.00  0.00    -0.206 F 
ATOM     74  C   UNL A   1      46.659  28.041  35.730  1.00  0.00     0.040 A 
ATOM     75  C   UNL A   1      45.251  26.264  36.544  1.00  0.00     0.040 A 
ATOM     76  F   UNL A   1      43.039  26.083  35.785  1.00  0.00    -0.206 F 
ATOM     77  C   UNL A   1      46.486  26.910  36.527  1.00  0.00     0.006 A 
ENDBRANCH  49  70
BRANCH  61  78
ATOM     78  C   UNL A   1      39.024  32.202  36.148  1.00  0.00     0.057 A 
ATOM     79  C   UNL A   1      38.194  31.610  37.107  1.00  0.00     0.134 A 
ATOM     80  C   UNL A   1      39.470  33.507  36.394  1.00  0.00     0.134 A 
ATOM     81  F   UNL A   1      37.722  30.367  36.925  1.00  0.00    -0.206 F 
ATOM     82  C   UNL A   1      37.810  32.296  38.261  1.00  0.00     0.040 A 
ATOM     83  C   UNL A   1      39.113  34.194  37.556  1.00  0.00     0.040 A 
ATOM     84  F   UNL A   1      40.276  34.128  35.520  1.00  0.00    -0.206 F 
ATOM     85  C   UNL A   1      38.276  33.590  38.491  1.00  0.00     0.006 A 
ENDBRANCH  61  78
ENDBRANCH  35  36
ENDBRANCH  28  30
ENDBRANCH  27  28
ENDBRANCH  26  27
ENDBRANCH  25  26
ENDBRANCH  24  25
ENDBRANCH   1  24
TORSDOF 19
ENDMDL
MODEL 3
REMARK VINA RESULT:      -9.8      1.258      2.400
REMARK SMILES CCC([NH3+])(CC)C(=O)N1CCC(CC(=O)OCCOCCOC(=O)c2ccc(-c3c4nc(c(-c5c(F)cccc5F)c5ccc([nH]5)c(-c5c(F)cccc5F)c5nc(c(-c6c(F)cccc6F)c6ccc3[nH]6)C=C5)C=C4)cc2)CC1
REMARK SMILES IDX 18 1 17 2 16 3 14 4 15 5 13 6 12 7 7 8 8 9 9 10 10 11 80 12
REMARK SMILES IDX 11 13 79 14 3 15 2 16 1 17 4 18 5 22 6 23 19 24 20 25 21 26
REMARK SMILES IDX 22 27 23 28 24 29 25 30 26 31 78 32 27 33 77 34 28 35 29 36
REMARK SMILES IDX 30 37 71 38 31 39 76 40 70 41 72 42 32 43 75 44 69 45 68 46
REMARK SMILES IDX 33 48 59 49 42 50 58 51 43 52 46 53 57 54 73 55 44 56 45 57
REMARK SMILES IDX 56 59 74 60 47 61 34 62 35 63 40 64 36 65 37 66 39 67 41 68
REMARK SMILES IDX 38 69 60 70 61 71 66 72 62 73 63 74 65 75 67 76 64 77 48 78
REMARK SMILES IDX 49 79 54 80 50 81 51 82 53 83 55 84 52 85
REMARK H PARENT 4 19 4 20 4 21 72 47 46 58
REMARK Flexibility Score: inf
ROOT
ATOM      1  C   UNL A   1      42.178  20.771  26.445  1.00  0.00     0.202 C 
ENDROOT
BRANCH   1   2
ATOM      2  C   UNL A   1      40.992  21.543  25.864  1.00  0.00     0.261 C 
BRANCH   2   3
ATOM      3  O   UNL A   1      39.745  20.979  26.316  1.00  0.00    -0.463 OA
BRANCH   3   4
ATOM      4  C   UNL A   1      39.254  19.940  25.596  1.00  0.00     0.306 C 
ATOM      5  O   UNL A   1      39.748  18.820  25.556  1.00  0.00    -0.252 OA
BRANCH   4   6
ATOM      6  C   UNL A   1      38.032  20.314  24.782  1.00  0.00     0.126 C 
BRANCH   6   7
ATOM      7  C   UNL A   1      37.091  21.402  25.340  1.00  0.00     0.003 C 
ATOM      8  C   UNL A   1      34.146  23.318  23.588  1.00  0.00     0.283 C 
ATOM      9  O   UNL A   1      34.805  23.528  22.564  1.00  0.00    -0.268 OA
ATOM     10  N   UNL A   1      34.801  23.133  24.811  1.00  0.00    -0.337 N 
ATOM     11  C   UNL A   1      36.123  23.727  24.959  1.00  0.00     0.120 C 
ATOM     12  C   UNL A   1      34.609  21.960  25.650  1.00  0.00     0.120 C 
ATOM     13  C   UNL A   1      37.224  22.737  24.580  1.00  0.00     0.026 C 
ATOM     14  C   UNL A   1      35.634  20.885  25.274  1.00  0.00     0.026 C 
BRANCH   8  15
ATOM     15  C   UNL A   1      32.565  23.398  23.571  1.00  0.00     0.173 C 
BRANCH  15  16
ATOM     16  C   UNL A   1      31.961  21.959  23.638  1.00  0.00     0.075 C 
ATOM     17  C   UNL A   1      32.107  21.088  22.392  1.00  0.00     0.011 C 
ENDBRANCH  15  16
BRANCH  15  18
ATOM     18  N   UNL A   1      32.144  24.041  22.295  1.00  0.00    -0.345 N 
ATOM     19  H   UNL A   1      31.970  25.034  22.457  1.00  0.00     0.345 HD
ATOM     20  H   UNL A   1      31.292  23.598  21.955  1.00  0.00     0.345 HD
ATOM     21  H   UNL A   1      32.884  23.934  21.601  1.00  0.00     0.345 HD
ENDBRANCH  15  18
BRANCH  15  22
ATOM     22  C   UNL A   1      31.935  24.223  24.721  1.00  0.00     0.075 C 
ATOM     23  C   UNL A   1      31.231  23.398  25.790  1.00  0.00     0.011 C 
ENDBRANCH  15  22
ENDBRANCH   8  15
ENDBRANCH   6   7
ENDBRANCH   4   6
ENDBRANCH   3   4
ENDBRANCH   2   3
ENDBRANCH   1   2
BRANCH   1  24
ATOM     24  O   UNL A   1      43.149  20.321  25.499  1.00  0.00    -0.374 OA
BRANCH  24  25
ATOM     25  C   UNL A   1      44.300  21.140  25.313  1.00  0.00     0.202 C 
BRANCH  25  26
ATOM     26  C   UNL A   1      44.582  22.157  26.425  1.00  0.00     0.261 C 
BRANCH  26  27
ATOM     27  O   UNL A   1      44.821  23.478  25.906  1.00  0.00    -0.460 OA
BRANCH  27  28
ATOM     28  C   UNL A   1      43.761  24.038  25.273  1.00  0.00     0.338 C 
ATOM     29  O   UNL A   1      43.313  23.741  24.172  1.00  0.00    -0.246 OA
BRANCH  28  30
ATOM     30  C   UNL A   1      43.073  24.982  26.171  1.00  0.00     0.060 A 
ATOM     31  C   UNL A   1      43.588  26.283  26.262  1.00  0.00     0.016 A 
ATOM     32  C   UNL A   1      41.989  24.593  26.960  1.00  0.00     0.016 A 
ATOM     33  C   UNL A   1      43.048  27.188  27.173  1.00  0.00     0.010 A 
ATOM     34  C   UNL A   1      41.454  25.500  27.882  1.00  0.00     0.010 A 
ATOM     35  C   UNL A   1      42.001  26.789  28.015  1.00  0.00    -0.014 A 
BRANCH  35  36
ATOM     36  C   UNL A   1      41.574  27.670  29.129  1.00  0.00     0.031 A 
ATOM     37  C   UNL A   1      42.310  27.602  30.438  1.00  0.00     0.074 A 
ATOM     38  C   UNL A   1      40.554  28.532  28.975  1.00  0.00     0.049 A 
ATOM     39  N   UNL A   1      42.066  28.225  31.563  1.00  0.00    -0.248 NA
ATOM     40  C   UNL A   1      43.479  26.709  30.484  1.00  0.00     0.031 C 
ATOM     41  C   UNL A   1      39.793  28.731  27.742  1.00  0.00     0.029 A 
ATOM     42  N   UNL A   1      39.978  29.398  29.871  1.00  0.00    -0.354 N 
ATOM     43  C   UNL A   1      43.043  27.794  32.451  1.00  0.00     0.074 A 
ATOM     44  C   UNL A   1      43.867  26.838  31.744  1.00  0.00     0.031 C 
ATOM     45  C   UNL A   1      38.838  29.650  27.965  1.00  0.00     0.029 A 
ATOM     46  C   UNL A   1      38.898  30.077  29.361  1.00  0.00     0.049 A 
ATOM     47  H   UNL A   1      40.306  29.519  30.791  1.00  0.00     0.167 HD
ATOM     48  C   UNL A   1      43.238  28.167  33.739  1.00  0.00     0.037 A 
ATOM     49  C   UNL A   1      38.042  30.925  29.963  1.00  0.00     0.037 A 
ATOM     50  C   UNL A   1      42.419  29.118  34.441  1.00  0.00     0.049 A 
ATOM     51  C   UNL A   1      38.226  31.256  31.421  1.00  0.00     0.074 A 
ATOM     52  C   UNL A   1      42.546  29.571  35.743  1.00  0.00     0.029 A 
ATOM     53  N   UNL A   1      41.313  29.756  33.902  1.00  0.00    -0.354 N 
ATOM     54  N   UNL A   1      39.161  30.857  32.248  1.00  0.00    -0.248 NA
ATOM     55  C   UNL A   1      37.233  32.155  32.028  1.00  0.00     0.031 C 
ATOM     56  C   UNL A   1      41.490  30.449  36.006  1.00  0.00     0.029 A 
ATOM     57  C   UNL A   1      40.733  30.580  34.853  1.00  0.00     0.049 A 
ATOM     58  H   UNL A   1      40.987  29.641  32.980  1.00  0.00     0.167 HD
ATOM     59  C   UNL A   1      38.889  31.477  33.462  1.00  0.00     0.074 A 
ATOM     60  C   UNL A   1      37.703  32.285  33.262  1.00  0.00     0.031 C 
ATOM     61  C   UNL A   1      39.561  31.390  34.635  1.00  0.00     0.037 A 
BRANCH  48  62
ATOM     62  C   UNL A   1      44.370  27.518  34.479  1.00  0.00     0.057 A 
ATOM     63  C   UNL A   1      44.237  26.261  35.083  1.00  0.00     0.134 A 
ATOM     64  C   UNL A   1      45.619  28.147  34.565  1.00  0.00     0.134 A 
ATOM     65  F   UNL A   1      43.063  25.612  35.049  1.00  0.00    -0.206 F 
ATOM     66  C   UNL A   1      45.298  25.664  35.767  1.00  0.00     0.040 A 
ATOM     67  C   UNL A   1      46.694  27.549  35.225  1.00  0.00     0.040 A 
ATOM     68  F   UNL A   1      45.815  29.350  34.005  1.00  0.00    -0.206 F 
ATOM     69  C   UNL A   1      46.532  26.306  35.833  1.00  0.00     0.006 A 
ENDBRANCH  48  62
BRANCH  49  70
ATOM     70  C   UNL A   1      36.915  31.511  29.197  1.00  0.00     0.057 A 
ATOM     71  C   UNL A   1      36.963  32.830  28.730  1.00  0.00     0.134 A 
ATOM     72  C   UNL A   1      35.753  30.776  28.930  1.00  0.00     0.134 A 
ATOM     73  F   UNL A   1      38.039  33.593  28.976  1.00  0.00    -0.206 F 
ATOM     74  C   UNL A   1      35.893  33.402  28.040  1.00  0.00     0.040 A 
ATOM     75  C   UNL A   1      34.685  31.326  28.221  1.00  0.00     0.040 A 
ATOM     76  F   UNL A   1      35.644  29.508  29.352  1.00  0.00    -0.206 F 
ATOM     77  C   UNL A   1      34.750  32.646  27.780  1.00  0.00     0.006 A 
ENDBRANCH  49  70
BRANCH  61  78
ATOM     78  C   UNL A   1      39.063  32.220  35.782  1.00  0.00     0.057 A 
ATOM     79  C   UNL A   1      38.217  31.693  36.765  1.00  0.00     0.134 A 
ATOM     80  C   UNL A   1      39.482  33.548  35.932  1.00  0.00     0.134 A 
ATOM     81  F   UNL A   1      37.770  30.431  36.674  1.00  0.00    -0.206 F 
ATOM     82  C   UNL A   1      37.790  32.465  37.849  1.00  0.00     0.040 A 
ATOM     83  C   UNL A   1      39.082  34.322  37.023  1.00  0.00     0.040 A 
ATOM     84  F   UNL A   1      40.301  34.110  35.031  1.00  0.00    -0.206 F 
ATOM     85  C   UNL A   1      38.229  33.781  37.983  1.00  0.00     0.006 A 
ENDBRANCH  61  78
ENDBRANCH  35  36
ENDBRANCH  28  30
ENDBRANCH  27  28
ENDBRANCH  26  27
ENDBRANCH  25  26
ENDBRANCH  24  25
ENDBRANCH   1  24
TORSDOF 19
ENDMDL
