MODEL 1
REMARK VINA RESULT:      -9.0      0.000      0.000
REMARK SMILES COc1ccc2c(c1)C=C(C(=O)OCCOCCOC(=O)c1ccc(-c3c4nc(c(-c5c(F)cccc5F)c5ccc([nH]5)c(-c5c(F)cccc5F)c5nc(c(-c6c(F)cccc6F)c6ccc3[nH]6)C=C5)C=C4)cc1)[C@H](C(F)(F)F)O2
REMARK SMILES IDX 17 1 16 2 15 3 14 4 13 5 11 6 12 7 10 8 3 9 4 10 8 11 5 12
REMARK SMILES IDX 7 13 6 14 9 15 81 16 76 17 2 18 1 19 77 20 78 21 79 22 80 23
REMARK SMILES IDX 18 24 19 25 20 26 21 27 22 28 23 29 75 30 24 31 74 32 25 33
REMARK SMILES IDX 26 34 27 35 68 36 28 37 73 38 67 39 69 40 29 41 72 42 66 43
REMARK SMILES IDX 65 44 30 46 56 47 39 48 55 49 40 50 43 51 54 52 70 53 41 54
REMARK SMILES IDX 42 55 53 57 71 58 44 59 31 60 32 61 37 62 33 63 34 64 36 65
REMARK SMILES IDX 38 66 35 67 57 68 58 69 63 70 59 71 60 72 62 73 64 74 61 75
REMARK SMILES IDX 45 76 46 77 51 78 47 79 48 80 50 81 52 82 49 83
REMARK H PARENT 69 45 43 56
REMARK Flexibility Score: inf
ROOT
ATOM      1  C   UNL A   1      33.604  36.652  32.188  1.00  0.00     0.202 C 
ENDROOT
BRANCH   1   2
ATOM      2  O   UNL A   1      34.641  35.760  32.591  1.00  0.00    -0.374 OA
BRANCH   2   3
ATOM      3  C   UNL A   1      34.487  35.059  33.823  1.00  0.00     0.202 C 
BRANCH   3   4
ATOM      4  C   UNL A   1      35.074  33.647  33.900  1.00  0.00     0.261 C 
BRANCH   4   5
ATOM      5  O   UNL A   1      35.914  33.483  35.053  1.00  0.00    -0.460 OA
BRANCH   5   6
ATOM      6  C   UNL A   1      37.213  33.809  34.861  1.00  0.00     0.338 C 
ATOM      7  O   UNL A   1      37.649  34.912  34.565  1.00  0.00    -0.246 OA
BRANCH   6   8
ATOM      8  C   UNL A   1      38.090  32.666  35.160  1.00  0.00     0.087 C 
ATOM      9  C   UNL A   1      41.155  29.155  33.939  1.00  0.00     0.119 A 
ATOM     10  C   UNL A   1      41.734  29.235  35.208  1.00  0.00     0.050 A 
ATOM     11  C   UNL A   1      40.110  30.020  33.594  1.00  0.00     0.058 A 
ATOM     12  C   UNL A   1      41.246  30.150  36.142  1.00  0.00     0.051 A 
ATOM     13  C   UNL A   1      39.618  30.941  34.523  1.00  0.00     0.021 A 
ATOM     14  C   UNL A   1      40.182  30.982  35.805  1.00  0.00     0.128 A 
ATOM     15  C   UNL A   1      38.621  31.946  34.157  1.00  0.00     0.027 C 
ATOM     16  O   UNL A   1      39.775  31.876  36.760  1.00  0.00    -0.475 OA
ATOM     17  C   UNL A   1      38.402  32.325  36.601  1.00  0.00     0.316 C 
BRANCH   9  18
ATOM     18  O   UNL A   1      41.563  28.314  32.940  1.00  0.00    -0.497 OA
ATOM     19  C   UNL A   1      42.392  27.226  33.334  1.00  0.00     0.278 C 
ENDBRANCH   9  18
BRANCH  17  20
ATOM     20  C   UNL A   1      38.099  33.372  37.688  1.00  0.00     0.430 C 
ATOM     21  F   UNL A   1      38.584  34.588  37.341  1.00  0.00    -0.167 F 
ATOM     22  F   UNL A   1      36.754  33.533  37.814  1.00  0.00    -0.167 F 
ATOM     23  F   UNL A   1      38.572  33.036  38.903  1.00  0.00    -0.167 F 
ENDBRANCH  17  20
ENDBRANCH   6   8
ENDBRANCH   5   6
ENDBRANCH   4   5
ENDBRANCH   3   4
ENDBRANCH   2   3
ENDBRANCH   1   2
BRANCH   1  24
ATOM     24  C   UNL A   1      32.729  36.234  30.999  1.00  0.00     0.261 C 
BRANCH  24  25
ATOM     25  O   UNL A   1      32.823  34.829  30.707  1.00  0.00    -0.460 OA
BRANCH  25  26
ATOM     26  C   UNL A   1      33.206  34.541  29.440  1.00  0.00     0.338 C 
ATOM     27  O   UNL A   1      32.690  34.929  28.401  1.00  0.00    -0.246 OA
BRANCH  26  28
ATOM     28  C   UNL A   1      34.484  33.808  29.451  1.00  0.00     0.060 A 
ATOM     29  C   UNL A   1      34.695  32.887  30.485  1.00  0.00     0.016 A 
ATOM     30  C   UNL A   1      35.491  34.083  28.525  1.00  0.00     0.016 A 
ATOM     31  C   UNL A   1      35.936  32.274  30.629  1.00  0.00     0.010 A 
ATOM     32  C   UNL A   1      36.741  33.474  28.677  1.00  0.00     0.010 A 
ATOM     33  C   UNL A   1      36.979  32.597  29.753  1.00  0.00    -0.014 A 
BRANCH  33  34
ATOM     34  C   UNL A   1      38.355  32.138  30.056  1.00  0.00     0.031 A 
ATOM     35  C   UNL A   1      38.817  30.814  29.515  1.00  0.00     0.074 A 
ATOM     36  C   UNL A   1      39.192  32.905  30.777  1.00  0.00     0.049 A 
ATOM     37  N   UNL A   1      39.961  30.202  29.681  1.00  0.00    -0.248 NA
ATOM     38  C   UNL A   1      37.857  30.079  28.674  1.00  0.00     0.031 C 
ATOM     39  C   UNL A   1      38.874  34.223  31.322  1.00  0.00     0.029 A 
ATOM     40  N   UNL A   1      40.484  32.675  31.178  1.00  0.00    -0.354 N 
ATOM     41  C   UNL A   1      39.856  29.009  28.976  1.00  0.00     0.074 A 
ATOM     42  C   UNL A   1      38.527  28.970  28.405  1.00  0.00     0.031 C 
ATOM     43  C   UNL A   1      39.940  34.682  32.000  1.00  0.00     0.029 A 
ATOM     44  C   UNL A   1      41.003  33.679  31.959  1.00  0.00     0.049 A 
ATOM     45  H   UNL A   1      40.991  31.869  30.930  1.00  0.00     0.167 HD
ATOM     46  C   UNL A   1      40.786  28.039  28.812  1.00  0.00     0.037 A 
ATOM     47  C   UNL A   1      42.191  33.765  32.585  1.00  0.00     0.037 A 
ATOM     48  C   UNL A   1      42.110  28.084  29.377  1.00  0.00     0.049 A 
ATOM     49  C   UNL A   1      43.188  32.646  32.439  1.00  0.00     0.074 A 
ATOM     50  C   UNL A   1      43.133  27.160  29.252  1.00  0.00     0.029 A 
ATOM     51  N   UNL A   1      42.589  29.106  30.181  1.00  0.00    -0.354 N 
ATOM     52  N   UNL A   1      43.088  31.534  31.750  1.00  0.00    -0.248 NA
ATOM     53  C   UNL A   1      44.464  32.796  33.153  1.00  0.00     0.031 C 
ATOM     54  C   UNL A   1      44.216  27.601  30.020  1.00  0.00     0.029 A 
ATOM     55  C   UNL A   1      43.886  28.825  30.580  1.00  0.00     0.049 A 
ATOM     56  H   UNL A   1      42.084  29.912  30.432  1.00  0.00     0.167 HD
ATOM     57  C   UNL A   1      44.296  30.869  31.922  1.00  0.00     0.074 A 
ATOM     58  C   UNL A   1      45.117  31.707  32.771  1.00  0.00     0.031 C 
ATOM     59  C   UNL A   1      44.692  29.674  31.419  1.00  0.00     0.037 A 
BRANCH  46  60
ATOM     60  C   UNL A   1      40.395  26.834  28.008  1.00  0.00     0.057 A 
ATOM     61  C   UNL A   1      39.539  25.849  28.517  1.00  0.00     0.134 A 
ATOM     62  C   UNL A   1      40.859  26.673  26.696  1.00  0.00     0.134 A 
ATOM     63  F   UNL A   1      39.071  25.935  29.771  1.00  0.00    -0.206 F 
ATOM     64  C   UNL A   1      39.176  24.735  27.756  1.00  0.00     0.040 A 
ATOM     65  C   UNL A   1      40.483  25.577  25.918  1.00  0.00     0.040 A 
ATOM     66  F   UNL A   1      41.680  27.581  26.147  1.00  0.00    -0.206 F 
ATOM     67  C   UNL A   1      39.644  24.601  26.451  1.00  0.00     0.006 A 
ENDBRANCH  46  60
BRANCH  47  68
ATOM     68  C   UNL A   1      42.505  34.951  33.421  1.00  0.00     0.057 A 
ATOM     69  C   UNL A   1      43.179  36.057  32.890  1.00  0.00     0.134 A 
ATOM     70  C   UNL A   1      42.154  35.000  34.776  1.00  0.00     0.134 A 
ATOM     71  F   UNL A   1      43.561  36.060  31.604  1.00  0.00    -0.206 F 
ATOM     72  C   UNL A   1      43.509  37.160  33.679  1.00  0.00     0.040 A 
ATOM     73  C   UNL A   1      42.455  36.107  35.570  1.00  0.00     0.040 A 
ATOM     74  F   UNL A   1      41.505  33.973  35.344  1.00  0.00    -0.206 F 
ATOM     75  C   UNL A   1      43.142  37.189  35.023  1.00  0.00     0.006 A 
ENDBRANCH  47  68
BRANCH  59  76
ATOM     76  C   UNL A   1      46.087  29.219  31.739  1.00  0.00     0.057 A 
ATOM     77  C   UNL A   1      46.383  28.494  32.901  1.00  0.00     0.134 A 
ATOM     78  C   UNL A   1      47.140  29.475  30.851  1.00  0.00     0.134 A 
ATOM     79  F   UNL A   1      45.423  28.225  33.798  1.00  0.00    -0.206 F 
ATOM     80  C   UNL A   1      47.681  28.060  33.177  1.00  0.00     0.040 A 
ATOM     81  C   UNL A   1      48.435  29.023  31.104  1.00  0.00     0.040 A 
ATOM     82  F   UNL A   1      46.922  30.155  29.715  1.00  0.00    -0.206 F 
ATOM     83  C   UNL A   1      48.710  28.318  32.273  1.00  0.00     0.006 A 
ENDBRANCH  59  76
ENDBRANCH  33  34
ENDBRANCH  26  28
ENDBRANCH  25  26
ENDBRANCH  24  25
ENDBRANCH   1  24
TORSDOF 16
ENDMDL
MODEL 2
REMARK VINA RESULT:      -9.0      4.117      9.696
REMARK SMILES COc1ccc2c(c1)C=C(C(=O)OCCOCCOC(=O)c1ccc(-c3c4nc(c(-c5c(F)cccc5F)c5ccc([nH]5)c(-c5c(F)cccc5F)c5nc(c(-c6c(F)cccc6F)c6ccc3[nH]6)C=C5)C=C4)cc1)[C@H](C(F)(F)F)O2
REMARK SMILES IDX 17 1 16 2 15 3 14 4 13 5 11 6 12 7 10 8 3 9 4 10 8 11 5 12
REMARK SMILES IDX 7 13 6 14 9 15 81 16 76 17 2 18 1 19 77 20 78 21 79 22 80 23
REMARK SMILES IDX 18 24 19 25 20 26 21 27 22 28 23 29 75 30 24 31 74 32 25 33
REMARK SMILES IDX 26 34 27 35 68 36 28 37 73 38 67 39 69 40 29 41 72 42 66 43
REMARK SMILES IDX 65 44 30 46 56 47 39 48 55 49 40 50 43 51 54 52 70 53 41 54
REMARK SMILES IDX 42 55 53 57 71 58 44 59 31 60 32 61 37 62 33 63 34 64 36 65
REMARK SMILES IDX 38 66 35 67 57 68 58 69 63 70 59 71 60 72 62 73 64 74 61 75
REMARK SMILES IDX 45 76 46 77 51 78 47 79 48 80 50 81 52 82 49 83
REMARK H PARENT 69 45 43 56
REMARK Flexibility Score: inf
ROOT
ATOM      1  C   UNL A   1      31.381  31.995  26.698  1.00  0.00     0.202 C 
ENDROOT
BRANCH   1   2
ATOM      2  O   UNL A   1      32.103  30.766  26.727  1.00  0.00    -0.374 OA
BRANCH   2   3
ATOM      3  C   UNL A   1      31.825  29.797  25.719  1.00  0.00     0.202 C 
BRANCH   3   4
ATOM      4  C   UNL A   1      32.960  28.842  25.339  1.00  0.00     0.261 C 
BRANCH   4   5
ATOM      5  O   UNL A   1      32.569  27.942  24.290  1.00  0.00    -0.460 OA
BRANCH   5   6
ATOM      6  C   UNL A   1      32.358  26.665  24.685  1.00  0.00     0.338 C 
ATOM      7  O   UNL A   1      31.335  26.220  25.187  1.00  0.00    -0.246 OA
BRANCH   6   8
ATOM      8  C   UNL A   1      33.505  25.812  24.337  1.00  0.00     0.087 C 
ATOM      9  C   UNL A   1      37.200  22.914  25.415  1.00  0.00     0.119 A 
ATOM     10  C   UNL A   1      37.045  22.278  24.181  1.00  0.00     0.050 A 
ATOM     11  C   UNL A   1      36.327  23.946  25.780  1.00  0.00     0.058 A 
ATOM     12  C   UNL A   1      36.047  22.696  23.299  1.00  0.00     0.051 A 
ATOM     13  C   UNL A   1      35.323  24.368  24.904  1.00  0.00     0.021 A 
ATOM     14  C   UNL A   1      35.207  23.748  23.653  1.00  0.00     0.128 A 
ATOM     15  C   UNL A   1      34.315  25.348  25.304  1.00  0.00     0.027 C 
ATOM     16  O   UNL A   1      34.231  24.084  22.753  1.00  0.00    -0.475 OA
ATOM     17  C   UNL A   1      33.747  25.448  22.888  1.00  0.00     0.316 C 
BRANCH   9  18
ATOM     18  O   UNL A   1      38.126  22.577  26.364  1.00  0.00    -0.497 OA
ATOM     19  C   UNL A   1      39.200  21.750  25.927  1.00  0.00     0.278 C 
ENDBRANCH   9  18
BRANCH  17  20
ATOM     20  C   UNL A   1      32.614  25.670  21.872  1.00  0.00     0.430 C 
ATOM     21  F   UNL A   1      32.509  26.979  21.538  1.00  0.00    -0.167 F 
ATOM     22  F   UNL A   1      32.895  25.015  20.714  1.00  0.00    -0.167 F 
ATOM     23  F   UNL A   1      31.416  25.224  22.298  1.00  0.00    -0.167 F 
ENDBRANCH  17  20
ENDBRANCH   6   8
ENDBRANCH   5   6
ENDBRANCH   4   5
ENDBRANCH   3   4
ENDBRANCH   2   3
ENDBRANCH   1   2
BRANCH   1  24
ATOM     24  C   UNL A   1      32.183  33.295  26.832  1.00  0.00     0.261 C 
BRANCH  24  25
ATOM     25  O   UNL A   1      32.271  33.757  28.191  1.00  0.00    -0.460 OA
BRANCH  25  26
ATOM     26  C   UNL A   1      33.352  34.528  28.456  1.00  0.00     0.338 C 
ATOM     27  O   UNL A   1      33.376  35.741  28.617  1.00  0.00    -0.246 OA
BRANCH  26  28
ATOM     28  C   UNL A   1      34.531  33.683  28.710  1.00  0.00     0.060 A 
ATOM     29  C   UNL A   1      34.308  32.393  29.209  1.00  0.00     0.016 A 
ATOM     30  C   UNL A   1      35.828  34.172  28.554  1.00  0.00     0.016 A 
ATOM     31  C   UNL A   1      35.384  31.604  29.604  1.00  0.00     0.010 A 
ATOM     32  C   UNL A   1      36.908  33.382  28.961  1.00  0.00     0.010 A 
ATOM     33  C   UNL A   1      36.687  32.110  29.523  1.00  0.00    -0.014 A 
BRANCH  33  34
ATOM     34  C   UNL A   1      37.798  31.373  30.170  1.00  0.00     0.031 A 
ATOM     35  C   UNL A   1      38.118  31.657  31.612  1.00  0.00     0.074 A 
ATOM     36  C   UNL A   1      38.493  30.442  29.492  1.00  0.00     0.049 A 
ATOM     37  N   UNL A   1      39.063  31.159  32.367  1.00  0.00    -0.248 NA
ATOM     38  C   UNL A   1      37.256  32.638  32.292  1.00  0.00     0.031 C 
ATOM     39  C   UNL A   1      38.252  30.052  28.105  1.00  0.00     0.029 A 
ATOM     40  N   UNL A   1      39.550  29.662  29.886  1.00  0.00    -0.354 N 
ATOM     41  C   UNL A   1      38.916  31.770  33.605  1.00  0.00     0.074 A 
ATOM     42  C   UNL A   1      37.811  32.697  33.493  1.00  0.00     0.031 C 
ATOM     43  C   UNL A   1      39.146  29.111  27.757  1.00  0.00     0.029 A 
ATOM     44  C   UNL A   1      40.039  28.856  28.887  1.00  0.00     0.049 A 
ATOM     45  H   UNL A   1      39.923  29.677  30.797  1.00  0.00     0.167 HD
ATOM     46  C   UNL A   1      39.633  31.570  34.737  1.00  0.00     0.037 A 
ATOM     47  C   UNL A   1      41.097  28.024  28.882  1.00  0.00     0.037 A 
ATOM     48  C   UNL A   1      40.729  30.643  34.847  1.00  0.00     0.049 A 
ATOM     49  C   UNL A   1      41.917  27.863  30.135  1.00  0.00     0.074 A 
ATOM     50  C   UNL A   1      41.505  30.353  35.956  1.00  0.00     0.029 A 
ATOM     51  N   UNL A   1      41.208  29.862  33.807  1.00  0.00    -0.354 N 
ATOM     52  N   UNL A   1      41.755  28.427  31.308  1.00  0.00    -0.248 NA
ATOM     53  C   UNL A   1      43.064  26.946  30.064  1.00  0.00     0.031 C 
ATOM     54  C   UNL A   1      42.484  29.430  35.573  1.00  0.00     0.029 A 
ATOM     55  C   UNL A   1      42.285  29.107  34.241  1.00  0.00     0.049 A 
ATOM     56  H   UNL A   1      40.838  29.846  32.896  1.00  0.00     0.167 HD
ATOM     57  C   UNL A   1      42.757  27.911  32.121  1.00  0.00     0.074 A 
ATOM     58  C   UNL A   1      43.515  26.981  31.310  1.00  0.00     0.031 C 
ATOM     59  C   UNL A   1      43.024  28.179  33.422  1.00  0.00     0.037 A 
BRANCH  46  60
ATOM     60  C   UNL A   1      39.268  32.389  35.941  1.00  0.00     0.057 A 
ATOM     61  C   UNL A   1      39.832  33.649  36.179  1.00  0.00     0.134 A 
ATOM     62  C   UNL A   1      38.318  31.921  36.857  1.00  0.00     0.134 A 
ATOM     63  F   UNL A   1      40.758  34.148  35.348  1.00  0.00    -0.206 F 
ATOM     64  C   UNL A   1      39.480  34.405  37.300  1.00  0.00     0.040 A 
ATOM     65  C   UNL A   1      37.939  32.679  37.967  1.00  0.00     0.040 A 
ATOM     66  F   UNL A   1      37.737  30.724  36.687  1.00  0.00    -0.206 F 
ATOM     67  C   UNL A   1      38.525  33.922  38.193  1.00  0.00     0.006 A 
ENDBRANCH  46  60
BRANCH  47  68
ATOM     68  C   UNL A   1      41.453  27.284  27.646  1.00  0.00     0.057 A 
ATOM     69  C   UNL A   1      42.317  27.836  26.692  1.00  0.00     0.134 A 
ATOM     70  C   UNL A   1      40.924  26.016  27.379  1.00  0.00     0.134 A 
ATOM     71  F   UNL A   1      42.838  29.057  26.881  1.00  0.00    -0.206 F 
ATOM     72  C   UNL A   1      42.628  27.161  25.511  1.00  0.00     0.040 A 
ATOM     73  C   UNL A   1      41.247  25.318  26.214  1.00  0.00     0.040 A 
ATOM     74  F   UNL A   1      40.092  25.431  28.254  1.00  0.00    -0.206 F 
ATOM     75  C   UNL A   1      42.096  25.895  25.271  1.00  0.00     0.006 A 
ENDBRANCH  47  68
BRANCH  59  76
ATOM     76  C   UNL A   1      44.156  27.430  34.063  1.00  0.00     0.057 A 
ATOM     77  C   UNL A   1      45.457  27.949  34.110  1.00  0.00     0.134 A 
ATOM     78  C   UNL A   1      43.931  26.192  34.679  1.00  0.00     0.134 A 
ATOM     79  F   UNL A   1      45.742  29.124  33.531  1.00  0.00    -0.206 F 
ATOM     80  C   UNL A   1      46.497  27.250  34.726  1.00  0.00     0.040 A 
ATOM     81  C   UNL A   1      44.958  25.498  35.321  1.00  0.00     0.040 A 
ATOM     82  F   UNL A   1      42.707  25.644  34.679  1.00  0.00    -0.206 F 
ATOM     83  C   UNL A   1      46.247  26.025  35.341  1.00  0.00     0.006 A 
ENDBRANCH  59  76
ENDBRANCH  33  34
ENDBRANCH  26  28
ENDBRANCH  25  26
ENDBRANCH  24  25
ENDBRANCH   1  24
TORSDOF 16
ENDMDL
MODEL 3
REMARK VINA RESULT:      -8.9      0.739      6.229
REMARK SMILES COc1ccc2c(c1)C=C(C(=O)OCCOCCOC(=O)c1ccc(-c3c4nc(c(-c5c(F)cccc5F)c5ccc([nH]5)c(-c5c(F)cccc5F)c5nc(c(-c6c(F)cccc6F)c6ccc3[nH]6)C=C5)C=C4)cc1)[C@H](C(F)(F)F)O2
REMARK SMILES IDX 17 1 16 2 15 3 14 4 13 5 11 6 12 7 10 8 3 9 4 10 8 11 5 12
REMARK SMILES IDX 7 13 6 14 9 15 81 16 76 17 2 18 1 19 77 20 78 21 79 22 80 23
REMARK SMILES IDX 18 24 19 25 20 26 21 27 22 28 23 29 75 30 24 31 74 32 25 33
REMARK SMILES IDX 26 34 27 35 68 36 28 37 73 38 67 39 69 40 29 41 72 42 66 43
REMARK SMILES IDX 65 44 30 46 56 47 39 48 55 49 40 50 43 51 54 52 70 53 41 54
REMARK SMILES IDX 42 55 53 57 71 58 44 59 31 60 32 61 37 62 33 63 34 64 36 65
REMARK SMILES IDX 38 66 35 67 57 68 58 69 63 70 59 71 60 72 62 73 64 74 61 75
REMARK SMILES IDX 45 76 46 77 51 78 47 79 48 80 50 81 52 82 49 83
REMARK H PARENT 69 45 43 56
REMARK Flexibility Score: inf
ROOT
ATOM      1  C   UNL A   1      33.644  37.021  32.071  1.00  0.00     0.202 C 
ENDROOT
BRANCH   1   2
ATOM      2  O   UNL A   1      34.650  36.198  32.657  1.00  0.00    -0.374 OA
BRANCH   2   3
ATOM      3  C   UNL A   1      34.347  35.529  33.879  1.00  0.00     0.202 C 
BRANCH   3   4
ATOM      4  C   UNL A   1      34.781  34.066  33.999  1.00  0.00     0.261 C 
BRANCH   4   5
ATOM      5  O   UNL A   1      35.758  33.884  35.036  1.00  0.00    -0.460 OA
BRANCH   5   6
ATOM      6  C   UNL A   1      37.042  34.053  34.643  1.00  0.00     0.338 C 
ATOM      7  O   UNL A   1      37.563  35.102  34.294  1.00  0.00    -0.246 OA
BRANCH   6   8
ATOM      8  C   UNL A   1      37.802  32.802  34.786  1.00  0.00     0.087 C 
ATOM      9  C   UNL A   1      39.888  28.810  33.074  1.00  0.00     0.119 A 
ATOM     10  C   UNL A   1      40.806  28.853  34.125  1.00  0.00     0.050 A 
ATOM     11  C   UNL A   1      38.916  29.811  32.957  1.00  0.00     0.058 A 
ATOM     12  C   UNL A   1      40.732  29.872  35.076  1.00  0.00     0.051 A 
ATOM     13  C   UNL A   1      38.837  30.836  33.904  1.00  0.00     0.021 A 
ATOM     14  C   UNL A   1      39.740  30.843  34.975  1.00  0.00     0.128 A 
ATOM     15  C   UNL A   1      37.924  31.966  33.741  1.00  0.00     0.027 C 
ATOM     16  O   UNL A   1      39.746  31.829  35.925  1.00  0.00    -0.475 OA
ATOM     17  C   UNL A   1      38.459  32.479  36.111  1.00  0.00     0.316 C 
BRANCH   9  18
ATOM     18  O   UNL A   1      39.877  27.874  32.075  1.00  0.00    -0.497 OA
ATOM     19  C   UNL A   1      38.603  27.345  31.725  1.00  0.00     0.278 C 
ENDBRANCH   9  18
BRANCH  17  20
ATOM     20  C   UNL A   1      38.622  33.604  37.147  1.00  0.00     0.430 C 
ATOM     21  F   UNL A   1      37.422  33.981  37.650  1.00  0.00    -0.167 F 
ATOM     22  F   UNL A   1      39.343  33.155  38.210  1.00  0.00    -0.167 F 
ATOM     23  F   UNL A   1      39.260  34.688  36.666  1.00  0.00    -0.167 F 
ENDBRANCH  17  20
ENDBRANCH   6   8
ENDBRANCH   5   6
ENDBRANCH   4   5
ENDBRANCH   3   4
ENDBRANCH   2   3
ENDBRANCH   1   2
BRANCH   1  24
ATOM     24  C   UNL A   1      32.667  36.361  31.090  1.00  0.00     0.261 C 
BRANCH  24  25
ATOM     25  O   UNL A   1      33.003  34.991  30.808  1.00  0.00    -0.460 OA
BRANCH  25  26
ATOM     26  C   UNL A   1      33.312  34.741  29.514  1.00  0.00     0.338 C 
ATOM     27  O   UNL A   1      32.790  35.226  28.519  1.00  0.00    -0.246 OA
BRANCH  26  28
ATOM     28  C   UNL A   1      34.523  33.907  29.433  1.00  0.00     0.060 A 
ATOM     29  C   UNL A   1      34.697  32.920  30.411  1.00  0.00     0.016 A 
ATOM     30  C   UNL A   1      35.513  34.147  28.478  1.00  0.00     0.016 A 
ATOM     31  C   UNL A   1      35.888  32.201  30.470  1.00  0.00     0.010 A 
ATOM     32  C   UNL A   1      36.712  33.431  28.546  1.00  0.00     0.010 A 
ATOM     33  C   UNL A   1      36.919  32.483  29.566  1.00  0.00    -0.014 A 
BRANCH  33  34
ATOM     34  C   UNL A   1      38.263  31.899  29.785  1.00  0.00     0.031 A 
ATOM     35  C   UNL A   1      39.278  32.682  30.571  1.00  0.00     0.074 A 
ATOM     36  C   UNL A   1      38.565  30.674  29.318  1.00  0.00     0.049 A 
ATOM     37  N   UNL A   1      40.519  32.384  30.856  1.00  0.00    -0.248 NA
ATOM     38  C   UNL A   1      38.832  33.979  31.106  1.00  0.00     0.031 C 
ATOM     39  C   UNL A   1      37.655  29.804  28.577  1.00  0.00     0.029 A 
ATOM     40  N   UNL A   1      39.733  29.958  29.396  1.00  0.00    -0.354 N 
ATOM     41  C   UNL A   1      41.005  33.456  31.592  1.00  0.00     0.074 A 
ATOM     42  C   UNL A   1      39.935  34.426  31.687  1.00  0.00     0.031 C 
ATOM     43  C   UNL A   1      38.303  28.671  28.256  1.00  0.00     0.029 A 
ATOM     44  C   UNL A   1      39.679  28.750  28.743  1.00  0.00     0.049 A 
ATOM     45  H   UNL A   1      40.532  30.277  29.874  1.00  0.00     0.167 HD
ATOM     46  C   UNL A   1      42.229  33.615  32.148  1.00  0.00     0.037 A 
ATOM     47  C   UNL A   1      40.639  27.827  28.547  1.00  0.00     0.037 A 
ATOM     48  C   UNL A   1      43.290  32.646  32.058  1.00  0.00     0.049 A 
ATOM     49  C   UNL A   1      42.012  28.053  29.122  1.00  0.00     0.074 A 
ATOM     50  C   UNL A   1      44.561  32.704  32.604  1.00  0.00     0.029 A 
ATOM     51  N   UNL A   1      43.205  31.446  31.369  1.00  0.00    -0.354 N 
ATOM     52  N   UNL A   1      42.454  29.059  29.838  1.00  0.00    -0.248 NA
ATOM     53  C   UNL A   1      43.018  27.011  28.866  1.00  0.00     0.031 C 
ATOM     54  C   UNL A   1      45.260  31.560  32.205  1.00  0.00     0.029 A 
ATOM     55  C   UNL A   1      44.408  30.765  31.456  1.00  0.00     0.049 A 
ATOM     56  H   UNL A   1      42.408  31.125  30.890  1.00  0.00     0.167 HD
ATOM     57  C   UNL A   1      43.776  28.758  30.144  1.00  0.00     0.074 A 
ATOM     58  C   UNL A   1      44.061  27.471  29.544  1.00  0.00     0.031 C 
ATOM     59  C   UNL A   1      44.673  29.480  30.859  1.00  0.00     0.037 A 
BRANCH  46  60
ATOM     60  C   UNL A   1      42.495  34.896  32.884  1.00  0.00     0.057 A 
ATOM     61  C   UNL A   1      42.097  35.083  34.214  1.00  0.00     0.134 A 
ATOM     62  C   UNL A   1      43.184  35.943  32.261  1.00  0.00     0.134 A 
ATOM     63  F   UNL A   1      41.420  34.125  34.864  1.00  0.00    -0.206 F 
ATOM     64  C   UNL A   1      42.356  36.277  34.891  1.00  0.00     0.040 A 
ATOM     65  C   UNL A   1      43.471  37.132  32.936  1.00  0.00     0.040 A 
ATOM     66  F   UNL A   1      43.596  35.828  30.989  1.00  0.00    -0.206 F 
ATOM     67  C   UNL A   1      43.051  37.302  34.253  1.00  0.00     0.006 A 
ENDBRANCH  46  60
BRANCH  47  68
ATOM     68  C   UNL A   1      40.342  26.605  27.757  1.00  0.00     0.057 A 
ATOM     69  C   UNL A   1      39.557  25.573  28.283  1.00  0.00     0.134 A 
ATOM     70  C   UNL A   1      40.852  26.432  26.465  1.00  0.00     0.134 A 
ATOM     71  F   UNL A   1      39.058  25.670  29.525  1.00  0.00    -0.206 F 
ATOM     72  C   UNL A   1      39.304  24.406  27.561  1.00  0.00     0.040 A 
ATOM     73  C   UNL A   1      40.586  25.283  25.720  1.00  0.00     0.040 A 
ATOM     74  F   UNL A   1      41.611  27.386  25.903  1.00  0.00    -0.206 F 
ATOM     75  C   UNL A   1      39.815  24.261  26.272  1.00  0.00     0.006 A 
ENDBRANCH  47  68
BRANCH  59  76
ATOM     76  C   UNL A   1      46.032  28.879  31.069  1.00  0.00     0.057 A 
ATOM     77  C   UNL A   1      46.314  28.042  32.157  1.00  0.00     0.134 A 
ATOM     78  C   UNL A   1      47.060  29.107  30.145  1.00  0.00     0.134 A 
ATOM     79  F   UNL A   1      45.377  27.792  33.083  1.00  0.00    -0.206 F 
ATOM     80  C   UNL A   1      47.578  27.473  32.329  1.00  0.00     0.040 A 
ATOM     81  C   UNL A   1      48.319  28.522  30.293  1.00  0.00     0.040 A 
ATOM     82  F   UNL A   1      46.853  29.889  29.075  1.00  0.00    -0.206 F 
ATOM     83  C   UNL A   1      48.582  27.707  31.391  1.00  0.00     0.006 A 
ENDBRANCH  59  76
ENDBRANCH  33  34
ENDBRANCH  26  28
ENDBRANCH  25  26
ENDBRANCH  24  25
ENDBRANCH   1  24
TORSDOF 16
ENDMDL
