MODEL 1
REMARK VINA RESULT:     -11.6      0.000      0.000
REMARK SMILES O=C(Cc1cccn1-c1ccc2c(c1)OCCO2)OCCOCCOC(=O)c1ccc(-c2c3nc(c(-c4c(F)cccc4F)c4ccc([nH]4)c(-c4c(F)cccc4F)c4nc(c(-c5c(F)cccc5F)c5ccc2[nH]5)C=C4)C=C3)cc1
REMARK SMILES IDX 22 1 21 2 20 3 19 4 2 5 1 6 3 7 4 8 5 9 8 10 6 11 7 12 9 13
REMARK SMILES IDX 10 14 14 15 11 16 13 17 12 18 15 19 18 20 16 21 17 22 23 23
REMARK SMILES IDX 24 24 25 25 26 26 27 27 28 28 29 29 81 30 30 31 80 32 31 33
REMARK SMILES IDX 32 34 33 35 74 36 34 37 79 38 73 39 75 40 35 41 78 42 72 43
REMARK SMILES IDX 71 44 36 46 62 47 45 48 61 49 46 50 49 51 60 52 76 53 47 54
REMARK SMILES IDX 48 55 59 57 77 58 50 59 37 60 38 61 43 62 39 63 40 64 42 65
REMARK SMILES IDX 44 66 41 67 63 68 64 69 69 70 65 71 66 72 68 73 70 74 67 75
REMARK SMILES IDX 51 76 52 77 57 78 53 79 54 80 56 81 58 82 55 83
REMARK H PARENT 75 45 49 56
REMARK Flexibility Score: inf
ROOT
ATOM      1  O   UNL A   1      32.931  30.770  27.593  1.00  0.00    -0.374 OA
ENDROOT
BRANCH   1   2
ATOM      2  C   UNL A   1      34.003  30.109  26.917  1.00  0.00     0.202 C 
BRANCH   2   3
ATOM      3  C   UNL A   1      34.044  28.583  26.902  1.00  0.00     0.261 C 
BRANCH   3   4
ATOM      4  O   UNL A   1      33.001  27.965  26.148  1.00  0.00    -0.463 OA
BRANCH   4   5
ATOM      5  C   UNL A   1      31.967  27.277  26.676  1.00  0.00     0.311 C 
ATOM      6  O   UNL A   1      31.340  27.801  27.599  1.00  0.00    -0.252 OA
BRANCH   5   7
ATOM      7  C   UNL A   1      31.672  25.846  26.266  1.00  0.00     0.177 C 
BRANCH   7   8
ATOM      8  C   UNL A   1      32.474  25.306  25.132  1.00  0.00     0.034 A 
ATOM      9  C   UNL A   1      33.466  24.336  25.155  1.00  0.00     0.024 A 
ATOM     10  N   UNL A   1      32.170  25.568  23.811  1.00  0.00    -0.320 N 
ATOM     11  C   UNL A   1      33.842  24.077  23.824  1.00  0.00     0.020 A 
ATOM     12  C   UNL A   1      32.994  24.803  23.018  1.00  0.00     0.091 A 
BRANCH  10  13
ATOM     13  C   UNL A   1      31.015  26.259  23.391  1.00  0.00     0.049 A 
ATOM     14  C   UNL A   1      29.788  25.883  23.947  1.00  0.00     0.031 A 
ATOM     15  C   UNL A   1      31.148  27.449  22.671  1.00  0.00     0.077 A 
ATOM     16  C   UNL A   1      28.689  26.729  23.804  1.00  0.00     0.052 A 
ATOM     17  C   UNL A   1      30.052  28.296  22.553  1.00  0.00     0.163 A 
ATOM     18  C   UNL A   1      28.820  27.931  23.105  1.00  0.00     0.161 A 
ATOM     19  O   UNL A   1      30.266  29.490  21.910  1.00  0.00    -0.486 OA
ATOM     20  O   UNL A   1      27.700  28.720  23.021  1.00  0.00    -0.486 OA
ATOM     21  C   UNL A   1      29.217  30.424  22.190  1.00  0.00     0.271 C 
ATOM     22  C   UNL A   1      27.867  29.745  22.033  1.00  0.00     0.271 C 
ENDBRANCH  10  13
ENDBRANCH   7   8
ENDBRANCH   5   7
ENDBRANCH   4   5
ENDBRANCH   3   4
ENDBRANCH   2   3
ENDBRANCH   1   2
BRANCH   1  23
ATOM     23  C   UNL A   1      32.037  31.616  26.858  1.00  0.00     0.202 C 
BRANCH  23  24
ATOM     24  C   UNL A   1      32.047  33.095  27.146  1.00  0.00     0.261 C 
BRANCH  24  25
ATOM     25  O   UNL A   1      33.254  33.420  27.790  1.00  0.00    -0.460 OA
BRANCH  25  26
ATOM     26  C   UNL A   1      33.132  34.522  28.555  1.00  0.00     0.338 C 
ATOM     27  O   UNL A   1      32.326  35.429  28.464  1.00  0.00    -0.246 OA
BRANCH  26  28
ATOM     28  C   UNL A   1      34.286  34.559  29.432  1.00  0.00     0.060 A 
ATOM     29  C   UNL A   1      35.501  34.704  28.766  1.00  0.00     0.016 A 
ATOM     30  C   UNL A   1      34.129  33.877  30.649  1.00  0.00     0.016 A 
ATOM     31  C   UNL A   1      36.536  33.932  29.205  1.00  0.00     0.010 A 
ATOM     32  C   UNL A   1      35.126  33.028  31.024  1.00  0.00     0.010 A 
ATOM     33  C   UNL A   1      36.308  33.067  30.288  1.00  0.00    -0.014 A 
BRANCH  33  34
ATOM     34  C   UNL A   1      37.474  32.398  30.827  1.00  0.00     0.031 A 
ATOM     35  C   UNL A   1      37.676  31.119  30.000  1.00  0.00     0.074 A 
ATOM     36  C   UNL A   1      37.994  32.973  31.952  1.00  0.00     0.049 A 
ATOM     37  N   UNL A   1      38.002  29.936  30.399  1.00  0.00    -0.248 NA
ATOM     38  C   UNL A   1      37.324  31.100  28.542  1.00  0.00     0.031 C 
ATOM     39  C   UNL A   1      37.603  34.294  32.510  1.00  0.00     0.029 A 
ATOM     40  N   UNL A   1      38.935  32.570  32.866  1.00  0.00    -0.354 N 
ATOM     41  C   UNL A   1      38.137  29.132  29.249  1.00  0.00     0.074 A 
ATOM     42  C   UNL A   1      37.525  29.836  28.175  1.00  0.00     0.031 C 
ATOM     43  C   UNL A   1      38.222  34.522  33.691  1.00  0.00     0.029 A 
ATOM     44  C   UNL A   1      39.075  33.395  34.015  1.00  0.00     0.049 A 
ATOM     45  H   UNL A   1      39.479  31.761  32.733  1.00  0.00     0.167 HD
ATOM     46  C   UNL A   1      38.937  28.031  29.229  1.00  0.00     0.037 A 
ATOM     47  C   UNL A   1      39.784  33.138  35.160  1.00  0.00     0.037 A 
ATOM     48  C   UNL A   1      39.503  27.846  30.524  1.00  0.00     0.049 A 
ATOM     49  C   UNL A   1      40.493  31.884  34.871  1.00  0.00     0.074 A 
ATOM     50  C   UNL A   1      38.931  27.472  31.712  1.00  0.00     0.029 A 
ATOM     51  N   UNL A   1      40.681  28.515  30.768  1.00  0.00    -0.354 N 
ATOM     52  N   UNL A   1      41.513  31.780  34.072  1.00  0.00    -0.248 NA
ATOM     53  C   UNL A   1      39.934  30.629  35.390  1.00  0.00     0.031 C 
ATOM     54  C   UNL A   1      39.525  28.355  32.635  1.00  0.00     0.029 A 
ATOM     55  C   UNL A   1      40.624  28.998  32.051  1.00  0.00     0.049 A 
ATOM     56  H   UNL A   1      41.427  28.628  30.138  1.00  0.00     0.167 HD
ATOM     57  C   UNL A   1      41.473  30.449  33.734  1.00  0.00     0.074 A 
ATOM     58  C   UNL A   1      40.759  29.773  34.796  1.00  0.00     0.031 C 
ATOM     59  C   UNL A   1      41.494  30.089  32.423  1.00  0.00     0.037 A 
BRANCH  46  60
ATOM     60  C   UNL A   1      39.527  27.249  28.098  1.00  0.00     0.057 A 
ATOM     61  C   UNL A   1      39.557  25.844  28.229  1.00  0.00     0.134 A 
ATOM     62  C   UNL A   1      40.361  27.792  27.115  1.00  0.00     0.134 A 
ATOM     63  F   UNL A   1      38.752  25.212  29.100  1.00  0.00    -0.206 F 
ATOM     64  C   UNL A   1      40.476  25.048  27.546  1.00  0.00     0.040 A 
ATOM     65  C   UNL A   1      41.250  26.995  26.385  1.00  0.00     0.040 A 
ATOM     66  F   UNL A   1      40.426  29.110  26.889  1.00  0.00    -0.206 F 
ATOM     67  C   UNL A   1      41.345  25.628  26.635  1.00  0.00     0.006 A 
ENDBRANCH  46  60
BRANCH  47  68
ATOM     68  C   UNL A   1      39.952  33.686  36.558  1.00  0.00     0.057 A 
ATOM     69  C   UNL A   1      38.948  33.851  37.514  1.00  0.00     0.134 A 
ATOM     70  C   UNL A   1      41.248  34.057  37.028  1.00  0.00     0.134 A 
ATOM     71  F   UNL A   1      37.659  33.671  37.203  1.00  0.00    -0.206 F 
ATOM     72  C   UNL A   1      39.226  34.240  38.844  1.00  0.00     0.040 A 
ATOM     73  C   UNL A   1      41.545  34.397  38.351  1.00  0.00     0.040 A 
ATOM     74  F   UNL A   1      42.312  34.113  36.218  1.00  0.00    -0.206 F 
ATOM     75  C   UNL A   1      40.528  34.475  39.277  1.00  0.00     0.006 A 
ENDBRANCH  47  68
BRANCH  59  76
ATOM     76  C   UNL A   1      42.132  31.112  31.498  1.00  0.00     0.057 A 
ATOM     77  C   UNL A   1      43.470  31.484  31.687  1.00  0.00     0.134 A 
ATOM     78  C   UNL A   1      41.446  31.841  30.513  1.00  0.00     0.134 A 
ATOM     79  F   UNL A   1      44.227  30.829  32.580  1.00  0.00    -0.206 F 
ATOM     80  C   UNL A   1      44.070  32.535  30.978  1.00  0.00     0.040 A 
ATOM     81  C   UNL A   1      42.026  32.900  29.797  1.00  0.00     0.040 A 
ATOM     82  F   UNL A   1      40.184  31.552  30.207  1.00  0.00    -0.206 F 
ATOM     83  C   UNL A   1      43.344  33.257  30.036  1.00  0.00     0.006 A 
ENDBRANCH  59  76
ENDBRANCH  33  34
ENDBRANCH  26  28
ENDBRANCH  25  26
ENDBRANCH  24  25
ENDBRANCH  23  24
ENDBRANCH   1  23
TORSDOF 16
ENDMDL
MODEL 2
REMARK VINA RESULT:     -11.6      4.535      9.501
REMARK SMILES O=C(Cc1cccn1-c1ccc2c(c1)OCCO2)OCCOCCOC(=O)c1ccc(-c2c3nc(c(-c4c(F)cccc4F)c4ccc([nH]4)c(-c4c(F)cccc4F)c4nc(c(-c5c(F)cccc5F)c5ccc2[nH]5)C=C4)C=C3)cc1
REMARK SMILES IDX 22 1 21 2 20 3 19 4 2 5 1 6 3 7 4 8 5 9 8 10 6 11 7 12 9 13
REMARK SMILES IDX 10 14 14 15 11 16 13 17 12 18 15 19 18 20 16 21 17 22 23 23
REMARK SMILES IDX 24 24 25 25 26 26 27 27 28 28 29 29 81 30 30 31 80 32 31 33
REMARK SMILES IDX 32 34 33 35 74 36 34 37 79 38 73 39 75 40 35 41 78 42 72 43
REMARK SMILES IDX 71 44 36 46 62 47 45 48 61 49 46 50 49 51 60 52 76 53 47 54
REMARK SMILES IDX 48 55 59 57 77 58 50 59 37 60 38 61 43 62 39 63 40 64 42 65
REMARK SMILES IDX 44 66 41 67 63 68 64 69 69 70 65 71 66 72 68 73 70 74 67 75
REMARK SMILES IDX 51 76 52 77 57 78 53 79 54 80 56 81 58 82 55 83
REMARK H PARENT 75 45 49 56
REMARK Flexibility Score: inf
ROOT
ATOM      1  O   UNL A   1      37.415  22.341  25.763  1.00  0.00    -0.374 OA
ENDROOT
BRANCH   1   2
ATOM      2  C   UNL A   1      37.105  23.688  25.397  1.00  0.00     0.202 C 
BRANCH   2   3
ATOM      3  C   UNL A   1      35.673  24.191  25.559  1.00  0.00     0.261 C 
BRANCH   3   4
ATOM      4  O   UNL A   1      35.037  24.583  24.342  1.00  0.00    -0.463 OA
BRANCH   4   5
ATOM      5  C   UNL A   1      33.856  25.231  24.259  1.00  0.00     0.311 C 
ATOM      6  O   UNL A   1      32.837  24.552  24.113  1.00  0.00    -0.252 OA
BRANCH   5   7
ATOM      7  C   UNL A   1      33.783  26.745  24.189  1.00  0.00     0.177 C 
BRANCH   7   8
ATOM      8  C   UNL A   1      33.413  27.446  25.451  1.00  0.00     0.034 A 
ATOM      9  C   UNL A   1      34.224  27.788  26.523  1.00  0.00     0.024 A 
ATOM     10  N   UNL A   1      32.192  28.065  25.631  1.00  0.00    -0.320 N 
ATOM     11  C   UNL A   1      33.450  28.545  27.422  1.00  0.00     0.020 A 
ATOM     12  C   UNL A   1      32.226  28.748  26.824  1.00  0.00     0.091 A 
BRANCH  10  13
ATOM     13  C   UNL A   1      31.224  28.208  24.615  1.00  0.00     0.049 A 
ATOM     14  C   UNL A   1      30.381  27.122  24.357  1.00  0.00     0.031 A 
ATOM     15  C   UNL A   1      30.947  29.478  24.102  1.00  0.00     0.077 A 
ATOM     16  C   UNL A   1      29.228  27.323  23.599  1.00  0.00     0.052 A 
ATOM     17  C   UNL A   1      29.783  29.672  23.367  1.00  0.00     0.163 A 
ATOM     18  C   UNL A   1      28.932  28.594  23.102  1.00  0.00     0.161 A 
ATOM     19  O   UNL A   1      29.520  30.957  22.963  1.00  0.00    -0.486 OA
ATOM     20  O   UNL A   1      27.771  28.718  22.380  1.00  0.00    -0.486 OA
ATOM     21  C   UNL A   1      28.149  31.108  22.578  1.00  0.00     0.271 C 
ATOM     22  C   UNL A   1      27.739  29.962  21.669  1.00  0.00     0.271 C 
ENDBRANCH  10  13
ENDBRANCH   7   8
ENDBRANCH   5   7
ENDBRANCH   4   5
ENDBRANCH   3   4
ENDBRANCH   2   3
ENDBRANCH   1   2
BRANCH   1  23
ATOM     23  C   UNL A   1      38.777  21.957  25.991  1.00  0.00     0.202 C 
BRANCH  23  24
ATOM     24  C   UNL A   1      39.184  20.537  25.696  1.00  0.00     0.261 C 
BRANCH  24  25
ATOM     25  O   UNL A   1      40.043  20.093  26.718  1.00  0.00    -0.460 OA
BRANCH  25  26
ATOM     26  C   UNL A   1      41.207  19.626  26.225  1.00  0.00     0.338 C 
ATOM     27  O   UNL A   1      41.445  18.540  25.731  1.00  0.00    -0.246 OA
BRANCH  26  28
ATOM     28  C   UNL A   1      42.230  20.596  26.564  1.00  0.00     0.060 A 
ATOM     29  C   UNL A   1      42.251  20.952  27.910  1.00  0.00     0.016 A 
ATOM     30  C   UNL A   1      42.611  21.448  25.516  1.00  0.00     0.016 A 
ATOM     31  C   UNL A   1      42.419  22.277  28.191  1.00  0.00     0.010 A 
ATOM     32  C   UNL A   1      42.673  22.782  25.784  1.00  0.00     0.010 A 
ATOM     33  C   UNL A   1      42.567  23.170  27.118  1.00  0.00    -0.014 A 
BRANCH  33  34
ATOM     34  C   UNL A   1      42.914  24.532  27.465  1.00  0.00     0.031 A 
ATOM     35  C   UNL A   1      41.593  25.303  27.619  1.00  0.00     0.074 A 
ATOM     36  C   UNL A   1      44.252  24.805  27.442  1.00  0.00     0.049 A 
ATOM     37  N   UNL A   1      41.297  26.496  27.226  1.00  0.00    -0.248 NA
ATOM     38  C   UNL A   1      40.374  24.609  28.149  1.00  0.00     0.031 C 
ATOM     39  C   UNL A   1      45.339  23.802  27.308  1.00  0.00     0.029 A 
ATOM     40  N   UNL A   1      44.976  25.970  27.507  1.00  0.00    -0.354 N 
ATOM     41  C   UNL A   1      39.989  26.769  27.676  1.00  0.00     0.074 A 
ATOM     42  C   UNL A   1      39.412  25.525  28.055  1.00  0.00     0.031 C 
ATOM     43  C   UNL A   1      46.545  24.406  27.206  1.00  0.00     0.029 A 
ATOM     44  C   UNL A   1      46.372  25.844  27.272  1.00  0.00     0.049 A 
ATOM     45  H   UNL A   1      44.555  26.837  27.704  1.00  0.00     0.167 HD
ATOM     46  C   UNL A   1      39.555  28.039  27.902  1.00  0.00     0.037 A 
ATOM     47  C   UNL A   1      47.293  26.843  27.086  1.00  0.00     0.037 A 
ATOM     48  C   UNL A   1      40.591  28.953  27.551  1.00  0.00     0.049 A 
ATOM     49  C   UNL A   1      46.539  28.079  27.337  1.00  0.00     0.074 A 
ATOM     50  C   UNL A   1      41.117  29.293  26.331  1.00  0.00     0.029 A 
ATOM     51  N   UNL A   1      41.499  29.244  28.544  1.00  0.00    -0.354 N 
ATOM     52  N   UNL A   1      46.157  28.485  28.510  1.00  0.00    -0.248 NA
ATOM     53  C   UNL A   1      46.044  28.841  26.184  1.00  0.00     0.031 C 
ATOM     54  C   UNL A   1      42.502  29.316  26.585  1.00  0.00     0.029 A 
ATOM     55  C   UNL A   1      42.742  29.298  27.965  1.00  0.00     0.049 A 
ATOM     56  H   UNL A   1      41.295  29.388  29.495  1.00  0.00     0.167 HD
ATOM     57  C   UNL A   1      45.109  29.317  28.195  1.00  0.00     0.074 A 
ATOM     58  C   UNL A   1      45.323  29.751  26.830  1.00  0.00     0.031 C 
ATOM     59  C   UNL A   1      43.907  29.143  28.805  1.00  0.00     0.037 A 
BRANCH  46  60
ATOM     60  C   UNL A   1      38.403  28.572  28.694  1.00  0.00     0.057 A 
ATOM     61  C   UNL A   1      37.641  29.608  28.111  1.00  0.00     0.134 A 
ATOM     62  C   UNL A   1      38.243  28.393  30.072  1.00  0.00     0.134 A 
ATOM     63  F   UNL A   1      37.672  29.829  26.786  1.00  0.00    -0.206 F 
ATOM     64  C   UNL A   1      36.901  30.512  28.872  1.00  0.00     0.040 A 
ATOM     65  C   UNL A   1      37.459  29.263  30.838  1.00  0.00     0.040 A 
ATOM     66  F   UNL A   1      38.907  27.445  30.745  1.00  0.00    -0.206 F 
ATOM     67  C   UNL A   1      36.828  30.354  30.248  1.00  0.00     0.006 A 
ENDBRANCH  46  60
BRANCH  47  68
ATOM     68  C   UNL A   1      48.726  27.021  26.638  1.00  0.00     0.057 A 
ATOM     69  C   UNL A   1      49.739  27.685  27.332  1.00  0.00     0.134 A 
ATOM     70  C   UNL A   1      49.164  26.444  25.408  1.00  0.00     0.134 A 
ATOM     71  F   UNL A   1      49.475  28.388  28.439  1.00  0.00    -0.206 F 
ATOM     72  C   UNL A   1      51.084  27.676  26.897  1.00  0.00     0.040 A 
ATOM     73  C   UNL A   1      50.496  26.387  24.990  1.00  0.00     0.040 A 
ATOM     74  F   UNL A   1      48.312  25.899  24.531  1.00  0.00    -0.206 F 
ATOM     75  C   UNL A   1      51.473  26.994  25.747  1.00  0.00     0.006 A 
ENDBRANCH  47  68
BRANCH  59  76
ATOM     76  C   UNL A   1      43.980  28.457  30.159  1.00  0.00     0.057 A 
ATOM     77  C   UNL A   1      44.708  29.048  31.201  1.00  0.00     0.134 A 
ATOM     78  C   UNL A   1      43.473  27.179  30.439  1.00  0.00     0.134 A 
ATOM     79  F   UNL A   1      45.208  30.284  31.052  1.00  0.00    -0.206 F 
ATOM     80  C   UNL A   1      44.951  28.395  32.418  1.00  0.00     0.040 A 
ATOM     81  C   UNL A   1      43.710  26.505  31.647  1.00  0.00     0.040 A 
ATOM     82  F   UNL A   1      42.726  26.533  29.548  1.00  0.00    -0.206 F 
ATOM     83  C   UNL A   1      44.462  27.112  32.642  1.00  0.00     0.006 A 
ENDBRANCH  59  76
ENDBRANCH  33  34
ENDBRANCH  26  28
ENDBRANCH  25  26
ENDBRANCH  24  25
ENDBRANCH  23  24
ENDBRANCH   1  23
TORSDOF 16
ENDMDL
MODEL 3
REMARK VINA RESULT:     -11.6      4.753      9.736
REMARK SMILES O=C(Cc1cccn1-c1ccc2c(c1)OCCO2)OCCOCCOC(=O)c1ccc(-c2c3nc(c(-c4c(F)cccc4F)c4ccc([nH]4)c(-c4c(F)cccc4F)c4nc(c(-c5c(F)cccc5F)c5ccc2[nH]5)C=C4)C=C3)cc1
REMARK SMILES IDX 22 1 21 2 20 3 19 4 2 5 1 6 3 7 4 8 5 9 8 10 6 11 7 12 9 13
REMARK SMILES IDX 10 14 14 15 11 16 13 17 12 18 15 19 18 20 16 21 17 22 23 23
REMARK SMILES IDX 24 24 25 25 26 26 27 27 28 28 29 29 81 30 30 31 80 32 31 33
REMARK SMILES IDX 32 34 33 35 74 36 34 37 79 38 73 39 75 40 35 41 78 42 72 43
REMARK SMILES IDX 71 44 36 46 62 47 45 48 61 49 46 50 49 51 60 52 76 53 47 54
REMARK SMILES IDX 48 55 59 57 77 58 50 59 37 60 38 61 43 62 39 63 40 64 42 65
REMARK SMILES IDX 44 66 41 67 63 68 64 69 69 70 65 71 66 72 68 73 70 74 67 75
REMARK SMILES IDX 51 76 52 77 57 78 53 79 54 80 56 81 58 82 55 83
REMARK H PARENT 75 45 49 56
REMARK Flexibility Score: inf
ROOT
ATOM      1  O   UNL A   1      38.687  22.291  25.749  1.00  0.00    -0.374 OA
ENDROOT
BRANCH   1   2
ATOM      2  C   UNL A   1      37.739  23.316  26.060  1.00  0.00     0.202 C 
BRANCH   2   3
ATOM      3  C   UNL A   1      36.274  23.110  25.687  1.00  0.00     0.261 C 
BRANCH   3   4
ATOM      4  O   UNL A   1      35.852  23.808  24.515  1.00  0.00    -0.463 OA
BRANCH   4   5
ATOM      5  C   UNL A   1      35.566  23.229  23.329  1.00  0.00     0.311 C 
ATOM      6  O   UNL A   1      36.511  22.916  22.601  1.00  0.00    -0.252 OA
BRANCH   5   7
ATOM      7  C   UNL A   1      34.139  23.105  22.829  1.00  0.00     0.177 C 
BRANCH   7   8
ATOM      8  C   UNL A   1      33.174  22.438  23.748  1.00  0.00     0.034 A 
ATOM      9  C   UNL A   1      33.186  21.134  24.221  1.00  0.00     0.024 A 
ATOM     10  N   UNL A   1      32.209  23.133  24.449  1.00  0.00    -0.320 N 
ATOM     11  C   UNL A   1      32.142  21.007  25.155  1.00  0.00     0.020 A 
ATOM     12  C   UNL A   1      31.595  22.261  25.317  1.00  0.00     0.091 A 
BRANCH  10  13
ATOM     13  C   UNL A   1      32.109  24.539  24.470  1.00  0.00     0.049 A 
ATOM     14  C   UNL A   1      31.094  25.135  23.715  1.00  0.00     0.031 A 
ATOM     15  C   UNL A   1      32.818  25.266  25.431  1.00  0.00     0.077 A 
ATOM     16  C   UNL A   1      30.766  26.470  23.952  1.00  0.00     0.052 A 
ATOM     17  C   UNL A   1      32.468  26.588  25.675  1.00  0.00     0.163 A 
ATOM     18  C   UNL A   1      31.454  27.196  24.926  1.00  0.00     0.161 A 
ATOM     19  O   UNL A   1      33.140  27.224  26.688  1.00  0.00    -0.486 OA
ATOM     20  O   UNL A   1      31.064  28.498  25.115  1.00  0.00    -0.486 OA
ATOM     21  C   UNL A   1      32.448  28.405  27.108  1.00  0.00     0.271 C 
ATOM     22  C   UNL A   1      32.031  29.216  25.892  1.00  0.00     0.271 C 
ENDBRANCH  10  13
ENDBRANCH   7   8
ENDBRANCH   5   7
ENDBRANCH   4   5
ENDBRANCH   3   4
ENDBRANCH   2   3
ENDBRANCH   1   2
BRANCH   1  23
ATOM     23  C   UNL A   1      38.230  20.997  25.335  1.00  0.00     0.202 C 
BRANCH  23  24
ATOM     24  C   UNL A   1      39.177  19.830  25.446  1.00  0.00     0.261 C 
BRANCH  24  25
ATOM     25  O   UNL A   1      40.156  20.135  26.410  1.00  0.00    -0.460 OA
BRANCH  25  26
ATOM     26  C   UNL A   1      41.344  19.574  26.111  1.00  0.00     0.338 C 
ATOM     27  O   UNL A   1      41.581  18.437  25.748  1.00  0.00    -0.246 OA
BRANCH  26  28
ATOM     28  C   UNL A   1      42.369  20.527  26.489  1.00  0.00     0.060 A 
ATOM     29  C   UNL A   1      42.355  20.870  27.838  1.00  0.00     0.016 A 
ATOM     30  C   UNL A   1      42.792  21.384  25.460  1.00  0.00     0.016 A 
ATOM     31  C   UNL A   1      42.532  22.190  28.137  1.00  0.00     0.010 A 
ATOM     32  C   UNL A   1      42.863  22.714  25.743  1.00  0.00     0.010 A 
ATOM     33  C   UNL A   1      42.723  23.091  27.077  1.00  0.00    -0.014 A 
BRANCH  33  34
ATOM     34  C   UNL A   1      43.077  24.445  27.447  1.00  0.00     0.031 A 
ATOM     35  C   UNL A   1      41.760  25.221  27.613  1.00  0.00     0.074 A 
ATOM     36  C   UNL A   1      44.417  24.711  27.430  1.00  0.00     0.049 A 
ATOM     37  N   UNL A   1      41.471  26.422  27.240  1.00  0.00    -0.248 NA
ATOM     38  C   UNL A   1      40.537  24.525  28.130  1.00  0.00     0.031 C 
ATOM     39  C   UNL A   1      45.498  23.704  27.281  1.00  0.00     0.029 A 
ATOM     40  N   UNL A   1      45.148  25.870  27.516  1.00  0.00    -0.354 N 
ATOM     41  C   UNL A   1      40.165  26.695  27.692  1.00  0.00     0.074 A 
ATOM     42  C   UNL A   1      39.580  25.448  28.050  1.00  0.00     0.031 C 
ATOM     43  C   UNL A   1      46.708  24.302  27.190  1.00  0.00     0.029 A 
ATOM     44  C   UNL A   1      46.543  25.740  27.280  1.00  0.00     0.049 A 
ATOM     45  H   UNL A   1      44.731  26.737  27.727  1.00  0.00     0.167 HD
ATOM     46  C   UNL A   1      39.738  27.964  27.938  1.00  0.00     0.037 A 
ATOM     47  C   UNL A   1      47.470  26.737  27.113  1.00  0.00     0.037 A 
ATOM     48  C   UNL A   1      40.780  28.877  27.605  1.00  0.00     0.049 A 
ATOM     49  C   UNL A   1      46.723  27.973  27.383  1.00  0.00     0.074 A 
ATOM     50  C   UNL A   1      41.309  29.235  26.391  1.00  0.00     0.029 A 
ATOM     51  N   UNL A   1      41.688  29.146  28.603  1.00  0.00    -0.354 N 
ATOM     52  N   UNL A   1      46.341  28.361  28.563  1.00  0.00    -0.248 NA
ATOM     53  C   UNL A   1      46.234  28.757  26.242  1.00  0.00     0.031 C 
ATOM     54  C   UNL A   1      42.694  29.245  26.648  1.00  0.00     0.029 A 
ATOM     55  C   UNL A   1      42.932  29.202  28.027  1.00  0.00     0.049 A 
ATOM     56  H   UNL A   1      41.483  29.276  29.557  1.00  0.00     0.167 HD
ATOM     57  C   UNL A   1      45.299  29.204  28.260  1.00  0.00     0.074 A 
ATOM     58  C   UNL A   1      45.517  29.660  26.903  1.00  0.00     0.031 C 
ATOM     59  C   UNL A   1      44.095  29.027  28.865  1.00  0.00     0.037 A 
BRANCH  46  60
ATOM     60  C   UNL A   1      38.588  28.490  28.738  1.00  0.00     0.057 A 
ATOM     61  C   UNL A   1      37.852  29.561  28.186  1.00  0.00     0.134 A 
ATOM     62  C   UNL A   1      38.410  28.264  30.107  1.00  0.00     0.134 A 
ATOM     63  F   UNL A   1      37.901  29.829  26.870  1.00  0.00    -0.206 F 
ATOM     64  C   UNL A   1      37.122  30.451  28.972  1.00  0.00     0.040 A 
ATOM     65  C   UNL A   1      37.635  29.120  30.897  1.00  0.00     0.040 A 
ATOM     66  F   UNL A   1      39.048  27.279  30.751  1.00  0.00    -0.206 F 
ATOM     67  C   UNL A   1      37.031  30.245  30.340  1.00  0.00     0.006 A 
ENDBRANCH  46  60
BRANCH  47  68
ATOM     68  C   UNL A   1      48.904  26.914  26.669  1.00  0.00     0.057 A 
ATOM     69  C   UNL A   1      49.439  26.568  25.427  1.00  0.00     0.134 A 
ATOM     70  C   UNL A   1      49.851  27.525  27.544  1.00  0.00     0.134 A 
ATOM     71  F   UNL A   1      48.725  25.874  24.533  1.00  0.00    -0.206 F 
ATOM     72  C   UNL A   1      50.761  26.902  25.053  1.00  0.00     0.040 A 
ATOM     73  C   UNL A   1      51.144  27.903  27.173  1.00  0.00     0.040 A 
ATOM     74  F   UNL A   1      49.571  27.790  28.826  1.00  0.00    -0.206 F 
ATOM     75  C   UNL A   1      51.604  27.606  25.910  1.00  0.00     0.006 A 
ENDBRANCH  47  68
BRANCH  59  76
ATOM     76  C   UNL A   1      44.162  28.318  30.208  1.00  0.00     0.057 A 
ATOM     77  C   UNL A   1      44.903  28.881  31.256  1.00  0.00     0.134 A 
ATOM     78  C   UNL A   1      43.637  27.044  30.469  1.00  0.00     0.134 A 
ATOM     79  F   UNL A   1      45.422  30.111  31.125  1.00  0.00    -0.206 F 
ATOM     80  C   UNL A   1      45.140  28.204  32.462  1.00  0.00     0.040 A 
ATOM     81  C   UNL A   1      43.868  26.347  31.665  1.00  0.00     0.040 A 
ATOM     82  F   UNL A   1      42.876  26.423  29.571  1.00  0.00    -0.206 F 
ATOM     83  C   UNL A   1      44.632  26.926  32.667  1.00  0.00     0.006 A 
ENDBRANCH  59  76
ENDBRANCH  33  34
ENDBRANCH  26  28
ENDBRANCH  25  26
ENDBRANCH  24  25
ENDBRANCH  23  24
ENDBRANCH   1  23
TORSDOF 16
ENDMDL
