MODEL 1
REMARK VINA RESULT:     -12.0      0.000      0.000
REMARK SMILES O=C(OCCOCCOC(=O)c1ccc(-c2c3nc(c(-c4c(F)cccc4F)c4ccc([nH]4)c(-c4c(F)cccc4F)c4nc(c(-c5c(F)cccc5F)c5ccc2[nH]5)C=C4)C=C3)cc1)C1=Cc2cc(Cl)cc(-c3ccc(CO)cc3)c2O[C@@H]1C(F)(F)F
REMARK SMILES IDX 5 1 4 2 3 3 2 4 1 5 66 6 67 7 84 8 68 9 83 10 69 11 82 12
REMARK SMILES IDX 70 13 73 14 71 15 72 16 85 17 86 18 87 19 88 20 74 21 75 22
REMARK SMILES IDX 81 23 76 24 80 25 77 26 78 27 79 28 6 30 7 31 8 32 9 33
REMARK SMILES IDX 10 34 11 35 12 36 13 37 65 38 14 39 64 40 15 41 16 42 17 43
REMARK SMILES IDX 58 44 18 45 63 46 57 47 59 48 19 49 62 50 56 51 55 52 20 54
REMARK SMILES IDX 46 55 29 56 45 57 30 58 33 59 44 60 60 61 31 62 32 63 43 65
REMARK SMILES IDX 61 66 34 67 21 68 22 69 27 70 23 71 24 72 26 73 28 74 25 75
REMARK SMILES IDX 47 76 48 77 53 78 49 79 50 80 52 81 54 82 51 83 35 84 36 85
REMARK SMILES IDX 41 86 37 87 38 88 40 89 42 90 39 91
REMARK H PARENT 79 29 59 53 33 64
REMARK Flexibility Score: inf
ROOT
ATOM      1  C   UNL A   1      46.828  39.489  30.477  1.00  0.00     0.202 C 
ENDROOT
BRANCH   1   2
ATOM      2  C   UNL A   1      45.444  38.006  29.676  1.00  0.00     0.261 C 
BRANCH   2   3
ATOM      3  O   UNL A   1      44.462  38.184  28.593  1.00  0.00    -0.460 OA
BRANCH   3   4
ATOM      4  C   UNL A   1      44.881  39.142  27.762  1.00  0.00     0.338 C 
ATOM      5  O   UNL A   1      46.000  39.234  27.310  1.00  0.00    -0.246 OA
BRANCH   4   6
ATOM      6  C   UNL A   1      43.897  40.222  28.043  1.00  0.00     0.087 C 
ATOM      7  C   UNL A   1      44.402  41.514  28.475  1.00  0.00     0.027 C 
ATOM      8  C   UNL A   1      43.203  39.899  26.313  1.00  0.00     0.316 C 
ATOM      9  C   UNL A   1      44.732  42.914  27.404  1.00  0.00     0.019 A 
ATOM     10  O   UNL A   1      43.750  41.278  25.026  1.00  0.00    -0.475 OA
ATOM     11  C   UNL A   1      45.269  44.054  27.944  1.00  0.00     0.032 A 
ATOM     12  C   UNL A   1      44.536  42.826  25.700  1.00  0.00     0.135 A 
ATOM     13  C   UNL A   1      45.647  45.036  27.015  1.00  0.00     0.042 A 
ATOM     14  C   UNL A   1      44.835  43.872  24.897  1.00  0.00     0.026 A 
ATOM     15  Cl  UNL A   1      46.394  46.472  27.637  1.00  0.00    -0.084 Cl
ATOM     16  C   UNL A   1      45.458  44.946  25.584  1.00  0.00     0.033 A 
BRANCH   8  17
ATOM     17  C   UNL A   1      41.673  39.570  27.056  1.00  0.00     0.430 C 
ATOM     18  F   UNL A   1      41.119  40.512  27.829  1.00  0.00    -0.167 F 
ATOM     19  F   UNL A   1      40.772  39.413  26.033  1.00  0.00    -0.167 F 
ATOM     20  F   UNL A   1      41.580  38.392  27.732  1.00  0.00    -0.167 F 
ENDBRANCH   8  17
BRANCH  14  21
ATOM     21  C   UNL A   1      44.564  43.872  23.502  1.00  0.00    -0.015 A 
ATOM     22  C   UNL A   1      42.665  43.731  22.896  1.00  0.00     0.009 A 
ATOM     23  C   UNL A   1      45.977  43.861  22.009  1.00  0.00     0.009 A 
ATOM     24  C   UNL A   1      41.838  43.793  21.073  1.00  0.00     0.007 A 
ATOM     25  C   UNL A   1      45.136  43.753  20.190  1.00  0.00     0.007 A 
ATOM     26  C   UNL A   1      43.226  43.801  19.590  1.00  0.00    -0.023 A 
BRANCH  26  27
ATOM     27  C   UNL A   1      42.795  43.833  18.155  1.00  0.00     0.191 C 
BRANCH  27  28
ATOM     28  O   UNL A   1      43.017  42.579  17.543  1.00  0.00    -0.392 OA
ATOM     29  H   UNL A   1      43.953  42.338  17.627  1.00  0.00     0.211 HD
ENDBRANCH  27  28
ENDBRANCH  26  27
ENDBRANCH  14  21
ENDBRANCH   4   6
ENDBRANCH   3   4
ENDBRANCH   2   3
ENDBRANCH   1   2
BRANCH   1  30
ATOM     30  O   UNL A   1      48.374  39.875  29.741  1.00  0.00    -0.374 OA
BRANCH  30  31
ATOM     31  C   UNL A   1      49.226  39.117  28.743  1.00  0.00     0.202 C 
BRANCH  31  32
ATOM     32  C   UNL A   1      49.555  37.608  28.697  1.00  0.00     0.261 C 
BRANCH  32  33
ATOM     33  O   UNL A   1      48.441  36.774  28.444  1.00  0.00    -0.460 OA
BRANCH  33  34
ATOM     34  C   UNL A   1      48.322  35.979  29.530  1.00  0.00     0.338 C 
ATOM     35  O   UNL A   1      48.931  36.198  30.573  1.00  0.00    -0.246 OA
BRANCH  34  36
ATOM     36  C   UNL A   1      47.355  34.673  29.239  1.00  0.00     0.060 A 
ATOM     37  C   UNL A   1      46.740  33.017  30.221  1.00  0.00     0.016 A 
ATOM     38  C   UNL A   1      46.944  34.503  28.224  1.00  0.00     0.016 A 
ATOM     39  C   UNL A   1      46.101  31.800  30.397  1.00  0.00     0.010 A 
ATOM     40  C   UNL A   1      46.106  32.707  28.378  1.00  0.00     0.010 A 
ATOM     41  C   UNL A   1      45.754  31.598  29.190  1.00  0.00    -0.014 A 
BRANCH  41  42
ATOM     42  C   UNL A   1      45.268  30.342  28.761  1.00  0.00     0.031 A 
ATOM     43  C   UNL A   1      46.276  29.350  28.356  1.00  0.00     0.074 A 
ATOM     44  C   UNL A   1      43.948  30.206  28.833  1.00  0.00     0.049 A 
ATOM     45  N   UNL A   1      46.086  28.162  27.884  1.00  0.00    -0.248 NA
ATOM     46  C   UNL A   1      47.690  29.761  28.428  1.00  0.00     0.031 C 
ATOM     47  C   UNL A   1      43.009  31.240  29.285  1.00  0.00     0.029 A 
ATOM     48  N   UNL A   1      43.189  29.127  28.569  1.00  0.00    -0.354 N 
ATOM     49  C   UNL A   1      47.347  27.712  27.552  1.00  0.00     0.074 A 
ATOM     50  C   UNL A   1      48.287  28.780  27.776  1.00  0.00     0.031 C 
ATOM     51  C   UNL A   1      41.781  30.710  29.317  1.00  0.00     0.029 A 
ATOM     52  C   UNL A   1      41.872  29.333  28.852  1.00  0.00     0.049 A 
ATOM     53  H   UNL A   1      43.545  28.282  28.211  1.00  0.00     0.167 HD
ATOM     54  C   UNL A   1      47.658  26.473  27.137  1.00  0.00     0.037 A 
ATOM     55  C   UNL A   1      40.878  28.451  28.738  1.00  0.00     0.037 A 
ATOM     56  C   UNL A   1      46.651  25.461  27.024  1.00  0.00     0.049 A 
ATOM     57  C   UNL A   1      41.265  27.074  28.285  1.00  0.00     0.074 A 
ATOM     58  C   UNL A   1      46.797  24.136  26.681  1.00  0.00     0.029 A 
ATOM     59  N   UNL A   1      45.297  25.678  27.270  1.00  0.00    -0.354 N 
ATOM     60  N   UNL A   1      42.454  26.607  27.971  1.00  0.00    -0.248 NA
ATOM     61  C   UNL A   1      40.182  26.103  28.187  1.00  0.00     0.031 C 
ATOM     62  C   UNL A   1      45.521  23.573  26.636  1.00  0.00     0.029 A 
ATOM     63  C   UNL A   1      44.590  24.515  27.061  1.00  0.00     0.049 A 
ATOM     64  H   UNL A   1      44.904  26.536  27.551  1.00  0.00     0.167 HD
ATOM     65  C   UNL A   1      42.272  25.267  27.675  1.00  0.00     0.074 A 
ATOM     66  C   UNL A   1      40.855  25.006  27.873  1.00  0.00     0.031 C 
ATOM     67  C   UNL A   1      43.175  24.331  27.281  1.00  0.00     0.037 A 
BRANCH  54  68
ATOM     68  C   UNL A   1      49.078  26.202  26.765  1.00  0.00     0.057 A 
ATOM     69  C   UNL A   1      49.584  26.420  25.476  1.00  0.00     0.134 A 
ATOM     70  C   UNL A   1      49.950  25.671  27.720  1.00  0.00     0.134 A 
ATOM     71  F   UNL A   1      48.795  26.900  24.501  1.00  0.00    -0.206 F 
ATOM     72  C   UNL A   1      50.894  26.080  25.140  1.00  0.00     0.040 A 
ATOM     73  C   UNL A   1      51.277  25.378  27.411  1.00  0.00     0.040 A 
ATOM     74  F   UNL A   1      49.526  25.418  28.967  1.00  0.00    -0.206 F 
ATOM     75  C   UNL A   1      51.747  25.569  26.115  1.00  0.00     0.006 A 
ENDBRANCH  54  68
BRANCH  55  76
ATOM     76  C   UNL A   1      39.504  28.841  29.092  1.00  0.00     0.057 A 
ATOM     77  C   UNL A   1      38.655  29.424  28.149  1.00  0.00     0.134 A 
ATOM     78  C   UNL A   1      39.001  28.627  30.381  1.00  0.00     0.134 A 
ATOM     79  F   UNL A   1      39.073  29.618  26.890  1.00  0.00    -0.206 F 
ATOM     80  C   UNL A   1      37.374  29.850  28.495  1.00  0.00     0.040 A 
ATOM     81  C   UNL A   1      37.709  29.009  30.729  1.00  0.00     0.040 A 
ATOM     82  F   UNL A   1      39.753  28.023  31.313  1.00  0.00    -0.206 F 
ATOM     83  C   UNL A   1      36.901  29.645  29.790  1.00  0.00     0.006 A 
ENDBRANCH  55  76
BRANCH  67  84
ATOM     84  C   UNL A   1      42.649  22.938  27.122  1.00  0.00     0.057 A 
ATOM     85  C   UNL A   1      42.336  22.127  28.218  1.00  0.00     0.134 A 
ATOM     86  C   UNL A   1      42.443  22.416  25.838  1.00  0.00     0.134 A 
ATOM     87  F   UNL A   1      42.507  22.574  29.471  1.00  0.00    -0.206 F 
ATOM     88  C   UNL A   1      41.912  20.812  28.041  1.00  0.00     0.040 A 
ATOM     89  C   UNL A   1      41.957  21.127  25.651  1.00  0.00     0.040 A 
ATOM     90  F   UNL A   1      42.694  23.156  24.748  1.00  0.00    -0.206 F 
ATOM     91  C   UNL A   1      41.715  20.312  26.755  1.00  0.00     0.006 A 
ENDBRANCH  67  84
ENDBRANCH  41  42
ENDBRANCH  34  36
ENDBRANCH  33  34
ENDBRANCH  32  33
ENDBRANCH  31  32
ENDBRANCH  30  31
ENDBRANCH   1  30
TORSDOF 18
ENDMDL
MODEL 2
REMARK VINA RESULT:     -11.6      6.416     12.084
REMARK SMILES O=C(OCCOCCOC(=O)c1ccc(-c2c3nc(c(-c4c(F)cccc4F)c4ccc([nH]4)c(-c4c(F)cccc4F)c4nc(c(-c5c(F)cccc5F)c5ccc2[nH]5)C=C4)C=C3)cc1)C1=Cc2cc(Cl)cc(-c3ccc(CO)cc3)c2O[C@@H]1C(F)(F)F
REMARK SMILES IDX 5 1 4 2 3 3 2 4 1 5 66 6 67 7 84 8 68 9 83 10 69 11 82 12
REMARK SMILES IDX 70 13 73 14 71 15 72 16 85 17 86 18 87 19 88 20 74 21 75 22
REMARK SMILES IDX 81 23 76 24 80 25 77 26 78 27 79 28 6 30 7 31 8 32 9 33
REMARK SMILES IDX 10 34 11 35 12 36 13 37 65 38 14 39 64 40 15 41 16 42 17 43
REMARK SMILES IDX 58 44 18 45 63 46 57 47 59 48 19 49 62 50 56 51 55 52 20 54
REMARK SMILES IDX 46 55 29 56 45 57 30 58 33 59 44 60 60 61 31 62 32 63 43 65
REMARK SMILES IDX 61 66 34 67 21 68 22 69 27 70 23 71 24 72 26 73 28 74 25 75
REMARK SMILES IDX 47 76 48 77 53 78 49 79 50 80 52 81 54 82 51 83 35 84 36 85
REMARK SMILES IDX 41 86 37 87 38 88 40 89 42 90 39 91
REMARK H PARENT 79 29 59 53 33 64
REMARK Flexibility Score: inf
ROOT
ATOM      1  C   UNL A   1      41.675  24.369  28.467  1.00  0.00     0.202 C 
ENDROOT
BRANCH   1   2
ATOM      2  C   UNL A   1      40.787  26.355  28.308  1.00  0.00     0.261 C 
BRANCH   2   3
ATOM      3  O   UNL A   1      39.582  26.859  28.987  1.00  0.00    -0.460 OA
BRANCH   3   4
ATOM      4  C   UNL A   1      39.493  28.181  28.819  1.00  0.00     0.338 C 
ATOM      5  O   UNL A   1      39.491  28.751  27.750  1.00  0.00    -0.246 OA
BRANCH   4   6
ATOM      6  C   UNL A   1      39.971  28.676  30.138  1.00  0.00     0.087 C 
ATOM      7  C   UNL A   1      40.942  29.755  30.155  1.00  0.00     0.027 C 
ATOM      8  C   UNL A   1      38.150  28.903  30.598  1.00  0.00     0.316 C 
ATOM      9  C   UNL A   1      40.557  31.500  30.313  1.00  0.00     0.019 A 
ATOM     10  O   UNL A   1      37.602  30.788  30.538  1.00  0.00    -0.475 OA
ATOM     11  C   UNL A   1      41.576  32.416  30.249  1.00  0.00     0.032 A 
ATOM     12  C   UNL A   1      38.941  32.073  30.395  1.00  0.00     0.135 A 
ATOM     13  C   UNL A   1      41.172  33.759  30.217  1.00  0.00     0.042 A 
ATOM     14  C   UNL A   1      38.661  33.394  30.466  1.00  0.00     0.026 A 
ATOM     15  Cl  UNL A   1      42.415  34.959  30.069  1.00  0.00    -0.084 Cl
ATOM     16  C   UNL A   1      39.803  34.220  30.303  1.00  0.00     0.033 A 
BRANCH   8  17
ATOM     17  C   UNL A   1      38.417  27.831  31.931  1.00  0.00     0.430 C 
ATOM     18  F   UNL A   1      39.587  27.892  32.580  1.00  0.00    -0.167 F 
ATOM     19  F   UNL A   1      37.493  28.167  32.889  1.00  0.00    -0.167 F 
ATOM     20  F   UNL A   1      38.157  26.515  31.700  1.00  0.00    -0.167 F 
ENDBRANCH   8  17
BRANCH  14  21
ATOM     21  C   UNL A   1      37.344  33.891  30.662  1.00  0.00    -0.015 A 
ATOM     22  C   UNL A   1      36.824  34.533  32.482  1.00  0.00     0.009 A 
ATOM     23  C   UNL A   1      35.840  33.885  29.259  1.00  0.00     0.009 A 
ATOM     24  C   UNL A   1      35.147  35.384  33.169  1.00  0.00     0.007 A 
ATOM     25  C   UNL A   1      34.118  34.587  30.013  1.00  0.00     0.007 A 
ATOM     26  C   UNL A   1      33.660  35.400  31.784  1.00  0.00    -0.023 A 
BRANCH  26  27
ATOM     27  C   UNL A   1      32.324  35.987  32.121  1.00  0.00     0.191 C 
BRANCH  27  28
ATOM     28  O   UNL A   1      31.553  35.069  32.868  1.00  0.00    -0.392 OA
ATOM     29  H   UNL A   1      30.897  34.651  32.290  1.00  0.00     0.211 HD
ENDBRANCH  27  28
ENDBRANCH  26  27
ENDBRANCH  14  21
ENDBRANCH   4   6
ENDBRANCH   3   4
ENDBRANCH   2   3
ENDBRANCH   1   2
BRANCH   1  30
ATOM     30  O   UNL A   1      41.320  23.053  27.362  1.00  0.00    -0.374 OA
BRANCH  30  31
ATOM     31  C   UNL A   1      42.066  21.768  27.061  1.00  0.00     0.202 C 
BRANCH  31  32
ATOM     32  C   UNL A   1      42.634  21.269  25.713  1.00  0.00     0.261 C 
BRANCH  32  33
ATOM     33  O   UNL A   1      44.028  21.454  25.561  1.00  0.00    -0.460 OA
BRANCH  33  34
ATOM     34  C   UNL A   1      44.172  22.500  24.720  1.00  0.00     0.338 C 
ATOM     35  O   UNL A   1      44.211  22.361  23.501  1.00  0.00    -0.246 OA
BRANCH  34  36
ATOM     36  C   UNL A   1      44.377  23.923  25.531  1.00  0.00     0.060 A 
ATOM     37  C   UNL A   1      45.585  24.666  26.971  1.00  0.00     0.016 A 
ATOM     38  C   UNL A   1      43.649  24.748  25.395  1.00  0.00     0.016 A 
ATOM     39  C   UNL A   1      46.064  25.591  27.885  1.00  0.00     0.010 A 
ATOM     40  C   UNL A   1      44.215  26.071  26.767  1.00  0.00     0.010 A 
ATOM     41  C   UNL A   1      45.136  26.455  27.775  1.00  0.00    -0.014 A 
BRANCH  41  42
ATOM     42  C   UNL A   1      45.006  27.521  28.695  1.00  0.00     0.031 A 
ATOM     43  C   UNL A   1      44.674  27.156  30.080  1.00  0.00     0.074 A 
ATOM     44  C   UNL A   1      45.257  28.723  28.187  1.00  0.00     0.049 A 
ATOM     45  N   UNL A   1      44.454  27.940  31.083  1.00  0.00    -0.248 NA
ATOM     46  C   UNL A   1      44.501  25.722  30.375  1.00  0.00     0.031 C 
ATOM     47  C   UNL A   1      45.619  29.000  26.791  1.00  0.00     0.029 A 
ATOM     48  N   UNL A   1      45.286  29.917  28.806  1.00  0.00    -0.354 N 
ATOM     49  C   UNL A   1      44.063  27.098  32.105  1.00  0.00     0.074 A 
ATOM     50  C   UNL A   1      43.975  25.759  31.585  1.00  0.00     0.031 C 
ATOM     51  C   UNL A   1      45.893  30.304  26.677  1.00  0.00     0.029 A 
ATOM     52  C   UNL A   1      45.680  30.924  27.977  1.00  0.00     0.049 A 
ATOM     53  H   UNL A   1      45.051  30.049  29.752  1.00  0.00     0.167 HD
ATOM     54  C   UNL A   1      43.849  27.456  33.382  1.00  0.00     0.037 A 
ATOM     55  C   UNL A   1      45.848  32.209  28.297  1.00  0.00     0.037 A 
ATOM     56  C   UNL A   1      44.043  28.810  33.810  1.00  0.00     0.049 A 
ATOM     57  C   UNL A   1      45.613  32.568  29.734  1.00  0.00     0.074 A 
ATOM     58  C   UNL A   1      43.934  29.336  35.076  1.00  0.00     0.029 A 
ATOM     59  N   UNL A   1      44.404  29.851  32.958  1.00  0.00    -0.354 N 
ATOM     60  N   UNL A   1      45.253  31.795  30.735  1.00  0.00    -0.248 NA
ATOM     61  C   UNL A   1      45.824  33.966  30.089  1.00  0.00     0.031 C 
ATOM     62  C   UNL A   1      44.144  30.712  34.977  1.00  0.00     0.029 A 
ATOM     63  C   UNL A   1      44.496  31.027  33.669  1.00  0.00     0.049 A 
ATOM     64  H   UNL A   1      44.566  29.761  31.991  1.00  0.00     0.167 HD
ATOM     65  C   UNL A   1      45.231  32.606  31.857  1.00  0.00     0.074 A 
ATOM     66  C   UNL A   1      45.639  33.925  31.400  1.00  0.00     0.031 C 
ATOM     67  C   UNL A   1      44.912  32.306  33.143  1.00  0.00     0.037 A 
BRANCH  54  68
ATOM     68  C   UNL A   1      43.368  26.404  34.325  1.00  0.00     0.057 A 
ATOM     69  C   UNL A   1      42.030  26.296  34.731  1.00  0.00     0.134 A 
ATOM     70  C   UNL A   1      44.283  25.499  34.871  1.00  0.00     0.134 A 
ATOM     71  F   UNL A   1      41.103  27.151  34.270  1.00  0.00    -0.206 F 
ATOM     72  C   UNL A   1      41.629  25.353  35.677  1.00  0.00     0.040 A 
ATOM     73  C   UNL A   1      43.885  24.516  35.775  1.00  0.00     0.040 A 
ATOM     74  F   UNL A   1      45.582  25.559  34.542  1.00  0.00    -0.206 F 
ATOM     75  C   UNL A   1      42.557  24.451  36.190  1.00  0.00     0.006 A 
ENDBRANCH  54  68
BRANCH  55  76
ATOM     76  C   UNL A   1      46.285  33.171  27.273  1.00  0.00     0.057 A 
ATOM     77  C   UNL A   1      47.641  33.384  27.015  1.00  0.00     0.134 A 
ATOM     78  C   UNL A   1      45.354  33.893  26.515  1.00  0.00     0.134 A 
ATOM     79  F   UNL A   1      48.574  32.692  27.686  1.00  0.00    -0.206 F 
ATOM     80  C   UNL A   1      48.060  34.336  26.089  1.00  0.00     0.040 A 
ATOM     81  C   UNL A   1      45.759  34.817  25.557  1.00  0.00     0.040 A 
ATOM     82  F   UNL A   1      44.039  33.692  26.682  1.00  0.00    -0.206 F 
ATOM     83  C   UNL A   1      47.117  35.058  25.360  1.00  0.00     0.006 A 
ENDBRANCH  55  76
BRANCH  67  84
ATOM     84  C   UNL A   1      45.074  33.416  34.135  1.00  0.00     0.057 A 
ATOM     85  C   UNL A   1      44.044  34.317  34.424  1.00  0.00     0.134 A 
ATOM     86  C   UNL A   1      46.288  33.566  34.818  1.00  0.00     0.134 A 
ATOM     87  F   UNL A   1      42.857  34.220  33.806  1.00  0.00    -0.206 F 
ATOM     88  C   UNL A   1      44.243  35.380  35.302  1.00  0.00     0.040 A 
ATOM     89  C   UNL A   1      46.476  34.584  35.746  1.00  0.00     0.040 A 
ATOM     90  F   UNL A   1      47.303  32.714  34.608  1.00  0.00    -0.206 F 
ATOM     91  C   UNL A   1      45.460  35.510  35.970  1.00  0.00     0.006 A 
ENDBRANCH  67  84
ENDBRANCH  41  42
ENDBRANCH  34  36
ENDBRANCH  33  34
ENDBRANCH  32  33
ENDBRANCH  31  32
ENDBRANCH  30  31
ENDBRANCH   1  30
TORSDOF 18
ENDMDL
MODEL 3
REMARK VINA RESULT:     -11.5      7.121     11.369
REMARK SMILES O=C(OCCOCCOC(=O)c1ccc(-c2c3nc(c(-c4c(F)cccc4F)c4ccc([nH]4)c(-c4c(F)cccc4F)c4nc(c(-c5c(F)cccc5F)c5ccc2[nH]5)C=C4)C=C3)cc1)C1=Cc2cc(Cl)cc(-c3ccc(CO)cc3)c2O[C@@H]1C(F)(F)F
REMARK SMILES IDX 5 1 4 2 3 3 2 4 1 5 66 6 67 7 84 8 68 9 83 10 69 11 82 12
REMARK SMILES IDX 70 13 73 14 71 15 72 16 85 17 86 18 87 19 88 20 74 21 75 22
REMARK SMILES IDX 81 23 76 24 80 25 77 26 78 27 79 28 6 30 7 31 8 32 9 33
REMARK SMILES IDX 10 34 11 35 12 36 13 37 65 38 14 39 64 40 15 41 16 42 17 43
REMARK SMILES IDX 58 44 18 45 63 46 57 47 59 48 19 49 62 50 56 51 55 52 20 54
REMARK SMILES IDX 46 55 29 56 45 57 30 58 33 59 44 60 60 61 31 62 32 63 43 65
REMARK SMILES IDX 61 66 34 67 21 68 22 69 27 70 23 71 24 72 26 73 28 74 25 75
REMARK SMILES IDX 47 76 48 77 53 78 49 79 50 80 52 81 54 82 51 83 35 84 36 85
REMARK SMILES IDX 41 86 37 87 38 88 40 89 42 90 39 91
REMARK H PARENT 79 29 59 53 33 64
REMARK Flexibility Score: inf
ROOT
ATOM      1  C   UNL A   1      38.815  31.811  41.870  1.00  0.00     0.202 C 
ENDROOT
BRANCH   1   2
ATOM      2  C   UNL A   1      38.098  32.590  39.962  1.00  0.00     0.261 C 
BRANCH   2   3
ATOM      3  O   UNL A   1      38.898  32.942  38.777  1.00  0.00    -0.460 OA
BRANCH   3   4
ATOM      4  C   UNL A   1      38.173  32.744  37.673  1.00  0.00     0.338 C 
ATOM      5  O   UNL A   1      37.038  32.324  37.649  1.00  0.00    -0.246 OA
BRANCH   4   6
ATOM      6  C   UNL A   1      39.239  32.608  36.644  1.00  0.00     0.087 C 
ATOM      7  C   UNL A   1      39.373  31.335  35.958  1.00  0.00     0.027 C 
ATOM      8  C   UNL A   1      38.515  34.159  35.837  1.00  0.00     0.316 C 
ATOM      9  C   UNL A   1      38.629  30.921  34.380  1.00  0.00     0.019 A 
ATOM     10  O   UNL A   1      37.466  33.735  34.231  1.00  0.00    -0.475 OA
ATOM     11  C   UNL A   1      38.789  29.654  33.880  1.00  0.00     0.032 A 
ATOM     12  C   UNL A   1      37.601  32.011  33.541  1.00  0.00     0.135 A 
ATOM     13  C   UNL A   1      38.042  29.366  32.727  1.00  0.00     0.042 A 
ATOM     14  C   UNL A   1      37.007  31.669  32.375  1.00  0.00     0.026 A 
ATOM     15  Cl  UNL A   1      38.153  27.757  32.090  1.00  0.00    -0.084 Cl
ATOM     16  C   UNL A   1      37.193  30.306  32.029  1.00  0.00     0.033 A 
BRANCH   8  17
ATOM     17  C   UNL A   1      40.065  34.907  36.026  1.00  0.00     0.430 C 
ATOM     18  F   UNL A   1      41.132  34.324  35.465  1.00  0.00    -0.167 F 
ATOM     19  F   UNL A   1      39.987  36.123  35.396  1.00  0.00    -0.167 F 
ATOM     20  F   UNL A   1      40.415  35.240  37.299  1.00  0.00    -0.167 F 
ENDBRANCH   8  17
BRANCH  14  21
ATOM     21  C   UNL A   1      36.256  32.591  31.597  1.00  0.00    -0.015 A 
ATOM     22  C   UNL A   1      34.750  33.575  32.468  1.00  0.00     0.009 A 
ATOM     23  C   UNL A   1      36.480  32.915  29.579  1.00  0.00     0.009 A 
ATOM     24  C   UNL A   1      33.521  35.004  31.792  1.00  0.00     0.007 A 
ATOM     25  C   UNL A   1      35.130  34.227  28.882  1.00  0.00     0.007 A 
ATOM     26  C   UNL A   1      33.747  35.346  29.802  1.00  0.00    -0.023 A 
BRANCH  26  27
ATOM     27  C   UNL A   1      32.903  36.375  29.114  1.00  0.00     0.191 C 
BRANCH  27  28
ATOM     28  O   UNL A   1      33.508  37.649  29.198  1.00  0.00    -0.392 OA
ATOM     29  H   UNL A   1      32.907  38.264  29.646  1.00  0.00     0.211 HD
ENDBRANCH  27  28
ENDBRANCH  26  27
ENDBRANCH  14  21
ENDBRANCH   4   6
ENDBRANCH   3   4
ENDBRANCH   2   3
ENDBRANCH   1   2
BRANCH   1  30
ATOM     30  O   UNL A   1      40.291  32.352  42.649  1.00  0.00    -0.374 OA
BRANCH  30  31
ATOM     31  C   UNL A   1      41.748  32.177  42.269  1.00  0.00     0.202 C 
BRANCH  31  32
ATOM     32  C   UNL A   1      42.857  33.248  42.160  1.00  0.00     0.261 C 
BRANCH  32  33
ATOM     33  O   UNL A   1      43.842  32.973  41.183  1.00  0.00    -0.460 OA
BRANCH  33  34
ATOM     34  C   UNL A   1      43.357  33.464  40.022  1.00  0.00     0.338 C 
ATOM     35  O   UNL A   1      42.954  34.619  39.916  1.00  0.00    -0.246 OA
BRANCH  34  36
ATOM     36  C   UNL A   1      43.295  32.314  38.840  1.00  0.00     0.060 A 
ATOM     37  C   UNL A   1      44.585  31.358  37.611  1.00  0.00     0.016 A 
ATOM     38  C   UNL A   1      42.315  31.953  38.468  1.00  0.00     0.016 A 
ATOM     39  C   UNL A   1      44.987  30.512  36.590  1.00  0.00     0.010 A 
ATOM     40  C   UNL A   1      42.820  30.814  36.918  1.00  0.00     0.010 A 
ATOM     41  C   UNL A   1      43.838  30.223  36.128  1.00  0.00    -0.014 A 
BRANCH  41  42
ATOM     42  C   UNL A   1      43.686  29.563  34.887  1.00  0.00     0.031 A 
ATOM     43  C   UNL A   1      43.302  30.399  33.740  1.00  0.00     0.074 A 
ATOM     44  C   UNL A   1      43.965  28.264  34.914  1.00  0.00     0.049 A 
ATOM     45  N   UNL A   1      43.055  30.030  32.527  1.00  0.00    -0.248 NA
ATOM     46  C   UNL A   1      43.106  31.839  33.993  1.00  0.00     0.031 C 
ATOM     47  C   UNL A   1      44.378  27.506  36.102  1.00  0.00     0.029 A 
ATOM     48  N   UNL A   1      43.985  27.378  33.902  1.00  0.00    -0.354 N 
ATOM     49  C   UNL A   1      42.620  31.177  31.894  1.00  0.00     0.074 A 
ATOM     50  C   UNL A   1      42.538  32.233  32.868  1.00  0.00     0.031 C 
ATOM     51  C   UNL A   1      44.669  26.255  35.724  1.00  0.00     0.029 A 
ATOM     52  C   UNL A   1      44.417  26.147  34.294  1.00  0.00     0.049 A 
ATOM     53  H   UNL A   1      43.718  27.594  32.980  1.00  0.00     0.167 HD
ATOM     54  C   UNL A   1      42.365  31.304  30.581  1.00  0.00     0.037 A 
ATOM     55  C   UNL A   1      44.586  25.071  33.523  1.00  0.00     0.037 A 
ATOM     56  C   UNL A   1      42.558  30.204  29.684  1.00  0.00     0.049 A 
ATOM     57  C   UNL A   1      44.304  25.254  32.062  1.00  0.00     0.074 A 
ATOM     58  C   UNL A   1      42.410  30.173  28.317  1.00  0.00     0.029 A 
ATOM     59  N   UNL A   1      42.958  28.931  30.087  1.00  0.00    -0.354 N 
ATOM     60  N   UNL A   1      43.902  26.331  31.422  1.00  0.00    -0.248 NA
ATOM     61  C   UNL A   1      44.516  24.086  31.216  1.00  0.00     0.031 C 
ATOM     62  C   UNL A   1      42.636  28.859  27.902  1.00  0.00     0.029 A 
ATOM     63  C   UNL A   1      43.037  28.097  28.994  1.00  0.00     0.049 A 
ATOM     64  H   UNL A   1      43.153  28.667  31.015  1.00  0.00     0.167 HD
ATOM     65  C   UNL A   1      43.848  25.983  30.084  1.00  0.00     0.074 A 
ATOM     66  C   UNL A   1      44.285  24.598  30.016  1.00  0.00     0.031 C 
ATOM     67  C   UNL A   1      43.482  26.724  29.005  1.00  0.00     0.037 A 
BRANCH  54  68
ATOM     68  C   UNL A   1      41.842  32.617  30.101  1.00  0.00     0.057 A 
ATOM     69  C   UNL A   1      42.661  33.602  29.530  1.00  0.00     0.134 A 
ATOM     70  C   UNL A   1      40.484  32.913  30.251  1.00  0.00     0.134 A 
ATOM     71  F   UNL A   1      43.980  33.396  29.382  1.00  0.00    -0.206 F 
ATOM     72  C   UNL A   1      42.155  34.849  29.167  1.00  0.00     0.040 A 
ATOM     73  C   UNL A   1      39.956  34.136  29.841  1.00  0.00     0.040 A 
ATOM     74  F   UNL A   1      39.649  32.024  30.808  1.00  0.00    -0.206 F 
ATOM     75  C   UNL A   1      40.795  35.112  29.311  1.00  0.00     0.006 A 
ENDBRANCH  54  68
BRANCH  55  76
ATOM     76  C   UNL A   1      45.066  23.811  34.114  1.00  0.00     0.057 A 
ATOM     77  C   UNL A   1      44.173  22.814  34.512  1.00  0.00     0.134 A 
ATOM     78  C   UNL A   1      46.435  23.567  34.281  1.00  0.00     0.134 A 
ATOM     79  F   UNL A   1      42.853  22.981  34.340  1.00  0.00    -0.206 F 
ATOM     80  C   UNL A   1      44.619  21.646  35.125  1.00  0.00     0.040 A 
ATOM     81  C   UNL A   1      46.897  22.386  34.854  1.00  0.00     0.040 A 
ATOM     82  F   UNL A   1      47.342  24.465  33.869  1.00  0.00    -0.206 F 
ATOM     83  C   UNL A   1      45.985  21.433  35.301  1.00  0.00     0.006 A 
ENDBRANCH  55  76
BRANCH  67  84
ATOM     84  C   UNL A   1      43.620  26.055  27.672  1.00  0.00     0.057 A 
ATOM     85  C   UNL A   1      44.787  26.148  26.906  1.00  0.00     0.134 A 
ATOM     86  C   UNL A   1      42.560  25.293  27.164  1.00  0.00     0.134 A 
ATOM     87  F   UNL A   1      45.837  26.859  27.343  1.00  0.00    -0.206 F 
ATOM     88  C   UNL A   1      44.864  25.571  25.641  1.00  0.00     0.040 A 
ATOM     89  C   UNL A   1      42.652  24.658  25.931  1.00  0.00     0.040 A 
ATOM     90  F   UNL A   1      41.427  25.140  27.866  1.00  0.00    -0.206 F 
ATOM     91  C   UNL A   1      43.796  24.818  25.154  1.00  0.00     0.006 A 
ENDBRANCH  67  84
ENDBRANCH  41  42
ENDBRANCH  34  36
ENDBRANCH  33  34
ENDBRANCH  32  33
ENDBRANCH  31  32
ENDBRANCH  30  31
ENDBRANCH   1  30
TORSDOF 18
ENDMDL
