MODEL 1
REMARK VINA RESULT:      -9.9      0.000      0.000
REMARK SMILES NC(=O)[C@H]1CC(C(=O)OCCOCCOC(=O)c2ccc(-c3c4nc(c(-c5c(F)cccc5F)c5ccc([nH]5)c(-c5c(F)cccc5F)c5nc(c(-c6c(F)cccc6F)c6ccc3[nH]6)C=C5)C=C4)cc2)=NN1c1ccc(F)cc1
REMARK SMILES IDX 13 1 12 2 11 3 10 4 9 5 7 6 8 7 6 8 4 9 5 10 73 11 72 12
REMARK SMILES IDX 2 13 1 14 3 17 74 18 75 19 80 20 76 21 79 22 77 23 78 24
REMARK SMILES IDX 14 25 15 26 16 27 17 28 18 29 19 30 71 31 20 32 70 33 21 34
REMARK SMILES IDX 22 35 23 36 64 37 24 38 69 39 63 40 65 41 25 42 68 43 62 44
REMARK SMILES IDX 61 45 26 47 52 48 35 49 51 50 36 51 39 52 50 53 66 54 37 55
REMARK SMILES IDX 38 56 49 58 67 59 40 60 27 61 28 62 33 63 29 64 30 65 32 66
REMARK SMILES IDX 34 67 31 68 53 69 54 70 59 71 55 72 56 73 58 74 60 75 57 76
REMARK SMILES IDX 41 77 42 78 47 79 43 80 44 81 46 82 48 83 45 84
REMARK H PARENT 1 15 1 16 65 46 39 57
REMARK Flexibility Score: inf
ROOT
ATOM      1  C   UNL A   1      34.518  34.297  29.319  1.00  0.00     0.202 C 
ENDROOT
BRANCH   1   2
ATOM      2  O   UNL A   1      33.365  34.547  30.125  1.00  0.00    -0.374 OA
BRANCH   2   3
ATOM      3  C   UNL A   1      32.880  35.882  30.223  1.00  0.00     0.202 C 
BRANCH   3   4
ATOM      4  C   UNL A   1      32.465  36.368  31.613  1.00  0.00     0.261 C 
BRANCH   4   5
ATOM      5  O   UNL A   1      32.919  35.465  32.628  1.00  0.00    -0.459 OA
BRANCH   5   6
ATOM      6  C   UNL A   1      34.014  35.877  33.294  1.00  0.00     0.354 C 
ATOM      7  O   UNL A   1      34.140  36.847  34.017  1.00  0.00    -0.245 OA
BRANCH   6   8
ATOM      8  C   UNL A   1      35.128  34.889  33.081  1.00  0.00     0.148 C 
ATOM      9  C   UNL A   1      36.145  32.918  32.552  1.00  0.00     0.203 C 
ATOM     10  C   UNL A   1      34.908  33.431  33.286  1.00  0.00     0.103 C 
ATOM     11  N   UNL A   1      37.024  34.093  32.539  1.00  0.00    -0.252 N 
ATOM     12  N   UNL A   1      36.322  35.252  32.728  1.00  0.00    -0.169 NA
BRANCH   9  13
ATOM     13  C   UNL A   1      36.774  31.745  33.306  1.00  0.00     0.242 C 
ATOM     14  N   UNL A   1      37.316  32.057  34.526  1.00  0.00    -0.368 N 
ATOM     15  H   UNL A   1      37.740  31.355  35.070  1.00  0.00     0.159 HD
ATOM     16  H   UNL A   1      37.283  32.983  34.857  1.00  0.00     0.159 HD
ATOM     17  O   UNL A   1      36.868  30.600  32.875  1.00  0.00    -0.273 OA
ENDBRANCH   9  13
BRANCH  11  18
ATOM     18  C   UNL A   1      38.174  34.188  31.761  1.00  0.00     0.061 A 
ATOM     19  C   UNL A   1      39.416  34.376  32.391  1.00  0.00     0.031 A 
ATOM     20  C   UNL A   1      38.137  34.179  30.359  1.00  0.00     0.031 A 
ATOM     21  C   UNL A   1      40.588  34.532  31.647  1.00  0.00     0.041 A 
ATOM     22  C   UNL A   1      39.304  34.356  29.610  1.00  0.00     0.041 A 
ATOM     23  C   UNL A   1      40.518  34.526  30.262  1.00  0.00     0.123 A 
ATOM     24  F   UNL A   1      41.635  34.701  29.542  1.00  0.00    -0.207 F 
ENDBRANCH  11  18
ENDBRANCH   6   8
ENDBRANCH   5   6
ENDBRANCH   4   5
ENDBRANCH   3   4
ENDBRANCH   2   3
ENDBRANCH   1   2
BRANCH   1  25
ATOM     25  C   UNL A   1      34.465  33.114  28.343  1.00  0.00     0.261 C 
BRANCH  25  26
ATOM     26  O   UNL A   1      34.794  31.857  28.960  1.00  0.00    -0.460 OA
BRANCH  26  27
ATOM     27  C   UNL A   1      34.866  30.804  28.108  1.00  0.00     0.338 C 
ATOM     28  O   UNL A   1      34.105  30.526  27.198  1.00  0.00    -0.246 OA
BRANCH  27  29
ATOM     29  C   UNL A   1      36.141  30.094  28.319  1.00  0.00     0.060 A 
ATOM     30  C   UNL A   1      36.377  29.508  29.570  1.00  0.00     0.016 A 
ATOM     31  C   UNL A   1      37.118  30.070  27.325  1.00  0.00     0.016 A 
ATOM     32  C   UNL A   1      37.609  28.914  29.841  1.00  0.00     0.010 A 
ATOM     33  C   UNL A   1      38.354  29.484  27.602  1.00  0.00     0.010 A 
ATOM     34  C   UNL A   1      38.615  28.926  28.868  1.00  0.00    -0.014 A 
BRANCH  34  35
ATOM     35  C   UNL A   1      39.990  28.478  29.193  1.00  0.00     0.031 A 
ATOM     36  C   UNL A   1      40.913  29.429  29.901  1.00  0.00     0.074 A 
ATOM     37  C   UNL A   1      40.424  27.261  28.824  1.00  0.00     0.049 A 
ATOM     38  N   UNL A   1      42.194  29.322  30.137  1.00  0.00    -0.248 NA
ATOM     39  C   UNL A   1      40.307  30.674  30.402  1.00  0.00     0.031 C 
ATOM     40  C   UNL A   1      39.610  26.234  28.176  1.00  0.00     0.029 A 
ATOM     41  N   UNL A   1      41.671  26.694  28.920  1.00  0.00    -0.354 N 
ATOM     42  C   UNL A   1      42.554  30.492  30.795  1.00  0.00     0.074 A 
ATOM     43  C   UNL A   1      41.361  31.303  30.901  1.00  0.00     0.031 C 
ATOM     44  C   UNL A   1      40.387  25.169  27.909  1.00  0.00     0.029 A 
ATOM     45  C   UNL A   1      41.758  25.461  28.324  1.00  0.00     0.049 A 
ATOM     46  H   UNL A   1      42.428  27.131  29.373  1.00  0.00     0.167 HD
ATOM     47  C   UNL A   1      43.770  30.853  31.268  1.00  0.00     0.037 A 
ATOM     48  C   UNL A   1      42.830  24.676  28.103  1.00  0.00     0.037 A 
ATOM     49  C   UNL A   1      44.951  30.039  31.160  1.00  0.00     0.049 A 
ATOM     50  C   UNL A   1      44.190  25.137  28.561  1.00  0.00     0.074 A 
ATOM     51  C   UNL A   1      46.228  30.306  31.623  1.00  0.00     0.029 A 
ATOM     52  N   UNL A   1      45.002  28.802  30.536  1.00  0.00    -0.354 N 
ATOM     53  N   UNL A   1      44.521  26.237  29.194  1.00  0.00    -0.248 NA
ATOM     54  C   UNL A   1      45.327  24.249  28.272  1.00  0.00     0.031 C 
ATOM     55  C   UNL A   1      47.062  29.256  31.232  1.00  0.00     0.029 A 
ATOM     56  C   UNL A   1      46.295  28.305  30.579  1.00  0.00     0.049 A 
ATOM     57  H   UNL A   1      44.234  28.344  30.125  1.00  0.00     0.167 HD
ATOM     58  C   UNL A   1      45.892  26.155  29.411  1.00  0.00     0.074 A 
ATOM     59  C   UNL A   1      46.331  24.898  28.845  1.00  0.00     0.031 C 
ATOM     60  C   UNL A   1      46.711  27.040  30.029  1.00  0.00     0.037 A 
BRANCH  47  61
ATOM     61  C   UNL A   1      43.890  32.200  31.919  1.00  0.00     0.057 A 
ATOM     62  C   UNL A   1      44.226  33.349  31.192  1.00  0.00     0.134 A 
ATOM     63  C   UNL A   1      43.630  32.355  33.288  1.00  0.00     0.134 A 
ATOM     64  F   UNL A   1      44.500  33.269  29.881  1.00  0.00    -0.206 F 
ATOM     65  C   UNL A   1      44.322  34.599  31.807  1.00  0.00     0.040 A 
ATOM     66  C   UNL A   1      43.694  33.603  33.907  1.00  0.00     0.040 A 
ATOM     67  F   UNL A   1      43.297  31.296  34.042  1.00  0.00    -0.206 F 
ATOM     68  C   UNL A   1      44.049  34.730  33.167  1.00  0.00     0.006 A 
ENDBRANCH  47  61
BRANCH  48  69
ATOM     69  C   UNL A   1      42.674  23.382  27.391  1.00  0.00     0.057 A 
ATOM     70  C   UNL A   1      42.351  22.210  28.085  1.00  0.00     0.134 A 
ATOM     71  C   UNL A   1      42.864  23.279  26.007  1.00  0.00     0.134 A 
ATOM     72  F   UNL A   1      42.178  22.240  29.414  1.00  0.00    -0.206 F 
ATOM     73  C   UNL A   1      42.243  20.980  27.434  1.00  0.00     0.040 A 
ATOM     74  C   UNL A   1      42.732  22.061  25.339  1.00  0.00     0.040 A 
ATOM     75  F   UNL A   1      43.172  24.365  25.282  1.00  0.00    -0.206 F 
ATOM     76  C   UNL A   1      42.429  20.905  26.055  1.00  0.00     0.006 A 
ENDBRANCH  48  69
BRANCH  60  77
ATOM     77  C   UNL A   1      48.157  26.664  30.183  1.00  0.00     0.057 A 
ATOM     78  C   UNL A   1      48.611  25.870  31.243  1.00  0.00     0.134 A 
ATOM     79  C   UNL A   1      49.094  27.044  29.212  1.00  0.00     0.134 A 
ATOM     80  F   UNL A   1      47.768  25.483  32.212  1.00  0.00    -0.206 F 
ATOM     81  C   UNL A   1      49.947  25.476  31.338  1.00  0.00     0.040 A 
ATOM     82  C   UNL A   1      50.425  26.633  29.281  1.00  0.00     0.040 A 
ATOM     83  F   UNL A   1      48.723  27.797  28.166  1.00  0.00    -0.206 F 
ATOM     84  C   UNL A   1      50.856  25.849  30.348  1.00  0.00     0.006 A 
ENDBRANCH  60  77
ENDBRANCH  34  35
ENDBRANCH  27  29
ENDBRANCH  26  27
ENDBRANCH  25  26
ENDBRANCH   1  25
TORSDOF 16
ENDMDL
MODEL 2
REMARK VINA RESULT:      -9.6      5.202     10.102
REMARK SMILES NC(=O)[C@H]1CC(C(=O)OCCOCCOC(=O)c2ccc(-c3c4nc(c(-c5c(F)cccc5F)c5ccc([nH]5)c(-c5c(F)cccc5F)c5nc(c(-c6c(F)cccc6F)c6ccc3[nH]6)C=C5)C=C4)cc2)=NN1c1ccc(F)cc1
REMARK SMILES IDX 13 1 12 2 11 3 10 4 9 5 7 6 8 7 6 8 4 9 5 10 73 11 72 12
REMARK SMILES IDX 2 13 1 14 3 17 74 18 75 19 80 20 76 21 79 22 77 23 78 24
REMARK SMILES IDX 14 25 15 26 16 27 17 28 18 29 19 30 71 31 20 32 70 33 21 34
REMARK SMILES IDX 22 35 23 36 64 37 24 38 69 39 63 40 65 41 25 42 68 43 62 44
REMARK SMILES IDX 61 45 26 47 52 48 35 49 51 50 36 51 39 52 50 53 66 54 37 55
REMARK SMILES IDX 38 56 49 58 67 59 40 60 27 61 28 62 33 63 29 64 30 65 32 66
REMARK SMILES IDX 34 67 31 68 53 69 54 70 59 71 55 72 56 73 58 74 60 75 57 76
REMARK SMILES IDX 41 77 42 78 47 79 43 80 44 81 46 82 48 83 45 84
REMARK H PARENT 1 15 1 16 65 46 39 57
REMARK Flexibility Score: inf
ROOT
ATOM      1  C   UNL A   1      31.364  29.577  24.933  1.00  0.00     0.202 C 
ENDROOT
BRANCH   1   2
ATOM      2  O   UNL A   1      30.249  29.565  24.040  1.00  0.00    -0.374 OA
BRANCH   2   3
ATOM      3  C   UNL A   1      29.914  28.345  23.387  1.00  0.00     0.202 C 
BRANCH   3   4
ATOM      4  C   UNL A   1      30.881  27.846  22.311  1.00  0.00     0.261 C 
BRANCH   4   5
ATOM      5  O   UNL A   1      30.986  26.417  22.341  1.00  0.00    -0.459 OA
BRANCH   5   6
ATOM      6  C   UNL A   1      32.205  25.954  22.680  1.00  0.00     0.354 C 
ATOM      7  O   UNL A   1      33.295  26.362  22.325  1.00  0.00    -0.245 OA
BRANCH   6   8
ATOM      8  C   UNL A   1      32.055  24.836  23.675  1.00  0.00     0.148 C 
ATOM      9  C   UNL A   1      31.014  23.297  24.997  1.00  0.00     0.203 C 
ATOM     10  C   UNL A   1      30.857  24.750  24.555  1.00  0.00     0.103 C 
ATOM     11  N   UNL A   1      32.433  23.030  24.732  1.00  0.00    -0.252 N 
ATOM     12  N   UNL A   1      32.952  23.912  23.824  1.00  0.00    -0.169 NA
BRANCH   9  13
ATOM     13  C   UNL A   1      30.675  23.143  26.481  1.00  0.00     0.242 C 
ATOM     14  N   UNL A   1      29.540  22.423  26.749  1.00  0.00    -0.368 N 
ATOM     15  H   UNL A   1      29.257  22.282  27.682  1.00  0.00     0.159 HD
ATOM     16  H   UNL A   1      29.008  22.049  26.011  1.00  0.00     0.159 HD
ATOM     17  O   UNL A   1      31.302  23.654  27.403  1.00  0.00    -0.273 OA
ENDBRANCH   9  13
BRANCH  11  18
ATOM     18  C   UNL A   1      32.994  21.756  24.744  1.00  0.00     0.061 A 
ATOM     19  C   UNL A   1      34.381  21.620  24.928  1.00  0.00     0.031 A 
ATOM     20  C   UNL A   1      32.240  20.599  24.506  1.00  0.00     0.031 A 
ATOM     21  C   UNL A   1      34.994  20.365  24.893  1.00  0.00     0.041 A 
ATOM     22  C   UNL A   1      32.852  19.343  24.449  1.00  0.00     0.041 A 
ATOM     23  C   UNL A   1      34.223  19.239  24.647  1.00  0.00     0.123 A 
ATOM     24  F   UNL A   1      34.808  18.035  24.587  1.00  0.00    -0.207 F 
ENDBRANCH  11  18
ENDBRANCH   6   8
ENDBRANCH   5   6
ENDBRANCH   4   5
ENDBRANCH   3   4
ENDBRANCH   2   3
ENDBRANCH   1   2
BRANCH   1  25
ATOM     25  C   UNL A   1      31.495  30.764  25.897  1.00  0.00     0.261 C 
BRANCH  25  26
ATOM     26  O   UNL A   1      32.542  30.589  26.869  1.00  0.00    -0.460 OA
BRANCH  26  27
ATOM     27  C   UNL A   1      33.166  31.731  27.250  1.00  0.00     0.338 C 
ATOM     28  O   UNL A   1      32.690  32.852  27.326  1.00  0.00    -0.246 OA
BRANCH  27  29
ATOM     29  C   UNL A   1      34.512  31.407  27.752  1.00  0.00     0.060 A 
ATOM     30  C   UNL A   1      34.782  30.082  28.123  1.00  0.00     0.016 A 
ATOM     31  C   UNL A   1      35.471  32.404  27.925  1.00  0.00     0.016 A 
ATOM     32  C   UNL A   1      36.011  29.754  28.694  1.00  0.00     0.010 A 
ATOM     33  C   UNL A   1      36.697  32.076  28.506  1.00  0.00     0.010 A 
ATOM     34  C   UNL A   1      36.964  30.756  28.917  1.00  0.00    -0.014 A 
BRANCH  34  35
ATOM     35  C   UNL A   1      38.193  30.474  29.695  1.00  0.00     0.031 A 
ATOM     36  C   UNL A   1      39.228  29.559  29.106  1.00  0.00     0.074 A 
ATOM     37  C   UNL A   1      38.366  30.991  30.924  1.00  0.00     0.049 A 
ATOM     38  N   UNL A   1      40.292  29.040  29.662  1.00  0.00    -0.248 NA
ATOM     39  C   UNL A   1      39.029  29.168  27.701  1.00  0.00     0.031 C 
ATOM     40  C   UNL A   1      37.457  31.929  31.581  1.00  0.00     0.029 A 
ATOM     41  N   UNL A   1      39.357  30.775  31.848  1.00  0.00    -0.354 N 
ATOM     42  C   UNL A   1      40.879  28.247  28.684  1.00  0.00     0.074 A 
ATOM     43  C   UNL A   1      40.042  28.335  27.508  1.00  0.00     0.031 C 
ATOM     44  C   UNL A   1      37.921  32.188  32.817  1.00  0.00     0.029 A 
ATOM     45  C   UNL A   1      39.129  31.399  33.049  1.00  0.00     0.049 A 
ATOM     46  H   UNL A   1      40.153  30.225  31.667  1.00  0.00     0.167 HD
ATOM     47  C   UNL A   1      42.014  27.514  28.763  1.00  0.00     0.037 A 
ATOM     48  C   UNL A   1      39.799  31.310  34.216  1.00  0.00     0.037 A 
ATOM     49  C   UNL A   1      42.842  27.433  29.937  1.00  0.00     0.049 A 
ATOM     50  C   UNL A   1      41.011  30.420  34.306  1.00  0.00     0.074 A 
ATOM     51  C   UNL A   1      44.023  26.733  30.113  1.00  0.00     0.029 A 
ATOM     52  N   UNL A   1      42.571  28.068  31.139  1.00  0.00    -0.354 N 
ATOM     53  N   UNL A   1      41.567  29.682  33.375  1.00  0.00    -0.248 NA
ATOM     54  C   UNL A   1      41.687  30.345  35.610  1.00  0.00     0.031 C 
ATOM     55  C   UNL A   1      44.436  26.900  31.437  1.00  0.00     0.029 A 
ATOM     56  C   UNL A   1      43.547  27.755  32.070  1.00  0.00     0.049 A 
ATOM     57  H   UNL A   1      41.798  28.656  31.305  1.00  0.00     0.167 HD
ATOM     58  C   UNL A   1      42.676  29.090  33.968  1.00  0.00     0.074 A 
ATOM     59  C   UNL A   1      42.716  29.554  35.339  1.00  0.00     0.031 C 
ATOM     60  C   UNL A   1      43.583  28.242  33.425  1.00  0.00     0.037 A 
BRANCH  47  61
ATOM     61  C   UNL A   1      42.411  26.716  27.555  1.00  0.00     0.057 A 
ATOM     62  C   UNL A   1      43.188  27.263  26.526  1.00  0.00     0.134 A 
ATOM     63  C   UNL A   1      42.040  25.370  27.438  1.00  0.00     0.134 A 
ATOM     64  F   UNL A   1      43.565  28.550  26.569  1.00  0.00    -0.206 F 
ATOM     65  C   UNL A   1      43.560  26.507  25.412  1.00  0.00     0.040 A 
ATOM     66  C   UNL A   1      42.432  24.596  26.345  1.00  0.00     0.040 A 
ATOM     67  F   UNL A   1      41.302  24.782  28.391  1.00  0.00    -0.206 F 
ATOM     68  C   UNL A   1      43.188  25.167  25.324  1.00  0.00     0.006 A 
ENDBRANCH  47  61
BRANCH  48  69
ATOM     69  C   UNL A   1      39.327  32.064  35.405  1.00  0.00     0.057 A 
ATOM     70  C   UNL A   1      39.752  33.376  35.644  1.00  0.00     0.134 A 
ATOM     71  C   UNL A   1      38.460  31.488  36.342  1.00  0.00     0.134 A 
ATOM     72  F   UNL A   1      40.600  33.975  34.796  1.00  0.00    -0.206 F 
ATOM     73  C   UNL A   1      39.351  34.080  36.781  1.00  0.00     0.040 A 
ATOM     74  C   UNL A   1      38.028  32.189  37.468  1.00  0.00     0.040 A 
ATOM     75  F   UNL A   1      38.011  30.235  36.171  1.00  0.00    -0.206 F 
ATOM     76  C   UNL A   1      38.481  33.488  37.694  1.00  0.00     0.006 A 
ENDBRANCH  48  69
BRANCH  60  77
ATOM     77  C   UNL A   1      44.731  27.801  34.286  1.00  0.00     0.057 A 
ATOM     78  C   UNL A   1      45.910  28.548  34.395  1.00  0.00     0.134 A 
ATOM     79  C   UNL A   1      44.621  26.647  35.075  1.00  0.00     0.134 A 
ATOM     80  F   UNL A   1      46.084  29.656  33.659  1.00  0.00    -0.206 F 
ATOM     81  C   UNL A   1      46.944  28.158  35.249  1.00  0.00     0.040 A 
ATOM     82  C   UNL A   1      45.635  26.262  35.952  1.00  0.00     0.040 A 
ATOM     83  F   UNL A   1      43.514  25.891  35.025  1.00  0.00    -0.206 F 
ATOM     84  C   UNL A   1      46.802  27.017  36.039  1.00  0.00     0.006 A 
ENDBRANCH  60  77
ENDBRANCH  34  35
ENDBRANCH  27  29
ENDBRANCH  26  27
ENDBRANCH  25  26
ENDBRANCH   1  25
TORSDOF 16
ENDMDL
MODEL 3
REMARK VINA RESULT:      -9.6      1.194      2.140
REMARK SMILES NC(=O)[C@H]1CC(C(=O)OCCOCCOC(=O)c2ccc(-c3c4nc(c(-c5c(F)cccc5F)c5ccc([nH]5)c(-c5c(F)cccc5F)c5nc(c(-c6c(F)cccc6F)c6ccc3[nH]6)C=C5)C=C4)cc2)=NN1c1ccc(F)cc1
REMARK SMILES IDX 13 1 12 2 11 3 10 4 9 5 7 6 8 7 6 8 4 9 5 10 73 11 72 12
REMARK SMILES IDX 2 13 1 14 3 17 74 18 75 19 80 20 76 21 79 22 77 23 78 24
REMARK SMILES IDX 14 25 15 26 16 27 17 28 18 29 19 30 71 31 20 32 70 33 21 34
REMARK SMILES IDX 22 35 23 36 64 37 24 38 69 39 63 40 65 41 25 42 68 43 62 44
REMARK SMILES IDX 61 45 26 47 52 48 35 49 51 50 36 51 39 52 50 53 66 54 37 55
REMARK SMILES IDX 38 56 49 58 67 59 40 60 27 61 28 62 33 63 29 64 30 65 32 66
REMARK SMILES IDX 34 67 31 68 53 69 54 70 59 71 55 72 56 73 58 74 60 75 57 76
REMARK SMILES IDX 41 77 42 78 47 79 43 80 44 81 46 82 48 83 45 84
REMARK H PARENT 1 15 1 16 65 46 39 57
REMARK Flexibility Score: inf
ROOT
ATOM      1  C   UNL A   1      34.615  34.893  28.903  1.00  0.00     0.202 C 
ENDROOT
BRANCH   1   2
ATOM      2  O   UNL A   1      33.528  34.930  29.829  1.00  0.00    -0.374 OA
BRANCH   2   3
ATOM      3  C   UNL A   1      33.183  36.176  30.424  1.00  0.00     0.202 C 
BRANCH   3   4
ATOM      4  C   UNL A   1      32.178  36.140  31.576  1.00  0.00     0.261 C 
BRANCH   4   5
ATOM      5  O   UNL A   1      32.722  35.451  32.709  1.00  0.00    -0.459 OA
BRANCH   5   6
ATOM      6  C   UNL A   1      33.841  36.004  33.215  1.00  0.00     0.354 C 
ATOM      7  O   UNL A   1      33.974  37.092  33.743  1.00  0.00    -0.245 OA
BRANCH   6   8
ATOM      8  C   UNL A   1      34.975  35.023  33.108  1.00  0.00     0.148 C 
ATOM      9  C   UNL A   1      36.034  33.029  32.792  1.00  0.00     0.203 C 
ATOM     10  C   UNL A   1      34.786  33.591  33.468  1.00  0.00     0.103 C 
ATOM     11  N   UNL A   1      36.888  34.214  32.652  1.00  0.00    -0.252 N 
ATOM     12  N   UNL A   1      36.161  35.371  32.717  1.00  0.00    -0.169 NA
BRANCH   9  13
ATOM     13  C   UNL A   1      36.687  31.957  33.666  1.00  0.00     0.242 C 
ATOM     14  N   UNL A   1      36.673  30.689  33.145  1.00  0.00    -0.368 N 
ATOM     15  H   UNL A   1      37.074  29.946  33.651  1.00  0.00     0.159 HD
ATOM     16  H   UNL A   1      36.261  30.522  32.267  1.00  0.00     0.159 HD
ATOM     17  O   UNL A   1      37.152  32.149  34.785  1.00  0.00    -0.273 OA
ENDBRANCH   9  13
BRANCH  11  18
ATOM     18  C   UNL A   1      38.036  34.250  31.867  1.00  0.00     0.061 A 
ATOM     19  C   UNL A   1      37.948  33.908  30.506  1.00  0.00     0.031 A 
ATOM     20  C   UNL A   1      39.301  34.544  32.395  1.00  0.00     0.031 A 
ATOM     21  C   UNL A   1      39.083  33.879  29.693  1.00  0.00     0.041 A 
ATOM     22  C   UNL A   1      40.443  34.495  31.591  1.00  0.00     0.041 A 
ATOM     23  C   UNL A   1      40.322  34.167  30.246  1.00  0.00     0.123 A 
ATOM     24  F   UNL A   1      41.419  34.115  29.479  1.00  0.00    -0.207 F 
ENDBRANCH  11  18
ENDBRANCH   6   8
ENDBRANCH   5   6
ENDBRANCH   4   5
ENDBRANCH   3   4
ENDBRANCH   2   3
ENDBRANCH   1   2
BRANCH   1  25
ATOM     25  C   UNL A   1      34.818  33.609  28.088  1.00  0.00     0.261 C 
BRANCH  25  26
ATOM     26  O   UNL A   1      34.700  32.413  28.879  1.00  0.00    -0.460 OA
BRANCH  26  27
ATOM     27  C   UNL A   1      34.701  31.256  28.171  1.00  0.00     0.338 C 
ATOM     28  O   UNL A   1      33.911  30.907  27.311  1.00  0.00    -0.246 OA
BRANCH  27  29
ATOM     29  C   UNL A   1      35.937  30.509  28.462  1.00  0.00     0.060 A 
ATOM     30  C   UNL A   1      35.960  29.670  29.584  1.00  0.00     0.016 A 
ATOM     31  C   UNL A   1      37.080  30.687  27.683  1.00  0.00     0.016 A 
ATOM     32  C   UNL A   1      37.140  29.022  29.948  1.00  0.00     0.010 A 
ATOM     33  C   UNL A   1      38.264  30.047  28.056  1.00  0.00     0.010 A 
ATOM     34  C   UNL A   1      38.306  29.232  29.203  1.00  0.00    -0.014 A 
BRANCH  34  35
ATOM     35  C   UNL A   1      39.612  28.716  29.676  1.00  0.00     0.031 A 
ATOM     36  C   UNL A   1      40.357  29.486  30.729  1.00  0.00     0.074 A 
ATOM     37  C   UNL A   1      40.146  27.602  29.146  1.00  0.00     0.049 A 
ATOM     38  N   UNL A   1      41.576  29.322  31.172  1.00  0.00    -0.248 NA
ATOM     39  C   UNL A   1      39.629  30.600  31.360  1.00  0.00     0.031 C 
ATOM     40  C   UNL A   1      39.499  26.743  28.156  1.00  0.00     0.029 A 
ATOM     41  N   UNL A   1      41.372  27.019  29.351  1.00  0.00    -0.354 N 
ATOM     42  C   UNL A   1      41.770  30.321  32.117  1.00  0.00     0.074 A 
ATOM     43  C   UNL A   1      40.552  31.100  32.168  1.00  0.00     0.031 C 
ATOM     44  C   UNL A   1      40.346  25.755  27.819  1.00  0.00     0.029 A 
ATOM     45  C   UNL A   1      41.607  25.941  28.534  1.00  0.00     0.049 A 
ATOM     46  H   UNL A   1      42.018  27.343  30.019  1.00  0.00     0.167 HD
ATOM     47  C   UNL A   1      42.866  30.564  32.875  1.00  0.00     0.037 A 
ATOM     48  C   UNL A   1      42.728  25.214  28.356  1.00  0.00     0.037 A 
ATOM     49  C   UNL A   1      44.073  29.783  32.819  1.00  0.00     0.049 A 
ATOM     50  C   UNL A   1      43.964  25.556  29.147  1.00  0.00     0.074 A 
ATOM     51  C   UNL A   1      45.233  29.936  33.558  1.00  0.00     0.029 A 
ATOM     52  N   UNL A   1      44.279  28.708  31.969  1.00  0.00    -0.354 N 
ATOM     53  N   UNL A   1      44.137  26.493  30.048  1.00  0.00    -0.248 NA
ATOM     54  C   UNL A   1      45.163  24.743  28.894  1.00  0.00     0.031 C 
ATOM     55  C   UNL A   1      46.160  28.988  33.116  1.00  0.00     0.029 A 
ATOM     56  C   UNL A   1      45.557  28.204  32.145  1.00  0.00     0.049 A 
ATOM     57  H   UNL A   1      43.614  28.354  31.334  1.00  0.00     0.167 HD
ATOM     58  C   UNL A   1      45.447  26.357  30.495  1.00  0.00     0.074 A 
ATOM     59  C   UNL A   1      46.024  25.246  29.768  1.00  0.00     0.031 C 
ATOM     60  C   UNL A   1      46.109  27.083  31.428  1.00  0.00     0.037 A 
BRANCH  47  61
ATOM     61  C   UNL A   1      42.820  31.739  33.806  1.00  0.00     0.057 A 
ATOM     62  C   UNL A   1      42.409  31.615  35.140  1.00  0.00     0.134 A 
ATOM     63  C   UNL A   1      43.226  33.008  33.373  1.00  0.00     0.134 A 
ATOM     64  F   UNL A   1      41.994  30.431  35.616  1.00  0.00    -0.206 F 
ATOM     65  C   UNL A   1      42.382  32.714  36.001  1.00  0.00     0.040 A 
ATOM     66  C   UNL A   1      43.232  34.107  34.232  1.00  0.00     0.040 A 
ATOM     67  F   UNL A   1      43.638  33.196  32.110  1.00  0.00    -0.206 F 
ATOM     68  C   UNL A   1      42.801  33.963  35.549  1.00  0.00     0.006 A 
ENDBRANCH  47  61
BRANCH  48  69
ATOM     69  C   UNL A   1      42.748  24.103  27.371  1.00  0.00     0.057 A 
ATOM     70  C   UNL A   1      43.122  24.325  26.040  1.00  0.00     0.134 A 
ATOM     71  C   UNL A   1      42.373  22.801  27.725  1.00  0.00     0.134 A 
ATOM     72  F   UNL A   1      43.470  25.554  25.634  1.00  0.00    -0.206 F 
ATOM     73  C   UNL A   1      43.104  23.298  25.094  1.00  0.00     0.040 A 
ATOM     74  C   UNL A   1      42.377  21.760  26.797  1.00  0.00     0.040 A 
ATOM     75  F   UNL A   1      42.007  22.520  28.985  1.00  0.00    -0.206 F 
ATOM     76  C   UNL A   1      42.735  22.009  25.474  1.00  0.00     0.006 A 
ENDBRANCH  48  69
BRANCH  60  77
ATOM     77  C   UNL A   1      47.513  26.673  31.765  1.00  0.00     0.057 A 
ATOM     78  C   UNL A   1      48.628  27.256  31.149  1.00  0.00     0.134 A 
ATOM     79  C   UNL A   1      47.752  25.731  32.775  1.00  0.00     0.134 A 
ATOM     80  F   UNL A   1      48.469  28.155  30.166  1.00  0.00    -0.206 F 
ATOM     81  C   UNL A   1      49.929  26.909  31.518  1.00  0.00     0.040 A 
ATOM     82  C   UNL A   1      49.047  25.397  33.172  1.00  0.00     0.040 A 
ATOM     83  F   UNL A   1      46.729  25.141  33.412  1.00  0.00    -0.206 F 
ATOM     84  C   UNL A   1      50.140  25.985  32.541  1.00  0.00     0.006 A 
ENDBRANCH  60  77
ENDBRANCH  34  35
ENDBRANCH  27  29
ENDBRANCH  26  27
ENDBRANCH  25  26
ENDBRANCH   1  25
TORSDOF 16
ENDMDL
