MODEL 1
REMARK VINA RESULT:     -13.5      0.000      0.000
REMARK SMILES CC[C@@H](C)[C@H](NC(=O)C1CCN(C(=O)OC(C)(C)C)CC1)C(=O)OCCOCCOC(=O)c1ccc(-c2c3nc(c(-c4c(F)cccc4F)c4ccc([nH]4)c(-c4c(F)cccc4F)c4nc(c(-c5c(F)cccc5F)c5ccc2[nH]5)C=C4)C=C3)cc1
REMARK SMILES IDX 26 1 25 2 24 3 22 4 23 5 5 6 3 7 4 8 2 9 1 10 6 11 7 12 8 14
REMARK SMILES IDX 9 15 10 16 21 17 11 18 20 19 12 20 13 21 14 22 15 23 16 24
REMARK SMILES IDX 17 25 18 26 19 27 27 28 28 29 29 30 30 31 31 32 32 33 33 34
REMARK SMILES IDX 34 35 86 36 35 37 85 38 36 39 37 40 38 41 79 42 39 43 84 44
REMARK SMILES IDX 78 45 80 46 40 47 83 48 77 49 76 50 41 52 67 53 50 54 66 55
REMARK SMILES IDX 51 56 54 57 65 58 81 59 52 60 53 61 64 63 82 64 55 65 42 66
REMARK SMILES IDX 43 67 48 68 44 69 45 70 47 71 49 72 46 73 68 74 69 75 74 76
REMARK SMILES IDX 70 77 71 78 73 79 75 80 72 81 56 82 57 83 62 84 58 85 59 86
REMARK SMILES IDX 61 87 63 88 60 89
REMARK H PARENT 6 13 80 51 54 62
REMARK Flexibility Score: inf
ROOT
ATOM      1  C   UNL A   1      34.870  31.365  27.846  1.00  0.00     0.202 C 
ENDROOT
BRANCH   1   2
ATOM      2  C   UNL A   1      34.152  29.784  27.616  1.00  0.00     0.261 C 
BRANCH   2   3
ATOM      3  O   UNL A   1      32.683  29.597  27.252  1.00  0.00    -0.462 OA
BRANCH   3   4
ATOM      4  C   UNL A   1      32.060  28.365  27.119  1.00  0.00     0.328 C 
ATOM      5  O   UNL A   1      31.709  27.725  28.107  1.00  0.00    -0.250 OA
BRANCH   4   6
ATOM      6  C   UNL A   1      31.805  27.760  25.513  1.00  0.00     0.195 C 
BRANCH   6   7
ATOM      7  C   UNL A   1      33.173  27.394  24.864  1.00  0.00     0.019 C 
ATOM      8  C   UNL A   1      34.065  26.574  25.802  1.00  0.00     0.010 C 
BRANCH   7   9
ATOM      9  C   UNL A   1      33.847  28.650  24.281  1.00  0.00     0.002 C 
ATOM     10  C   UNL A   1      33.869  28.738  22.767  1.00  0.00     0.004 C 
ENDBRANCH   7   9
ENDBRANCH   6   7
BRANCH   6  11
ATOM     11  N   UNL A   1      30.760  28.167  24.269  1.00  0.00    -0.342 N 
ATOM     12  C   UNL A   1      30.068  27.555  23.155  1.00  0.00     0.223 C 
ATOM     13  H   UNL A   1      30.550  29.128  24.308  1.00  0.00     0.164 HD
ATOM     14  O   UNL A   1      28.949  28.024  22.924  1.00  0.00    -0.275 OA
BRANCH  12  15
ATOM     15  C   UNL A   1      30.762  26.292  22.191  1.00  0.00     0.082 C 
ATOM     16  C   UNL A   1      30.023  25.259  23.213  1.00  0.00     0.035 C 
ATOM     17  C   UNL A   1      32.545  25.647  21.590  1.00  0.00     0.035 C 
ATOM     18  C   UNL A   1      31.080  24.371  24.665  1.00  0.00     0.124 C 
ATOM     19  C   UNL A   1      33.626  24.517  22.766  1.00  0.00     0.124 C 
ATOM     20  N   UNL A   1      32.791  23.826  24.244  1.00  0.00    -0.308 N 
ATOM     21  C   UNL A   1      33.288  22.644  24.729  1.00  0.00     0.410 C 
ATOM     22  O   UNL A   1      32.614  21.830  25.384  1.00  0.00    -0.224 OA
BRANCH  21  23
ATOM     23  O   UNL A   1      34.539  22.446  24.288  1.00  0.00    -0.444 OA
BRANCH  23  24
ATOM     24  C   UNL A   1      35.705  22.453  25.144  1.00  0.00     0.106 C 
ATOM     25  C   UNL A   1      36.253  21.064  25.470  1.00  0.00     0.056 C 
ATOM     26  C   UNL A   1      36.777  23.346  24.508  1.00  0.00     0.056 C 
ATOM     27  C   UNL A   1      35.200  23.114  26.434  1.00  0.00     0.056 C 
ENDBRANCH  23  24
ENDBRANCH  21  23
ENDBRANCH  12  15
ENDBRANCH   6  11
ENDBRANCH   4   6
ENDBRANCH   3   4
ENDBRANCH   2   3
ENDBRANCH   1   2
BRANCH   1  28
ATOM     28  O   UNL A   1      34.068  32.808  27.970  1.00  0.00    -0.374 OA
BRANCH  28  29
ATOM     29  C   UNL A   1      33.654  34.349  29.055  1.00  0.00     0.202 C 
BRANCH  29  30
ATOM     30  C   UNL A   1      34.181  34.602  30.732  1.00  0.00     0.261 C 
BRANCH  30  31
ATOM     31  O   UNL A   1      35.075  33.586  31.345  1.00  0.00    -0.460 OA
BRANCH  31  32
ATOM     32  C   UNL A   1      36.318  33.832  31.856  1.00  0.00     0.338 C 
ATOM     33  O   UNL A   1      36.556  34.521  32.834  1.00  0.00    -0.246 OA
BRANCH  32  34
ATOM     34  C   UNL A   1      37.311  32.827  31.302  1.00  0.00     0.060 A 
ATOM     35  C   UNL A   1      37.982  31.944  32.177  1.00  0.00     0.016 A 
ATOM     36  C   UNL A   1      37.626  32.756  29.948  1.00  0.00     0.016 A 
ATOM     37  C   UNL A   1      38.873  30.957  31.722  1.00  0.00     0.010 A 
ATOM     38  C   UNL A   1      38.605  31.838  29.499  1.00  0.00     0.010 A 
ATOM     39  C   UNL A   1      39.242  30.939  30.379  1.00  0.00    -0.014 A 
BRANCH  39  40
ATOM     40  C   UNL A   1      40.494  30.242  29.953  1.00  0.00     0.031 A 
ATOM     41  C   UNL A   1      41.732  31.092  29.807  1.00  0.00     0.074 A 
ATOM     42  C   UNL A   1      40.560  28.930  29.657  1.00  0.00     0.049 A 
ATOM     43  N   UNL A   1      42.862  30.833  29.200  1.00  0.00    -0.248 NA
ATOM     44  C   UNL A   1      41.674  32.426  30.425  1.00  0.00     0.031 C 
ATOM     45  C   UNL A   1      39.495  27.953  29.858  1.00  0.00     0.029 A 
ATOM     46  N   UNL A   1      41.580  28.200  29.084  1.00  0.00    -0.354 N 
ATOM     47  C   UNL A   1      43.624  31.990  29.318  1.00  0.00     0.074 A 
ATOM     48  C   UNL A   1      42.837  32.944  30.066  1.00  0.00     0.031 C 
ATOM     49  C   UNL A   1      39.897  26.763  29.369  1.00  0.00     0.029 A 
ATOM     50  C   UNL A   1      41.225  26.907  28.772  1.00  0.00     0.049 A 
ATOM     51  H   UNL A   1      42.477  28.568  28.915  1.00  0.00     0.167 HD
ATOM     52  C   UNL A   1      44.858  32.248  28.826  1.00  0.00     0.037 A 
ATOM     53  C   UNL A   1      41.872  25.974  28.041  1.00  0.00     0.037 A 
ATOM     54  C   UNL A   1      45.641  31.301  28.079  1.00  0.00     0.049 A 
ATOM     55  C   UNL A   1      43.210  26.307  27.420  1.00  0.00     0.074 A 
ATOM     56  C   UNL A   1      46.901  31.463  27.535  1.00  0.00     0.029 A 
ATOM     57  N   UNL A   1      45.232  30.013  27.771  1.00  0.00    -0.354 N 
ATOM     58  N   UNL A   1      43.910  27.413  27.500  1.00  0.00    -0.248 NA
ATOM     59  C   UNL A   1      43.841  25.263  26.594  1.00  0.00     0.031 C 
ATOM     60  C   UNL A   1      47.236  30.288  26.855  1.00  0.00     0.029 A 
ATOM     61  C   UNL A   1      46.207  29.375  27.026  1.00  0.00     0.049 A 
ATOM     62  H   UNL A   1      44.374  29.611  28.043  1.00  0.00     0.167 HD
ATOM     63  C   UNL A   1      45.072  27.187  26.767  1.00  0.00     0.074 A 
ATOM     64  C   UNL A   1      44.987  25.836  26.256  1.00  0.00     0.031 C 
ATOM     65  C   UNL A   1      46.117  28.022  26.540  1.00  0.00     0.037 A 
BRANCH  52  66
ATOM     66  C   UNL A   1      45.405  33.631  29.026  1.00  0.00     0.057 A 
ATOM     67  C   UNL A   1      46.197  33.968  30.132  1.00  0.00     0.134 A 
ATOM     68  C   UNL A   1      45.138  34.639  28.091  1.00  0.00     0.134 A 
ATOM     69  F   UNL A   1      46.471  33.056  31.076  1.00  0.00    -0.206 F 
ATOM     70  C   UNL A   1      46.682  35.265  30.311  1.00  0.00     0.040 A 
ATOM     71  C   UNL A   1      45.642  35.931  28.245  1.00  0.00     0.040 A 
ATOM     72  F   UNL A   1      44.386  34.384  27.010  1.00  0.00    -0.206 F 
ATOM     73  C   UNL A   1      46.411  36.249  29.362  1.00  0.00     0.006 A 
ENDBRANCH  52  66
BRANCH  53  74
ATOM     74  C   UNL A   1      41.255  24.639  27.800  1.00  0.00     0.057 A 
ATOM     75  C   UNL A   1      41.715  23.496  28.465  1.00  0.00     0.134 A 
ATOM     76  C   UNL A   1      40.228  24.463  26.863  1.00  0.00     0.134 A 
ATOM     77  F   UNL A   1      42.724  23.588  29.343  1.00  0.00    -0.206 F 
ATOM     78  C   UNL A   1      41.186  22.229  28.203  1.00  0.00     0.040 A 
ATOM     79  C   UNL A   1      39.670  23.207  26.611  1.00  0.00     0.040 A 
ATOM     80  F   UNL A   1      39.749  25.511  26.177  1.00  0.00    -0.206 F 
ATOM     81  C   UNL A   1      40.154  22.084  27.279  1.00  0.00     0.006 A 
ENDBRANCH  53  74
BRANCH  65  82
ATOM     82  C   UNL A   1      47.279  27.486  25.755  1.00  0.00     0.057 A 
ATOM     83  C   UNL A   1      48.340  26.805  26.364  1.00  0.00     0.134 A 
ATOM     84  C   UNL A   1      47.308  27.610  24.359  1.00  0.00     0.134 A 
ATOM     85  F   UNL A   1      48.378  26.659  27.698  1.00  0.00    -0.206 F 
ATOM     86  C   UNL A   1      49.398  26.285  25.616  1.00  0.00     0.040 A 
ATOM     87  C   UNL A   1      48.346  27.070  23.598  1.00  0.00     0.040 A 
ATOM     88  F   UNL A   1      46.317  28.240  23.711  1.00  0.00    -0.206 F 
ATOM     89  C   UNL A   1      49.399  26.411  24.227  1.00  0.00     0.006 A 
ENDBRANCH  65  82
ENDBRANCH  39  40
ENDBRANCH  32  34
ENDBRANCH  31  32
ENDBRANCH  30  31
ENDBRANCH  29  30
ENDBRANCH  28  29
ENDBRANCH   1  28
TORSDOF 20
ENDMDL
MODEL 2
REMARK VINA RESULT:     -13.4      4.043      6.782
REMARK SMILES CC[C@@H](C)[C@H](NC(=O)C1CCN(C(=O)OC(C)(C)C)CC1)C(=O)OCCOCCOC(=O)c1ccc(-c2c3nc(c(-c4c(F)cccc4F)c4ccc([nH]4)c(-c4c(F)cccc4F)c4nc(c(-c5c(F)cccc5F)c5ccc2[nH]5)C=C4)C=C3)cc1
REMARK SMILES IDX 26 1 25 2 24 3 22 4 23 5 5 6 3 7 4 8 2 9 1 10 6 11 7 12 8 14
REMARK SMILES IDX 9 15 10 16 21 17 11 18 20 19 12 20 13 21 14 22 15 23 16 24
REMARK SMILES IDX 17 25 18 26 19 27 27 28 28 29 29 30 30 31 31 32 32 33 33 34
REMARK SMILES IDX 34 35 86 36 35 37 85 38 36 39 37 40 38 41 79 42 39 43 84 44
REMARK SMILES IDX 78 45 80 46 40 47 83 48 77 49 76 50 41 52 67 53 50 54 66 55
REMARK SMILES IDX 51 56 54 57 65 58 81 59 52 60 53 61 64 63 82 64 55 65 42 66
REMARK SMILES IDX 43 67 48 68 44 69 45 70 47 71 49 72 46 73 68 74 69 75 74 76
REMARK SMILES IDX 70 77 71 78 73 79 75 80 72 81 56 82 57 83 62 84 58 85 59 86
REMARK SMILES IDX 61 87 63 88 60 89
REMARK H PARENT 6 13 80 51 54 62
REMARK Flexibility Score: inf
ROOT
ATOM      1  C   UNL A   1      33.913  28.491  26.973  1.00  0.00     0.202 C 
ENDROOT
BRANCH   1   2
ATOM      2  C   UNL A   1      33.041  27.083  26.404  1.00  0.00     0.261 C 
BRANCH   2   3
ATOM      3  O   UNL A   1      33.669  25.695  26.358  1.00  0.00    -0.462 OA
BRANCH   3   4
ATOM      4  C   UNL A   1      34.374  25.189  25.276  1.00  0.00     0.328 C 
ATOM      5  O   UNL A   1      34.423  25.801  24.212  1.00  0.00    -0.250 OA
BRANCH   4   6
ATOM      6  C   UNL A   1      35.174  23.663  25.476  1.00  0.00     0.195 C 
BRANCH   6   7
ATOM      7  C   UNL A   1      36.593  23.723  24.837  1.00  0.00     0.019 C 
ATOM      8  C   UNL A   1      36.663  22.986  23.496  1.00  0.00     0.010 C 
BRANCH   7   9
ATOM      9  C   UNL A   1      37.664  23.291  25.857  1.00  0.00     0.002 C 
ATOM     10  C   UNL A   1      38.281  21.926  25.619  1.00  0.00     0.004 C 
ENDBRANCH   7   9
ENDBRANCH   6   7
BRANCH   6  11
ATOM     11  N   UNL A   1      34.669  22.067  25.409  1.00  0.00    -0.342 N 
ATOM     12  C   UNL A   1      33.641  21.253  24.797  1.00  0.00     0.223 C 
ATOM     13  H   UNL A   1      35.260  21.504  25.960  1.00  0.00     0.164 HD
ATOM     14  O   UNL A   1      34.007  20.118  24.474  1.00  0.00    -0.275 OA
BRANCH  12  15
ATOM     15  C   UNL A   1      32.012  21.802  24.569  1.00  0.00     0.082 C 
ATOM     16  C   UNL A   1      32.394  21.925  22.989  1.00  0.00     0.035 C 
ATOM     17  C   UNL A   1      30.798  23.250  25.190  1.00  0.00     0.035 C 
ATOM     18  C   UNL A   1      32.829  23.718  22.208  1.00  0.00     0.124 C 
ATOM     19  C   UNL A   1      30.871  25.016  24.351  1.00  0.00     0.124 C 
ATOM     20  N   UNL A   1      31.830  25.154  22.796  1.00  0.00    -0.308 N 
ATOM     21  C   UNL A   1      31.443  26.139  21.925  1.00  0.00     0.410 C 
ATOM     22  O   UNL A   1      31.643  26.093  20.698  1.00  0.00    -0.224 OA
BRANCH  21  23
ATOM     23  O   UNL A   1      30.720  27.071  22.563  1.00  0.00    -0.444 OA
BRANCH  23  24
ATOM     24  C   UNL A   1      31.203  28.401  22.861  1.00  0.00     0.106 C 
ATOM     25  C   UNL A   1      32.719  28.559  22.744  1.00  0.00     0.056 C 
ATOM     26  C   UNL A   1      30.464  29.406  21.969  1.00  0.00     0.056 C 
ATOM     27  C   UNL A   1      30.782  28.618  24.321  1.00  0.00     0.056 C 
ENDBRANCH  23  24
ENDBRANCH  21  23
ENDBRANCH  12  15
ENDBRANCH   6  11
ENDBRANCH   4   6
ENDBRANCH   3   4
ENDBRANCH   2   3
ENDBRANCH   1   2
BRANCH   1  28
ATOM     28  O   UNL A   1      33.398  30.064  26.919  1.00  0.00    -0.374 OA
BRANCH  28  29
ATOM     29  C   UNL A   1      31.960  31.291  26.535  1.00  0.00     0.202 C 
BRANCH  29  30
ATOM     30  C   UNL A   1      31.750  32.895  27.268  1.00  0.00     0.261 C 
BRANCH  30  31
ATOM     31  O   UNL A   1      32.925  33.804  27.311  1.00  0.00    -0.460 OA
BRANCH  31  32
ATOM     32  C   UNL A   1      33.260  34.612  28.360  1.00  0.00     0.338 C 
ATOM     33  O   UNL A   1      32.603  35.559  28.762  1.00  0.00    -0.246 OA
BRANCH  32  34
ATOM     34  C   UNL A   1      34.331  33.944  29.203  1.00  0.00     0.060 A 
ATOM     35  C   UNL A   1      35.690  34.050  28.829  1.00  0.00     0.016 A 
ATOM     36  C   UNL A   1      34.031  33.186  30.330  1.00  0.00     0.016 A 
ATOM     37  C   UNL A   1      36.732  33.500  29.595  1.00  0.00     0.010 A 
ATOM     38  C   UNL A   1      35.067  32.537  31.041  1.00  0.00     0.010 A 
ATOM     39  C   UNL A   1      36.423  32.680  30.678  1.00  0.00    -0.014 A 
BRANCH  39  40
ATOM     40  C   UNL A   1      37.441  31.726  31.214  1.00  0.00     0.031 A 
ATOM     41  C   UNL A   1      37.934  31.973  32.618  1.00  0.00     0.074 A 
ATOM     42  C   UNL A   1      37.961  30.706  30.506  1.00  0.00     0.049 A 
ATOM     43  N   UNL A   1      38.988  31.501  33.233  1.00  0.00    -0.248 NA
ATOM     44  C   UNL A   1      37.126  32.895  33.432  1.00  0.00     0.031 C 
ATOM     45  C   UNL A   1      37.512  30.260  29.191  1.00  0.00     0.029 A 
ATOM     46  N   UNL A   1      39.021  29.873  30.797  1.00  0.00    -0.354 N 
ATOM     47  C   UNL A   1      38.996  32.111  34.483  1.00  0.00     0.074 A 
ATOM     48  C   UNL A   1      37.836  32.971  34.545  1.00  0.00     0.031 C 
ATOM     49  C   UNL A   1      38.322  29.271  28.766  1.00  0.00     0.029 A 
ATOM     50  C   UNL A   1      39.378  29.050  29.754  1.00  0.00     0.049 A 
ATOM     51  H   UNL A   1      39.478  29.868  31.669  1.00  0.00     0.167 HD
ATOM     52  C   UNL A   1      39.900  31.987  35.483  1.00  0.00     0.037 A 
ATOM     53  C   UNL A   1      40.461  28.259  29.594  1.00  0.00     0.037 A 
ATOM     54  C   UNL A   1      41.055  31.133  35.422  1.00  0.00     0.049 A 
ATOM     55  C   UNL A   1      41.511  28.200  30.681  1.00  0.00     0.074 A 
ATOM     56  C   UNL A   1      42.034  30.937  36.379  1.00  0.00     0.029 A 
ATOM     57  N   UNL A   1      41.386  30.335  34.338  1.00  0.00    -0.354 N 
ATOM     58  N   UNL A   1      41.536  28.806  31.844  1.00  0.00    -0.248 NA
ATOM     59  C   UNL A   1      42.691  27.358  30.425  1.00  0.00     0.031 C 
ATOM     60  C   UNL A   1      42.984  30.055  35.854  1.00  0.00     0.029 A 
ATOM     61  C   UNL A   1      42.566  29.659  34.594  1.00  0.00     0.049 A 
ATOM     62  H   UNL A   1      40.859  30.260  33.509  1.00  0.00     0.167 HD
ATOM     63  C   UNL A   1      42.709  28.393  32.469  1.00  0.00     0.074 A 
ATOM     64  C   UNL A   1      43.367  27.479  31.559  1.00  0.00     0.031 C 
ATOM     65  C   UNL A   1      43.198  28.737  33.686  1.00  0.00     0.037 A 
BRANCH  52  66
ATOM     66  C   UNL A   1      39.706  32.845  36.698  1.00  0.00     0.057 A 
ATOM     67  C   UNL A   1      38.778  32.525  37.699  1.00  0.00     0.134 A 
ATOM     68  C   UNL A   1      40.467  34.009  36.872  1.00  0.00     0.134 A 
ATOM     69  F   UNL A   1      38.001  31.438  37.584  1.00  0.00    -0.206 F 
ATOM     70  C   UNL A   1      38.598  33.346  38.815  1.00  0.00     0.040 A 
ATOM     71  C   UNL A   1      40.316  34.820  37.996  1.00  0.00     0.040 A 
ATOM     72  F   UNL A   1      41.372  34.374  35.951  1.00  0.00    -0.206 F 
ATOM     73  C   UNL A   1      39.374  34.493  38.969  1.00  0.00     0.006 A 
ENDBRANCH  52  66
BRANCH  53  74
ATOM     74  C   UNL A   1      40.655  27.485  28.335  1.00  0.00     0.057 A 
ATOM     75  C   UNL A   1      41.367  28.022  27.256  1.00  0.00     0.134 A 
ATOM     76  C   UNL A   1      40.092  26.214  28.160  1.00  0.00     0.134 A 
ATOM     77  F   UNL A   1      41.896  29.251  27.342  1.00  0.00    -0.206 F 
ATOM     78  C   UNL A   1      41.505  27.331  26.048  1.00  0.00     0.040 A 
ATOM     79  C   UNL A   1      40.244  25.500  26.969  1.00  0.00     0.040 A 
ATOM     80  F   UNL A   1      39.383  25.644  29.146  1.00  0.00    -0.206 F 
ATOM     81  C   UNL A   1      40.949  26.062  25.906  1.00  0.00     0.006 A 
ENDBRANCH  53  74
BRANCH  65  82
ATOM     82  C   UNL A   1      44.472  28.083  34.136  1.00  0.00     0.057 A 
ATOM     83  C   UNL A   1      45.725  28.676  33.939  1.00  0.00     0.134 A 
ATOM     84  C   UNL A   1      44.436  26.863  34.827  1.00  0.00     0.134 A 
ATOM     85  F   UNL A   1      45.831  29.838  33.277  1.00  0.00    -0.206 F 
ATOM     86  C   UNL A   1      46.899  28.069  34.393  1.00  0.00     0.040 A 
ATOM     87  C   UNL A   1      45.600  26.262  35.309  1.00  0.00     0.040 A 
ATOM     88  F   UNL A   1      43.269  26.248  35.062  1.00  0.00    -0.206 F 
ATOM     89  C   UNL A   1      46.837  26.861  35.086  1.00  0.00     0.006 A 
ENDBRANCH  65  82
ENDBRANCH  39  40
ENDBRANCH  32  34
ENDBRANCH  31  32
ENDBRANCH  30  31
ENDBRANCH  29  30
ENDBRANCH  28  29
ENDBRANCH   1  28
TORSDOF 20
ENDMDL
MODEL 3
REMARK VINA RESULT:     -13.4      4.705      7.116
REMARK SMILES CC[C@@H](C)[C@H](NC(=O)C1CCN(C(=O)OC(C)(C)C)CC1)C(=O)OCCOCCOC(=O)c1ccc(-c2c3nc(c(-c4c(F)cccc4F)c4ccc([nH]4)c(-c4c(F)cccc4F)c4nc(c(-c5c(F)cccc5F)c5ccc2[nH]5)C=C4)C=C3)cc1
REMARK SMILES IDX 26 1 25 2 24 3 22 4 23 5 5 6 3 7 4 8 2 9 1 10 6 11 7 12 8 14
REMARK SMILES IDX 9 15 10 16 21 17 11 18 20 19 12 20 13 21 14 22 15 23 16 24
REMARK SMILES IDX 17 25 18 26 19 27 27 28 28 29 29 30 30 31 31 32 32 33 33 34
REMARK SMILES IDX 34 35 86 36 35 37 85 38 36 39 37 40 38 41 79 42 39 43 84 44
REMARK SMILES IDX 78 45 80 46 40 47 83 48 77 49 76 50 41 52 67 53 50 54 66 55
REMARK SMILES IDX 51 56 54 57 65 58 81 59 52 60 53 61 64 63 82 64 55 65 42 66
REMARK SMILES IDX 43 67 48 68 44 69 45 70 47 71 49 72 46 73 68 74 69 75 74 76
REMARK SMILES IDX 70 77 71 78 73 79 75 80 72 81 56 82 57 83 62 84 58 85 59 86
REMARK SMILES IDX 61 87 63 88 60 89
REMARK H PARENT 6 13 80 51 54 62
REMARK Flexibility Score: inf
ROOT
ATOM      1  C   UNL A   1      35.272  31.407  27.841  1.00  0.00     0.202 C 
ENDROOT
BRANCH   1   2
ATOM      2  C   UNL A   1      33.767  30.616  27.425  1.00  0.00     0.261 C 
BRANCH   2   3
ATOM      3  O   UNL A   1      33.459  29.178  27.828  1.00  0.00    -0.462 OA
BRANCH   3   4
ATOM      4  C   UNL A   1      32.401  28.433  27.326  1.00  0.00     0.328 C 
ATOM      5  O   UNL A   1      31.605  27.880  28.079  1.00  0.00    -0.250 OA
BRANCH   4   6
ATOM      6  C   UNL A   1      32.251  28.307  25.602  1.00  0.00     0.195 C 
BRANCH   6   7
ATOM      7  C   UNL A   1      33.638  27.976  24.975  1.00  0.00     0.019 C 
ATOM      8  C   UNL A   1      33.997  28.917  23.821  1.00  0.00     0.010 C 
BRANCH   7   9
ATOM      9  C   UNL A   1      33.731  26.478  24.628  1.00  0.00     0.002 C 
ATOM     10  C   UNL A   1      34.401  25.605  25.671  1.00  0.00     0.004 C 
ENDBRANCH   7   9
ENDBRANCH   6   7
BRANCH   6  11
ATOM     11  N   UNL A   1      31.372  29.142  24.447  1.00  0.00    -0.342 N 
ATOM     12  C   UNL A   1      30.313  28.924  23.486  1.00  0.00     0.223 C 
ATOM     13  H   UNL A   1      31.672  30.079  24.410  1.00  0.00     0.164 HD
ATOM     14  O   UNL A   1      29.551  29.884  23.333  1.00  0.00    -0.275 OA
BRANCH  12  15
ATOM     15  C   UNL A   1      30.143  27.451  22.585  1.00  0.00     0.082 C 
ATOM     16  C   UNL A   1      29.190  26.946  23.807  1.00  0.00     0.035 C 
ATOM     17  C   UNL A   1      31.268  25.999  21.826  1.00  0.00     0.035 C 
ATOM     18  C   UNL A   1      29.928  25.703  25.195  1.00  0.00     0.124 C 
ATOM     19  C   UNL A   1      31.864  24.524  22.965  1.00  0.00     0.124 C 
ATOM     20  N   UNL A   1      31.071  24.378  24.611  1.00  0.00    -0.308 N 
ATOM     21  C   UNL A   1      31.019  23.121  25.154  1.00  0.00     0.410 C 
ATOM     22  O   UNL A   1      30.164  22.762  25.982  1.00  0.00    -0.224 OA
BRANCH  21  23
ATOM     23  O   UNL A   1      31.927  22.322  24.574  1.00  0.00    -0.444 OA
BRANCH  23  24
ATOM     24  C   UNL A   1      33.067  21.763  25.266  1.00  0.00     0.106 C 
ATOM     25  C   UNL A   1      34.404  21.989  24.559  1.00  0.00     0.056 C 
ATOM     26  C   UNL A   1      33.090  22.306  26.699  1.00  0.00     0.056 C 
ATOM     27  C   UNL A   1      32.763  20.259  25.302  1.00  0.00     0.056 C 
ENDBRANCH  23  24
ENDBRANCH  21  23
ENDBRANCH  12  15
ENDBRANCH   6  11
ENDBRANCH   4   6
ENDBRANCH   3   4
ENDBRANCH   2   3
ENDBRANCH   1   2
BRANCH   1  28
ATOM     28  O   UNL A   1      35.461  32.969  28.358  1.00  0.00    -0.374 OA
BRANCH  28  29
ATOM     29  C   UNL A   1      34.652  34.698  28.635  1.00  0.00     0.202 C 
BRANCH  29  30
ATOM     30  C   UNL A   1      33.084  34.989  29.417  1.00  0.00     0.261 C 
BRANCH  30  31
ATOM     31  O   UNL A   1      32.982  36.116  30.380  1.00  0.00    -0.460 OA
BRANCH  31  32
ATOM     32  C   UNL A   1      32.678  35.997  31.706  1.00  0.00     0.338 C 
ATOM     33  O   UNL A   1      31.583  36.209  32.203  1.00  0.00    -0.246 OA
BRANCH  32  34
ATOM     34  C   UNL A   1      33.752  35.188  32.410  1.00  0.00     0.060 A 
ATOM     35  C   UNL A   1      35.100  35.611  32.357  1.00  0.00     0.016 A 
ATOM     36  C   UNL A   1      33.474  34.006  33.088  1.00  0.00     0.016 A 
ATOM     37  C   UNL A   1      36.132  34.936  33.030  1.00  0.00     0.010 A 
ATOM     38  C   UNL A   1      34.526  33.263  33.673  1.00  0.00     0.010 A 
ATOM     39  C   UNL A   1      35.862  33.714  33.644  1.00  0.00    -0.014 A 
BRANCH  39  40
ATOM     40  C   UNL A   1      36.975  32.765  33.951  1.00  0.00     0.031 A 
ATOM     41  C   UNL A   1      37.717  32.981  35.246  1.00  0.00     0.074 A 
ATOM     42  C   UNL A   1      37.366  31.774  33.127  1.00  0.00     0.049 A 
ATOM     43  N   UNL A   1      38.873  32.511  35.640  1.00  0.00    -0.248 NA
ATOM     44  C   UNL A   1      37.064  33.864  36.225  1.00  0.00     0.031 C 
ATOM     45  C   UNL A   1      36.685  31.358  31.905  1.00  0.00     0.029 A 
ATOM     46  N   UNL A   1      38.472  30.953  33.190  1.00  0.00    -0.354 N 
ATOM     47  C   UNL A   1      39.106  33.084  36.885  1.00  0.00     0.074 A 
ATOM     48  C   UNL A   1      37.968  33.921  37.188  1.00  0.00     0.031 C 
ATOM     49  C   UNL A   1      37.414  30.396  31.306  1.00  0.00     0.029 A 
ATOM     50  C   UNL A   1      38.640  30.167  32.073  1.00  0.00     0.049 A 
ATOM     51  H   UNL A   1      39.084  30.931  33.961  1.00  0.00     0.167 HD
ATOM     52  C   UNL A   1      40.183  32.949  37.694  1.00  0.00     0.037 A 
ATOM     53  C   UNL A   1      39.683  29.400  31.690  1.00  0.00     0.037 A 
ATOM     54  C   UNL A   1      41.317  32.118  37.393  1.00  0.00     0.049 A 
ATOM     55  C   UNL A   1      40.918  29.330  32.561  1.00  0.00     0.074 A 
ATOM     56  C   UNL A   1      42.459  31.913  38.145  1.00  0.00     0.029 A 
ATOM     57  N   UNL A   1      41.450  31.358  36.242  1.00  0.00    -0.354 N 
ATOM     58  N   UNL A   1      41.152  29.903  33.717  1.00  0.00    -0.248 NA
ATOM     59  C   UNL A   1      42.040  28.517  32.064  1.00  0.00     0.031 C 
ATOM     60  C   UNL A   1      43.306  31.064  37.425  1.00  0.00     0.029 A 
ATOM     61  C   UNL A   1      42.666  30.696  36.253  1.00  0.00     0.049 A 
ATOM     62  H   UNL A   1      40.779  31.296  35.523  1.00  0.00     0.167 HD
ATOM     63  C   UNL A   1      42.426  29.494  34.099  1.00  0.00     0.074 A 
ATOM     64  C   UNL A   1      42.914  28.618  33.055  1.00  0.00     0.031 C 
ATOM     65  C   UNL A   1      43.129  29.812  35.215  1.00  0.00     0.037 A 
BRANCH  52  66
ATOM     66  C   UNL A   1      40.208  33.768  38.951  1.00  0.00     0.057 A 
ATOM     67  C   UNL A   1      40.871  35.001  39.027  1.00  0.00     0.134 A 
ATOM     68  C   UNL A   1      39.549  33.318  40.103  1.00  0.00     0.134 A 
ATOM     69  F   UNL A   1      41.540  35.479  37.968  1.00  0.00    -0.206 F 
ATOM     70  C   UNL A   1      40.898  35.741  40.211  1.00  0.00     0.040 A 
ATOM     71  C   UNL A   1      39.546  34.063  41.282  1.00  0.00     0.040 A 
ATOM     72  F   UNL A   1      38.896  32.146  40.099  1.00  0.00    -0.206 F 
ATOM     73  C   UNL A   1      40.228  35.275  41.340  1.00  0.00     0.006 A 
ENDBRANCH  52  66
BRANCH  53  74
ATOM     74  C   UNL A   1      39.649  28.666  30.394  1.00  0.00     0.057 A 
ATOM     75  C   UNL A   1      40.119  29.255  29.214  1.00  0.00     0.134 A 
ATOM     76  C   UNL A   1      39.100  27.381  30.292  1.00  0.00     0.134 A 
ATOM     77  F   UNL A   1      40.619  30.499  29.234  1.00  0.00    -0.206 F 
ATOM     78  C   UNL A   1      40.038  28.600  27.981  1.00  0.00     0.040 A 
ATOM     79  C   UNL A   1      39.037  26.704  29.071  1.00  0.00     0.040 A 
ATOM     80  F   UNL A   1      38.615  26.762  31.378  1.00  0.00    -0.206 F 
ATOM     81  C   UNL A   1      39.502  27.317  27.909  1.00  0.00     0.006 A 
ENDBRANCH  53  74
BRANCH  65  82
ATOM     82  C   UNL A   1      44.473  29.169  35.399  1.00  0.00     0.057 A 
ATOM     83  C   UNL A   1      45.656  29.771  34.953  1.00  0.00     0.134 A 
ATOM     84  C   UNL A   1      44.587  27.951  36.084  1.00  0.00     0.134 A 
ATOM     85  F   UNL A   1      45.616  30.932  34.282  1.00  0.00    -0.206 F 
ATOM     86  C   UNL A   1      46.902  29.174  35.161  1.00  0.00     0.040 A 
ATOM     87  C   UNL A   1      45.829  27.359  36.322  1.00  0.00     0.040 A 
ATOM     88  F   UNL A   1      43.495  27.327  36.550  1.00  0.00    -0.206 F 
ATOM     89  C   UNL A   1      46.990  27.968  35.854  1.00  0.00     0.006 A 
ENDBRANCH  65  82
ENDBRANCH  39  40
ENDBRANCH  32  34
ENDBRANCH  31  32
ENDBRANCH  30  31
ENDBRANCH  29  30
ENDBRANCH  28  29
ENDBRANCH   1  28
TORSDOF 20
ENDMDL
