MODEL 1
REMARK VINA RESULT:     -13.1      0.000      0.000
REMARK SMILES O=C(C[C@]1(C(=O)NC2CCCCC2)CC(c2ccc([N+](=O)[O-])cc2)=NO1)OCCOCCOC(=O)c1ccc(-c2c3nc(c(-c4c(F)cccc4F)c4ccc([nH]4)c(-c4c(F)cccc4F)c4nc(c(-c5c(F)cccc5F)c5ccc2[nH]5)C=C4)C=C3)cc1
REMARK SMILES IDX 29 1 28 2 27 3 2 4 1 5 3 6 4 7 14 8 26 9 15 10 25 11 5 12
REMARK SMILES IDX 6 13 7 14 8 16 9 17 13 18 10 19 12 20 11 21 16 22 17 23
REMARK SMILES IDX 24 24 18 25 23 26 19 27 20 28 21 29 22 30 30 31 31 32 32 33
REMARK SMILES IDX 33 34 34 35 35 36 36 37 37 38 89 39 38 40 88 41 39 42 40 43
REMARK SMILES IDX 41 44 82 45 42 46 87 47 81 48 83 49 43 50 86 51 80 52 79 53
REMARK SMILES IDX 44 55 70 56 53 57 69 58 54 59 57 60 68 61 84 62 55 63 56 64
REMARK SMILES IDX 67 66 85 67 58 68 45 69 46 70 51 71 47 72 48 73 50 74 52 75
REMARK SMILES IDX 49 76 71 77 72 78 77 79 73 80 74 81 76 82 78 83 75 84 59 85
REMARK SMILES IDX 60 86 65 87 61 88 62 89 64 90 66 91 63 92
REMARK H PARENT 7 15 83 54 57 65
REMARK Flexibility Score: inf
ROOT
ATOM      1  C   UNL A   1      37.956  22.379  25.879  1.00  0.00     0.202 C 
ENDROOT
BRANCH   1   2
ATOM      2  C   UNL A   1      36.418  22.210  25.275  1.00  0.00     0.261 C 
BRANCH   2   3
ATOM      3  O   UNL A   1      35.047  21.888  26.054  1.00  0.00    -0.463 OA
BRANCH   3   4
ATOM      4  C   UNL A   1      34.022  21.757  26.938  1.00  0.00     0.310 C 
ATOM      5  O   UNL A   1      33.645  20.603  27.177  1.00  0.00    -0.252 OA
BRANCH   4   6
ATOM      6  C   UNL A   1      33.120  22.908  27.545  1.00  0.00     0.185 C 
BRANCH   6   7
ATOM      7  C   UNL A   1      32.069  23.713  26.751  1.00  0.00     0.231 C 
ATOM      8  C   UNL A   1      32.271  25.200  26.602  1.00  0.00     0.123 C 
ATOM      9  O   UNL A   1      30.718  23.680  27.280  1.00  0.00    -0.378 OA
ATOM     10  C   UNL A   1      30.888  25.505  26.096  1.00  0.00     0.092 C 
ATOM     11  N   UNL A   1      29.990  24.677  26.540  1.00  0.00    -0.089 NA
BRANCH   7  12
ATOM     12  C   UNL A   1      31.925  22.991  25.461  1.00  0.00     0.268 C 
ATOM     13  O   UNL A   1      31.097  22.097  25.307  1.00  0.00    -0.270 OA
ATOM     14  N   UNL A   1      32.382  23.835  24.493  1.00  0.00    -0.350 N 
ATOM     15  H   UNL A   1      31.722  24.546  24.320  1.00  0.00     0.163 HD
BRANCH  14  16
ATOM     16  C   UNL A   1      33.528  24.002  23.648  1.00  0.00     0.082 C 
ATOM     17  C   UNL A   1      32.774  24.074  21.935  1.00  0.00     0.025 C 
ATOM     18  C   UNL A   1      34.355  25.564  24.487  1.00  0.00     0.025 C 
ATOM     19  C   UNL A   1      32.541  25.748  21.096  1.00  0.00     0.002 C 
ATOM     20  C   UNL A   1      34.123  27.289  23.628  1.00  0.00     0.002 C 
ATOM     21  C   UNL A   1      33.144  27.364  21.929  1.00  0.00     0.000 C 
ENDBRANCH  14  16
ENDBRANCH   7  12
BRANCH  10  22
ATOM     22  C   UNL A   1      30.621  26.629  25.169  1.00  0.00    -0.000 A 
ATOM     23  C   UNL A   1      29.782  26.446  24.059  1.00  0.00     0.017 A 
ATOM     24  C   UNL A   1      31.204  27.881  25.394  1.00  0.00     0.017 A 
ATOM     25  C   UNL A   1      29.482  27.524  23.211  1.00  0.00     0.086 A 
ATOM     26  C   UNL A   1      30.901  28.963  24.561  1.00  0.00     0.086 A 
ATOM     27  C   UNL A   1      30.020  28.787  23.485  1.00  0.00     0.269 A 
BRANCH  27  28
ATOM     28  N   UNL A   1      29.631  29.948  22.671  1.00  0.00     0.062 N 
ATOM     29  O   UNL A   1      29.727  29.849  21.439  1.00  0.00    -0.258 OA
ATOM     30  O   UNL A   1      29.212  30.952  23.265  1.00  0.00    -0.258 OA
ENDBRANCH  27  28
ENDBRANCH  10  22
ENDBRANCH   6   7
ENDBRANCH   4   6
ENDBRANCH   3   4
ENDBRANCH   2   3
ENDBRANCH   1   2
BRANCH   1  31
ATOM     31  O   UNL A   1      39.252  21.433  25.783  1.00  0.00    -0.374 OA
BRANCH  31  32
ATOM     32  C   UNL A   1      40.756  20.539  26.442  1.00  0.00     0.202 C 
BRANCH  32  33
ATOM     33  C   UNL A   1      42.349  20.724  26.275  1.00  0.00     0.261 C 
BRANCH  33  34
ATOM     34  O   UNL A   1      42.902  21.963  26.733  1.00  0.00    -0.460 OA
BRANCH  34  35
ATOM     35  C   UNL A   1      42.951  22.968  25.813  1.00  0.00     0.338 C 
ATOM     36  O   UNL A   1      43.033  22.870  24.615  1.00  0.00    -0.246 OA
BRANCH  35  37
ATOM     37  C   UNL A   1      42.480  24.175  26.532  1.00  0.00     0.060 A 
ATOM     38  C   UNL A   1      43.098  25.403  26.240  1.00  0.00     0.016 A 
ATOM     39  C   UNL A   1      41.365  24.115  27.367  1.00  0.00     0.016 A 
ATOM     40  C   UNL A   1      42.601  26.585  26.781  1.00  0.00     0.010 A 
ATOM     41  C   UNL A   1      40.905  25.288  27.958  1.00  0.00     0.010 A 
ATOM     42  C   UNL A   1      41.547  26.513  27.697  1.00  0.00    -0.014 A 
BRANCH  42  43
ATOM     43  C   UNL A   1      41.365  27.592  28.690  1.00  0.00     0.031 A 
ATOM     44  C   UNL A   1      42.204  27.487  29.931  1.00  0.00     0.074 A 
ATOM     45  C   UNL A   1      40.411  28.527  28.561  1.00  0.00     0.049 A 
ATOM     46  N   UNL A   1      42.086  28.109  31.071  1.00  0.00    -0.248 NA
ATOM     47  C   UNL A   1      43.309  26.511  29.888  1.00  0.00     0.031 C 
ATOM     48  C   UNL A   1      39.564  28.726  27.389  1.00  0.00     0.029 A 
ATOM     49  N   UNL A   1      39.967  29.455  29.467  1.00  0.00    -0.354 N 
ATOM     50  C   UNL A   1      43.079  27.576  31.883  1.00  0.00     0.074 A 
ATOM     51  C   UNL A   1      43.787  26.583  31.115  1.00  0.00     0.031 C 
ATOM     52  C   UNL A   1      38.662  29.687  27.665  1.00  0.00     0.029 A 
ATOM     53  C   UNL A   1      38.849  30.134  29.046  1.00  0.00     0.049 A 
ATOM     54  H   UNL A   1      40.404  29.619  30.334  1.00  0.00     0.167 HD
ATOM     55  C   UNL A   1      43.365  27.872  33.170  1.00  0.00     0.037 A 
ATOM     56  C   UNL A   1      38.049  30.978  29.726  1.00  0.00     0.037 A 
ATOM     57  C   UNL A   1      42.628  28.829  33.939  1.00  0.00     0.049 A 
ATOM     58  C   UNL A   1      38.357  31.270  31.173  1.00  0.00     0.074 A 
ATOM     59  C   UNL A   1      42.820  29.217  35.250  1.00  0.00     0.029 A 
ATOM     60  N   UNL A   1      41.536  29.535  33.458  1.00  0.00    -0.354 N 
ATOM     61  N   UNL A   1      39.318  30.790  31.929  1.00  0.00    -0.248 NA
ATOM     62  C   UNL A   1      37.465  32.211  31.867  1.00  0.00     0.031 C 
ATOM     63  C   UNL A   1      41.816  30.134  35.575  1.00  0.00     0.029 A 
ATOM     64  C   UNL A   1      41.028  30.347  34.452  1.00  0.00     0.049 A 
ATOM     65  H   UNL A   1      41.177  29.468  32.544  1.00  0.00     0.167 HD
ATOM     66  C   UNL A   1      39.160  31.385  33.176  1.00  0.00     0.074 A 
ATOM     67  C   UNL A   1      38.013  32.265  33.074  1.00  0.00     0.031 C 
ATOM     68  C   UNL A   1      39.893  31.222  34.304  1.00  0.00     0.037 A 
BRANCH  55  69
ATOM     69  C   UNL A   1      44.475  27.094  33.803  1.00  0.00     0.057 A 
ATOM     70  C   UNL A   1      45.808  27.523  33.740  1.00  0.00     0.134 A 
ATOM     71  C   UNL A   1      44.219  25.859  34.409  1.00  0.00     0.134 A 
ATOM     72  F   UNL A   1      46.121  28.679  33.133  1.00  0.00    -0.206 F 
ATOM     73  C   UNL A   1      46.851  26.733  34.225  1.00  0.00     0.040 A 
ATOM     74  C   UNL A   1      45.252  25.072  34.921  1.00  0.00     0.040 A 
ATOM     75  F   UNL A   1      42.967  25.384  34.486  1.00  0.00    -0.206 F 
ATOM     76  C   UNL A   1      46.573  25.504  34.820  1.00  0.00     0.006 A 
ENDBRANCH  55  69
BRANCH  56  77
ATOM     77  C   UNL A   1      36.864  31.576  29.064  1.00  0.00     0.057 A 
ATOM     78  C   UNL A   1      36.864  32.913  28.651  1.00  0.00     0.134 A 
ATOM     79  C   UNL A   1      35.701  30.831  28.831  1.00  0.00     0.134 A 
ATOM     80  F   UNL A   1      37.941  33.684  28.866  1.00  0.00    -0.206 F 
ATOM     81  C   UNL A   1      35.750  33.492  28.040  1.00  0.00     0.040 A 
ATOM     82  C   UNL A   1      34.586  31.392  28.203  1.00  0.00     0.040 A 
ATOM     83  F   UNL A   1      35.634  29.545  29.204  1.00  0.00    -0.206 F 
ATOM     84  C   UNL A   1      34.608  32.728  27.810  1.00  0.00     0.006 A 
ENDBRANCH  56  77
BRANCH  68  85
ATOM     85  C   UNL A   1      39.512  32.033  35.503  1.00  0.00     0.057 A 
ATOM     86  C   UNL A   1      39.998  33.330  35.698  1.00  0.00     0.134 A 
ATOM     87  C   UNL A   1      38.563  31.546  36.412  1.00  0.00     0.134 A 
ATOM     88  F   UNL A   1      40.911  33.848  34.864  1.00  0.00    -0.206 F 
ATOM     89  C   UNL A   1      39.551  34.118  36.759  1.00  0.00     0.040 A 
ATOM     90  C   UNL A   1      38.094  32.332  37.463  1.00  0.00     0.040 A 
ATOM     91  F   UNL A   1      38.052  30.314  36.267  1.00  0.00    -0.206 F 
ATOM     92  C   UNL A   1      38.588  33.623  37.639  1.00  0.00     0.006 A 
ENDBRANCH  68  85
ENDBRANCH  42  43
ENDBRANCH  35  37
ENDBRANCH  34  35
ENDBRANCH  33  34
ENDBRANCH  32  33
ENDBRANCH  31  32
ENDBRANCH   1  31
TORSDOF 19
ENDMDL
MODEL 2
REMARK VINA RESULT:     -12.7      4.718      6.914
REMARK SMILES O=C(C[C@]1(C(=O)NC2CCCCC2)CC(c2ccc([N+](=O)[O-])cc2)=NO1)OCCOCCOC(=O)c1ccc(-c2c3nc(c(-c4c(F)cccc4F)c4ccc([nH]4)c(-c4c(F)cccc4F)c4nc(c(-c5c(F)cccc5F)c5ccc2[nH]5)C=C4)C=C3)cc1
REMARK SMILES IDX 29 1 28 2 27 3 2 4 1 5 3 6 4 7 14 8 26 9 15 10 25 11 5 12
REMARK SMILES IDX 6 13 7 14 8 16 9 17 13 18 10 19 12 20 11 21 16 22 17 23
REMARK SMILES IDX 24 24 18 25 23 26 19 27 20 28 21 29 22 30 30 31 31 32 32 33
REMARK SMILES IDX 33 34 34 35 35 36 36 37 37 38 89 39 38 40 88 41 39 42 40 43
REMARK SMILES IDX 41 44 82 45 42 46 87 47 81 48 83 49 43 50 86 51 80 52 79 53
REMARK SMILES IDX 44 55 70 56 53 57 69 58 54 59 57 60 68 61 84 62 55 63 56 64
REMARK SMILES IDX 67 66 85 67 58 68 45 69 46 70 51 71 47 72 48 73 50 74 52 75
REMARK SMILES IDX 49 76 71 77 72 78 77 79 73 80 74 81 76 82 78 83 75 84 59 85
REMARK SMILES IDX 60 86 65 87 61 88 62 89 64 90 66 91 63 92
REMARK H PARENT 7 15 83 54 57 65
REMARK Flexibility Score: inf
ROOT
ATOM      1  C   UNL A   1      41.065  21.698  26.262  1.00  0.00     0.202 C 
ENDROOT
BRANCH   1   2
ATOM      2  C   UNL A   1      39.627  22.468  26.576  1.00  0.00     0.261 C 
BRANCH   2   3
ATOM      3  O   UNL A   1      38.187  22.256  25.891  1.00  0.00    -0.463 OA
BRANCH   3   4
ATOM      4  C   UNL A   1      37.094  21.830  25.202  1.00  0.00     0.310 C 
ATOM      5  O   UNL A   1      37.190  21.824  23.967  1.00  0.00    -0.252 OA
BRANCH   4   6
ATOM      6  C   UNL A   1      35.649  21.531  25.775  1.00  0.00     0.185 C 
BRANCH   6   7
ATOM      7  C   UNL A   1      34.466  22.521  25.736  1.00  0.00     0.231 C 
ATOM      8  C   UNL A   1      34.736  23.970  26.052  1.00  0.00     0.123 C 
ATOM      9  O   UNL A   1      33.382  22.245  26.662  1.00  0.00    -0.378 OA
ATOM     10  C   UNL A   1      33.297  24.377  26.207  1.00  0.00     0.092 C 
ATOM     11  N   UNL A   1      32.535  23.408  26.622  1.00  0.00    -0.089 NA
BRANCH   7  12
ATOM     12  C   UNL A   1      33.823  22.301  24.416  1.00  0.00     0.268 C 
ATOM     13  O   UNL A   1      34.050  23.030  23.454  1.00  0.00    -0.270 OA
ATOM     14  N   UNL A   1      33.500  20.978  24.359  1.00  0.00    -0.350 N 
ATOM     15  H   UNL A   1      34.307  20.435  24.204  1.00  0.00     0.163 HD
BRANCH  14  16
ATOM     16  C   UNL A   1      32.343  20.136  24.454  1.00  0.00     0.082 C 
ATOM     17  C   UNL A   1      32.110  19.550  22.690  1.00  0.00     0.025 C 
ATOM     18  C   UNL A   1      32.907  18.928  25.886  1.00  0.00     0.025 C 
ATOM     19  C   UNL A   1      32.702  17.826  22.202  1.00  0.00     0.002 C 
ATOM     20  C   UNL A   1      33.513  17.152  25.392  1.00  0.00     0.002 C 
ATOM     21  C   UNL A   1      33.453  16.634  23.500  1.00  0.00     0.000 C 
ENDBRANCH  14  16
ENDBRANCH   7  12
BRANCH  10  22
ATOM     22  C   UNL A   1      32.828  25.746  25.887  1.00  0.00    -0.000 A 
ATOM     23  C   UNL A   1      31.491  25.968  25.523  1.00  0.00     0.017 A 
ATOM     24  C   UNL A   1      33.717  26.825  25.945  1.00  0.00     0.017 A 
ATOM     25  C   UNL A   1      31.031  27.271  25.273  1.00  0.00     0.086 A 
ATOM     26  C   UNL A   1      33.263  28.128  25.710  1.00  0.00     0.086 A 
ATOM     27  C   UNL A   1      31.915  28.350  25.399  1.00  0.00     0.269 A 
BRANCH  27  28
ATOM     28  N   UNL A   1      31.424  29.728  25.248  1.00  0.00     0.062 N 
ATOM     29  O   UNL A   1      31.875  30.590  26.015  1.00  0.00    -0.258 OA
ATOM     30  O   UNL A   1      30.600  29.947  24.348  1.00  0.00    -0.258 OA
ENDBRANCH  27  28
ENDBRANCH  10  22
ENDBRANCH   6   7
ENDBRANCH   4   6
ENDBRANCH   3   4
ENDBRANCH   2   3
ENDBRANCH   1   2
BRANCH   1  31
ATOM     31  O   UNL A   1      41.613  20.246  26.680  1.00  0.00    -0.374 OA
BRANCH  31  32
ATOM     32  C   UNL A   1      42.703  18.734  26.535  1.00  0.00     0.202 C 
BRANCH  32  33
ATOM     33  C   UNL A   1      43.738  18.184  25.428  1.00  0.00     0.261 C 
BRANCH  33  34
ATOM     34  O   UNL A   1      45.079  18.682  25.500  1.00  0.00    -0.460 OA
BRANCH  34  35
ATOM     35  C   UNL A   1      45.507  19.395  24.420  1.00  0.00     0.338 C 
ATOM     36  O   UNL A   1      45.752  18.985  23.314  1.00  0.00    -0.246 OA
BRANCH  35  37
ATOM     37  C   UNL A   1      45.226  20.811  24.755  1.00  0.00     0.060 A 
ATOM     38  C   UNL A   1      44.817  21.667  23.718  1.00  0.00     0.016 A 
ATOM     39  C   UNL A   1      45.232  21.243  26.080  1.00  0.00     0.016 A 
ATOM     40  C   UNL A   1      44.406  22.966  24.002  1.00  0.00     0.010 A 
ATOM     41  C   UNL A   1      44.881  22.560  26.358  1.00  0.00     0.010 A 
ATOM     42  C   UNL A   1      44.508  23.430  25.316  1.00  0.00    -0.014 A 
BRANCH  42  43
ATOM     43  C   UNL A   1      44.636  24.880  25.573  1.00  0.00     0.031 A 
ATOM     44  C   UNL A   1      46.023  25.444  25.456  1.00  0.00     0.074 A 
ATOM     45  C   UNL A   1      43.610  25.618  26.023  1.00  0.00     0.049 A 
ATOM     46  N   UNL A   1      46.494  26.589  25.868  1.00  0.00    -0.248 NA
ATOM     47  C   UNL A   1      47.027  24.574  24.816  1.00  0.00     0.031 C 
ATOM     48  C   UNL A   1      42.226  25.170  26.149  1.00  0.00     0.029 A 
ATOM     49  N   UNL A   1      43.601  26.900  26.508  1.00  0.00    -0.354 N 
ATOM     50  C   UNL A   1      47.849  26.558  25.565  1.00  0.00     0.074 A 
ATOM     51  C   UNL A   1      48.129  25.289  24.940  1.00  0.00     0.031 C 
ATOM     52  C   UNL A   1      41.506  26.150  26.726  1.00  0.00     0.029 A 
ATOM     53  C   UNL A   1      42.391  27.270  27.045  1.00  0.00     0.049 A 
ATOM     54  H   UNL A   1      44.384  27.498  26.476  1.00  0.00     0.167 HD
ATOM     55  C   UNL A   1      48.789  27.498  25.805  1.00  0.00     0.037 A 
ATOM     56  C   UNL A   1      42.065  28.367  27.754  1.00  0.00     0.037 A 
ATOM     57  C   UNL A   1      48.510  28.737  26.466  1.00  0.00     0.049 A 
ATOM     58  C   UNL A   1      43.133  29.391  28.049  1.00  0.00     0.074 A 
ATOM     59  C   UNL A   1      49.375  29.770  26.768  1.00  0.00     0.029 A 
ATOM     60  N   UNL A   1      47.260  29.096  26.945  1.00  0.00    -0.354 N 
ATOM     61  N   UNL A   1      44.406  29.375  27.731  1.00  0.00    -0.248 NA
ATOM     62  C   UNL A   1      42.723  30.580  28.811  1.00  0.00     0.031 C 
ATOM     63  C   UNL A   1      48.652  30.741  27.466  1.00  0.00     0.029 A 
ATOM     64  C   UNL A   1      47.330  30.329  27.560  1.00  0.00     0.049 A 
ATOM     65  H   UNL A   1      46.443  28.552  26.860  1.00  0.00     0.167 HD
ATOM     66  C   UNL A   1      44.944  30.555  28.232  1.00  0.00     0.074 A 
ATOM     67  C   UNL A   1      43.856  31.267  28.873  1.00  0.00     0.031 C 
ATOM     68  C   UNL A   1      46.218  31.013  28.171  1.00  0.00     0.037 A 
BRANCH  55  69
ATOM     69  C   UNL A   1      50.189  27.160  25.400  1.00  0.00     0.057 A 
ATOM     70  C   UNL A   1      51.111  26.621  26.309  1.00  0.00     0.134 A 
ATOM     71  C   UNL A   1      50.646  27.456  24.111  1.00  0.00     0.134 A 
ATOM     72  F   UNL A   1      50.742  26.355  27.572  1.00  0.00    -0.206 F 
ATOM     73  C   UNL A   1      52.447  26.422  25.959  1.00  0.00     0.040 A 
ATOM     74  C   UNL A   1      51.974  27.237  23.742  1.00  0.00     0.040 A 
ATOM     75  F   UNL A   1      49.818  27.990  23.201  1.00  0.00    -0.206 F 
ATOM     76  C   UNL A   1      52.881  26.729  24.671  1.00  0.00     0.006 A 
ENDBRANCH  55  69
BRANCH  56  77
ATOM     77  C   UNL A   1      40.683  28.540  28.265  1.00  0.00     0.057 A 
ATOM     78  C   UNL A   1      40.344  28.176  29.573  1.00  0.00     0.134 A 
ATOM     79  C   UNL A   1      39.665  29.067  27.460  1.00  0.00     0.134 A 
ATOM     80  F   UNL A   1      41.270  27.644  30.385  1.00  0.00    -0.206 F 
ATOM     81  C   UNL A   1      39.044  28.320  30.061  1.00  0.00     0.040 A 
ATOM     82  C   UNL A   1      38.364  29.235  27.941  1.00  0.00     0.040 A 
ATOM     83  F   UNL A   1      39.923  29.435  26.196  1.00  0.00    -0.206 F 
ATOM     84  C   UNL A   1      38.051  28.856  29.244  1.00  0.00     0.006 A 
ENDBRANCH  56  77
BRANCH  68  85
ATOM     85  C   UNL A   1      46.504  32.354  28.771  1.00  0.00     0.057 A 
ATOM     86  C   UNL A   1      46.343  33.535  28.040  1.00  0.00     0.134 A 
ATOM     87  C   UNL A   1      46.837  32.464  30.128  1.00  0.00     0.134 A 
ATOM     88  F   UNL A   1      46.030  33.492  26.736  1.00  0.00    -0.206 F 
ATOM     89  C   UNL A   1      46.505  34.785  28.639  1.00  0.00     0.040 A 
ATOM     90  C   UNL A   1      46.980  33.707  30.742  1.00  0.00     0.040 A 
ATOM     91  F   UNL A   1      46.990  31.365  30.882  1.00  0.00    -0.206 F 
ATOM     92  C   UNL A   1      46.813  34.872  29.997  1.00  0.00     0.006 A 
ENDBRANCH  68  85
ENDBRANCH  42  43
ENDBRANCH  35  37
ENDBRANCH  34  35
ENDBRANCH  33  34
ENDBRANCH  32  33
ENDBRANCH  31  32
ENDBRANCH   1  31
TORSDOF 19
ENDMDL
MODEL 3
REMARK VINA RESULT:     -12.3      4.376      9.532
REMARK SMILES O=C(C[C@]1(C(=O)NC2CCCCC2)CC(c2ccc([N+](=O)[O-])cc2)=NO1)OCCOCCOC(=O)c1ccc(-c2c3nc(c(-c4c(F)cccc4F)c4ccc([nH]4)c(-c4c(F)cccc4F)c4nc(c(-c5c(F)cccc5F)c5ccc2[nH]5)C=C4)C=C3)cc1
REMARK SMILES IDX 29 1 28 2 27 3 2 4 1 5 3 6 4 7 14 8 26 9 15 10 25 11 5 12
REMARK SMILES IDX 6 13 7 14 8 16 9 17 13 18 10 19 12 20 11 21 16 22 17 23
REMARK SMILES IDX 24 24 18 25 23 26 19 27 20 28 21 29 22 30 30 31 31 32 32 33
REMARK SMILES IDX 33 34 34 35 35 36 36 37 37 38 89 39 38 40 88 41 39 42 40 43
REMARK SMILES IDX 41 44 82 45 42 46 87 47 81 48 83 49 43 50 86 51 80 52 79 53
REMARK SMILES IDX 44 55 70 56 53 57 69 58 54 59 57 60 68 61 84 62 55 63 56 64
REMARK SMILES IDX 67 66 85 67 58 68 45 69 46 70 51 71 47 72 48 73 50 74 52 75
REMARK SMILES IDX 49 76 71 77 72 78 77 79 73 80 74 81 76 82 78 83 75 84 59 85
REMARK SMILES IDX 60 86 65 87 61 88 62 89 64 90 66 91 63 92
REMARK H PARENT 7 15 83 54 57 65
REMARK Flexibility Score: inf
ROOT
ATOM      1  C   UNL A   1      33.822  30.530  26.876  1.00  0.00     0.202 C 
ENDROOT
BRANCH   1   2
ATOM      2  C   UNL A   1      32.638  29.749  26.012  1.00  0.00     0.261 C 
BRANCH   2   3
ATOM      3  O   UNL A   1      32.697  29.140  24.523  1.00  0.00    -0.463 OA
BRANCH   3   4
ATOM      4  C   UNL A   1      32.923  28.860  23.212  1.00  0.00     0.310 C 
ATOM      5  O   UNL A   1      32.231  29.475  22.390  1.00  0.00    -0.252 OA
BRANCH   4   6
ATOM      6  C   UNL A   1      33.820  27.700  22.615  1.00  0.00     0.185 C 
BRANCH   6   7
ATOM      7  C   UNL A   1      33.375  26.229  22.473  1.00  0.00     0.231 C 
ATOM      8  C   UNL A   1      34.177  25.168  23.182  1.00  0.00     0.123 C 
ATOM      9  O   UNL A   1      33.370  25.699  21.121  1.00  0.00    -0.378 OA
ATOM     10  C   UNL A   1      33.568  23.993  22.467  1.00  0.00     0.092 C 
ATOM     11  N   UNL A   1      33.169  24.281  21.263  1.00  0.00    -0.089 NA
BRANCH   7  12
ATOM     12  C   UNL A   1      31.931  26.227  22.822  1.00  0.00     0.268 C 
ATOM     13  O   UNL A   1      31.057  26.325  21.964  1.00  0.00    -0.270 OA
ATOM     14  N   UNL A   1      31.821  25.563  24.006  1.00  0.00    -0.350 N 
ATOM     15  H   UNL A   1      31.922  24.593  23.865  1.00  0.00     0.163 HD
BRANCH  14  16
ATOM     16  C   UNL A   1      31.599  25.844  25.395  1.00  0.00     0.082 C 
ATOM     17  C   UNL A   1      30.111  24.781  25.801  1.00  0.00     0.025 C 
ATOM     18  C   UNL A   1      33.377  25.464  26.115  1.00  0.00     0.025 C 
ATOM     19  C   UNL A   1      30.363  23.138  26.694  1.00  0.00     0.002 C 
ATOM     20  C   UNL A   1      33.644  23.777  27.039  1.00  0.00     0.002 C 
ATOM     21  C   UNL A   1      32.104  22.583  27.270  1.00  0.00     0.000 C 
ENDBRANCH  14  16
ENDBRANCH   7  12
BRANCH  10  22
ATOM     22  C   UNL A   1      33.432  22.665  23.110  1.00  0.00    -0.000 A 
ATOM     23  C   UNL A   1      32.367  21.819  22.765  1.00  0.00     0.017 A 
ATOM     24  C   UNL A   1      34.364  22.249  24.068  1.00  0.00     0.017 A 
ATOM     25  C   UNL A   1      32.268  20.538  23.332  1.00  0.00     0.086 A 
ATOM     26  C   UNL A   1      34.278  20.970  24.628  1.00  0.00     0.086 A 
ATOM     27  C   UNL A   1      33.244  20.108  24.239  1.00  0.00     0.269 A 
BRANCH  27  28
ATOM     28  N   UNL A   1      33.213  18.732  24.758  1.00  0.00     0.062 N 
ATOM     29  O   UNL A   1      32.221  18.383  25.414  1.00  0.00    -0.258 OA
ATOM     30  O   UNL A   1      34.176  17.997  24.494  1.00  0.00    -0.258 OA
ENDBRANCH  27  28
ENDBRANCH  10  22
ENDBRANCH   6   7
ENDBRANCH   4   6
ENDBRANCH   3   4
ENDBRANCH   2   3
ENDBRANCH   1   2
BRANCH   1  31
ATOM     31  O   UNL A   1      33.756  31.765  27.904  1.00  0.00    -0.374 OA
BRANCH  31  32
ATOM     32  C   UNL A   1      34.454  33.009  29.112  1.00  0.00     0.202 C 
BRANCH  32  33
ATOM     33  C   UNL A   1      34.279  33.278  30.692  1.00  0.00     0.261 C 
BRANCH  33  34
ATOM     34  O   UNL A   1      35.306  32.765  31.547  1.00  0.00    -0.460 OA
BRANCH  34  35
ATOM     35  C   UNL A   1      36.484  33.452  31.541  1.00  0.00     0.338 C 
ATOM     36  O   UNL A   1      36.733  34.498  32.085  1.00  0.00    -0.246 OA
BRANCH  35  37
ATOM     37  C   UNL A   1      37.499  32.476  31.080  1.00  0.00     0.060 A 
ATOM     38  C   UNL A   1      38.124  31.666  32.044  1.00  0.00     0.016 A 
ATOM     39  C   UNL A   1      37.722  32.271  29.719  1.00  0.00     0.016 A 
ATOM     40  C   UNL A   1      38.978  30.640  31.651  1.00  0.00     0.010 A 
ATOM     41  C   UNL A   1      38.623  31.287  29.328  1.00  0.00     0.010 A 
ATOM     42  C   UNL A   1      39.280  30.501  30.293  1.00  0.00    -0.014 A 
BRANCH  42  43
ATOM     43  C   UNL A   1      40.545  29.855  29.887  1.00  0.00     0.031 A 
ATOM     44  C   UNL A   1      41.717  30.774  29.696  1.00  0.00     0.074 A 
ATOM     45  C   UNL A   1      40.612  28.553  29.568  1.00  0.00     0.049 A 
ATOM     46  N   UNL A   1      42.858  30.557  29.103  1.00  0.00    -0.248 NA
ATOM     47  C   UNL A   1      41.559  32.145  30.216  1.00  0.00     0.031 C 
ATOM     48  C   UNL A   1      39.541  27.576  29.740  1.00  0.00     0.029 A 
ATOM     49  N   UNL A   1      41.628  27.846  28.979  1.00  0.00    -0.354 N 
ATOM     50  C   UNL A   1      43.534  31.770  29.153  1.00  0.00     0.074 A 
ATOM     51  C   UNL A   1      42.682  32.718  29.828  1.00  0.00     0.031 C 
ATOM     52  C   UNL A   1      39.939  26.401  29.219  1.00  0.00     0.029 A 
ATOM     53  C   UNL A   1      41.275  26.563  28.643  1.00  0.00     0.049 A 
ATOM     54  H   UNL A   1      42.524  28.222  28.812  1.00  0.00     0.167 HD
ATOM     55  C   UNL A   1      44.753  32.078  28.661  1.00  0.00     0.037 A 
ATOM     56  C   UNL A   1      41.942  25.651  27.909  1.00  0.00     0.037 A 
ATOM     57  C   UNL A   1      45.574  31.142  27.952  1.00  0.00     0.049 A 
ATOM     58  C   UNL A   1      43.286  26.020  27.332  1.00  0.00     0.074 A 
ATOM     59  C   UNL A   1      46.826  31.332  27.405  1.00  0.00     0.029 A 
ATOM     60  N   UNL A   1      45.201  29.834  27.681  1.00  0.00    -0.354 N 
ATOM     61  N   UNL A   1      43.937  27.158  27.411  1.00  0.00    -0.248 NA
ATOM     62  C   UNL A   1      43.983  24.986  26.554  1.00  0.00     0.031 C 
ATOM     63  C   UNL A   1      47.197  30.145  26.766  1.00  0.00     0.029 A 
ATOM     64  C   UNL A   1      46.192  29.206  26.954  1.00  0.00     0.049 A 
ATOM     65  H   UNL A   1      44.355  29.416  27.963  1.00  0.00     0.167 HD
ATOM     66  C   UNL A   1      45.126  26.970  26.715  1.00  0.00     0.074 A 
ATOM     67  C   UNL A   1      45.108  25.606  26.223  1.00  0.00     0.031 C 
ATOM     68  C   UNL A   1      46.142  27.840  26.499  1.00  0.00     0.037 A 
BRANCH  55  69
ATOM     69  C   UNL A   1      45.204  33.494  28.830  1.00  0.00     0.057 A 
ATOM     70  C   UNL A   1      45.931  33.909  29.954  1.00  0.00     0.134 A 
ATOM     71  C   UNL A   1      44.833  34.472  27.899  1.00  0.00     0.134 A 
ATOM     72  F   UNL A   1      46.279  33.024  30.901  1.00  0.00    -0.206 F 
ATOM     73  C   UNL A   1      46.243  35.253  30.165  1.00  0.00     0.040 A 
ATOM     74  C   UNL A   1      45.162  35.816  28.087  1.00  0.00     0.040 A 
ATOM     75  F   UNL A   1      44.121  34.143  26.811  1.00  0.00    -0.206 F 
ATOM     76  C   UNL A   1      45.859  36.210  29.228  1.00  0.00     0.006 A 
ENDBRANCH  55  69
BRANCH  56  77
ATOM     77  C   UNL A   1      41.340  24.320  27.647  1.00  0.00     0.057 A 
ATOM     78  C   UNL A   1      41.774  23.183  28.336  1.00  0.00     0.134 A 
ATOM     79  C   UNL A   1      40.322  24.151  26.701  1.00  0.00     0.134 A 
ATOM     80  F   UNL A   1      42.762  23.278  29.238  1.00  0.00    -0.206 F 
ATOM     81  C   UNL A   1      41.225  21.922  28.088  1.00  0.00     0.040 A 
ATOM     82  C   UNL A   1      39.750  22.900  26.457  1.00  0.00     0.040 A 
ATOM     83  F   UNL A   1      39.861  25.201  26.005  1.00  0.00    -0.206 F 
ATOM     84  C   UNL A   1      40.206  21.781  27.149  1.00  0.00     0.006 A 
ENDBRANCH  56  77
BRANCH  68  85
ATOM     85  C   UNL A   1      47.332  27.344  25.737  1.00  0.00     0.057 A 
ATOM     86  C   UNL A   1      48.359  26.629  26.363  1.00  0.00     0.134 A 
ATOM     87  C   UNL A   1      47.390  27.491  24.345  1.00  0.00     0.134 A 
ATOM     88  F   UNL A   1      48.359  26.461  27.694  1.00  0.00    -0.206 F 
ATOM     89  C   UNL A   1      49.408  26.077  25.628  1.00  0.00     0.040 A 
ATOM     90  C   UNL A   1      48.421  26.925  23.598  1.00  0.00     0.040 A 
ATOM     91  F   UNL A   1      46.426  28.154  23.690  1.00  0.00    -0.206 F 
ATOM     92  C   UNL A   1      49.434  26.214  24.240  1.00  0.00     0.006 A 
ENDBRANCH  68  85
ENDBRANCH  42  43
ENDBRANCH  35  37
ENDBRANCH  34  35
ENDBRANCH  33  34
ENDBRANCH  32  33
ENDBRANCH  31  32
ENDBRANCH   1  31
TORSDOF 19
ENDMDL
