MODEL 1
REMARK VINA RESULT:     -11.6      0.000      0.000
REMARK SMILES O=C(COCC(=O)OCCOCCOC(=O)c1ccc(-c2c3nc(c(-c4c(F)cccc4F)c4ccc([nH]4)c(-c4c(F)cccc4F)c4nc(c(-c5c(F)cccc5F)c5ccc2[nH]5)C=C4)C=C3)cc1)/[NH+]=C1\S[C@@H]2CS(=O)(=O)C[C@H]2N1c1ccc(Cl)cc1
REMARK SMILES IDX 10 1 9 2 8 3 6 4 7 5 5 6 4 7 3 8 2 9 1 10 71 11 72 12 73 14
REMARK SMILES IDX 81 15 74 16 80 17 75 18 79 19 76 20 77 21 78 22 82 23 83 24
REMARK SMILES IDX 88 25 84 26 87 27 85 28 86 29 11 30 12 31 13 32 14 33 15 34
REMARK SMILES IDX 16 35 17 36 18 37 70 38 19 39 69 40 20 41 21 42 22 43 63 44
REMARK SMILES IDX 23 45 68 46 62 47 64 48 24 49 67 50 61 51 60 52 25 54 51 55
REMARK SMILES IDX 34 56 50 57 35 58 38 59 49 60 65 61 36 62 37 63 48 65 66 66
REMARK SMILES IDX 39 67 26 68 27 69 32 70 28 71 29 72 31 73 33 74 30 75 52 76
REMARK SMILES IDX 53 77 58 78 54 79 55 80 57 81 59 82 56 83 40 84 41 85 46 86
REMARK SMILES IDX 42 87 43 88 45 89 47 90 44 91
REMARK H PARENT 71 13 64 53 38 64
REMARK Flexibility Score: inf
ROOT
ATOM      1  C   UNL A   1      32.837  36.104  31.078  1.00  0.00     0.202 C 
ENDROOT
BRANCH   1   2
ATOM      2  C   UNL A   1      33.381  35.655  29.719  1.00  0.00     0.261 C 
BRANCH   2   3
ATOM      3  O   UNL A   1      33.299  34.226  29.532  1.00  0.00    -0.462 OA
BRANCH   3   4
ATOM      4  C   UNL A   1      33.269  33.795  28.241  1.00  0.00     0.332 C 
ATOM      5  O   UNL A   1      32.259  33.714  27.552  1.00  0.00    -0.250 OA
BRANCH   4   6
ATOM      6  C   UNL A   1      34.656  33.383  27.713  1.00  0.00     0.283 C 
BRANCH   6   7
ATOM      7  O   UNL A   1      35.238  32.119  27.992  1.00  0.00    -0.358 OA
BRANCH   7   8
ATOM      8  C   UNL A   1      34.696  31.068  27.215  1.00  0.00     0.288 C 
BRANCH   8   9
ATOM      9  C   UNL A   1      34.754  29.593  27.709  1.00  0.00     0.333 C 
ATOM     10  O   UNL A   1      35.114  29.346  28.859  1.00  0.00    -0.244 OA
ATOM     11  N   UNL A   1      34.454  28.595  26.814  1.00  0.00    -0.202 N 
ATOM     12  C   UNL A   1      33.287  28.538  26.269  1.00  0.00     0.319 C 
ATOM     13  H   UNL A   1      35.133  27.920  26.587  1.00  0.00     0.316 HD
ATOM     14  S   UNL A   1      31.969  29.718  26.572  1.00  0.00    -0.029 SA
ATOM     15  N   UNL A   1      32.858  27.657  25.268  1.00  0.00    -0.217 N 
ATOM     16  C   UNL A   1      31.575  29.587  24.827  1.00  0.00     0.120 C 
ATOM     17  C   UNL A   1      31.558  28.056  24.688  1.00  0.00     0.212 C 
ATOM     18  C   UNL A   1      30.297  30.150  24.281  1.00  0.00     0.156 C 
ATOM     19  C   UNL A   1      31.265  27.848  23.224  1.00  0.00     0.188 C 
ATOM     20  S   UNL A   1      29.961  29.046  22.911  1.00  0.00     0.155 S 
ATOM     21  O   UNL A   1      30.255  29.728  21.674  1.00  0.00    -0.229 OA
ATOM     22  O   UNL A   1      28.685  28.406  23.166  1.00  0.00    -0.229 OA
BRANCH  15  23
ATOM     23  C   UNL A   1      33.303  26.333  25.146  1.00  0.00     0.128 A 
ATOM     24  C   UNL A   1      34.073  25.919  24.047  1.00  0.00     0.053 A 
ATOM     25  C   UNL A   1      33.010  25.366  26.125  1.00  0.00     0.053 A 
ATOM     26  C   UNL A   1      34.504  24.594  23.909  1.00  0.00     0.025 A 
ATOM     27  C   UNL A   1      33.434  24.036  25.991  1.00  0.00     0.025 A 
ATOM     28  C   UNL A   1      34.177  23.654  24.880  1.00  0.00     0.041 A 
ATOM     29  Cl  UNL A   1      34.701  22.026  24.707  1.00  0.00    -0.084 Cl
ENDBRANCH  15  23
ENDBRANCH   8   9
ENDBRANCH   7   8
ENDBRANCH   6   7
ENDBRANCH   4   6
ENDBRANCH   3   4
ENDBRANCH   2   3
ENDBRANCH   1   2
BRANCH   1  30
ATOM     30  O   UNL A   1      32.732  35.122  32.107  1.00  0.00    -0.374 OA
BRANCH  30  31
ATOM     31  C   UNL A   1      33.889  34.870  32.900  1.00  0.00     0.202 C 
BRANCH  31  32
ATOM     32  C   UNL A   1      34.178  33.396  33.254  1.00  0.00     0.261 C 
BRANCH  32  33
ATOM     33  O   UNL A   1      35.196  32.789  32.428  1.00  0.00    -0.460 OA
BRANCH  33  34
ATOM     34  C   UNL A   1      36.249  32.285  33.122  1.00  0.00     0.338 C 
ATOM     35  O   UNL A   1      36.429  32.332  34.327  1.00  0.00    -0.246 OA
BRANCH  34  36
ATOM     36  C   UNL A   1      37.119  31.469  32.254  1.00  0.00     0.060 A 
ATOM     37  C   UNL A   1      38.133  30.736  32.883  1.00  0.00     0.016 A 
ATOM     38  C   UNL A   1      37.052  31.529  30.861  1.00  0.00     0.016 A 
ATOM     39  C   UNL A   1      39.120  30.108  32.127  1.00  0.00     0.010 A 
ATOM     40  C   UNL A   1      38.048  30.899  30.101  1.00  0.00     0.010 A 
ATOM     41  C   UNL A   1      39.111  30.222  30.731  1.00  0.00    -0.014 A 
BRANCH  41  42
ATOM     42  C   UNL A   1      40.299  29.762  29.962  1.00  0.00     0.031 A 
ATOM     43  C   UNL A   1      41.447  30.711  29.737  1.00  0.00     0.074 A 
ATOM     44  C   UNL A   1      40.388  28.492  29.526  1.00  0.00     0.049 A 
ATOM     45  N   UNL A   1      42.573  30.517  29.097  1.00  0.00    -0.248 NA
ATOM     46  C   UNL A   1      41.308  32.058  30.313  1.00  0.00     0.031 C 
ATOM     47  C   UNL A   1      39.372  27.460  29.721  1.00  0.00     0.029 A 
ATOM     48  N   UNL A   1      41.385  27.855  28.827  1.00  0.00    -0.354 N 
ATOM     49  C   UNL A   1      43.269  31.717  29.184  1.00  0.00     0.074 A 
ATOM     50  C   UNL A   1      42.428  32.642  29.912  1.00  0.00     0.031 C 
ATOM     51  C   UNL A   1      39.796  26.318  29.153  1.00  0.00     0.029 A 
ATOM     52  C   UNL A   1      41.093  26.548  28.522  1.00  0.00     0.049 A 
ATOM     53  H   UNL A   1      42.228  28.294  28.571  1.00  0.00     0.167 HD
ATOM     54  C   UNL A   1      44.502  32.020  28.707  1.00  0.00     0.037 A 
ATOM     55  C   UNL A   1      41.784  25.648  27.795  1.00  0.00     0.037 A 
ATOM     56  C   UNL A   1      45.345  31.096  27.992  1.00  0.00     0.049 A 
ATOM     57  C   UNL A   1      43.119  26.031  27.211  1.00  0.00     0.074 A 
ATOM     58  C   UNL A   1      46.621  31.302  27.494  1.00  0.00     0.029 A 
ATOM     59  N   UNL A   1      44.994  29.796  27.664  1.00  0.00    -0.354 N 
ATOM     60  N   UNL A   1      43.777  27.159  27.321  1.00  0.00    -0.248 NA
ATOM     61  C   UNL A   1      43.808  25.014  26.403  1.00  0.00     0.031 C 
ATOM     62  C   UNL A   1      47.016  30.149  26.811  1.00  0.00     0.029 A 
ATOM     63  C   UNL A   1      46.015  29.199  26.939  1.00  0.00     0.049 A 
ATOM     64  H   UNL A   1      44.147  29.360  27.909  1.00  0.00     0.167 HD
ATOM     65  C   UNL A   1      44.968  26.976  26.627  1.00  0.00     0.074 A 
ATOM     66  C   UNL A   1      44.947  25.624  26.111  1.00  0.00     0.031 C 
ATOM     67  C   UNL A   1      45.988  27.849  26.436  1.00  0.00     0.037 A 
BRANCH  54  68
ATOM     68  C   UNL A   1      45.005  33.420  28.913  1.00  0.00     0.057 A 
ATOM     69  C   UNL A   1      45.804  33.775  30.008  1.00  0.00     0.134 A 
ATOM     70  C   UNL A   1      44.722  34.420  27.972  1.00  0.00     0.134 A 
ATOM     71  F   UNL A   1      46.104  32.869  30.951  1.00  0.00    -0.206 F 
ATOM     72  C   UNL A   1      46.283  35.076  30.173  1.00  0.00     0.040 A 
ATOM     73  C   UNL A   1      45.219  35.717  28.110  1.00  0.00     0.040 A 
ATOM     74  F   UNL A   1      43.969  34.150  26.895  1.00  0.00    -0.206 F 
ATOM     75  C   UNL A   1      45.997  36.050  29.217  1.00  0.00     0.006 A 
ENDBRANCH  54  68
BRANCH  55  76
ATOM     76  C   UNL A   1      41.218  24.294  27.552  1.00  0.00     0.057 A 
ATOM     77  C   UNL A   1      40.165  24.093  26.651  1.00  0.00     0.134 A 
ATOM     78  C   UNL A   1      41.696  23.173  28.241  1.00  0.00     0.134 A 
ATOM     79  F   UNL A   1      39.646  25.130  25.977  1.00  0.00    -0.206 F 
ATOM     80  C   UNL A   1      39.595  22.833  26.461  1.00  0.00     0.040 A 
ATOM     81  C   UNL A   1      41.155  21.903  28.039  1.00  0.00     0.040 A 
ATOM     82  F   UNL A   1      42.703  23.296  29.120  1.00  0.00    -0.206 F 
ATOM     83  C   UNL A   1      40.094  21.732  27.154  1.00  0.00     0.006 A 
ENDBRANCH  55  76
BRANCH  67  84
ATOM     84  C   UNL A   1      47.187  27.360  25.673  1.00  0.00     0.057 A 
ATOM     85  C   UNL A   1      47.343  27.593  24.300  1.00  0.00     0.134 A 
ATOM     86  C   UNL A   1      48.220  26.678  26.332  1.00  0.00     0.134 A 
ATOM     87  F   UNL A   1      46.387  28.229  23.606  1.00  0.00    -0.206 F 
ATOM     88  C   UNL A   1      48.467  27.141  23.607  1.00  0.00     0.040 A 
ATOM     89  C   UNL A   1      49.363  26.249  25.656  1.00  0.00     0.040 A 
ATOM     90  F   UNL A   1      48.142  26.430  27.648  1.00  0.00    -0.206 F 
ATOM     91  C   UNL A   1      49.485  26.475  24.286  1.00  0.00     0.006 A 
ENDBRANCH  67  84
ENDBRANCH  41  42
ENDBRANCH  34  36
ENDBRANCH  33  34
ENDBRANCH  32  33
ENDBRANCH  31  32
ENDBRANCH  30  31
ENDBRANCH   1  30
TORSDOF 18
ENDMDL
MODEL 2
REMARK VINA RESULT:     -11.0      6.019     12.035
REMARK SMILES O=C(COCC(=O)OCCOCCOC(=O)c1ccc(-c2c3nc(c(-c4c(F)cccc4F)c4ccc([nH]4)c(-c4c(F)cccc4F)c4nc(c(-c5c(F)cccc5F)c5ccc2[nH]5)C=C4)C=C3)cc1)/[NH+]=C1\S[C@@H]2CS(=O)(=O)C[C@H]2N1c1ccc(Cl)cc1
REMARK SMILES IDX 10 1 9 2 8 3 6 4 7 5 5 6 4 7 3 8 2 9 1 10 71 11 72 12 73 14
REMARK SMILES IDX 81 15 74 16 80 17 75 18 79 19 76 20 77 21 78 22 82 23 83 24
REMARK SMILES IDX 88 25 84 26 87 27 85 28 86 29 11 30 12 31 13 32 14 33 15 34
REMARK SMILES IDX 16 35 17 36 18 37 70 38 19 39 69 40 20 41 21 42 22 43 63 44
REMARK SMILES IDX 23 45 68 46 62 47 64 48 24 49 67 50 61 51 60 52 25 54 51 55
REMARK SMILES IDX 34 56 50 57 35 58 38 59 49 60 65 61 36 62 37 63 48 65 66 66
REMARK SMILES IDX 39 67 26 68 27 69 32 70 28 71 29 72 31 73 33 74 30 75 52 76
REMARK SMILES IDX 53 77 58 78 54 79 55 80 57 81 59 82 56 83 40 84 41 85 46 86
REMARK SMILES IDX 42 87 43 88 45 89 47 90 44 91
REMARK H PARENT 71 13 64 53 38 64
REMARK Flexibility Score: inf
ROOT
ATOM      1  C   UNL A   1      46.162  21.933  25.113  1.00  0.00     0.202 C 
ENDROOT
BRANCH   1   2
ATOM      2  C   UNL A   1      45.769  23.059  24.153  1.00  0.00     0.261 C 
BRANCH   2   3
ATOM      3  O   UNL A   1      46.745  24.121  24.112  1.00  0.00    -0.462 OA
BRANCH   3   4
ATOM      4  C   UNL A   1      46.802  24.919  25.213  1.00  0.00     0.332 C 
ATOM      5  O   UNL A   1      47.683  24.877  26.065  1.00  0.00    -0.250 OA
BRANCH   4   6
ATOM      6  C   UNL A   1      45.614  25.895  25.311  1.00  0.00     0.283 C 
BRANCH   6   7
ATOM      7  O   UNL A   1      45.421  26.759  26.419  1.00  0.00    -0.358 OA
BRANCH   7   8
ATOM      8  C   UNL A   1      45.322  28.123  26.057  1.00  0.00     0.288 C 
BRANCH   8   9
ATOM      9  C   UNL A   1      44.306  29.068  26.763  1.00  0.00     0.333 C 
ATOM     10  O   UNL A   1      43.379  28.593  27.416  1.00  0.00    -0.244 OA
ATOM     11  N   UNL A   1      44.446  30.423  26.583  1.00  0.00    -0.202 N 
ATOM     12  C   UNL A   1      45.521  31.024  26.964  1.00  0.00     0.319 C 
ATOM     13  H   UNL A   1      43.722  30.938  26.159  1.00  0.00     0.316 HD
ATOM     14  S   UNL A   1      46.925  30.203  27.723  1.00  0.00    -0.029 SA
ATOM     15  N   UNL A   1      45.862  32.368  26.762  1.00  0.00    -0.217 N 
ATOM     16  C   UNL A   1      47.969  31.305  26.767  1.00  0.00     0.120 C 
ATOM     17  C   UNL A   1      47.278  32.642  27.084  1.00  0.00     0.212 C 
ATOM     18  C   UNL A   1      49.435  31.422  27.056  1.00  0.00     0.156 C 
ATOM     19  C   UNL A   1      48.077  33.639  26.284  1.00  0.00     0.188 C 
ATOM     20  S   UNL A   1      49.772  33.118  26.588  1.00  0.00     0.155 S 
ATOM     21  O   UNL A   1      50.484  33.127  25.334  1.00  0.00    -0.229 OA
ATOM     22  O   UNL A   1      50.255  33.811  27.767  1.00  0.00    -0.229 OA
BRANCH  15  23
ATOM     23  C   UNL A   1      44.933  33.417  26.737  1.00  0.00     0.128 A 
ATOM     24  C   UNL A   1      44.188  33.706  25.582  1.00  0.00     0.053 A 
ATOM     25  C   UNL A   1      44.696  34.217  27.870  1.00  0.00     0.053 A 
ATOM     26  C   UNL A   1      43.273  34.766  25.544  1.00  0.00     0.025 A 
ATOM     27  C   UNL A   1      43.785  35.282  27.838  1.00  0.00     0.025 A 
ATOM     28  C   UNL A   1      43.079  35.555  26.671  1.00  0.00     0.041 A 
ATOM     29  Cl  UNL A   1      41.960  36.859  26.623  1.00  0.00    -0.084 Cl
ENDBRANCH  15  23
ENDBRANCH   8   9
ENDBRANCH   7   8
ENDBRANCH   6   7
ENDBRANCH   4   6
ENDBRANCH   3   4
ENDBRANCH   2   3
ENDBRANCH   1   2
BRANCH   1  30
ATOM     30  O   UNL A   1      46.344  20.629  24.567  1.00  0.00    -0.374 OA
BRANCH  30  31
ATOM     31  C   UNL A   1      45.897  19.520  25.342  1.00  0.00     0.202 C 
BRANCH  31  32
ATOM     32  C   UNL A   1      44.611  18.814  24.862  1.00  0.00     0.261 C 
BRANCH  32  33
ATOM     33  O   UNL A   1      43.493  19.709  24.676  1.00  0.00    -0.460 OA
BRANCH  33  34
ATOM     34  C   UNL A   1      42.524  19.592  25.620  1.00  0.00     0.338 C 
ATOM     35  O   UNL A   1      42.007  18.564  26.025  1.00  0.00    -0.246 OA
BRANCH  34  36
ATOM     36  C   UNL A   1      42.263  20.885  26.282  1.00  0.00     0.060 A 
ATOM     37  C   UNL A   1      42.603  22.042  25.569  1.00  0.00     0.016 A 
ATOM     38  C   UNL A   1      41.842  20.972  27.610  1.00  0.00     0.016 A 
ATOM     39  C   UNL A   1      42.583  23.285  26.196  1.00  0.00     0.010 A 
ATOM     40  C   UNL A   1      41.826  22.225  28.241  1.00  0.00     0.010 A 
ATOM     41  C   UNL A   1      42.238  23.382  27.550  1.00  0.00    -0.014 A 
BRANCH  41  42
ATOM     42  C   UNL A   1      42.462  24.669  28.262  1.00  0.00     0.031 A 
ATOM     43  C   UNL A   1      43.823  24.971  28.833  1.00  0.00     0.074 A 
ATOM     44  C   UNL A   1      41.486  25.591  28.341  1.00  0.00     0.049 A 
ATOM     45  N   UNL A   1      44.234  26.026  29.489  1.00  0.00    -0.248 NA
ATOM     46  C   UNL A   1      44.860  23.945  28.637  1.00  0.00     0.031 C 
ATOM     47  C   UNL A   1      40.141  25.447  27.787  1.00  0.00     0.029 A 
ATOM     48  N   UNL A   1      41.479  26.837  28.921  1.00  0.00    -0.354 N 
ATOM     49  C   UNL A   1      45.570  25.788  29.792  1.00  0.00     0.074 A 
ATOM     50  C   UNL A   1      45.892  24.477  29.275  1.00  0.00     0.031 C 
ATOM     51  C   UNL A   1      39.437  26.560  28.055  1.00  0.00     0.029 A 
ATOM     52  C   UNL A   1      40.267  27.478  28.833  1.00  0.00     0.049 A 
ATOM     53  H   UNL A   1      42.268  27.232  29.357  1.00  0.00     0.167 HD
ATOM     54  C   UNL A   1      46.451  26.593  30.436  1.00  0.00     0.037 A 
ATOM     55  C   UNL A   1      39.866  28.659  29.342  1.00  0.00     0.037 A 
ATOM     56  C   UNL A   1      46.133  27.904  30.940  1.00  0.00     0.049 A 
ATOM     57  C   UNL A   1      40.843  29.503  30.119  1.00  0.00     0.074 A 
ATOM     58  C   UNL A   1      46.967  28.806  31.581  1.00  0.00     0.029 A 
ATOM     59  N   UNL A   1      44.883  28.498  30.871  1.00  0.00    -0.354 N 
ATOM     60  N   UNL A   1      42.108  29.278  30.377  1.00  0.00    -0.248 NA
ATOM     61  C   UNL A   1      40.335  30.766  30.674  1.00  0.00     0.031 C 
ATOM     62  C   UNL A   1      46.206  29.916  31.955  1.00  0.00     0.029 A 
ATOM     63  C   UNL A   1      44.913  29.739  31.489  1.00  0.00     0.049 A 
ATOM     64  H   UNL A   1      44.090  28.099  30.445  1.00  0.00     0.167 HD
ATOM     65  C   UNL A   1      42.555  30.384  31.093  1.00  0.00     0.074 A 
ATOM     66  C   UNL A   1      41.428  31.284  31.217  1.00  0.00     0.031 C 
ATOM     67  C   UNL A   1      43.787  30.632  31.601  1.00  0.00     0.037 A 
BRANCH  54  68
ATOM     68  C   UNL A   1      47.839  26.066  30.663  1.00  0.00     0.057 A 
ATOM     69  C   UNL A   1      48.228  25.477  31.873  1.00  0.00     0.134 A 
ATOM     70  C   UNL A   1      48.789  26.107  29.633  1.00  0.00     0.134 A 
ATOM     71  F   UNL A   1      47.371  25.414  32.904  1.00  0.00    -0.206 F 
ATOM     72  C   UNL A   1      49.515  24.970  32.060  1.00  0.00     0.040 A 
ATOM     73  C   UNL A   1      50.071  25.578  29.798  1.00  0.00     0.040 A 
ATOM     74  F   UNL A   1      48.484  26.650  28.445  1.00  0.00    -0.206 F 
ATOM     75  C   UNL A   1      50.439  25.013  31.017  1.00  0.00     0.006 A 
ENDBRANCH  54  68
BRANCH  55  76
ATOM     76  C   UNL A   1      38.461  29.112  29.158  1.00  0.00     0.057 A 
ATOM     77  C   UNL A   1      38.021  29.651  27.944  1.00  0.00     0.134 A 
ATOM     78  C   UNL A   1      37.535  29.046  30.206  1.00  0.00     0.134 A 
ATOM     79  F   UNL A   1      38.866  29.765  26.909  1.00  0.00    -0.206 F 
ATOM     80  C   UNL A   1      36.718  30.129  27.785  1.00  0.00     0.040 A 
ATOM     81  C   UNL A   1      36.221  29.491  30.052  1.00  0.00     0.040 A 
ATOM     82  F   UNL A   1      37.892  28.540  31.396  1.00  0.00    -0.206 F 
ATOM     83  C   UNL A   1      35.813  30.044  28.841  1.00  0.00     0.006 A 
ENDBRANCH  55  76
BRANCH  67  84
ATOM     84  C   UNL A   1      43.999  31.945  32.299  1.00  0.00     0.057 A 
ATOM     85  C   UNL A   1      44.511  33.068  31.636  1.00  0.00     0.134 A 
ATOM     86  C   UNL A   1      43.646  32.099  33.648  1.00  0.00     0.134 A 
ATOM     87  F   UNL A   1      44.880  32.988  30.349  1.00  0.00    -0.206 F 
ATOM     88  C   UNL A   1      44.692  34.285  32.296  1.00  0.00     0.040 A 
ATOM     89  C   UNL A   1      43.792  33.319  34.309  1.00  0.00     0.040 A 
ATOM     90  F   UNL A   1      43.139  31.069  34.341  1.00  0.00    -0.206 F 
ATOM     91  C   UNL A   1      44.324  34.415  33.633  1.00  0.00     0.006 A 
ENDBRANCH  67  84
ENDBRANCH  41  42
ENDBRANCH  34  36
ENDBRANCH  33  34
ENDBRANCH  32  33
ENDBRANCH  31  32
ENDBRANCH  30  31
ENDBRANCH   1  30
TORSDOF 18
ENDMDL
MODEL 3
REMARK VINA RESULT:     -11.0      4.243      7.305
REMARK SMILES O=C(COCC(=O)OCCOCCOC(=O)c1ccc(-c2c3nc(c(-c4c(F)cccc4F)c4ccc([nH]4)c(-c4c(F)cccc4F)c4nc(c(-c5c(F)cccc5F)c5ccc2[nH]5)C=C4)C=C3)cc1)/[NH+]=C1\S[C@@H]2CS(=O)(=O)C[C@H]2N1c1ccc(Cl)cc1
REMARK SMILES IDX 10 1 9 2 8 3 6 4 7 5 5 6 4 7 3 8 2 9 1 10 71 11 72 12 73 14
REMARK SMILES IDX 81 15 74 16 80 17 75 18 79 19 76 20 77 21 78 22 82 23 83 24
REMARK SMILES IDX 88 25 84 26 87 27 85 28 86 29 11 30 12 31 13 32 14 33 15 34
REMARK SMILES IDX 16 35 17 36 18 37 70 38 19 39 69 40 20 41 21 42 22 43 63 44
REMARK SMILES IDX 23 45 68 46 62 47 64 48 24 49 67 50 61 51 60 52 25 54 51 55
REMARK SMILES IDX 34 56 50 57 35 58 38 59 49 60 65 61 36 62 37 63 48 65 66 66
REMARK SMILES IDX 39 67 26 68 27 69 32 70 28 71 29 72 31 73 33 74 30 75 52 76
REMARK SMILES IDX 53 77 58 78 54 79 55 80 57 81 59 82 56 83 40 84 41 85 46 86
REMARK SMILES IDX 42 87 43 88 45 89 47 90 44 91
REMARK H PARENT 71 13 64 53 38 64
REMARK Flexibility Score: inf
ROOT
ATOM      1  C   UNL A   1      31.968  29.270  25.815  1.00  0.00     0.202 C 
ENDROOT
BRANCH   1   2
ATOM      2  C   UNL A   1      30.967  29.126  24.664  1.00  0.00     0.261 C 
BRANCH   2   3
ATOM      3  O   UNL A   1      31.613  28.943  23.387  1.00  0.00    -0.462 OA
BRANCH   3   4
ATOM      4  C   UNL A   1      30.841  28.409  22.400  1.00  0.00     0.332 C 
ATOM      5  O   UNL A   1      29.899  28.977  21.861  1.00  0.00    -0.250 OA
BRANCH   4   6
ATOM      6  C   UNL A   1      31.254  26.972  22.028  1.00  0.00     0.283 C 
BRANCH   6   7
ATOM      7  O   UNL A   1      31.533  25.978  23.001  1.00  0.00    -0.358 OA
BRANCH   7   8
ATOM      8  C   UNL A   1      32.813  25.394  22.856  1.00  0.00     0.288 C 
BRANCH   8   9
ATOM      9  C   UNL A   1      33.929  25.634  23.914  1.00  0.00     0.333 C 
ATOM     10  O   UNL A   1      34.058  26.744  24.427  1.00  0.00    -0.244 OA
ATOM     11  N   UNL A   1      34.785  24.598  24.202  1.00  0.00    -0.202 N 
ATOM     12  C   UNL A   1      34.332  23.495  24.691  1.00  0.00     0.319 C 
ATOM     13  H   UNL A   1      35.750  24.699  24.035  1.00  0.00     0.316 HD
ATOM     14  S   UNL A   1      32.598  23.169  25.019  1.00  0.00    -0.029 SA
ATOM     15  N   UNL A   1      35.049  22.317  24.941  1.00  0.00    -0.217 N 
ATOM     16  C   UNL A   1      32.894  21.501  24.430  1.00  0.00     0.120 C 
ATOM     17  C   UNL A   1      34.161  21.172  25.236  1.00  0.00     0.212 C 
ATOM     18  C   UNL A   1      31.878  20.418  24.637  1.00  0.00     0.156 C 
ATOM     19  C   UNL A   1      34.510  19.781  24.775  1.00  0.00     0.188 C 
ATOM     20  S   UNL A   1      32.910  18.959  24.760  1.00  0.00     0.155 S 
ATOM     21  O   UNL A   1      32.798  18.200  23.539  1.00  0.00    -0.229 OA
ATOM     22  O   UNL A   1      32.688  18.374  26.068  1.00  0.00    -0.229 OA
BRANCH  15  23
ATOM     23  C   UNL A   1      36.391  22.287  25.344  1.00  0.00     0.128 A 
ATOM     24  C   UNL A   1      36.963  23.350  26.062  1.00  0.00     0.053 A 
ATOM     25  C   UNL A   1      37.218  21.185  25.061  1.00  0.00     0.053 A 
ATOM     26  C   UNL A   1      38.308  23.335  26.450  1.00  0.00     0.025 A 
ATOM     27  C   UNL A   1      38.568  21.165  25.443  1.00  0.00     0.025 A 
ATOM     28  C   UNL A   1      39.108  22.244  26.134  1.00  0.00     0.041 A 
ATOM     29  Cl  UNL A   1      40.761  22.228  26.606  1.00  0.00    -0.084 Cl
ENDBRANCH  15  23
ENDBRANCH   8   9
ENDBRANCH   7   8
ENDBRANCH   6   7
ENDBRANCH   4   6
ENDBRANCH   3   4
ENDBRANCH   2   3
ENDBRANCH   1   2
BRANCH   1  30
ATOM     30  O   UNL A   1      32.302  30.588  26.241  1.00  0.00    -0.374 OA
BRANCH  30  31
ATOM     31  C   UNL A   1      31.298  31.594  26.127  1.00  0.00     0.202 C 
BRANCH  31  32
ATOM     32  C   UNL A   1      31.700  33.024  26.544  1.00  0.00     0.261 C 
BRANCH  32  33
ATOM     33  O   UNL A   1      32.144  33.126  27.915  1.00  0.00    -0.460 OA
BRANCH  33  34
ATOM     34  C   UNL A   1      33.180  33.985  28.101  1.00  0.00     0.338 C 
ATOM     35  O   UNL A   1      33.120  35.196  28.236  1.00  0.00    -0.246 OA
BRANCH  34  36
ATOM     36  C   UNL A   1      34.445  33.258  28.320  1.00  0.00     0.060 A 
ATOM     37  C   UNL A   1      34.345  31.913  28.696  1.00  0.00     0.016 A 
ATOM     38  C   UNL A   1      35.685  33.898  28.308  1.00  0.00     0.016 A 
ATOM     39  C   UNL A   1      35.475  31.216  29.120  1.00  0.00     0.010 A 
ATOM     40  C   UNL A   1      36.821  33.196  28.738  1.00  0.00     0.010 A 
ATOM     41  C   UNL A   1      36.714  31.865  29.188  1.00  0.00    -0.014 A 
BRANCH  41  42
ATOM     42  C   UNL A   1      37.847  31.186  29.873  1.00  0.00     0.031 A 
ATOM     43  C   UNL A   1      38.084  31.440  31.339  1.00  0.00     0.074 A 
ATOM     44  C   UNL A   1      38.618  30.301  29.217  1.00  0.00     0.049 A 
ATOM     45  N   UNL A   1      39.009  30.956  32.128  1.00  0.00    -0.248 NA
ATOM     46  C   UNL A   1      37.149  32.362  32.005  1.00  0.00     0.031 C 
ATOM     47  C   UNL A   1      38.465  29.926  27.812  1.00  0.00     0.029 A 
ATOM     48  N   UNL A   1      39.687  29.553  29.650  1.00  0.00    -0.354 N 
ATOM     49  C   UNL A   1      38.776  31.521  33.377  1.00  0.00     0.074 A 
ATOM     50  C   UNL A   1      37.641  32.406  33.235  1.00  0.00     0.031 C 
ATOM     51  C   UNL A   1      39.407  29.020  27.497  1.00  0.00     0.029 A 
ATOM     52  C   UNL A   1      40.253  28.781  28.665  1.00  0.00     0.049 A 
ATOM     53  H   UNL A   1      40.015  29.569  30.578  1.00  0.00     0.167 HD
ATOM     54  C   UNL A   1      39.443  31.315  34.540  1.00  0.00     0.037 A 
ATOM     55  C   UNL A   1      41.343  27.989  28.695  1.00  0.00     0.037 A 
ATOM     56  C   UNL A   1      40.566  30.425  34.684  1.00  0.00     0.049 A 
ATOM     57  C   UNL A   1      42.112  27.834  29.982  1.00  0.00     0.074 A 
ATOM     58  C   UNL A   1      41.288  30.129  35.829  1.00  0.00     0.029 A 
ATOM     59  N   UNL A   1      41.136  29.695  33.653  1.00  0.00    -0.354 N 
ATOM     60  N   UNL A   1      41.867  28.353  31.161  1.00  0.00    -0.248 NA
ATOM     61  C   UNL A   1      43.309  26.981  29.942  1.00  0.00     0.031 C 
ATOM     62  C   UNL A   1      42.333  29.271  35.476  1.00  0.00     0.029 A 
ATOM     63  C   UNL A   1      42.224  28.978  34.127  1.00  0.00     0.049 A 
ATOM     64  H   UNL A   1      40.817  29.688  32.722  1.00  0.00     0.167 HD
ATOM     65  C   UNL A   1      42.857  27.864  32.007  1.00  0.00     0.074 A 
ATOM     66  C   UNL A   1      43.698  26.997  31.209  1.00  0.00     0.031 C 
ATOM     67  C   UNL A   1      43.051  28.110  33.326  1.00  0.00     0.037 A 
BRANCH  54  68
ATOM     68  C   UNL A   1      38.996  32.091  35.746  1.00  0.00     0.057 A 
ATOM     69  C   UNL A   1      38.211  31.519  36.755  1.00  0.00     0.134 A 
ATOM     70  C   UNL A   1      39.401  33.421  35.922  1.00  0.00     0.134 A 
ATOM     71  F   UNL A   1      37.781  30.253  36.646  1.00  0.00    -0.206 F 
ATOM     72  C   UNL A   1      37.824  32.248  37.882  1.00  0.00     0.040 A 
ATOM     73  C   UNL A   1      39.045  34.151  37.057  1.00  0.00     0.040 A 
ATOM     74  F   UNL A   1      40.161  34.031  34.999  1.00  0.00    -0.206 F 
ATOM     75  C   UNL A   1      38.248  33.566  38.039  1.00  0.00     0.006 A 
ENDBRANCH  54  68
BRANCH  55  76
ATOM     76  C   UNL A   1      41.795  27.295  27.461  1.00  0.00     0.057 A 
ATOM     77  C   UNL A   1      41.314  26.026  27.118  1.00  0.00     0.134 A 
ATOM     78  C   UNL A   1      42.746  27.873  26.610  1.00  0.00     0.134 A 
ATOM     79  F   UNL A   1      40.421  25.407  27.904  1.00  0.00    -0.206 F 
ATOM     80  C   UNL A   1      41.778  25.348  25.989  1.00  0.00     0.040 A 
ATOM     81  C   UNL A   1      43.196  27.220  25.462  1.00  0.00     0.040 A 
ATOM     82  F   UNL A   1      43.248  29.088  26.880  1.00  0.00    -0.206 F 
ATOM     83  C   UNL A   1      42.719  25.949  25.155  1.00  0.00     0.006 A 
ENDBRANCH  55  76
BRANCH  67  84
ATOM     84  C   UNL A   1      44.189  27.401  34.004  1.00  0.00     0.057 A 
ATOM     85  C   UNL A   1      45.465  27.969  34.107  1.00  0.00     0.134 A 
ATOM     86  C   UNL A   1      43.993  26.146  34.598  1.00  0.00     0.134 A 
ATOM     87  F   UNL A   1      45.726  29.162  33.550  1.00  0.00    -0.206 F 
ATOM     88  C   UNL A   1      46.511  27.303  34.749  1.00  0.00     0.040 A 
ATOM     89  C   UNL A   1      45.021  25.485  35.270  1.00  0.00     0.040 A 
ATOM     90  F   UNL A   1      42.793  25.549  34.548  1.00  0.00    -0.206 F 
ATOM     91  C   UNL A   1      46.288  26.062  35.341  1.00  0.00     0.006 A 
ENDBRANCH  67  84
ENDBRANCH  41  42
ENDBRANCH  34  36
ENDBRANCH  33  34
ENDBRANCH  32  33
ENDBRANCH  31  32
ENDBRANCH  30  31
ENDBRANCH   1  30
TORSDOF 18
ENDMDL
