MODEL 1
REMARK VINA RESULT:     -10.8      0.000      0.000
REMARK SMILES O=C(CCCCN1C(=O)CCc2cc([N+](=O)[O-])ccc21)OCCOCCOC(=O)c1ccc(-c2c3nc(c(-c4c(F)cccc4F)c4ccc([nH]4)c(-c4c(F)cccc4F)c4nc(c(-c5c(F)cccc5F)c5ccc2[nH]5)C=C4)C=C3)cc1
REMARK SMILES IDX 22 1 21 2 2 3 1 4 3 5 4 6 5 7 6 8 7 9 8 10 20 11 9 12 10 13
REMARK SMILES IDX 12 14 19 15 11 16 13 17 18 18 14 19 15 20 16 21 17 22 23 23
REMARK SMILES IDX 24 24 25 25 26 26 27 27 28 28 29 29 30 30 31 31 83 32 32 33
REMARK SMILES IDX 82 34 33 35 34 36 35 37 76 38 36 39 81 40 75 41 77 42 37 43
REMARK SMILES IDX 80 44 74 45 73 46 38 48 64 49 47 50 63 51 48 52 51 53 62 54
REMARK SMILES IDX 78 55 49 56 50 57 61 59 79 60 52 61 39 62 40 63 45 64 41 65
REMARK SMILES IDX 42 66 44 67 46 68 43 69 65 70 66 71 71 72 67 73 68 74 70 75
REMARK SMILES IDX 72 76 69 77 53 78 54 79 59 80 55 81 56 82 58 83 60 84 57 85
REMARK H PARENT 77 47 51 58
REMARK Flexibility Score: inf
ROOT
ATOM      1  C   UNL A   1      31.342  27.885  22.786  1.00  0.00     0.261 C 
ENDROOT
BRANCH   1   2
ATOM      2  O   UNL A   1      32.661  27.621  22.299  1.00  0.00    -0.463 OA
BRANCH   2   3
ATOM      3  C   UNL A   1      33.241  26.416  22.138  1.00  0.00     0.305 C 
ATOM      4  O   UNL A   1      33.279  25.926  21.008  1.00  0.00    -0.252 OA
BRANCH   3   5
ATOM      5  C   UNL A   1      33.857  25.669  23.303  1.00  0.00     0.123 C 
BRANCH   5   6
ATOM      6  C   UNL A   1      32.933  24.735  24.067  1.00  0.00     0.014 C 
BRANCH   6   7
ATOM      7  C   UNL A   1      33.124  24.679  25.587  1.00  0.00     0.023 C 
BRANCH   7   8
ATOM      8  C   UNL A   1      33.767  23.397  26.194  1.00  0.00     0.125 C 
BRANCH   8   9
ATOM      9  N   UNL A   1      34.700  22.585  25.405  1.00  0.00    -0.312 N 
ATOM     10  C   UNL A   1      36.037  23.003  25.346  1.00  0.00     0.227 C 
ATOM     11  C   UNL A   1      34.305  21.364  24.812  1.00  0.00     0.047 A 
ATOM     12  O   UNL A   1      36.434  24.079  25.791  1.00  0.00    -0.275 OA
ATOM     13  C   UNL A   1      36.974  22.081  24.597  1.00  0.00     0.105 C 
ATOM     14  C   UNL A   1      35.243  20.323  24.764  1.00  0.00    -0.017 A 
ATOM     15  C   UNL A   1      32.991  21.129  24.411  1.00  0.00     0.034 A 
ATOM     16  C   UNL A   1      36.697  20.636  24.988  1.00  0.00     0.048 C 
ATOM     17  C   UNL A   1      34.790  19.007  24.627  1.00  0.00     0.091 A 
ATOM     18  C   UNL A   1      32.526  19.828  24.272  1.00  0.00     0.088 A 
ATOM     19  C   UNL A   1      33.419  18.770  24.454  1.00  0.00     0.269 A 
BRANCH  19  20
ATOM     20  N   UNL A   1      32.898  17.405  24.524  1.00  0.00     0.062 N 
ATOM     21  O   UNL A   1      33.455  16.541  23.835  1.00  0.00    -0.258 OA
ATOM     22  O   UNL A   1      31.947  17.196  25.291  1.00  0.00    -0.258 OA
ENDBRANCH  19  20
ENDBRANCH   8   9
ENDBRANCH   7   8
ENDBRANCH   6   7
ENDBRANCH   5   6
ENDBRANCH   3   5
ENDBRANCH   2   3
ENDBRANCH   1   2
BRANCH   1  23
ATOM     23  C   UNL A   1      31.307  28.590  24.123  1.00  0.00     0.202 C 
BRANCH  23  24
ATOM     24  O   UNL A   1      31.526  27.740  25.240  1.00  0.00    -0.374 OA
BRANCH  24  25
ATOM     25  C   UNL A   1      31.779  28.435  26.461  1.00  0.00     0.202 C 
BRANCH  25  26
ATOM     26  C   UNL A   1      31.864  29.957  26.278  1.00  0.00     0.261 C 
BRANCH  26  27
ATOM     27  O   UNL A   1      33.234  30.396  26.303  1.00  0.00    -0.460 OA
BRANCH  27  28
ATOM     28  C   UNL A   1      33.524  31.380  27.194  1.00  0.00     0.338 C 
ATOM     29  O   UNL A   1      32.767  32.240  27.613  1.00  0.00    -0.246 OA
BRANCH  28  30
ATOM     30  C   UNL A   1      34.870  31.123  27.768  1.00  0.00     0.060 A 
ATOM     31  C   UNL A   1      35.259  29.791  27.996  1.00  0.00     0.016 A 
ATOM     32  C   UNL A   1      35.774  32.163  28.001  1.00  0.00     0.016 A 
ATOM     33  C   UNL A   1      36.532  29.499  28.489  1.00  0.00     0.010 A 
ATOM     34  C   UNL A   1      37.038  31.875  28.512  1.00  0.00     0.010 A 
ATOM     35  C   UNL A   1      37.407  30.546  28.796  1.00  0.00    -0.014 A 
BRANCH  35  36
ATOM     36  C   UNL A   1      38.572  30.331  29.684  1.00  0.00     0.031 A 
ATOM     37  C   UNL A   1      39.622  29.372  29.202  1.00  0.00     0.074 A 
ATOM     38  C   UNL A   1      38.661  30.884  30.904  1.00  0.00     0.049 A 
ATOM     39  N   UNL A   1      40.611  28.817  29.851  1.00  0.00    -0.248 NA
ATOM     40  C   UNL A   1      39.516  28.959  27.792  1.00  0.00     0.031 C 
ATOM     41  C   UNL A   1      37.732  31.858  31.467  1.00  0.00     0.029 A 
ATOM     42  N   UNL A   1      39.572  30.662  31.908  1.00  0.00    -0.354 N 
ATOM     43  C   UNL A   1      41.220  27.964  28.939  1.00  0.00     0.074 A 
ATOM     44  C   UNL A   1      40.481  28.061  27.701  1.00  0.00     0.031 C 
ATOM     45  C   UNL A   1      38.098  32.124  32.735  1.00  0.00     0.029 A 
ATOM     46  C   UNL A   1      39.258  31.303  33.081  1.00  0.00     0.049 A 
ATOM     47  H   UNL A   1      40.372  30.099  31.795  1.00  0.00     0.167 HD
ATOM     48  C   UNL A   1      42.297  27.167  29.120  1.00  0.00     0.037 A 
ATOM     49  C   UNL A   1      39.820  31.199  34.301  1.00  0.00     0.037 A 
ATOM     50  C   UNL A   1      43.022  27.074  30.357  1.00  0.00     0.049 A 
ATOM     51  C   UNL A   1      40.988  30.266  34.504  1.00  0.00     0.074 A 
ATOM     52  C   UNL A   1      44.142  26.316  30.645  1.00  0.00     0.029 A 
ATOM     53  N   UNL A   1      42.684  27.756  31.517  1.00  0.00    -0.354 N 
ATOM     54  N   UNL A   1      41.574  29.474  33.638  1.00  0.00    -0.248 NA
ATOM     55  C   UNL A   1      41.571  30.210  35.853  1.00  0.00     0.031 C 
ATOM     56  C   UNL A   1      44.454  26.502  31.996  1.00  0.00     0.029 A 
ATOM     57  C   UNL A   1      43.562  27.421  32.532  1.00  0.00     0.049 A 
ATOM     58  H   UNL A   1      41.933  28.385  31.604  1.00  0.00     0.167 HD
ATOM     59  C   UNL A   1      42.610  28.852  34.325  1.00  0.00     0.074 A 
ATOM     60  C   UNL A   1      42.573  29.358  35.682  1.00  0.00     0.031 C 
ATOM     61  C   UNL A   1      43.517  27.950  33.872  1.00  0.00     0.037 A 
BRANCH  48  62
ATOM     62  C   UNL A   1      42.708  26.305  27.963  1.00  0.00     0.057 A 
ATOM     63  C   UNL A   1      42.279  24.978  27.831  1.00  0.00     0.134 A 
ATOM     64  C   UNL A   1      43.574  26.804  26.981  1.00  0.00     0.134 A 
ATOM     65  F   UNL A   1      41.469  24.431  28.751  1.00  0.00    -0.206 F 
ATOM     66  C   UNL A   1      42.727  24.167  26.788  1.00  0.00     0.040 A 
ATOM     67  C   UNL A   1      44.003  26.012  25.916  1.00  0.00     0.040 A 
ATOM     68  F   UNL A   1      44.025  28.067  27.046  1.00  0.00    -0.206 F 
ATOM     69  C   UNL A   1      43.588  24.685  25.823  1.00  0.00     0.006 A 
ENDBRANCH  48  62
BRANCH  49  70
ATOM     70  C   UNL A   1      39.270  31.985  35.433  1.00  0.00     0.057 A 
ATOM     71  C   UNL A   1      39.667  33.307  35.657  1.00  0.00     0.134 A 
ATOM     72  C   UNL A   1      38.323  31.440  36.310  1.00  0.00     0.134 A 
ATOM     73  F   UNL A   1      40.589  33.877  34.867  1.00  0.00    -0.206 F 
ATOM     74  C   UNL A   1      39.147  34.059  36.713  1.00  0.00     0.040 A 
ATOM     75  C   UNL A   1      37.778  32.186  37.356  1.00  0.00     0.040 A 
ATOM     76  F   UNL A   1      37.901  30.176  36.151  1.00  0.00    -0.206 F 
ATOM     77  C   UNL A   1      38.193  33.501  37.561  1.00  0.00     0.006 A 
ENDBRANCH  49  70
BRANCH  61  78
ATOM     78  C   UNL A   1      44.582  27.490  34.826  1.00  0.00     0.057 A 
ATOM     79  C   UNL A   1      44.469  26.296  35.547  1.00  0.00     0.134 A 
ATOM     80  C   UNL A   1      45.774  28.215  34.954  1.00  0.00     0.134 A 
ATOM     81  F   UNL A   1      43.351  25.559  35.475  1.00  0.00    -0.206 F 
ATOM     82  C   UNL A   1      45.503  25.845  36.372  1.00  0.00     0.040 A 
ATOM     83  C   UNL A   1      46.823  27.761  35.754  1.00  0.00     0.040 A 
ATOM     84  F   UNL A   1      45.949  29.362  34.279  1.00  0.00    -0.206 F 
ATOM     85  C   UNL A   1      46.687  26.573  36.468  1.00  0.00     0.006 A 
ENDBRANCH  61  78
ENDBRANCH  35  36
ENDBRANCH  28  30
ENDBRANCH  27  28
ENDBRANCH  26  27
ENDBRANCH  25  26
ENDBRANCH  24  25
ENDBRANCH  23  24
ENDBRANCH   1  23
TORSDOF 19
ENDMDL
MODEL 2
REMARK VINA RESULT:     -10.7      4.010      9.455
REMARK SMILES O=C(CCCCN1C(=O)CCc2cc([N+](=O)[O-])ccc21)OCCOCCOC(=O)c1ccc(-c2c3nc(c(-c4c(F)cccc4F)c4ccc([nH]4)c(-c4c(F)cccc4F)c4nc(c(-c5c(F)cccc5F)c5ccc2[nH]5)C=C4)C=C3)cc1
REMARK SMILES IDX 22 1 21 2 2 3 1 4 3 5 4 6 5 7 6 8 7 9 8 10 20 11 9 12 10 13
REMARK SMILES IDX 12 14 19 15 11 16 13 17 18 18 14 19 15 20 16 21 17 22 23 23
REMARK SMILES IDX 24 24 25 25 26 26 27 27 28 28 29 29 30 30 31 31 83 32 32 33
REMARK SMILES IDX 82 34 33 35 34 36 35 37 76 38 36 39 81 40 75 41 77 42 37 43
REMARK SMILES IDX 80 44 74 45 73 46 38 48 64 49 47 50 63 51 48 52 51 53 62 54
REMARK SMILES IDX 78 55 49 56 50 57 61 59 79 60 52 61 39 62 40 63 45 64 41 65
REMARK SMILES IDX 42 66 44 67 46 68 43 69 65 70 66 71 71 72 67 73 68 74 70 75
REMARK SMILES IDX 72 76 69 77 53 78 54 79 59 80 55 81 56 82 58 83 60 84 57 85
REMARK H PARENT 77 47 51 58
REMARK Flexibility Score: inf
ROOT
ATOM      1  C   UNL A   1      33.908  23.256  25.617  1.00  0.00     0.261 C 
ENDROOT
BRANCH   1   2
ATOM      2  O   UNL A   1      32.491  23.131  25.461  1.00  0.00    -0.463 OA
BRANCH   2   3
ATOM      3  C   UNL A   1      31.837  22.496  24.469  1.00  0.00     0.305 C 
ATOM      4  O   UNL A   1      31.927  21.269  24.394  1.00  0.00    -0.252 OA
BRANCH   3   5
ATOM      5  C   UNL A   1      30.987  23.251  23.468  1.00  0.00     0.123 C 
BRANCH   5   6
ATOM      6  C   UNL A   1      31.092  24.767  23.504  1.00  0.00     0.014 C 
BRANCH   6   7
ATOM      7  C   UNL A   1      31.933  25.419  22.400  1.00  0.00     0.023 C 
BRANCH   7   8
ATOM      8  C   UNL A   1      32.331  26.914  22.575  1.00  0.00     0.125 C 
BRANCH   8   9
ATOM      9  N   UNL A   1      31.838  27.688  23.720  1.00  0.00    -0.312 N 
ATOM     10  C   UNL A   1      32.626  27.711  24.879  1.00  0.00     0.227 C 
ATOM     11  C   UNL A   1      30.667  28.478  23.634  1.00  0.00     0.047 A 
ATOM     12  O   UNL A   1      33.622  27.007  25.038  1.00  0.00    -0.275 OA
ATOM     13  C   UNL A   1      32.117  28.599  25.994  1.00  0.00     0.105 C 
ATOM     14  C   UNL A   1      30.640  29.689  24.338  1.00  0.00    -0.017 A 
ATOM     15  C   UNL A   1      29.620  28.154  22.773  1.00  0.00     0.034 A 
ATOM     16  C   UNL A   1      31.655  29.931  25.422  1.00  0.00     0.048 C 
ATOM     17  C   UNL A   1      29.746  30.688  23.936  1.00  0.00     0.091 A 
ATOM     18  C   UNL A   1      28.726  29.135  22.363  1.00  0.00     0.088 A 
ATOM     19  C   UNL A   1      28.843  30.420  22.897  1.00  0.00     0.269 A 
BRANCH  19  20
ATOM     20  N   UNL A   1      28.053  31.505  22.317  1.00  0.00     0.062 N 
ATOM     21  O   UNL A   1      27.558  32.334  23.093  1.00  0.00    -0.258 OA
ATOM     22  O   UNL A   1      27.951  31.540  21.083  1.00  0.00    -0.258 OA
ENDBRANCH  19  20
ENDBRANCH   8   9
ENDBRANCH   7   8
ENDBRANCH   6   7
ENDBRANCH   5   6
ENDBRANCH   3   5
ENDBRANCH   2   3
ENDBRANCH   1   2
BRANCH   1  23
ATOM     23  C   UNL A   1      34.655  23.480  24.320  1.00  0.00     0.202 C 
BRANCH  23  24
ATOM     24  O   UNL A   1      35.565  22.443  23.982  1.00  0.00    -0.374 OA
BRANCH  24  25
ATOM     25  C   UNL A   1      35.401  21.251  24.752  1.00  0.00     0.202 C 
BRANCH  25  26
ATOM     26  C   UNL A   1      36.730  20.541  25.049  1.00  0.00     0.261 C 
BRANCH  26  27
ATOM     27  O   UNL A   1      37.809  21.491  25.116  1.00  0.00    -0.460 OA
BRANCH  27  28
ATOM     28  C   UNL A   1      38.900  21.097  25.824  1.00  0.00     0.338 C 
ATOM     29  O   UNL A   1      39.427  19.997  25.811  1.00  0.00    -0.246 OA
BRANCH  28  30
ATOM     30  C   UNL A   1      39.507  22.290  26.468  1.00  0.00     0.060 A 
ATOM     31  C   UNL A   1      38.989  23.559  26.152  1.00  0.00     0.016 A 
ATOM     32  C   UNL A   1      40.511  22.166  27.432  1.00  0.00     0.016 A 
ATOM     33  C   UNL A   1      39.497  24.704  26.769  1.00  0.00     0.010 A 
ATOM     34  C   UNL A   1      41.033  23.310  28.034  1.00  0.00     0.010 A 
ATOM     35  C   UNL A   1      40.556  24.585  27.675  1.00  0.00    -0.014 A 
BRANCH  35  36
ATOM     36  C   UNL A   1      41.388  25.756  28.033  1.00  0.00     0.031 A 
ATOM     37  C   UNL A   1      40.705  26.873  28.770  1.00  0.00     0.074 A 
ATOM     38  C   UNL A   1      42.669  25.875  27.647  1.00  0.00     0.049 A 
ATOM     39  N   UNL A   1      41.108  28.093  28.999  1.00  0.00    -0.248 NA
ATOM     40  C   UNL A   1      39.361  26.569  29.291  1.00  0.00     0.031 C 
ATOM     41  C   UNL A   1      43.452  24.850  26.966  1.00  0.00     0.029 A 
ATOM     42  N   UNL A   1      43.522  26.948  27.745  1.00  0.00    -0.354 N 
ATOM     43  C   UNL A   1      40.054  28.713  29.659  1.00  0.00     0.074 A 
ATOM     44  C   UNL A   1      38.990  27.741  29.776  1.00  0.00     0.031 C 
ATOM     45  C   UNL A   1      44.664  25.355  26.671  1.00  0.00     0.029 A 
ATOM     46  C   UNL A   1      44.719  26.752  27.103  1.00  0.00     0.049 A 
ATOM     47  H   UNL A   1      43.296  27.775  28.229  1.00  0.00     0.167 HD
ATOM     48  C   UNL A   1      39.978  29.981  30.121  1.00  0.00     0.037 A 
ATOM     49  C   UNL A   1      45.721  27.619  26.856  1.00  0.00     0.037 A 
ATOM     50  C   UNL A   1      41.039  30.942  29.996  1.00  0.00     0.049 A 
ATOM     51  C   UNL A   1      45.602  29.045  27.331  1.00  0.00     0.074 A 
ATOM     52  C   UNL A   1      41.078  32.247  30.449  1.00  0.00     0.029 A 
ATOM     53  N   UNL A   1      42.246  30.697  29.357  1.00  0.00    -0.354 N 
ATOM     54  N   UNL A   1      44.613  29.626  27.968  1.00  0.00    -0.248 NA
ATOM     55  C   UNL A   1      46.736  29.939  27.048  1.00  0.00     0.031 C 
ATOM     56  C   UNL A   1      42.292  32.810  30.040  1.00  0.00     0.029 A 
ATOM     57  C   UNL A   1      43.031  31.836  29.383  1.00  0.00     0.049 A 
ATOM     58  H   UNL A   1      42.505  29.841  28.946  1.00  0.00     0.167 HD
ATOM     59  C   UNL A   1      45.017  30.937  28.192  1.00  0.00     0.074 A 
ATOM     60  C   UNL A   1      46.341  31.069  27.620  1.00  0.00     0.031 C 
ATOM     61  C   UNL A   1      44.355  31.940  28.822  1.00  0.00     0.037 A 
BRANCH  48  62
ATOM     62  C   UNL A   1      38.683  30.398  30.755  1.00  0.00     0.057 A 
ATOM     63  C   UNL A   1      38.416  30.190  32.114  1.00  0.00     0.134 A 
ATOM     64  C   UNL A   1      37.675  30.990  29.982  1.00  0.00     0.134 A 
ATOM     65  F   UNL A   1      39.329  29.605  32.905  1.00  0.00    -0.206 F 
ATOM     66  C   UNL A   1      37.180  30.518  32.673  1.00  0.00     0.040 A 
ATOM     67  C   UNL A   1      36.448  31.352  30.537  1.00  0.00     0.040 A 
ATOM     68  F   UNL A   1      37.864  31.217  28.673  1.00  0.00    -0.206 F 
ATOM     69  C   UNL A   1      36.193  31.105  31.885  1.00  0.00     0.006 A 
ENDBRANCH  48  62
BRANCH  49  70
ATOM     70  C   UNL A   1      46.917  27.165  26.102  1.00  0.00     0.057 A 
ATOM     71  C   UNL A   1      47.990  26.546  26.752  1.00  0.00     0.134 A 
ATOM     72  C   UNL A   1      47.011  27.327  24.714  1.00  0.00     0.134 A 
ATOM     73  F   UNL A   1      47.971  26.387  28.083  1.00  0.00    -0.206 F 
ATOM     74  C   UNL A   1      49.115  26.106  26.050  1.00  0.00     0.040 A 
ATOM     75  C   UNL A   1      48.118  26.871  23.997  1.00  0.00     0.040 A 
ATOM     76  F   UNL A   1      46.016  27.914  24.032  1.00  0.00    -0.206 F 
ATOM     77  C   UNL A   1      49.177  26.261  24.668  1.00  0.00     0.006 A 
ENDBRANCH  49  70
BRANCH  61  78
ATOM     78  C   UNL A   1      45.064  33.254  28.983  1.00  0.00     0.057 A 
ATOM     79  C   UNL A   1      45.932  33.505  30.051  1.00  0.00     0.134 A 
ATOM     80  C   UNL A   1      44.938  34.248  28.003  1.00  0.00     0.134 A 
ATOM     81  F   UNL A   1      46.091  32.598  31.027  1.00  0.00    -0.206 F 
ATOM     82  C   UNL A   1      46.642  34.704  30.145  1.00  0.00     0.040 A 
ATOM     83  C   UNL A   1      45.661  35.438  28.072  1.00  0.00     0.040 A 
ATOM     84  F   UNL A   1      44.130  34.063  26.946  1.00  0.00    -0.206 F 
ATOM     85  C   UNL A   1      46.515  35.670  29.147  1.00  0.00     0.006 A 
ENDBRANCH  61  78
ENDBRANCH  35  36
ENDBRANCH  28  30
ENDBRANCH  27  28
ENDBRANCH  26  27
ENDBRANCH  25  26
ENDBRANCH  24  25
ENDBRANCH  23  24
ENDBRANCH   1  23
TORSDOF 19
ENDMDL
MODEL 3
REMARK VINA RESULT:     -10.6      3.503      8.477
REMARK SMILES O=C(CCCCN1C(=O)CCc2cc([N+](=O)[O-])ccc21)OCCOCCOC(=O)c1ccc(-c2c3nc(c(-c4c(F)cccc4F)c4ccc([nH]4)c(-c4c(F)cccc4F)c4nc(c(-c5c(F)cccc5F)c5ccc2[nH]5)C=C4)C=C3)cc1
REMARK SMILES IDX 22 1 21 2 2 3 1 4 3 5 4 6 5 7 6 8 7 9 8 10 20 11 9 12 10 13
REMARK SMILES IDX 12 14 19 15 11 16 13 17 18 18 14 19 15 20 16 21 17 22 23 23
REMARK SMILES IDX 24 24 25 25 26 26 27 27 28 28 29 29 30 30 31 31 83 32 32 33
REMARK SMILES IDX 82 34 33 35 34 36 35 37 76 38 36 39 81 40 75 41 77 42 37 43
REMARK SMILES IDX 80 44 74 45 73 46 38 48 64 49 47 50 63 51 48 52 51 53 62 54
REMARK SMILES IDX 78 55 49 56 50 57 61 59 79 60 52 61 39 62 40 63 45 64 41 65
REMARK SMILES IDX 42 66 44 67 46 68 43 69 65 70 66 71 71 72 67 73 68 74 70 75
REMARK SMILES IDX 72 76 69 77 53 78 54 79 59 80 55 81 56 82 58 83 60 84 57 85
REMARK H PARENT 77 47 51 58
REMARK Flexibility Score: inf
ROOT
ATOM      1  C   UNL A   1      35.739  32.431  28.383  1.00  0.00     0.261 C 
ENDROOT
BRANCH   1   2
ATOM      2  O   UNL A   1      34.623  31.565  28.614  1.00  0.00    -0.463 OA
BRANCH   2   3
ATOM      3  C   UNL A   1      33.959  30.835  27.697  1.00  0.00     0.305 C 
ATOM      4  O   UNL A   1      32.814  31.172  27.393  1.00  0.00    -0.252 OA
BRANCH   3   5
ATOM      5  C   UNL A   1      34.593  29.634  27.027  1.00  0.00     0.123 C 
BRANCH   5   6
ATOM      6  C   UNL A   1      33.637  28.602  26.451  1.00  0.00     0.014 C 
BRANCH   6   7
ATOM      7  C   UNL A   1      33.157  28.843  25.015  1.00  0.00     0.023 C 
BRANCH   7   8
ATOM      8  C   UNL A   1      33.142  27.630  24.039  1.00  0.00     0.125 C 
BRANCH   8   9
ATOM      9  N   UNL A   1      31.874  26.997  23.655  1.00  0.00    -0.312 N 
ATOM     10  C   UNL A   1      31.690  25.650  23.997  1.00  0.00     0.227 C 
ATOM     11  C   UNL A   1      30.825  27.736  23.062  1.00  0.00     0.047 A 
ATOM     12  O   UNL A   1      32.579  24.938  24.461  1.00  0.00    -0.275 OA
ATOM     13  C   UNL A   1      30.331  25.074  23.660  1.00  0.00     0.105 C 
ATOM     14  C   UNL A   1      29.508  27.391  23.398  1.00  0.00    -0.017 A 
ATOM     15  C   UNL A   1      31.066  28.865  22.280  1.00  0.00     0.034 A 
ATOM     16  C   UNL A   1      29.242  26.063  24.052  1.00  0.00     0.048 C 
ATOM     17  C   UNL A   1      28.493  28.338  23.224  1.00  0.00     0.091 A 
ATOM     18  C   UNL A   1      30.068  29.814  22.100  1.00  0.00     0.088 A 
ATOM     19  C   UNL A   1      28.803  29.574  22.640  1.00  0.00     0.269 A 
BRANCH  19  20
ATOM     20  N   UNL A   1      27.816  30.653  22.644  1.00  0.00     0.062 N 
ATOM     21  O   UNL A   1      27.775  31.399  21.656  1.00  0.00    -0.258 OA
ATOM     22  O   UNL A   1      27.065  30.735  23.626  1.00  0.00    -0.258 OA
ENDBRANCH  19  20
ENDBRANCH   8   9
ENDBRANCH   7   8
ENDBRANCH   6   7
ENDBRANCH   5   6
ENDBRANCH   3   5
ENDBRANCH   2   3
ENDBRANCH   1   2
BRANCH   1  23
ATOM     23  C   UNL A   1      35.362  33.879  28.161  1.00  0.00     0.202 C 
BRANCH  23  24
ATOM     24  O   UNL A   1      34.161  34.276  28.806  1.00  0.00    -0.374 OA
BRANCH  24  25
ATOM     25  C   UNL A   1      33.734  35.599  28.478  1.00  0.00     0.202 C 
BRANCH  25  26
ATOM     26  C   UNL A   1      32.985  36.290  29.627  1.00  0.00     0.261 C 
BRANCH  26  27
ATOM     27  O   UNL A   1      32.594  35.332  30.628  1.00  0.00    -0.460 OA
BRANCH  27  28
ATOM     28  C   UNL A   1      32.741  35.732  31.918  1.00  0.00     0.338 C 
ATOM     29  O   UNL A   1      31.987  36.447  32.556  1.00  0.00    -0.246 OA
BRANCH  28  30
ATOM     30  C   UNL A   1      33.868  34.979  32.526  1.00  0.00     0.060 A 
ATOM     31  C   UNL A   1      35.158  35.536  32.462  1.00  0.00     0.016 A 
ATOM     32  C   UNL A   1      33.656  33.788  33.224  1.00  0.00     0.016 A 
ATOM     33  C   UNL A   1      36.240  34.888  33.062  1.00  0.00     0.010 A 
ATOM     34  C   UNL A   1      34.738  33.129  33.807  1.00  0.00     0.010 A 
ATOM     35  C   UNL A   1      36.039  33.655  33.692  1.00  0.00    -0.014 A 
BRANCH  35  36
ATOM     36  C   UNL A   1      37.175  32.748  33.970  1.00  0.00     0.031 A 
ATOM     37  C   UNL A   1      37.940  32.991  35.240  1.00  0.00     0.074 A 
ATOM     38  C   UNL A   1      37.575  31.805  33.102  1.00  0.00     0.049 A 
ATOM     39  N   UNL A   1      39.097  32.521  35.622  1.00  0.00    -0.248 NA
ATOM     40  C   UNL A   1      37.319  33.925  36.195  1.00  0.00     0.031 C 
ATOM     41  C   UNL A   1      36.895  31.447  31.861  1.00  0.00     0.029 A 
ATOM     42  N   UNL A   1      38.691  31.005  33.123  1.00  0.00    -0.354 N 
ATOM     43  C   UNL A   1      39.358  33.130  36.843  1.00  0.00     0.074 A 
ATOM     44  C   UNL A   1      38.251  34.014  37.128  1.00  0.00     0.031 C 
ATOM     45  C   UNL A   1      37.628  30.521  31.217  1.00  0.00     0.029 A 
ATOM     46  C   UNL A   1      38.849  30.259  31.980  1.00  0.00     0.049 A 
ATOM     47  H   UNL A   1      39.314  30.968  33.884  1.00  0.00     0.167 HD
ATOM     48  C   UNL A   1      40.429  32.970  37.653  1.00  0.00     0.037 A 
ATOM     49  C   UNL A   1      39.884  29.493  31.583  1.00  0.00     0.037 A 
ATOM     50  C   UNL A   1      41.529  32.093  37.359  1.00  0.00     0.049 A 
ATOM     51  C   UNL A   1      41.096  29.364  32.471  1.00  0.00     0.074 A 
ATOM     52  C   UNL A   1      42.654  31.836  38.119  1.00  0.00     0.029 A 
ATOM     53  N   UNL A   1      41.641  31.339  36.200  1.00  0.00    -0.354 N 
ATOM     54  N   UNL A   1      41.334  29.926  33.632  1.00  0.00    -0.248 NA
ATOM     55  C   UNL A   1      42.184  28.498  31.992  1.00  0.00     0.031 C 
ATOM     56  C   UNL A   1      43.473  30.962  37.396  1.00  0.00     0.029 A 
ATOM     57  C   UNL A   1      42.829  30.631  36.213  1.00  0.00     0.049 A 
ATOM     58  H   UNL A   1      40.975  31.311  35.476  1.00  0.00     0.167 HD
ATOM     59  C   UNL A   1      42.580  29.458  34.038  1.00  0.00     0.074 A 
ATOM     60  C   UNL A   1      43.049  28.567  32.996  1.00  0.00     0.031 C 
ATOM     61  C   UNL A   1      43.269  29.735  35.172  1.00  0.00     0.037 A 
BRANCH  48  62
ATOM     62  C   UNL A   1      40.471  33.804  38.900  1.00  0.00     0.057 A 
ATOM     63  C   UNL A   1      41.179  35.011  38.967  1.00  0.00     0.134 A 
ATOM     64  C   UNL A   1      39.816  33.374  40.061  1.00  0.00     0.134 A 
ATOM     65  F   UNL A   1      41.849  35.466  37.897  1.00  0.00    -0.206 F 
ATOM     66  C   UNL A   1      41.268  35.739  40.154  1.00  0.00     0.040 A 
ATOM     67  C   UNL A   1      39.871  34.110  41.245  1.00  0.00     0.040 A 
ATOM     68  F   UNL A   1      39.120  32.227  40.067  1.00  0.00    -0.206 F 
ATOM     69  C   UNL A   1      40.608  35.292  41.297  1.00  0.00     0.006 A 
ENDBRANCH  48  62
BRANCH  49  70
ATOM     70  C   UNL A   1      39.826  28.804  30.270  1.00  0.00     0.057 A 
ATOM     71  C   UNL A   1      40.438  29.352  29.137  1.00  0.00     0.134 A 
ATOM     72  C   UNL A   1      39.171  27.576  30.117  1.00  0.00     0.134 A 
ATOM     73  F   UNL A   1      41.059  30.538  29.214  1.00  0.00    -0.206 F 
ATOM     74  C   UNL A   1      40.399  28.706  27.900  1.00  0.00     0.040 A 
ATOM     75  C   UNL A   1      39.143  26.908  28.891  1.00  0.00     0.040 A 
ATOM     76  F   UNL A   1      38.563  26.997  31.163  1.00  0.00    -0.206 F 
ATOM     77  C   UNL A   1      39.757  27.477  27.776  1.00  0.00     0.006 A 
ENDBRANCH  49  70
BRANCH  61  78
ATOM     78  C   UNL A   1      44.577  29.029  35.386  1.00  0.00     0.057 A 
ATOM     79  C   UNL A   1      44.655  27.779  36.011  1.00  0.00     0.134 A 
ATOM     80  C   UNL A   1      45.764  29.575  34.880  1.00  0.00     0.134 A 
ATOM     81  F   UNL A   1      43.556  27.205  36.525  1.00  0.00    -0.206 F 
ATOM     82  C   UNL A   1      45.870  27.102  36.133  1.00  0.00     0.040 A 
ATOM     83  C   UNL A   1      46.979  28.896  34.973  1.00  0.00     0.040 A 
ATOM     84  F   UNL A   1      45.755  30.765  34.258  1.00  0.00    -0.206 F 
ATOM     85  C   UNL A   1      47.034  27.656  35.604  1.00  0.00     0.006 A 
ENDBRANCH  61  78
ENDBRANCH  35  36
ENDBRANCH  28  30
ENDBRANCH  27  28
ENDBRANCH  26  27
ENDBRANCH  25  26
ENDBRANCH  24  25
ENDBRANCH  23  24
ENDBRANCH   1  23
TORSDOF 19
ENDMDL
