MODEL 1
REMARK VINA RESULT:     -11.4      0.000      0.000
REMARK SMILES O=C(CCN/C(=[NH+]\S(=O)(=O)c1ccccc1)c1ccccc1)OCCOCCOC(=O)c1ccc(-c2c3nc(c(-c4c(F)cccc4F)c4ccc([nH]4)c(-c4c(F)cccc4F)c4nc(c(-c5c(F)cccc5F)c5ccc2[nH]5)C=C4)C=C3)cc1
REMARK SMILES IDX 25 1 24 2 23 3 2 4 1 5 3 6 4 7 5 8 6 9 7 11 17 13 18 14
REMARK SMILES IDX 22 15 19 16 21 17 20 18 8 19 9 20 10 21 11 22 12 23 16 24
REMARK SMILES IDX 13 25 15 26 14 27 26 28 27 29 28 30 29 31 30 32 31 33 32 34
REMARK SMILES IDX 33 35 85 36 34 37 84 38 35 39 36 40 37 41 78 42 38 43 83 44
REMARK SMILES IDX 77 45 79 46 39 47 82 48 76 49 75 50 40 52 66 53 49 54 65 55
REMARK SMILES IDX 50 56 53 57 64 58 80 59 51 60 52 61 63 63 81 64 54 65 41 66
REMARK SMILES IDX 42 67 47 68 43 69 44 70 46 71 48 72 45 73 67 74 68 75 73 76
REMARK SMILES IDX 69 77 70 78 72 79 74 80 71 81 55 82 56 83 61 84 57 85 58 86
REMARK SMILES IDX 60 87 62 88 59 89
REMARK H PARENT 5 10 7 12 79 51 53 62
REMARK Flexibility Score: inf
ROOT
ATOM      1  C   UNL A   1      40.684  20.348  26.126  1.00  0.00     0.202 C 
ENDROOT
BRANCH   1   2
ATOM      2  C   UNL A   1      39.999  21.720  26.155  1.00  0.00     0.261 C 
BRANCH   2   3
ATOM      3  O   UNL A   1      38.568  21.748  26.276  1.00  0.00    -0.463 OA
BRANCH   3   4
ATOM      4  C   UNL A   1      37.723  21.745  25.230  1.00  0.00     0.309 C 
ATOM      5  O   UNL A   1      37.432  20.688  24.674  1.00  0.00    -0.252 OA
BRANCH   4   6
ATOM      6  C   UNL A   1      37.239  23.054  24.682  1.00  0.00     0.168 C 
BRANCH   6   7
ATOM      7  C   UNL A   1      36.301  22.879  23.506  1.00  0.00     0.245 C 
BRANCH   7   8
ATOM      8  N   UNL A   1      35.007  22.302  23.854  1.00  0.00    -0.273 N 
ATOM      9  C   UNL A   1      33.721  22.816  23.743  1.00  0.00     0.290 C 
ATOM     10  H   UNL A   1      35.053  21.394  24.231  1.00  0.00     0.305 HD
ATOM     11  N   UNL A   1      32.645  22.277  24.247  1.00  0.00    -0.162 N 
ATOM     12  H   UNL A   1      31.764  22.660  24.028  1.00  0.00     0.327 HD
BRANCH   9  13
ATOM     13  C   UNL A   1      33.485  24.106  23.007  1.00  0.00     0.064 A 
ATOM     14  C   UNL A   1      33.791  25.319  23.638  1.00  0.00     0.016 A 
ATOM     15  C   UNL A   1      32.969  24.117  21.707  1.00  0.00     0.016 A 
ATOM     16  C   UNL A   1      33.640  26.525  22.947  1.00  0.00     0.001 A 
ATOM     17  C   UNL A   1      32.851  25.320  21.008  1.00  0.00     0.001 A 
ATOM     18  C   UNL A   1      33.191  26.521  21.626  1.00  0.00     0.000 A 
ENDBRANCH   9  13
BRANCH  11  19
ATOM     19  S   UNL A   1      32.728  20.990  25.225  1.00  0.00     0.328 S 
ATOM     20  O   UNL A   1      33.868  21.129  26.114  1.00  0.00    -0.179 OA
ATOM     21  O   UNL A   1      31.404  20.793  25.788  1.00  0.00    -0.179 OA
BRANCH  19  22
ATOM     22  C   UNL A   1      33.028  19.539  24.245  1.00  0.00     0.109 A 
ATOM     23  C   UNL A   1      34.092  18.709  24.624  1.00  0.00     0.024 A 
ATOM     24  C   UNL A   1      32.249  19.225  23.134  1.00  0.00     0.024 A 
ATOM     25  C   UNL A   1      34.395  17.569  23.885  1.00  0.00     0.001 A 
ATOM     26  C   UNL A   1      32.560  18.079  22.392  1.00  0.00     0.001 A 
ATOM     27  C   UNL A   1      33.630  17.257  22.764  1.00  0.00     0.000 A 
ENDBRANCH  19  22
ENDBRANCH  11  19
ENDBRANCH   7   8
ENDBRANCH   6   7
ENDBRANCH   4   6
ENDBRANCH   3   4
ENDBRANCH   2   3
ENDBRANCH   1   2
BRANCH   1  28
ATOM     28  O   UNL A   1      42.032  20.259  25.672  1.00  0.00    -0.374 OA
BRANCH  28  29
ATOM     29  C   UNL A   1      43.003  21.159  26.190  1.00  0.00     0.202 C 
BRANCH  29  30
ATOM     30  C   UNL A   1      43.801  21.959  25.166  1.00  0.00     0.261 C 
BRANCH  30  31
ATOM     31  O   UNL A   1      43.165  23.198  24.829  1.00  0.00    -0.460 OA
BRANCH  31  32
ATOM     32  C   UNL A   1      43.901  24.302  25.110  1.00  0.00     0.338 C 
ATOM     33  O   UNL A   1      44.974  24.619  24.627  1.00  0.00    -0.246 OA
BRANCH  32  34
ATOM     34  C   UNL A   1      43.154  25.174  26.034  1.00  0.00     0.060 A 
ATOM     35  C   UNL A   1      43.662  26.456  26.275  1.00  0.00     0.016 A 
ATOM     36  C   UNL A   1      42.016  24.721  26.709  1.00  0.00     0.016 A 
ATOM     37  C   UNL A   1      43.064  27.269  27.232  1.00  0.00     0.010 A 
ATOM     38  C   UNL A   1      41.420  25.536  27.673  1.00  0.00     0.010 A 
ATOM     39  C   UNL A   1      41.965  26.797  27.962  1.00  0.00    -0.014 A 
BRANCH  39  40
ATOM     40  C   UNL A   1      41.489  27.578  29.124  1.00  0.00     0.031 A 
ATOM     41  C   UNL A   1      42.251  27.494  30.415  1.00  0.00     0.074 A 
ATOM     42  C   UNL A   1      40.429  28.394  29.004  1.00  0.00     0.049 A 
ATOM     43  N   UNL A   1      42.045  28.128  31.540  1.00  0.00    -0.248 NA
ATOM     44  C   UNL A   1      43.390  26.562  30.444  1.00  0.00     0.031 C 
ATOM     45  C   UNL A   1      39.615  28.543  27.801  1.00  0.00     0.029 A 
ATOM     46  N   UNL A   1      39.865  29.263  29.903  1.00  0.00    -0.354 N 
ATOM     47  C   UNL A   1      43.027  27.673  32.411  1.00  0.00     0.074 A 
ATOM     48  C   UNL A   1      43.811  26.690  31.695  1.00  0.00     0.031 C 
ATOM     49  C   UNL A   1      38.675  29.479  28.023  1.00  0.00     0.029 A 
ATOM     50  C   UNL A   1      38.798  29.961  29.397  1.00  0.00     0.049 A 
ATOM     51  H   UNL A   1      40.195  29.374  30.824  1.00  0.00     0.167 HD
ATOM     52  C   UNL A   1      43.254  28.045  33.693  1.00  0.00     0.037 A 
ATOM     53  C   UNL A   1      38.006  30.878  29.987  1.00  0.00     0.037 A 
ATOM     54  C   UNL A   1      42.457  29.008  34.406  1.00  0.00     0.049 A 
ATOM     55  C   UNL A   1      38.269  31.253  31.422  1.00  0.00     0.074 A 
ATOM     56  C   UNL A   1      42.591  29.441  35.713  1.00  0.00     0.029 A 
ATOM     57  N   UNL A   1      41.370  29.683  33.869  1.00  0.00    -0.354 N 
ATOM     58  N   UNL A   1      39.216  30.836  32.230  1.00  0.00    -0.248 NA
ATOM     59  C   UNL A   1      37.349  32.225  32.029  1.00  0.00     0.031 C 
ATOM     60  C   UNL A   1      41.559  30.348  35.980  1.00  0.00     0.029 A 
ATOM     61  C   UNL A   1      40.815  30.519  34.823  1.00  0.00     0.049 A 
ATOM     62  H   UNL A   1      41.043  29.583  32.947  1.00  0.00     0.167 HD
ATOM     63  C   UNL A   1      39.009  31.499  33.433  1.00  0.00     0.074 A 
ATOM     64  C   UNL A   1      37.875  32.377  33.236  1.00  0.00     0.031 C 
ATOM     65  C   UNL A   1      39.684  31.383  34.604  1.00  0.00     0.037 A 
BRANCH  52  66
ATOM     66  C   UNL A   1      44.397  27.391  34.410  1.00  0.00     0.057 A 
ATOM     67  C   UNL A   1      45.663  27.985  34.478  1.00  0.00     0.134 A 
ATOM     68  C   UNL A   1      44.222  26.167  35.070  1.00  0.00     0.134 A 
ATOM     69  F   UNL A   1      45.903  29.148  33.853  1.00  0.00    -0.206 F 
ATOM     70  C   UNL A   1      46.718  27.381  35.164  1.00  0.00     0.040 A 
ATOM     71  C   UNL A   1      45.262  25.565  35.779  1.00  0.00     0.040 A 
ATOM     72  F   UNL A   1      43.034  25.544  35.043  1.00  0.00    -0.206 F 
ATOM     73  C   UNL A   1      46.515  26.170  35.825  1.00  0.00     0.006 A 
ENDBRANCH  52  66
BRANCH  53  74
ATOM     74  C   UNL A   1      36.882  31.497  29.238  1.00  0.00     0.057 A 
ATOM     75  C   UNL A   1      35.715  30.778  28.952  1.00  0.00     0.134 A 
ATOM     76  C   UNL A   1      36.966  32.805  28.746  1.00  0.00     0.134 A 
ATOM     77  F   UNL A   1      35.582  29.513  29.376  1.00  0.00    -0.206 F 
ATOM     78  C   UNL A   1      34.688  31.325  28.179  1.00  0.00     0.040 A 
ATOM     79  C   UNL A   1      35.933  33.376  28.001  1.00  0.00     0.040 A 
ATOM     80  F   UNL A   1      38.056  33.550  28.985  1.00  0.00    -0.206 F 
ATOM     81  C   UNL A   1      34.796  32.630  27.705  1.00  0.00     0.006 A 
ENDBRANCH  53  74
BRANCH  65  82
ATOM     82  C   UNL A   1      39.217  32.240  35.746  1.00  0.00     0.057 A 
ATOM     83  C   UNL A   1      39.683  33.548  35.928  1.00  0.00     0.134 A 
ATOM     84  C   UNL A   1      38.278  31.755  36.667  1.00  0.00     0.134 A 
ATOM     85  F   UNL A   1      40.590  34.069  35.087  1.00  0.00    -0.206 F 
ATOM     86  C   UNL A   1      39.263  34.331  37.005  1.00  0.00     0.040 A 
ATOM     87  C   UNL A   1      37.827  32.539  37.730  1.00  0.00     0.040 A 
ATOM     88  F   UNL A   1      37.780  30.515  36.545  1.00  0.00    -0.206 F 
ATOM     89  C   UNL A   1      38.329  33.827  37.907  1.00  0.00     0.006 A 
ENDBRANCH  65  82
ENDBRANCH  39  40
ENDBRANCH  32  34
ENDBRANCH  31  32
ENDBRANCH  30  31
ENDBRANCH  29  30
ENDBRANCH  28  29
ENDBRANCH   1  28
TORSDOF 19
ENDMDL
MODEL 2
REMARK VINA RESULT:     -11.0      4.816      9.468
REMARK SMILES O=C(CCN/C(=[NH+]\S(=O)(=O)c1ccccc1)c1ccccc1)OCCOCCOC(=O)c1ccc(-c2c3nc(c(-c4c(F)cccc4F)c4ccc([nH]4)c(-c4c(F)cccc4F)c4nc(c(-c5c(F)cccc5F)c5ccc2[nH]5)C=C4)C=C3)cc1
REMARK SMILES IDX 25 1 24 2 23 3 2 4 1 5 3 6 4 7 5 8 6 9 7 11 17 13 18 14
REMARK SMILES IDX 22 15 19 16 21 17 20 18 8 19 9 20 10 21 11 22 12 23 16 24
REMARK SMILES IDX 13 25 15 26 14 27 26 28 27 29 28 30 29 31 30 32 31 33 32 34
REMARK SMILES IDX 33 35 85 36 34 37 84 38 35 39 36 40 37 41 78 42 38 43 83 44
REMARK SMILES IDX 77 45 79 46 39 47 82 48 76 49 75 50 40 52 66 53 49 54 65 55
REMARK SMILES IDX 50 56 53 57 64 58 80 59 51 60 52 61 63 63 81 64 54 65 41 66
REMARK SMILES IDX 42 67 47 68 43 69 44 70 46 71 48 72 45 73 67 74 68 75 73 76
REMARK SMILES IDX 69 77 70 78 72 79 74 80 71 81 55 82 56 83 61 84 57 85 58 86
REMARK SMILES IDX 60 87 62 88 59 89
REMARK H PARENT 5 10 7 12 79 51 53 62
REMARK Flexibility Score: inf
ROOT
ATOM      1  C   UNL A   1      32.006  29.057  26.676  1.00  0.00     0.202 C 
ENDROOT
BRANCH   1   2
ATOM      2  C   UNL A   1      31.721  28.248  25.403  1.00  0.00     0.261 C 
BRANCH   2   3
ATOM      3  O   UNL A   1      32.826  27.570  24.783  1.00  0.00    -0.463 OA
BRANCH   3   4
ATOM      4  C   UNL A   1      33.062  26.252  24.898  1.00  0.00     0.309 C 
ATOM      5  O   UNL A   1      33.219  25.746  26.008  1.00  0.00    -0.252 OA
BRANCH   4   6
ATOM      6  C   UNL A   1      33.244  25.435  23.654  1.00  0.00     0.168 C 
BRANCH   6   7
ATOM      7  C   UNL A   1      34.394  24.456  23.767  1.00  0.00     0.245 C 
BRANCH   7   8
ATOM      8  N   UNL A   1      34.014  23.143  24.276  1.00  0.00    -0.273 N 
ATOM      9  C   UNL A   1      34.752  22.179  24.953  1.00  0.00     0.290 C 
ATOM     10  H   UNL A   1      33.075  22.897  24.112  1.00  0.00     0.305 HD
ATOM     11  N   UNL A   1      34.354  20.963  25.210  1.00  0.00    -0.162 N 
ATOM     12  H   UNL A   1      34.907  20.385  25.785  1.00  0.00     0.327 HD
BRANCH   9  13
ATOM     13  C   UNL A   1      36.139  22.497  25.441  1.00  0.00     0.064 A 
ATOM     14  C   UNL A   1      37.146  21.532  25.316  1.00  0.00     0.016 A 
ATOM     15  C   UNL A   1      36.440  23.736  26.016  1.00  0.00     0.016 A 
ATOM     16  C   UNL A   1      38.455  21.831  25.705  1.00  0.00     0.001 A 
ATOM     17  C   UNL A   1      37.754  24.045  26.372  1.00  0.00     0.001 A 
ATOM     18  C   UNL A   1      38.761  23.095  26.211  1.00  0.00     0.000 A 
ENDBRANCH   9  13
BRANCH  11  19
ATOM     19  S   UNL A   1      32.970  20.386  24.601  1.00  0.00     0.328 S 
ATOM     20  O   UNL A   1      31.870  20.730  25.484  1.00  0.00    -0.179 OA
ATOM     21  O   UNL A   1      32.917  20.784  23.205  1.00  0.00    -0.179 OA
BRANCH  19  22
ATOM     22  C   UNL A   1      33.051  18.611  24.566  1.00  0.00     0.109 A 
ATOM     23  C   UNL A   1      32.528  17.917  25.666  1.00  0.00     0.024 A 
ATOM     24  C   UNL A   1      33.615  17.919  23.497  1.00  0.00     0.024 A 
ATOM     25  C   UNL A   1      32.582  16.527  25.712  1.00  0.00     0.001 A 
ATOM     26  C   UNL A   1      33.669  16.522  23.550  1.00  0.00     0.001 A 
ATOM     27  C   UNL A   1      33.158  15.829  24.654  1.00  0.00     0.000 A 
ENDBRANCH  19  22
ENDBRANCH  11  19
ENDBRANCH   7   8
ENDBRANCH   6   7
ENDBRANCH   4   6
ENDBRANCH   3   4
ENDBRANCH   2   3
ENDBRANCH   1   2
BRANCH   1  28
ATOM     28  O   UNL A   1      32.826  30.219  26.585  1.00  0.00    -0.374 OA
BRANCH  28  29
ATOM     29  C   UNL A   1      34.081  30.241  27.253  1.00  0.00     0.202 C 
BRANCH  29  30
ATOM     30  C   UNL A   1      34.436  31.529  27.988  1.00  0.00     0.261 C 
BRANCH  30  31
ATOM     31  O   UNL A   1      35.844  31.649  28.226  1.00  0.00    -0.460 OA
BRANCH  31  32
ATOM     32  C   UNL A   1      36.272  31.065  29.373  1.00  0.00     0.338 C 
ATOM     33  O   UNL A   1      35.704  31.046  30.450  1.00  0.00    -0.246 OA
BRANCH  32  34
ATOM     34  C   UNL A   1      37.517  30.320  29.114  1.00  0.00     0.060 A 
ATOM     35  C   UNL A   1      38.361  30.065  30.202  1.00  0.00     0.016 A 
ATOM     36  C   UNL A   1      37.888  29.939  27.821  1.00  0.00     0.016 A 
ATOM     37  C   UNL A   1      39.604  29.477  29.990  1.00  0.00     0.010 A 
ATOM     38  C   UNL A   1      39.138  29.354  27.609  1.00  0.00     0.010 A 
ATOM     39  C   UNL A   1      40.013  29.156  28.689  1.00  0.00    -0.014 A 
BRANCH  39  40
ATOM     40  C   UNL A   1      41.415  28.746  28.460  1.00  0.00     0.031 A 
ATOM     41  C   UNL A   1      41.703  27.314  28.112  1.00  0.00     0.074 A 
ATOM     42  C   UNL A   1      42.403  29.654  28.504  1.00  0.00     0.049 A 
ATOM     43  N   UNL A   1      42.845  26.746  27.822  1.00  0.00    -0.248 NA
ATOM     44  C   UNL A   1      40.551  26.397  28.101  1.00  0.00     0.031 C 
ATOM     45  C   UNL A   1      42.234  31.065  28.840  1.00  0.00     0.029 A 
ATOM     46  N   UNL A   1      43.744  29.527  28.249  1.00  0.00    -0.354 N 
ATOM     47  C   UNL A   1      42.551  25.408  27.593  1.00  0.00     0.074 A 
ATOM     48  C   UNL A   1      41.130  25.241  27.806  1.00  0.00     0.031 C 
ATOM     49  C   UNL A   1      43.423  31.684  28.735  1.00  0.00     0.029 A 
ATOM     50  C   UNL A   1      44.440  30.704  28.365  1.00  0.00     0.049 A 
ATOM     51  H   UNL A   1      44.167  28.671  28.005  1.00  0.00     0.167 HD
ATOM     52  C   UNL A   1      43.392  24.410  27.235  1.00  0.00     0.037 A 
ATOM     53  C   UNL A   1      45.754  30.951  28.201  1.00  0.00     0.037 A 
ATOM     54  C   UNL A   1      44.809  24.579  27.046  1.00  0.00     0.049 A 
ATOM     55  C   UNL A   1      46.670  29.815  27.827  1.00  0.00     0.074 A 
ATOM     56  C   UNL A   1      45.754  23.628  26.704  1.00  0.00     0.029 A 
ATOM     57  N   UNL A   1      45.485  25.782  27.192  1.00  0.00    -0.354 N 
ATOM     58  N   UNL A   1      46.378  28.557  27.590  1.00  0.00    -0.248 NA
ATOM     59  C   UNL A   1      48.099  30.132  27.704  1.00  0.00     0.031 C 
ATOM     60  C   UNL A   1      47.008  24.247  26.682  1.00  0.00     0.029 A 
ATOM     61  C   UNL A   1      46.838  25.594  26.959  1.00  0.00     0.049 A 
ATOM     62  H   UNL A   1      45.066  26.640  27.425  1.00  0.00     0.167 HD
ATOM     63  C   UNL A   1      47.584  27.939  27.281  1.00  0.00     0.074 A 
ATOM     64  C   UNL A   1      48.602  28.967  27.321  1.00  0.00     0.031 C 
ATOM     65  C   UNL A   1      47.834  26.634  27.007  1.00  0.00     0.037 A 
BRANCH  52  66
ATOM     66  C   UNL A   1      42.803  23.043  27.049  1.00  0.00     0.057 A 
ATOM     67  C   UNL A   1      42.596  22.496  25.777  1.00  0.00     0.134 A 
ATOM     68  C   UNL A   1      42.471  22.250  28.155  1.00  0.00     0.134 A 
ATOM     69  F   UNL A   1      42.876  23.211  24.676  1.00  0.00    -0.206 F 
ATOM     70  C   UNL A   1      42.066  21.216  25.610  1.00  0.00     0.040 A 
ATOM     71  C   UNL A   1      41.964  20.959  28.001  1.00  0.00     0.040 A 
ATOM     72  F   UNL A   1      42.645  22.714  29.402  1.00  0.00    -0.206 F 
ATOM     73  C   UNL A   1      41.756  20.440  26.725  1.00  0.00     0.006 A 
ENDBRANCH  52  66
BRANCH  53  74
ATOM     74  C   UNL A   1      46.294  32.321  28.401  1.00  0.00     0.057 A 
ATOM     75  C   UNL A   1      46.371  33.235  27.342  1.00  0.00     0.134 A 
ATOM     76  C   UNL A   1      46.793  32.735  29.642  1.00  0.00     0.134 A 
ATOM     77  F   UNL A   1      45.930  32.891  26.123  1.00  0.00    -0.206 F 
ATOM     78  C   UNL A   1      46.952  34.494  27.502  1.00  0.00     0.040 A 
ATOM     79  C   UNL A   1      47.345  34.003  29.824  1.00  0.00     0.040 A 
ATOM     80  F   UNL A   1      46.749  31.910  30.699  1.00  0.00    -0.206 F 
ATOM     81  C   UNL A   1      47.438  34.882  28.748  1.00  0.00     0.006 A 
ENDBRANCH  53  74
BRANCH  65  82
ATOM     82  C   UNL A   1      49.259  26.261  26.713  1.00  0.00     0.057 A 
ATOM     83  C   UNL A   1      50.137  25.845  27.722  1.00  0.00     0.134 A 
ATOM     84  C   UNL A   1      49.754  26.303  25.403  1.00  0.00     0.134 A 
ATOM     85  F   UNL A   1      49.729  25.791  28.999  1.00  0.00    -0.206 F 
ATOM     86  C   UNL A   1      51.467  25.522  27.446  1.00  0.00     0.040 A 
ATOM     87  C   UNL A   1      51.073  25.954  25.110  1.00  0.00     0.040 A 
ATOM     88  F   UNL A   1      48.963  26.680  24.387  1.00  0.00    -0.206 F 
ATOM     89  C   UNL A   1      51.936  25.572  26.135  1.00  0.00     0.006 A 
ENDBRANCH  65  82
ENDBRANCH  39  40
ENDBRANCH  32  34
ENDBRANCH  31  32
ENDBRANCH  30  31
ENDBRANCH  29  30
ENDBRANCH  28  29
ENDBRANCH   1  28
TORSDOF 19
ENDMDL
MODEL 3
REMARK VINA RESULT:     -11.0      4.020      5.933
REMARK SMILES O=C(CCN/C(=[NH+]\S(=O)(=O)c1ccccc1)c1ccccc1)OCCOCCOC(=O)c1ccc(-c2c3nc(c(-c4c(F)cccc4F)c4ccc([nH]4)c(-c4c(F)cccc4F)c4nc(c(-c5c(F)cccc5F)c5ccc2[nH]5)C=C4)C=C3)cc1
REMARK SMILES IDX 25 1 24 2 23 3 2 4 1 5 3 6 4 7 5 8 6 9 7 11 17 13 18 14
REMARK SMILES IDX 22 15 19 16 21 17 20 18 8 19 9 20 10 21 11 22 12 23 16 24
REMARK SMILES IDX 13 25 15 26 14 27 26 28 27 29 28 30 29 31 30 32 31 33 32 34
REMARK SMILES IDX 33 35 85 36 34 37 84 38 35 39 36 40 37 41 78 42 38 43 83 44
REMARK SMILES IDX 77 45 79 46 39 47 82 48 76 49 75 50 40 52 66 53 49 54 65 55
REMARK SMILES IDX 50 56 53 57 64 58 80 59 51 60 52 61 63 63 81 64 54 65 41 66
REMARK SMILES IDX 42 67 47 68 43 69 44 70 46 71 48 72 45 73 67 74 68 75 73 76
REMARK SMILES IDX 69 77 70 78 72 79 74 80 71 81 55 82 56 83 61 84 57 85 58 86
REMARK SMILES IDX 60 87 62 88 59 89
REMARK H PARENT 5 10 7 12 79 51 53 62
REMARK Flexibility Score: inf
ROOT
ATOM      1  C   UNL A   1      37.394  23.674  25.333  1.00  0.00     0.202 C 
ENDROOT
BRANCH   1   2
ATOM      2  C   UNL A   1      35.880  23.824  25.536  1.00  0.00     0.261 C 
BRANCH   2   3
ATOM      3  O   UNL A   1      35.152  24.597  24.568  1.00  0.00    -0.463 OA
BRANCH   3   4
ATOM      4  C   UNL A   1      34.563  24.077  23.477  1.00  0.00     0.309 C 
ATOM      5  O   UNL A   1      34.840  22.936  23.111  1.00  0.00    -0.252 OA
BRANCH   4   6
ATOM      6  C   UNL A   1      33.659  24.944  22.655  1.00  0.00     0.168 C 
BRANCH   6   7
ATOM      7  C   UNL A   1      32.950  25.993  23.486  1.00  0.00     0.245 C 
BRANCH   7   8
ATOM      8  N   UNL A   1      32.083  25.448  24.525  1.00  0.00    -0.273 N 
ATOM      9  C   UNL A   1      31.860  25.859  25.834  1.00  0.00     0.290 C 
ATOM     10  H   UNL A   1      31.569  24.654  24.253  1.00  0.00     0.305 HD
ATOM     11  N   UNL A   1      31.189  25.192  26.732  1.00  0.00    -0.162 N 
ATOM     12  H   UNL A   1      30.997  25.611  27.603  1.00  0.00     0.327 HD
BRANCH   9  13
ATOM     13  C   UNL A   1      32.426  27.164  26.321  1.00  0.00     0.064 A 
ATOM     14  C   UNL A   1      33.800  27.403  26.197  1.00  0.00     0.016 A 
ATOM     15  C   UNL A   1      31.606  28.142  26.895  1.00  0.00     0.016 A 
ATOM     16  C   UNL A   1      34.335  28.635  26.585  1.00  0.00     0.001 A 
ATOM     17  C   UNL A   1      32.136  29.384  27.250  1.00  0.00     0.001 A 
ATOM     18  C   UNL A   1      33.499  29.631  27.090  1.00  0.00     0.000 A 
ENDBRANCH   9  13
BRANCH  11  19
ATOM     19  S   UNL A   1      30.668  23.686  26.445  1.00  0.00     0.328 S 
ATOM     20  O   UNL A   1      29.798  23.259  27.527  1.00  0.00    -0.179 OA
ATOM     21  O   UNL A   1      30.175  23.657  25.079  1.00  0.00    -0.179 OA
BRANCH  19  22
ATOM     22  C   UNL A   1      32.060  22.582  26.452  1.00  0.00     0.109 A 
ATOM     23  C   UNL A   1      32.907  22.615  27.568  1.00  0.00     0.024 A 
ATOM     24  C   UNL A   1      32.319  21.715  25.393  1.00  0.00     0.024 A 
ATOM     25  C   UNL A   1      34.028  21.792  27.626  1.00  0.00     0.001 A 
ATOM     26  C   UNL A   1      33.450  20.893  25.455  1.00  0.00     0.001 A 
ATOM     27  C   UNL A   1      34.302  20.934  26.564  1.00  0.00     0.000 A 
ENDBRANCH  19  22
ENDBRANCH  11  19
ENDBRANCH   7   8
ENDBRANCH   6   7
ENDBRANCH   4   6
ENDBRANCH   3   4
ENDBRANCH   2   3
ENDBRANCH   1   2
BRANCH   1  28
ATOM     28  O   UNL A   1      38.008  22.423  25.631  1.00  0.00    -0.374 OA
BRANCH  28  29
ATOM     29  C   UNL A   1      37.566  21.252  24.959  1.00  0.00     0.202 C 
BRANCH  29  30
ATOM     30  C   UNL A   1      38.502  20.048  25.005  1.00  0.00     0.261 C 
BRANCH  30  31
ATOM     31  O   UNL A   1      39.168  19.925  26.268  1.00  0.00    -0.460 OA
BRANCH  31  32
ATOM     32  C   UNL A   1      40.504  19.713  26.181  1.00  0.00     0.338 C 
ATOM     33  O   UNL A   1      41.070  18.724  25.751  1.00  0.00    -0.246 OA
BRANCH  32  34
ATOM     34  C   UNL A   1      41.226  20.934  26.583  1.00  0.00     0.060 A 
ATOM     35  C   UNL A   1      41.320  21.213  27.952  1.00  0.00     0.016 A 
ATOM     36  C   UNL A   1      41.740  21.826  25.638  1.00  0.00     0.016 A 
ATOM     37  C   UNL A   1      41.881  22.413  28.376  1.00  0.00     0.010 A 
ATOM     38  C   UNL A   1      42.298  23.033  26.064  1.00  0.00     0.010 A 
ATOM     39  C   UNL A   1      42.336  23.345  27.432  1.00  0.00    -0.014 A 
BRANCH  39  40
ATOM     40  C   UNL A   1      42.716  24.699  27.889  1.00  0.00     0.031 A 
ATOM     41  C   UNL A   1      44.168  25.079  27.896  1.00  0.00     0.074 A 
ATOM     42  C   UNL A   1      41.771  25.589  28.233  1.00  0.00     0.049 A 
ATOM     43  N   UNL A   1      44.723  26.223  28.206  1.00  0.00    -0.248 NA
ATOM     44  C   UNL A   1      45.124  24.028  27.512  1.00  0.00     0.031 C 
ATOM     45  C   UNL A   1      40.336  25.320  28.270  1.00  0.00     0.029 A 
ATOM     46  N   UNL A   1      41.877  26.905  28.601  1.00  0.00    -0.354 N 
ATOM     47  C   UNL A   1      46.090  26.029  28.056  1.00  0.00     0.074 A 
ATOM     48  C   UNL A   1      46.284  24.652  27.654  1.00  0.00     0.031 C 
ATOM     49  C   UNL A   1      39.689  26.450  28.605  1.00  0.00     0.029 A 
ATOM     50  C   UNL A   1      40.668  27.507  28.847  1.00  0.00     0.049 A 
ATOM     51  H   UNL A   1      42.739  27.375  28.681  1.00  0.00     0.167 HD
ATOM     52  C   UNL A   1      47.092  26.921  28.234  1.00  0.00     0.037 A 
ATOM     53  C   UNL A   1      40.392  28.767  29.235  1.00  0.00     0.037 A 
ATOM     54  C   UNL A   1      46.893  28.284  28.655  1.00  0.00     0.049 A 
ATOM     55  C   UNL A   1      41.530  29.730  29.450  1.00  0.00     0.074 A 
ATOM     56  C   UNL A   1      47.842  29.264  28.885  1.00  0.00     0.029 A 
ATOM     57  N   UNL A   1      45.655  28.855  28.914  1.00  0.00    -0.354 N 
ATOM     58  N   UNL A   1      42.818  29.544  29.281  1.00  0.00    -0.248 NA
ATOM     59  C   UNL A   1      41.175  31.078  29.914  1.00  0.00     0.031 C 
ATOM     60  C   UNL A   1      47.182  30.416  29.324  1.00  0.00     0.029 A 
ATOM     61  C   UNL A   1      45.818  30.170  29.316  1.00  0.00     0.049 A 
ATOM     62  H   UNL A   1      44.791  28.394  28.826  1.00  0.00     0.167 HD
ATOM     63  C   UNL A   1      43.423  30.751  29.610  1.00  0.00     0.074 A 
ATOM     64  C   UNL A   1      42.359  31.673  29.946  1.00  0.00     0.031 C 
ATOM     65  C   UNL A   1      44.742  31.069  29.648  1.00  0.00     0.037 A 
BRANCH  52  66
ATOM     66  C   UNL A   1      48.493  26.443  27.998  1.00  0.00     0.057 A 
ATOM     67  C   UNL A   1      49.119  26.577  26.752  1.00  0.00     0.134 A 
ATOM     68  C   UNL A   1      49.241  25.873  29.037  1.00  0.00     0.134 A 
ATOM     69  F   UNL A   1      48.453  27.098  25.710  1.00  0.00    -0.206 F 
ATOM     70  C   UNL A   1      50.430  26.148  26.543  1.00  0.00     0.040 A 
ATOM     71  C   UNL A   1      50.561  25.463  28.847  1.00  0.00     0.040 A 
ATOM     72  F   UNL A   1      48.701  25.715  30.256  1.00  0.00    -0.206 F 
ATOM     73  C   UNL A   1      51.158  25.597  27.596  1.00  0.00     0.006 A 
ENDBRANCH  52  66
BRANCH  53  74
ATOM     74  C   UNL A   1      38.987  29.195  29.462  1.00  0.00     0.057 A 
ATOM     75  C   UNL A   1      38.404  29.133  30.734  1.00  0.00     0.134 A 
ATOM     76  C   UNL A   1      38.177  29.630  28.405  1.00  0.00     0.134 A 
ATOM     77  F   UNL A   1      39.120  28.705  31.783  1.00  0.00    -0.206 F 
ATOM     78  C   UNL A   1      37.061  29.456  30.940  1.00  0.00     0.040 A 
ATOM     79  C   UNL A   1      36.843  29.988  28.604  1.00  0.00     0.040 A 
ATOM     80  F   UNL A   1      38.673  29.714  27.162  1.00  0.00    -0.206 F 
ATOM     81  C   UNL A   1      36.278  29.888  29.873  1.00  0.00     0.006 A 
ENDBRANCH  53  74
BRANCH  65  82
ATOM     82  C   UNL A   1      45.093  32.472  30.052  1.00  0.00     0.057 A 
ATOM     83  C   UNL A   1      45.354  32.814  31.385  1.00  0.00     0.134 A 
ATOM     84  C   UNL A   1      45.185  33.490  29.093  1.00  0.00     0.134 A 
ATOM     85  F   UNL A   1      45.274  31.889  32.353  1.00  0.00    -0.206 F 
ATOM     86  C   UNL A   1      45.657  34.126  31.757  1.00  0.00     0.040 A 
ATOM     87  C   UNL A   1      45.517  34.798  29.448  1.00  0.00     0.040 A 
ATOM     88  F   UNL A   1      44.959  33.229  27.797  1.00  0.00    -0.206 F 
ATOM     89  C   UNL A   1      45.743  35.121  30.785  1.00  0.00     0.006 A 
ENDBRANCH  65  82
ENDBRANCH  39  40
ENDBRANCH  32  34
ENDBRANCH  31  32
ENDBRANCH  30  31
ENDBRANCH  29  30
ENDBRANCH  28  29
ENDBRANCH   1  28
TORSDOF 19
ENDMDL
