MODEL 1
REMARK VINA RESULT:      -9.6      0.000      0.000
REMARK SMILES COC[C@@H](C)Nc1ccc([N+](=O)[O-])c(C(=O)OCCOCCOC(=O)c2ccc(-c3c4nc(c(-c5c(F)cccc5F)c5ccc([nH]5)c(-c5c(F)cccc5F)c5nc(c(-c6c(F)cccc6F)c6ccc3[nH]6)C=C5)C=C4)cc2)c1
REMARK SMILES IDX 19 1 18 2 17 3 15 4 16 5 14 6 7 7 8 8 80 9 9 10 10 11 6 12
REMARK SMILES IDX 4 14 5 15 3 16 2 17 1 18 11 19 12 20 13 21 20 22 21 23 22 24
REMARK SMILES IDX 23 25 24 26 25 27 26 28 27 29 79 30 28 31 78 32 29 33 30 34
REMARK SMILES IDX 31 35 72 36 32 37 77 38 71 39 73 40 33 41 76 42 70 43 69 44
REMARK SMILES IDX 34 46 60 47 43 48 59 49 44 50 47 51 58 52 74 53 45 54 46 55
REMARK SMILES IDX 57 57 75 58 48 59 35 60 36 61 41 62 37 63 38 64 40 65 42 66
REMARK SMILES IDX 39 67 61 68 62 69 67 70 63 71 64 72 66 73 68 74 65 75 49 76
REMARK SMILES IDX 50 77 55 78 51 79 52 80 54 81 56 82 53 83
REMARK H PARENT 6 13 73 45 47 56
REMARK Flexibility Score: inf
ROOT
ATOM      1  C   UNL A   1      36.998  22.620  25.345  1.00  0.00     0.202 C 
ENDROOT
BRANCH   1   2
ATOM      2  C   UNL A   1      35.577  23.119  25.056  1.00  0.00     0.261 C 
BRANCH   2   3
ATOM      3  O   UNL A   1      34.724  22.932  26.193  1.00  0.00    -0.459 OA
BRANCH   3   4
ATOM      4  C   UNL A   1      33.397  22.884  25.934  1.00  0.00     0.345 C 
ATOM      5  O   UNL A   1      32.538  23.691  26.250  1.00  0.00    -0.246 OA
BRANCH   4   6
ATOM      6  C   UNL A   1      33.121  21.689  25.120  1.00  0.00     0.139 A 
ATOM      7  C   UNL A   1      33.137  19.248  24.981  1.00  0.00     0.036 A 
ATOM      8  C   UNL A   1      32.527  19.350  23.722  1.00  0.00     0.033 A 
ATOM      9  C   UNL A   1      33.439  20.433  25.660  1.00  0.00     0.048 A 
ATOM     10  C   UNL A   1      32.223  20.592  23.156  1.00  0.00     0.089 A 
ATOM     11  C   UNL A   1      32.518  21.763  23.864  1.00  0.00     0.284 A 
BRANCH   7  12
ATOM     12  N   UNL A   1      33.347  17.993  25.514  1.00  0.00    -0.380 N 
ATOM     13  H   UNL A   1      33.718  17.943  26.424  1.00  0.00     0.160 HD
BRANCH  12  14
ATOM     14  C   UNL A   1      33.058  16.729  24.831  1.00  0.00     0.102 C 
ATOM     15  C   UNL A   1      32.452  15.767  25.852  1.00  0.00     0.033 C 
BRANCH  14  16
ATOM     16  C   UNL A   1      34.361  16.200  24.188  1.00  0.00     0.184 C 
BRANCH  16  17
ATOM     17  O   UNL A   1      35.114  15.322  25.024  1.00  0.00    -0.383 OA
ATOM     18  C   UNL A   1      36.137  15.956  25.774  1.00  0.00     0.194 C 
ENDBRANCH  16  17
ENDBRANCH  14  16
ENDBRANCH  12  14
ENDBRANCH   7  12
BRANCH  11  19
ATOM     19  N   UNL A   1      32.255  23.037  23.209  1.00  0.00     0.063 N 
ATOM     20  O   UNL A   1      31.100  23.479  23.280  1.00  0.00    -0.258 OA
ATOM     21  O   UNL A   1      33.165  23.537  22.538  1.00  0.00    -0.258 OA
ENDBRANCH  11  19
ENDBRANCH   4   6
ENDBRANCH   3   4
ENDBRANCH   2   3
ENDBRANCH   1   2
BRANCH   1  22
ATOM     22  O   UNL A   1      37.154  21.276  25.794  1.00  0.00    -0.374 OA
BRANCH  22  23
ATOM     23  C   UNL A   1      37.563  20.291  24.848  1.00  0.00     0.202 C 
BRANCH  23  24
ATOM     24  C   UNL A   1      38.660  19.305  25.260  1.00  0.00     0.261 C 
BRANCH  24  25
ATOM     25  O   UNL A   1      39.312  19.663  26.487  1.00  0.00    -0.460 OA
BRANCH  25  26
ATOM     26  C   UNL A   1      40.628  19.955  26.347  1.00  0.00     0.338 C 
ATOM     27  O   UNL A   1      41.490  19.276  25.817  1.00  0.00    -0.246 OA
BRANCH  26  28
ATOM     28  C   UNL A   1      40.879  21.332  26.801  1.00  0.00     0.060 A 
ATOM     29  C   UNL A   1      40.546  22.374  25.927  1.00  0.00     0.016 A 
ATOM     30  C   UNL A   1      41.509  21.591  28.019  1.00  0.00     0.016 A 
ATOM     31  C   UNL A   1      40.889  23.683  26.246  1.00  0.00     0.010 A 
ATOM     32  C   UNL A   1      41.858  22.906  28.335  1.00  0.00     0.010 A 
ATOM     33  C   UNL A   1      41.582  23.950  27.433  1.00  0.00    -0.014 A 
BRANCH  33  34
ATOM     34  C   UNL A   1      42.140  25.304  27.663  1.00  0.00     0.031 A 
ATOM     35  C   UNL A   1      41.308  26.327  28.380  1.00  0.00     0.074 A 
ATOM     36  C   UNL A   1      43.383  25.606  27.252  1.00  0.00     0.049 A 
ATOM     37  N   UNL A   1      41.584  27.577  28.656  1.00  0.00    -0.248 NA
ATOM     38  C   UNL A   1      39.981  25.886  28.838  1.00  0.00     0.031 C 
ATOM     39  C   UNL A   1      44.292  24.686  26.571  1.00  0.00     0.029 A 
ATOM     40  N   UNL A   1      44.088  26.778  27.341  1.00  0.00    -0.354 N 
ATOM     41  C   UNL A   1      40.462  28.075  29.305  1.00  0.00     0.074 A 
ATOM     42  C   UNL A   1      39.488  27.004  29.349  1.00  0.00     0.031 C 
ATOM     43  C   UNL A   1      45.434  25.335  26.291  1.00  0.00     0.029 A 
ATOM     44  C   UNL A   1      45.321  26.721  26.742  1.00  0.00     0.049 A 
ATOM     45  H   UNL A   1      43.742  27.584  27.790  1.00  0.00     0.167 HD
ATOM     46  C   UNL A   1      40.264  29.310  29.824  1.00  0.00     0.037 A 
ATOM     47  C   UNL A   1      46.243  27.684  26.557  1.00  0.00     0.037 A 
ATOM     48  C   UNL A   1      41.240  30.369  29.775  1.00  0.00     0.049 A 
ATOM     49  C   UNL A   1      45.984  29.065  27.093  1.00  0.00     0.074 A 
ATOM     50  C   UNL A   1      41.156  31.643  30.308  1.00  0.00     0.029 A 
ATOM     51  N   UNL A   1      42.471  30.281  29.142  1.00  0.00    -0.354 N 
ATOM     52  N   UNL A   1      44.939  29.518  27.743  1.00  0.00    -0.248 NA
ATOM     53  C   UNL A   1      47.035  30.069  26.875  1.00  0.00     0.031 C 
ATOM     54  C   UNL A   1      42.307  32.348  29.937  1.00  0.00     0.029 A 
ATOM     55  C   UNL A   1      43.140  31.491  29.235  1.00  0.00     0.049 A 
ATOM     56  H   UNL A   1      42.819  29.476  28.694  1.00  0.00     0.167 HD
ATOM     57  C   UNL A   1      45.215  30.849  28.033  1.00  0.00     0.074 A 
ATOM     58  C   UNL A   1      46.533  31.125  27.499  1.00  0.00     0.031 C 
ATOM     59  C   UNL A   1      44.449  31.757  28.687  1.00  0.00     0.037 A 
BRANCH  46  60
ATOM     60  C   UNL A   1      38.924  29.590  30.445  1.00  0.00     0.057 A 
ATOM     61  C   UNL A   1      37.855  30.125  29.713  1.00  0.00     0.134 A 
ATOM     62  C   UNL A   1      38.702  29.320  31.802  1.00  0.00     0.134 A 
ATOM     63  F   UNL A   1      38.000  30.419  28.413  1.00  0.00    -0.206 F 
ATOM     64  C   UNL A   1      36.631  30.420  30.318  1.00  0.00     0.040 A 
ATOM     65  C   UNL A   1      37.473  29.579  32.409  1.00  0.00     0.040 A 
ATOM     66  F   UNL A   1      39.678  28.801  32.562  1.00  0.00    -0.206 F 
ATOM     67  C   UNL A   1      36.436  30.143  31.669  1.00  0.00     0.006 A 
ENDBRANCH  46  60
BRANCH  47  68
ATOM     68  C   UNL A   1      47.491  27.366  25.819  1.00  0.00     0.057 A 
ATOM     69  C   UNL A   1      48.631  26.901  26.484  1.00  0.00     0.134 A 
ATOM     70  C   UNL A   1      47.562  27.493  24.426  1.00  0.00     0.134 A 
ATOM     71  F   UNL A   1      48.630  26.777  27.819  1.00  0.00    -0.206 F 
ATOM     72  C   UNL A   1      49.799  26.579  25.791  1.00  0.00     0.040 A 
ATOM     73  C   UNL A   1      48.715  27.150  23.718  1.00  0.00     0.040 A 
ATOM     74  F   UNL A   1      46.501  27.927  23.731  1.00  0.00    -0.206 F 
ATOM     75  C   UNL A   1      49.839  26.695  24.403  1.00  0.00     0.006 A 
ENDBRANCH  47  68
BRANCH  59  76
ATOM     76  C   UNL A   1      45.026  33.131  28.887  1.00  0.00     0.057 A 
ATOM     77  C   UNL A   1      45.842  33.443  29.982  1.00  0.00     0.134 A 
ATOM     78  C   UNL A   1      44.795  34.144  27.947  1.00  0.00     0.134 A 
ATOM     79  F   UNL A   1      46.095  32.523  30.926  1.00  0.00    -0.206 F 
ATOM     80  C   UNL A   1      46.386  34.718  30.149  1.00  0.00     0.040 A 
ATOM     81  C   UNL A   1      45.359  35.414  28.086  1.00  0.00     0.040 A 
ATOM     82  F   UNL A   1      44.032  33.912  26.868  1.00  0.00    -0.206 F 
ATOM     83  C   UNL A   1      46.150  35.706  29.194  1.00  0.00     0.006 A 
ENDBRANCH  59  76
ENDBRANCH  33  34
ENDBRANCH  26  28
ENDBRANCH  25  26
ENDBRANCH  24  25
ENDBRANCH  23  24
ENDBRANCH  22  23
ENDBRANCH   1  22
TORSDOF 19
ENDMDL
MODEL 2
REMARK VINA RESULT:      -9.6      5.583      9.466
REMARK SMILES COC[C@@H](C)Nc1ccc([N+](=O)[O-])c(C(=O)OCCOCCOC(=O)c2ccc(-c3c4nc(c(-c5c(F)cccc5F)c5ccc([nH]5)c(-c5c(F)cccc5F)c5nc(c(-c6c(F)cccc6F)c6ccc3[nH]6)C=C5)C=C4)cc2)c1
REMARK SMILES IDX 19 1 18 2 17 3 15 4 16 5 14 6 7 7 8 8 80 9 9 10 10 11 6 12
REMARK SMILES IDX 4 14 5 15 3 16 2 17 1 18 11 19 12 20 13 21 20 22 21 23 22 24
REMARK SMILES IDX 23 25 24 26 25 27 26 28 27 29 79 30 28 31 78 32 29 33 30 34
REMARK SMILES IDX 31 35 72 36 32 37 77 38 71 39 73 40 33 41 76 42 70 43 69 44
REMARK SMILES IDX 34 46 60 47 43 48 59 49 44 50 47 51 58 52 74 53 45 54 46 55
REMARK SMILES IDX 57 57 75 58 48 59 35 60 36 61 41 62 37 63 38 64 40 65 42 66
REMARK SMILES IDX 39 67 61 68 62 69 67 70 63 71 64 72 66 73 68 74 65 75 49 76
REMARK SMILES IDX 50 77 55 78 51 79 52 80 54 81 56 82 53 83
REMARK H PARENT 6 13 73 45 47 56
REMARK Flexibility Score: inf
ROOT
ATOM      1  C   UNL A   1      33.702  29.725  26.564  1.00  0.00     0.202 C 
ENDROOT
BRANCH   1   2
ATOM      2  C   UNL A   1      33.110  28.482  27.241  1.00  0.00     0.261 C 
BRANCH   2   3
ATOM      3  O   UNL A   1      32.983  27.399  26.312  1.00  0.00    -0.459 OA
BRANCH   3   4
ATOM      4  C   UNL A   1      31.723  26.957  26.089  1.00  0.00     0.345 C 
ATOM      5  O   UNL A   1      30.996  26.340  26.851  1.00  0.00    -0.246 OA
BRANCH   4   6
ATOM      6  C   UNL A   1      31.300  27.398  24.750  1.00  0.00     0.139 A 
ATOM      7  C   UNL A   1      30.323  29.175  23.384  1.00  0.00     0.036 A 
ATOM      8  C   UNL A   1      30.570  28.390  22.248  1.00  0.00     0.033 A 
ATOM      9  C   UNL A   1      30.684  28.654  24.630  1.00  0.00     0.048 A 
ATOM     10  C   UNL A   1      31.162  27.127  22.347  1.00  0.00     0.089 A 
ATOM     11  C   UNL A   1      31.531  26.636  23.605  1.00  0.00     0.284 A 
BRANCH   7  12
ATOM     12  N   UNL A   1      29.801  30.440  23.213  1.00  0.00    -0.380 N 
ATOM     13  H   UNL A   1      30.397  31.132  22.846  1.00  0.00     0.160 HD
BRANCH  12  14
ATOM     14  C   UNL A   1      28.426  30.835  23.536  1.00  0.00     0.102 C 
ATOM     15  C   UNL A   1      27.488  29.746  23.018  1.00  0.00     0.033 C 
BRANCH  14  16
ATOM     16  C   UNL A   1      28.150  32.227  22.924  1.00  0.00     0.184 C 
BRANCH  16  17
ATOM     17  O   UNL A   1      28.808  32.462  21.679  1.00  0.00    -0.383 OA
ATOM     18  C   UNL A   1      28.035  32.143  20.535  1.00  0.00     0.194 C 
ENDBRANCH  16  17
ENDBRANCH  14  16
ENDBRANCH  12  14
ENDBRANCH   7  12
BRANCH  11  19
ATOM     19  N   UNL A   1      32.075  25.286  23.673  1.00  0.00     0.063 N 
ATOM     20  O   UNL A   1      33.305  25.169  23.574  1.00  0.00    -0.258 OA
ATOM     21  O   UNL A   1      31.275  24.346  23.717  1.00  0.00    -0.258 OA
ENDBRANCH  11  19
ENDBRANCH   4   6
ENDBRANCH   3   4
ENDBRANCH   2   3
ENDBRANCH   1   2
BRANCH   1  22
ATOM     22  O   UNL A   1      32.795  30.694  26.042  1.00  0.00    -0.374 OA
BRANCH  22  23
ATOM     23  C   UNL A   1      31.897  31.333  26.947  1.00  0.00     0.202 C 
BRANCH  23  24
ATOM     24  C   UNL A   1      31.861  32.864  26.968  1.00  0.00     0.261 C 
BRANCH  24  25
ATOM     25  O   UNL A   1      33.160  33.458  27.101  1.00  0.00    -0.460 OA
BRANCH  25  26
ATOM     26  C   UNL A   1      33.304  34.228  28.207  1.00  0.00     0.338 C 
ATOM     27  O   UNL A   1      32.592  35.146  28.576  1.00  0.00    -0.246 OA
BRANCH  26  28
ATOM     28  C   UNL A   1      34.395  33.698  29.039  1.00  0.00     0.060 A 
ATOM     29  C   UNL A   1      35.696  34.134  28.758  1.00  0.00     0.016 A 
ATOM     30  C   UNL A   1      34.160  32.729  30.015  1.00  0.00     0.016 A 
ATOM     31  C   UNL A   1      36.778  33.562  29.419  1.00  0.00     0.010 A 
ATOM     32  C   UNL A   1      35.247  32.152  30.674  1.00  0.00     0.010 A 
ATOM     33  C   UNL A   1      36.560  32.540  30.352  1.00  0.00    -0.014 A 
BRANCH  33  34
ATOM     34  C   UNL A   1      37.717  31.783  30.886  1.00  0.00     0.031 A 
ATOM     35  C   UNL A   1      38.207  32.077  32.274  1.00  0.00     0.074 A 
ATOM     36  C   UNL A   1      38.308  30.831  30.145  1.00  0.00     0.049 A 
ATOM     37  N   UNL A   1      39.219  31.562  32.925  1.00  0.00    -0.248 NA
ATOM     38  C   UNL A   1      37.463  33.099  33.027  1.00  0.00     0.031 C 
ATOM     39  C   UNL A   1      37.901  30.440  28.797  1.00  0.00     0.029 A 
ATOM     40  N   UNL A   1      39.383  30.029  30.423  1.00  0.00    -0.354 N 
ATOM     41  C   UNL A   1      39.242  32.205  34.155  1.00  0.00     0.074 A 
ATOM     42  C   UNL A   1      38.166  33.174  34.146  1.00  0.00     0.031 C 
ATOM     43  C   UNL A   1      38.730  29.477  28.358  1.00  0.00     0.029 A 
ATOM     44  C   UNL A   1      39.740  29.212  29.380  1.00  0.00     0.049 A 
ATOM     45  H   UNL A   1      39.855  30.038  31.287  1.00  0.00     0.167 HD
ATOM     46  C   UNL A   1      40.080  32.001  35.200  1.00  0.00     0.037 A 
ATOM     47  C   UNL A   1      40.779  28.364  29.255  1.00  0.00     0.037 A 
ATOM     48  C   UNL A   1      41.148  31.034  35.199  1.00  0.00     0.049 A 
ATOM     49  C   UNL A   1      41.731  28.190  30.405  1.00  0.00     0.074 A 
ATOM     50  C   UNL A   1      42.025  30.718  36.221  1.00  0.00     0.029 A 
ATOM     51  N   UNL A   1      41.492  30.239  34.116  1.00  0.00    -0.354 N 
ATOM     52  N   UNL A   1      41.722  28.771  31.582  1.00  0.00    -0.248 NA
ATOM     53  C   UNL A   1      42.834  27.238  30.215  1.00  0.00     0.031 C 
ATOM     54  C   UNL A   1      42.945  29.783  35.732  1.00  0.00     0.029 A 
ATOM     55  C   UNL A   1      42.596  29.461  34.430  1.00  0.00     0.049 A 
ATOM     56  H   UNL A   1      41.021  30.227  33.252  1.00  0.00     0.167 HD
ATOM     57  C   UNL A   1      42.799  28.239  32.280  1.00  0.00     0.074 A 
ATOM     58  C   UNL A   1      43.432  27.279  31.398  1.00  0.00     0.031 C 
ATOM     59  C   UNL A   1      43.223  28.517  33.538  1.00  0.00     0.037 A 
BRANCH  46  60
ATOM     60  C   UNL A   1      39.899  32.877  36.409  1.00  0.00     0.057 A 
ATOM     61  C   UNL A   1      40.636  34.053  36.601  1.00  0.00     0.134 A 
ATOM     62  C   UNL A   1      38.969  32.532  37.399  1.00  0.00     0.134 A 
ATOM     63  F   UNL A   1      41.552  34.437  35.699  1.00  0.00    -0.206 F 
ATOM     64  C   UNL A   1      40.485  34.830  37.752  1.00  0.00     0.040 A 
ATOM     65  C   UNL A   1      38.786  33.319  38.538  1.00  0.00     0.040 A 
ATOM     66  F   UNL A   1      38.223  31.423  37.279  1.00  0.00    -0.206 F 
ATOM     67  C   UNL A   1      39.555  34.466  38.722  1.00  0.00     0.006 A 
ENDBRANCH  46  60
BRANCH  47  68
ATOM     68  C   UNL A   1      40.968  27.628  27.980  1.00  0.00     0.057 A 
ATOM     69  C   UNL A   1      41.729  28.165  26.936  1.00  0.00     0.134 A 
ATOM     70  C   UNL A   1      40.415  26.356  27.788  1.00  0.00     0.134 A 
ATOM     71  F   UNL A   1      42.268  29.386  27.053  1.00  0.00    -0.206 F 
ATOM     72  C   UNL A   1      41.929  27.465  25.744  1.00  0.00     0.040 A 
ATOM     73  C   UNL A   1      40.629  25.634  26.613  1.00  0.00     0.040 A 
ATOM     74  F   UNL A   1      39.681  25.784  28.755  1.00  0.00    -0.206 F 
ATOM     75  C   UNL A   1      41.385  26.192  25.585  1.00  0.00     0.006 A 
ENDBRANCH  47  68
BRANCH  59  76
ATOM     76  C   UNL A   1      44.413  27.754  34.050  1.00  0.00     0.057 A 
ATOM     77  C   UNL A   1      45.714  28.271  33.982  1.00  0.00     0.134 A 
ATOM     78  C   UNL A   1      44.250  26.501  34.657  1.00  0.00     0.134 A 
ATOM     79  F   UNL A   1      45.944  29.459  33.403  1.00  0.00    -0.206 F 
ATOM     80  C   UNL A   1      46.810  27.560  34.475  1.00  0.00     0.040 A 
ATOM     81  C   UNL A   1      45.333  25.795  35.183  1.00  0.00     0.040 A 
ATOM     82  F   UNL A   1      43.031  25.951  34.766  1.00  0.00    -0.206 F 
ATOM     83  C   UNL A   1      46.619  26.321  35.085  1.00  0.00     0.006 A 
ENDBRANCH  59  76
ENDBRANCH  33  34
ENDBRANCH  26  28
ENDBRANCH  25  26
ENDBRANCH  24  25
ENDBRANCH  23  24
ENDBRANCH  22  23
ENDBRANCH   1  22
TORSDOF 19
ENDMDL
MODEL 3
REMARK VINA RESULT:      -9.5      4.204      8.914
REMARK SMILES COC[C@@H](C)Nc1ccc([N+](=O)[O-])c(C(=O)OCCOCCOC(=O)c2ccc(-c3c4nc(c(-c5c(F)cccc5F)c5ccc([nH]5)c(-c5c(F)cccc5F)c5nc(c(-c6c(F)cccc6F)c6ccc3[nH]6)C=C5)C=C4)cc2)c1
REMARK SMILES IDX 19 1 18 2 17 3 15 4 16 5 14 6 7 7 8 8 80 9 9 10 10 11 6 12
REMARK SMILES IDX 4 14 5 15 3 16 2 17 1 18 11 19 12 20 13 21 20 22 21 23 22 24
REMARK SMILES IDX 23 25 24 26 25 27 26 28 27 29 79 30 28 31 78 32 29 33 30 34
REMARK SMILES IDX 31 35 72 36 32 37 77 38 71 39 73 40 33 41 76 42 70 43 69 44
REMARK SMILES IDX 34 46 60 47 43 48 59 49 44 50 47 51 58 52 74 53 45 54 46 55
REMARK SMILES IDX 57 57 75 58 48 59 35 60 36 61 41 62 37 63 38 64 40 65 42 66
REMARK SMILES IDX 39 67 61 68 62 69 67 70 63 71 64 72 66 73 68 74 65 75 49 76
REMARK SMILES IDX 50 77 55 78 51 79 52 80 54 81 56 82 53 83
REMARK H PARENT 6 13 73 45 47 56
REMARK Flexibility Score: inf
ROOT
ATOM      1  C   UNL A   1      32.768  27.964  22.838  1.00  0.00     0.202 C 
ENDROOT
BRANCH   1   2
ATOM      2  C   UNL A   1      32.424  26.470  22.875  1.00  0.00     0.261 C 
BRANCH   2   3
ATOM      3  O   UNL A   1      33.460  25.718  23.518  1.00  0.00    -0.459 OA
BRANCH   3   4
ATOM      4  C   UNL A   1      33.409  25.680  24.870  1.00  0.00     0.345 C 
ATOM      5  O   UNL A   1      33.993  26.396  25.666  1.00  0.00    -0.246 OA
BRANCH   4   6
ATOM      6  C   UNL A   1      32.453  24.636  25.274  1.00  0.00     0.139 A 
ATOM      7  C   UNL A   1      31.994  22.245  25.502  1.00  0.00     0.036 A 
ATOM      8  C   UNL A   1      30.776  22.573  26.116  1.00  0.00     0.033 A 
ATOM      9  C   UNL A   1      32.814  23.294  25.075  1.00  0.00     0.048 A 
ATOM     10  C   UNL A   1      30.386  23.903  26.303  1.00  0.00     0.089 A 
ATOM     11  C   UNL A   1      31.234  24.934  25.883  1.00  0.00     0.284 A 
BRANCH   7  12
ATOM     12  N   UNL A   1      32.352  20.916  25.410  1.00  0.00    -0.380 N 
ATOM     13  H   UNL A   1      32.072  20.318  26.139  1.00  0.00     0.160 HD
BRANCH  12  14
ATOM     14  C   UNL A   1      33.117  20.325  24.307  1.00  0.00     0.102 C 
ATOM     15  C   UNL A   1      32.153  20.057  23.153  1.00  0.00     0.033 C 
BRANCH  14  16
ATOM     16  C   UNL A   1      33.830  19.053  24.820  1.00  0.00     0.184 C 
BRANCH  16  17
ATOM     17  O   UNL A   1      33.240  17.830  24.377  1.00  0.00    -0.383 OA
ATOM     18  C   UNL A   1      32.532  17.121  25.380  1.00  0.00     0.194 C 
ENDBRANCH  16  17
ENDBRANCH  14  16
ENDBRANCH  12  14
ENDBRANCH   7  12
BRANCH  11  19
ATOM     19  N   UNL A   1      30.759  26.304  26.028  1.00  0.00     0.063 N 
ATOM     20  O   UNL A   1      31.046  26.892  27.081  1.00  0.00    -0.258 OA
ATOM     21  O   UNL A   1      30.016  26.750  25.147  1.00  0.00    -0.258 OA
ENDBRANCH  11  19
ENDBRANCH   4   6
ENDBRANCH   3   4
ENDBRANCH   2   3
ENDBRANCH   1   2
BRANCH   1  22
ATOM     22  O   UNL A   1      31.997  28.845  23.652  1.00  0.00    -0.374 OA
BRANCH  22  23
ATOM     23  C   UNL A   1      32.598  29.372  24.833  1.00  0.00     0.202 C 
BRANCH  23  24
ATOM     24  C   UNL A   1      31.785  30.356  25.680  1.00  0.00     0.261 C 
BRANCH  24  25
ATOM     25  O   UNL A   1      32.271  30.480  27.025  1.00  0.00    -0.460 OA
BRANCH  25  26
ATOM     26  C   UNL A   1      32.948  31.629  27.263  1.00  0.00     0.338 C 
ATOM     27  O   UNL A   1      32.517  32.769  27.237  1.00  0.00    -0.246 OA
BRANCH  26  28
ATOM     28  C   UNL A   1      34.306  31.313  27.733  1.00  0.00     0.060 A 
ATOM     29  C   UNL A   1      34.608  29.970  27.990  1.00  0.00     0.016 A 
ATOM     30  C   UNL A   1      35.234  32.320  28.002  1.00  0.00     0.016 A 
ATOM     31  C   UNL A   1      35.827  29.631  28.566  1.00  0.00     0.010 A 
ATOM     32  C   UNL A   1      36.455  31.979  28.586  1.00  0.00     0.010 A 
ATOM     33  C   UNL A   1      36.740  30.638  28.903  1.00  0.00    -0.014 A 
BRANCH  33  34
ATOM     34  C   UNL A   1      37.933  30.299  29.715  1.00  0.00     0.031 A 
ATOM     35  C   UNL A   1      38.980  29.393  29.135  1.00  0.00     0.074 A 
ATOM     36  C   UNL A   1      38.085  30.811  30.947  1.00  0.00     0.049 A 
ATOM     37  N   UNL A   1      40.081  28.940  29.680  1.00  0.00    -0.248 NA
ATOM     38  C   UNL A   1      38.750  28.924  27.760  1.00  0.00     0.031 C 
ATOM     39  C   UNL A   1      37.149  31.723  31.602  1.00  0.00     0.029 A 
ATOM     40  N   UNL A   1      39.082  30.627  31.869  1.00  0.00    -0.354 N 
ATOM     41  C   UNL A   1      40.666  28.123  28.721  1.00  0.00     0.074 A 
ATOM     42  C   UNL A   1      39.781  28.114  27.576  1.00  0.00     0.031 C 
ATOM     43  C   UNL A   1      37.611  32.009  32.830  1.00  0.00     0.029 A 
ATOM     44  C   UNL A   1      38.855  31.275  33.057  1.00  0.00     0.049 A 
ATOM     45  H   UNL A   1      39.884  30.082  31.696  1.00  0.00     0.167 HD
ATOM     46  C   UNL A   1      41.839  27.448  28.788  1.00  0.00     0.037 A 
ATOM     47  C   UNL A   1      39.557  31.257  34.205  1.00  0.00     0.037 A 
ATOM     48  C   UNL A   1      42.713  27.464  29.933  1.00  0.00     0.049 A 
ATOM     49  C   UNL A   1      40.830  30.459  34.280  1.00  0.00     0.074 A 
ATOM     50  C   UNL A   1      43.944  26.851  30.087  1.00  0.00     0.029 A 
ATOM     51  N   UNL A   1      42.439  28.116  31.127  1.00  0.00    -0.354 N 
ATOM     52  N   UNL A   1      41.399  29.724  33.355  1.00  0.00    -0.248 NA
ATOM     53  C   UNL A   1      41.561  30.494  35.553  1.00  0.00     0.031 C 
ATOM     54  C   UNL A   1      44.381  27.073  31.397  1.00  0.00     0.029 A 
ATOM     55  C   UNL A   1      43.459  27.885  32.037  1.00  0.00     0.049 A 
ATOM     56  H   UNL A   1      41.639  28.662  31.301  1.00  0.00     0.167 HD
ATOM     57  C   UNL A   1      42.566  29.227  33.925  1.00  0.00     0.074 A 
ATOM     58  C   UNL A   1      42.628  29.758  35.271  1.00  0.00     0.031 C 
ATOM     59  C   UNL A   1      43.502  28.411  33.381  1.00  0.00     0.037 A 
BRANCH  46  60
ATOM     60  C   UNL A   1      42.214  26.601  27.604  1.00  0.00     0.057 A 
ATOM     61  C   UNL A   1      41.862  25.248  27.508  1.00  0.00     0.134 A 
ATOM     62  C   UNL A   1      42.943  27.152  26.542  1.00  0.00     0.134 A 
ATOM     63  F   UNL A   1      41.175  24.652  28.494  1.00  0.00    -0.206 F 
ATOM     64  C   UNL A   1      42.258  24.465  26.421  1.00  0.00     0.040 A 
ATOM     65  C   UNL A   1      43.315  26.388  25.435  1.00  0.00     0.040 A 
ATOM     66  F   UNL A   1      43.308  28.443  26.562  1.00  0.00    -0.206 F 
ATOM     67  C   UNL A   1      42.983  25.037  25.378  1.00  0.00     0.006 A 
ENDBRANCH  46  60
BRANCH  47  68
ATOM     68  C   UNL A   1      39.056  32.017  35.378  1.00  0.00     0.057 A 
ATOM     69  C   UNL A   1      39.301  33.388  35.515  1.00  0.00     0.134 A 
ATOM     70  C   UNL A   1      38.295  31.394  36.375  1.00  0.00     0.134 A 
ATOM     71  F   UNL A   1      40.039  34.036  34.603  1.00  0.00    -0.206 F 
ATOM     72  C   UNL A   1      38.812  34.111  36.605  1.00  0.00     0.040 A 
ATOM     73  C   UNL A   1      37.778  32.110  37.455  1.00  0.00     0.040 A 
ATOM     74  F   UNL A   1      38.020  30.084  36.297  1.00  0.00    -0.206 F 
ATOM     75  C   UNL A   1      38.041  33.472  37.574  1.00  0.00     0.006 A 
ENDBRANCH  47  68
BRANCH  59  76
ATOM     76  C   UNL A   1      44.691  28.061  34.232  1.00  0.00     0.057 A 
ATOM     77  C   UNL A   1      44.722  26.908  35.028  1.00  0.00     0.134 A 
ATOM     78  C   UNL A   1      45.837  28.867  34.221  1.00  0.00     0.134 A 
ATOM     79  F   UNL A   1      43.655  26.098  35.095  1.00  0.00    -0.206 F 
ATOM     80  C   UNL A   1      45.839  26.585  35.803  1.00  0.00     0.040 A 
ATOM     81  C   UNL A   1      46.971  28.537  34.965  1.00  0.00     0.040 A 
ATOM     82  F   UNL A   1      45.882  29.979  33.472  1.00  0.00    -0.206 F 
ATOM     83  C   UNL A   1      46.971  27.397  35.765  1.00  0.00     0.006 A 
ENDBRANCH  59  76
ENDBRANCH  33  34
ENDBRANCH  26  28
ENDBRANCH  25  26
ENDBRANCH  24  25
ENDBRANCH  23  24
ENDBRANCH  22  23
ENDBRANCH   1  22
TORSDOF 19
ENDMDL
