MODEL 1
REMARK VINA RESULT:     -10.6      0.000      0.000
REMARK SMILES O=C(OCCOCCOC(=O)[C@@]12CCC[C@@H](C[NH2+]1)C2)c1ccc(-c2c3nc(c(-c4c(F)cccc4F)c4ccc([nH]4)c(-c4c(F)cccc4F)c4nc(c(-c5c(F)cccc5F)c5ccc2[nH]5)C=C4)C=C3)cc1
REMARK SMILES IDX 5 1 4 2 3 3 2 4 1 5 20 6 21 7 73 8 22 9 72 10 23 11 24 12
REMARK SMILES IDX 25 13 66 14 26 15 71 16 65 17 67 18 27 19 70 20 64 21 63 22
REMARK SMILES IDX 28 24 54 25 37 26 53 27 38 28 41 29 52 30 68 31 39 32 40 33
REMARK SMILES IDX 51 35 69 36 42 37 29 38 30 39 35 40 31 41 32 42 34 43 36 44
REMARK SMILES IDX 33 45 55 46 56 47 61 48 57 49 58 50 60 51 62 52 59 53 43 54
REMARK SMILES IDX 44 55 49 56 45 57 46 58 48 59 50 60 47 61 6 62 7 63 8 64
REMARK SMILES IDX 9 65 10 66 11 67 12 68 13 69 18 70 19 71 14 72 17 73 16 76
REMARK SMILES IDX 15 77
REMARK H PARENT 67 23 41 34 18 74 18 75
REMARK Flexibility Score: inf
ROOT
ATOM      1  C   UNL A   1      37.759  19.859  24.824  1.00  0.00     0.202 C 
ENDROOT
BRANCH   1   2
ATOM      2  C   UNL A   1      39.007  20.264  25.621  1.00  0.00     0.261 C 
BRANCH   2   3
ATOM      3  O   UNL A   1      39.952  19.189  25.758  1.00  0.00    -0.460 OA
BRANCH   3   4
ATOM      4  C   UNL A   1      41.289  19.346  25.921  1.00  0.00     0.338 C 
ATOM      5  O   UNL A   1      42.051  18.397  25.768  1.00  0.00    -0.246 OA
BRANCH   4   6
ATOM      6  C   UNL A   1      41.849  20.667  26.310  1.00  0.00     0.060 A 
ATOM      7  C   UNL A   1      42.100  21.671  25.376  1.00  0.00     0.016 A 
ATOM      8  C   UNL A   1      42.059  20.944  27.665  1.00  0.00     0.016 A 
ATOM      9  C   UNL A   1      42.665  22.873  25.737  1.00  0.00     0.010 A 
ATOM     10  C   UNL A   1      42.529  22.201  28.055  1.00  0.00     0.010 A 
ATOM     11  C   UNL A   1      42.836  23.164  27.084  1.00  0.00    -0.014 A 
BRANCH  11  12
ATOM     12  C   UNL A   1      43.313  24.514  27.417  1.00  0.00     0.031 A 
ATOM     13  C   UNL A   1      42.348  25.516  27.956  1.00  0.00     0.074 A 
ATOM     14  C   UNL A   1      44.635  24.760  27.341  1.00  0.00     0.049 A 
ATOM     15  N   UNL A   1      42.548  26.772  28.241  1.00  0.00    -0.248 NA
ATOM     16  C   UNL A   1      40.979  25.041  28.220  1.00  0.00     0.031 C 
ATOM     17  C   UNL A   1      45.654  23.782  26.938  1.00  0.00     0.029 A 
ATOM     18  N   UNL A   1      45.356  25.884  27.632  1.00  0.00    -0.354 N 
ATOM     19  C   UNL A   1      41.322  27.252  28.676  1.00  0.00     0.074 A 
ATOM     20  C   UNL A   1      40.387  26.150  28.639  1.00  0.00     0.031 C 
ATOM     21  C   UNL A   1      46.868  24.344  27.036  1.00  0.00     0.029 A 
ATOM     22  C   UNL A   1      46.705  25.740  27.414  1.00  0.00     0.049 A 
ATOM     23  H   UNL A   1      44.949  26.717  27.965  1.00  0.00     0.167 HD
ATOM     24  C   UNL A   1      41.018  28.514  29.050  1.00  0.00     0.037 A 
ATOM     25  C   UNL A   1      47.687  26.657  27.460  1.00  0.00     0.037 A 
ATOM     26  C   UNL A   1      41.984  29.578  29.087  1.00  0.00     0.049 A 
ATOM     27  C   UNL A   1      47.301  28.068  27.798  1.00  0.00     0.074 A 
ATOM     28  C   UNL A   1      41.796  30.909  29.412  1.00  0.00     0.029 A 
ATOM     29  N   UNL A   1      43.331  29.420  28.788  1.00  0.00    -0.354 N 
ATOM     30  N   UNL A   1      46.125  28.539  28.146  1.00  0.00    -0.248 NA
ATOM     31  C   UNL A   1      48.358  29.081  27.716  1.00  0.00     0.031 C 
ATOM     32  C   UNL A   1      43.024  31.564  29.267  1.00  0.00     0.029 A 
ATOM     33  C   UNL A   1      43.983  30.635  28.891  1.00  0.00     0.049 A 
ATOM     34  H   UNL A   1      43.759  28.569  28.539  1.00  0.00     0.167 HD
ATOM     35  C   UNL A   1      46.299  29.902  28.318  1.00  0.00     0.074 A 
ATOM     36  C   UNL A   1      47.702  30.176  28.072  1.00  0.00     0.031 C 
ATOM     37  C   UNL A   1      45.384  30.852  28.633  1.00  0.00     0.037 A 
BRANCH  24  38
ATOM     38  C   UNL A   1      39.585  28.812  29.363  1.00  0.00     0.057 A 
ATOM     39  C   UNL A   1      38.676  29.233  28.386  1.00  0.00     0.134 A 
ATOM     40  C   UNL A   1      39.112  28.679  30.674  1.00  0.00     0.134 A 
ATOM     41  F   UNL A   1      39.074  29.408  27.116  1.00  0.00    -0.206 F 
ATOM     42  C   UNL A   1      37.347  29.522  28.706  1.00  0.00     0.040 A 
ATOM     43  C   UNL A   1      37.784  28.948  31.004  1.00  0.00     0.040 A 
ATOM     44  F   UNL A   1      39.937  28.291  31.659  1.00  0.00    -0.206 F 
ATOM     45  C   UNL A   1      36.897  29.374  30.017  1.00  0.00     0.006 A 
ENDBRANCH  24  38
BRANCH  25  46
ATOM     46  C   UNL A   1      49.079  26.297  27.087  1.00  0.00     0.057 A 
ATOM     47  C   UNL A   1      50.007  25.872  28.043  1.00  0.00     0.134 A 
ATOM     48  C   UNL A   1      49.525  26.393  25.761  1.00  0.00     0.134 A 
ATOM     49  F   UNL A   1      49.653  25.779  29.333  1.00  0.00    -0.206 F 
ATOM     50  C   UNL A   1      51.328  25.575  27.699  1.00  0.00     0.040 A 
ATOM     51  C   UNL A   1      50.832  26.069  25.397  1.00  0.00     0.040 A 
ATOM     52  F   UNL A   1      48.688  26.794  24.792  1.00  0.00    -0.206 F 
ATOM     53  C   UNL A   1      51.742  25.668  26.371  1.00  0.00     0.006 A 
ENDBRANCH  25  46
BRANCH  37  54
ATOM     54  C   UNL A   1      45.888  32.256  28.723  1.00  0.00     0.057 A 
ATOM     55  C   UNL A   1      46.410  32.768  29.917  1.00  0.00     0.134 A 
ATOM     56  C   UNL A   1      45.891  33.087  27.597  1.00  0.00     0.134 A 
ATOM     57  F   UNL A   1      46.416  32.021  31.032  1.00  0.00    -0.206 F 
ATOM     58  C   UNL A   1      46.907  34.067  29.992  1.00  0.00     0.040 A 
ATOM     59  C   UNL A   1      46.407  34.380  27.654  1.00  0.00     0.040 A 
ATOM     60  F   UNL A   1      45.409  32.648  26.425  1.00  0.00    -0.206 F 
ATOM     61  C   UNL A   1      46.914  34.874  28.855  1.00  0.00     0.006 A 
ENDBRANCH  37  54
ENDBRANCH  11  12
ENDBRANCH   4   6
ENDBRANCH   3   4
ENDBRANCH   2   3
ENDBRANCH   1   2
BRANCH   1  62
ATOM     62  O   UNL A   1      36.704  20.810  24.624  1.00  0.00    -0.374 OA
BRANCH  62  63
ATOM     63  C   UNL A   1      36.235  21.498  25.791  1.00  0.00     0.202 C 
BRANCH  63  64
ATOM     64  C   UNL A   1      34.703  21.445  25.859  1.00  0.00     0.261 C 
BRANCH  64  65
ATOM     65  O   UNL A   1      34.242  20.678  24.736  1.00  0.00    -0.459 OA
BRANCH  65  66
ATOM     66  C   UNL A   1      33.026  20.083  24.929  1.00  0.00     0.368 C 
ATOM     67  O   UNL A   1      32.018  20.682  25.281  1.00  0.00    -0.245 OA
BRANCH  66  68
ATOM     68  C   UNL A   1      33.112  18.578  24.597  1.00  0.00     0.194 C 
ATOM     69  C   UNL A   1      32.528  17.738  25.753  1.00  0.00     0.081 C 
ATOM     70  N   UNL A   1      32.338  18.268  23.341  1.00  0.00    -0.332 N 
ATOM     71  C   UNL A   1      34.510  18.087  24.251  1.00  0.00     0.090 C 
ATOM     72  C   UNL A   1      33.089  16.314  25.811  1.00  0.00     0.008 C 
ATOM     73  C   UNL A   1      33.115  17.331  22.535  1.00  0.00     0.265 C 
ATOM     74  H   UNL A   1      32.181  19.127  22.813  1.00  0.00     0.347 HD
ATOM     75  H   UNL A   1      31.436  17.858  23.580  1.00  0.00     0.347 HD
ATOM     76  C   UNL A   1      34.151  16.796  23.511  1.00  0.00     0.051 C 
ATOM     77  C   UNL A   1      33.494  15.753  24.448  1.00  0.00     0.010 C 
ENDBRANCH  66  68
ENDBRANCH  65  66
ENDBRANCH  64  65
ENDBRANCH  63  64
ENDBRANCH  62  63
ENDBRANCH   1  62
TORSDOF 14
ENDMDL
MODEL 2
REMARK VINA RESULT:     -10.5      0.646      6.649
REMARK SMILES O=C(OCCOCCOC(=O)[C@@]12CCC[C@@H](C[NH2+]1)C2)c1ccc(-c2c3nc(c(-c4c(F)cccc4F)c4ccc([nH]4)c(-c4c(F)cccc4F)c4nc(c(-c5c(F)cccc5F)c5ccc2[nH]5)C=C4)C=C3)cc1
REMARK SMILES IDX 5 1 4 2 3 3 2 4 1 5 20 6 21 7 73 8 22 9 72 10 23 11 24 12
REMARK SMILES IDX 25 13 66 14 26 15 71 16 65 17 67 18 27 19 70 20 64 21 63 22
REMARK SMILES IDX 28 24 54 25 37 26 53 27 38 28 41 29 52 30 68 31 39 32 40 33
REMARK SMILES IDX 51 35 69 36 42 37 29 38 30 39 35 40 31 41 32 42 34 43 36 44
REMARK SMILES IDX 33 45 55 46 56 47 61 48 57 49 58 50 60 51 62 52 59 53 43 54
REMARK SMILES IDX 44 55 49 56 45 57 46 58 48 59 50 60 47 61 6 62 7 63 8 64
REMARK SMILES IDX 9 65 10 66 11 67 12 68 13 69 18 70 19 71 14 72 17 73 16 76
REMARK SMILES IDX 15 77
REMARK H PARENT 67 23 41 34 18 74 18 75
REMARK Flexibility Score: inf
ROOT
ATOM      1  C   UNL A   1      37.989  19.543  24.986  1.00  0.00     0.202 C 
ENDROOT
BRANCH   1   2
ATOM      2  C   UNL A   1      39.240  19.983  25.760  1.00  0.00     0.261 C 
BRANCH   2   3
ATOM      3  O   UNL A   1      40.276  18.987  25.752  1.00  0.00    -0.460 OA
BRANCH   3   4
ATOM      4  C   UNL A   1      41.587  19.227  26.003  1.00  0.00     0.338 C 
ATOM      5  O   UNL A   1      42.412  18.324  25.926  1.00  0.00    -0.246 OA
BRANCH   4   6
ATOM      6  C   UNL A   1      42.039  20.587  26.398  1.00  0.00     0.060 A 
ATOM      7  C   UNL A   1      42.259  21.597  25.464  1.00  0.00     0.016 A 
ATOM      8  C   UNL A   1      42.174  20.891  27.757  1.00  0.00     0.016 A 
ATOM      9  C   UNL A   1      42.726  22.838  25.833  1.00  0.00     0.010 A 
ATOM     10  C   UNL A   1      42.541  22.181  28.151  1.00  0.00     0.010 A 
ATOM     11  C   UNL A   1      42.821  23.153  27.182  1.00  0.00    -0.014 A 
BRANCH  11  12
ATOM     12  C   UNL A   1      43.190  24.536  27.518  1.00  0.00     0.031 A 
ATOM     13  C   UNL A   1      44.609  24.970  27.364  1.00  0.00     0.074 A 
ATOM     14  C   UNL A   1      42.206  25.400  27.833  1.00  0.00     0.049 A 
ATOM     15  N   UNL A   1      45.152  26.114  27.671  1.00  0.00    -0.248 NA
ATOM     16  C   UNL A   1      45.540  23.992  26.775  1.00  0.00     0.031 C 
ATOM     17  C   UNL A   1      40.776  25.070  27.881  1.00  0.00     0.029 A 
ATOM     18  N   UNL A   1      42.245  26.733  28.134  1.00  0.00    -0.354 N 
ATOM     19  C   UNL A   1      46.496  25.982  27.358  1.00  0.00     0.074 A 
ATOM     20  C   UNL A   1      46.687  24.655  26.816  1.00  0.00     0.031 C 
ATOM     21  C   UNL A   1      40.077  26.179  28.165  1.00  0.00     0.029 A 
ATOM     22  C   UNL A   1      41.010  27.267  28.411  1.00  0.00     0.049 A 
ATOM     23  H   UNL A   1      43.078  27.259  28.152  1.00  0.00     0.167 HD
ATOM     24  C   UNL A   1      47.476  26.895  27.535  1.00  0.00     0.037 A 
ATOM     25  C   UNL A   1      40.685  28.487  28.871  1.00  0.00     0.037 A 
ATOM     26  C   UNL A   1      47.240  28.210  28.063  1.00  0.00     0.049 A 
ATOM     27  C   UNL A   1      41.806  29.450  29.136  1.00  0.00     0.074 A 
ATOM     28  C   UNL A   1      48.152  29.215  28.327  1.00  0.00     0.029 A 
ATOM     29  N   UNL A   1      45.987  28.700  28.407  1.00  0.00    -0.354 N 
ATOM     30  N   UNL A   1      43.090  29.302  28.902  1.00  0.00    -0.248 NA
ATOM     31  C   UNL A   1      41.449  30.728  29.759  1.00  0.00     0.031 C 
ATOM     32  C   UNL A   1      47.452  30.298  28.870  1.00  0.00     0.029 A 
ATOM     33  C   UNL A   1      46.103  29.983  28.909  1.00  0.00     0.049 A 
ATOM     34  H   UNL A   1      45.140  28.206  28.309  1.00  0.00     0.167 HD
ATOM     35  C   UNL A   1      43.694  30.463  29.354  1.00  0.00     0.074 A 
ATOM     36  C   UNL A   1      42.631  31.321  29.843  1.00  0.00     0.031 C 
ATOM     37  C   UNL A   1      45.009  30.793  29.384  1.00  0.00     0.037 A 
BRANCH  24  38
ATOM     38  C   UNL A   1      48.877  26.466  27.230  1.00  0.00     0.057 A 
ATOM     39  C   UNL A   1      49.479  26.695  25.987  1.00  0.00     0.134 A 
ATOM     40  C   UNL A   1      49.634  25.803  28.204  1.00  0.00     0.134 A 
ATOM     41  F   UNL A   1      48.797  27.300  25.003  1.00  0.00    -0.206 F 
ATOM     42  C   UNL A   1      50.782  26.269  25.721  1.00  0.00     0.040 A 
ATOM     43  C   UNL A   1      50.942  25.387  27.957  1.00  0.00     0.040 A 
ATOM     44  F   UNL A   1      49.110  25.542  29.412  1.00  0.00    -0.206 F 
ATOM     45  C   UNL A   1      51.519  25.619  26.710  1.00  0.00     0.006 A 
ENDBRANCH  24  38
BRANCH  25  46
ATOM     46  C   UNL A   1      39.275  28.824  29.198  1.00  0.00     0.057 A 
ATOM     47  C   UNL A   1      38.422  29.405  28.255  1.00  0.00     0.134 A 
ATOM     48  C   UNL A   1      38.751  28.591  30.478  1.00  0.00     0.134 A 
ATOM     49  F   UNL A   1      38.866  29.674  27.019  1.00  0.00    -0.206 F 
ATOM     50  C   UNL A   1      37.110  29.761  28.576  1.00  0.00     0.040 A 
ATOM     51  C   UNL A   1      37.432  28.911  30.804  1.00  0.00     0.040 A 
ATOM     52  F   UNL A   1      39.512  28.035  31.432  1.00  0.00    -0.206 F 
ATOM     53  C   UNL A   1      36.610  29.509  29.853  1.00  0.00     0.006 A 
ENDBRANCH  25  46
BRANCH  37  54
ATOM     54  C   UNL A   1      45.346  32.129  29.962  1.00  0.00     0.057 A 
ATOM     55  C   UNL A   1      45.349  33.285  29.173  1.00  0.00     0.134 A 
ATOM     56  C   UNL A   1      45.628  32.265  31.326  1.00  0.00     0.134 A 
ATOM     57  F   UNL A   1      45.103  33.210  27.857  1.00  0.00    -0.206 F 
ATOM     58  C   UNL A   1      45.634  34.535  29.721  1.00  0.00     0.040 A 
ATOM     59  C   UNL A   1      45.892  33.512  31.890  1.00  0.00     0.040 A 
ATOM     60  F   UNL A   1      45.633  31.192  32.131  1.00  0.00    -0.206 F 
ATOM     61  C   UNL A   1      45.899  34.651  31.085  1.00  0.00     0.006 A 
ENDBRANCH  37  54
ENDBRANCH  11  12
ENDBRANCH   4   6
ENDBRANCH   3   4
ENDBRANCH   2   3
ENDBRANCH   1   2
BRANCH   1  62
ATOM     62  O   UNL A   1      37.007  20.518  24.609  1.00  0.00    -0.374 OA
BRANCH  62  63
ATOM     63  C   UNL A   1      36.633  21.471  25.613  1.00  0.00     0.202 C 
BRANCH  63  64
ATOM     64  C   UNL A   1      35.105  21.568  25.711  1.00  0.00     0.261 C 
BRANCH  64  65
ATOM     65  O   UNL A   1      34.548  20.699  24.713  1.00  0.00    -0.459 OA
BRANCH  65  66
ATOM     66  C   UNL A   1      33.312  20.207  25.030  1.00  0.00     0.368 C 
ATOM     67  O   UNL A   1      32.406  20.881  25.504  1.00  0.00    -0.245 OA
BRANCH  66  68
ATOM     68  C   UNL A   1      33.225  18.710  24.665  1.00  0.00     0.194 C 
ATOM     69  C   UNL A   1      32.578  17.911  25.816  1.00  0.00     0.081 C 
ATOM     70  N   UNL A   1      32.397  18.516  23.421  1.00  0.00    -0.332 N 
ATOM     71  C   UNL A   1      34.554  18.079  24.276  1.00  0.00     0.090 C 
ATOM     72  C   UNL A   1      32.982  16.434  25.831  1.00  0.00     0.008 C 
ATOM     73  C   UNL A   1      33.049  17.519  22.578  1.00  0.00     0.265 C 
ATOM     74  H   UNL A   1      32.323  19.399  22.915  1.00  0.00     0.347 HD
ATOM     75  H   UNL A   1      31.460  18.200  23.672  1.00  0.00     0.347 HD
ATOM     76  C   UNL A   1      34.041  16.852  23.517  1.00  0.00     0.051 C 
ATOM     77  C   UNL A   1      33.294  15.864  24.447  1.00  0.00     0.010 C 
ENDBRANCH  66  68
ENDBRANCH  65  66
ENDBRANCH  64  65
ENDBRANCH  63  64
ENDBRANCH  62  63
ENDBRANCH   1  62
TORSDOF 14
ENDMDL
MODEL 3
REMARK VINA RESULT:     -10.4      5.620     10.457
REMARK SMILES O=C(OCCOCCOC(=O)[C@@]12CCC[C@@H](C[NH2+]1)C2)c1ccc(-c2c3nc(c(-c4c(F)cccc4F)c4ccc([nH]4)c(-c4c(F)cccc4F)c4nc(c(-c5c(F)cccc5F)c5ccc2[nH]5)C=C4)C=C3)cc1
REMARK SMILES IDX 5 1 4 2 3 3 2 4 1 5 20 6 21 7 73 8 22 9 72 10 23 11 24 12
REMARK SMILES IDX 25 13 66 14 26 15 71 16 65 17 67 18 27 19 70 20 64 21 63 22
REMARK SMILES IDX 28 24 54 25 37 26 53 27 38 28 41 29 52 30 68 31 39 32 40 33
REMARK SMILES IDX 51 35 69 36 42 37 29 38 30 39 35 40 31 41 32 42 34 43 36 44
REMARK SMILES IDX 33 45 55 46 56 47 61 48 57 49 58 50 60 51 62 52 59 53 43 54
REMARK SMILES IDX 44 55 49 56 45 57 46 58 48 59 50 60 47 61 6 62 7 63 8 64
REMARK SMILES IDX 9 65 10 66 11 67 12 68 13 69 18 70 19 71 14 72 17 73 16 76
REMARK SMILES IDX 15 77
REMARK H PARENT 67 23 41 34 18 74 18 75
REMARK Flexibility Score: inf
ROOT
ATOM      1  C   UNL A   1      33.429  34.184  28.377  1.00  0.00     0.202 C 
ENDROOT
BRANCH   1   2
ATOM      2  C   UNL A   1      34.507  33.144  28.043  1.00  0.00     0.261 C 
BRANCH   2   3
ATOM      3  O   UNL A   1      34.102  31.802  28.359  1.00  0.00    -0.460 OA
BRANCH   3   4
ATOM      4  C   UNL A   1      34.612  30.681  27.791  1.00  0.00     0.338 C 
ATOM      5  O   UNL A   1      33.972  30.062  26.949  1.00  0.00    -0.246 OA
BRANCH   4   6
ATOM      6  C   UNL A   1      35.949  30.174  28.200  1.00  0.00     0.060 A 
ATOM      7  C   UNL A   1      37.082  30.345  27.407  1.00  0.00     0.016 A 
ATOM      8  C   UNL A   1      36.094  29.573  29.455  1.00  0.00     0.016 A 
ATOM      9  C   UNL A   1      38.306  29.829  27.769  1.00  0.00     0.010 A 
ATOM     10  C   UNL A   1      37.353  29.143  29.882  1.00  0.00     0.010 A 
ATOM     11  C   UNL A   1      38.459  29.269  29.031  1.00  0.00    -0.014 A 
BRANCH  11  12
ATOM     12  C   UNL A   1      39.818  28.862  29.416  1.00  0.00     0.031 A 
ATOM     13  C   UNL A   1      40.580  29.694  30.391  1.00  0.00     0.074 A 
ATOM     14  C   UNL A   1      40.279  27.677  28.970  1.00  0.00     0.049 A 
ATOM     15  N   UNL A   1      41.808  29.551  30.803  1.00  0.00    -0.248 NA
ATOM     16  C   UNL A   1      39.865  30.833  30.990  1.00  0.00     0.031 C 
ATOM     17  C   UNL A   1      39.532  26.751  28.109  1.00  0.00     0.029 A 
ATOM     18  N   UNL A   1      41.460  27.030  29.201  1.00  0.00    -0.354 N 
ATOM     19  C   UNL A   1      42.031  30.605  31.676  1.00  0.00     0.074 A 
ATOM     20  C   UNL A   1      40.806  31.370  31.753  1.00  0.00     0.031 C 
ATOM     21  C   UNL A   1      40.264  25.645  27.912  1.00  0.00     0.029 A 
ATOM     22  C   UNL A   1      41.560  25.825  28.548  1.00  0.00     0.049 A 
ATOM     23  H   UNL A   1      42.171  27.392  29.780  1.00  0.00     0.167 HD
ATOM     24  C   UNL A   1      43.174  30.904  32.332  1.00  0.00     0.037 A 
ATOM     25  C   UNL A   1      42.610  24.993  28.434  1.00  0.00     0.037 A 
ATOM     26  C   UNL A   1      44.366  30.106  32.239  1.00  0.00     0.049 A 
ATOM     27  C   UNL A   1      43.890  25.397  29.107  1.00  0.00     0.074 A 
ATOM     28  C   UNL A   1      45.600  30.321  32.823  1.00  0.00     0.029 A 
ATOM     29  N   UNL A   1      44.462  28.929  31.509  1.00  0.00    -0.354 N 
ATOM     30  N   UNL A   1      44.122  26.432  29.881  1.00  0.00    -0.248 NA
ATOM     31  C   UNL A   1      45.061  24.548  28.865  1.00  0.00     0.031 C 
ATOM     32  C   UNL A   1      46.455  29.293  32.409  1.00  0.00     0.029 A 
ATOM     33  C   UNL A   1      45.744  28.419  31.601  1.00  0.00     0.049 A 
ATOM     34  H   UNL A   1      43.726  28.518  30.999  1.00  0.00     0.167 HD
ATOM     35  C   UNL A   1      45.464  26.363  30.214  1.00  0.00     0.074 A 
ATOM     36  C   UNL A   1      45.987  25.164  29.587  1.00  0.00     0.031 C 
ATOM     37  C   UNL A   1      46.211  27.219  30.955  1.00  0.00     0.037 A 
BRANCH  24  38
ATOM     38  C   UNL A   1      43.199  32.173  33.125  1.00  0.00     0.057 A 
ATOM     39  C   UNL A   1      43.559  33.402  32.562  1.00  0.00     0.134 A 
ATOM     40  C   UNL A   1      42.862  32.155  34.484  1.00  0.00     0.134 A 
ATOM     41  F   UNL A   1      43.921  33.480  31.272  1.00  0.00    -0.206 F 
ATOM     42  C   UNL A   1      43.592  34.570  33.328  1.00  0.00     0.040 A 
ATOM     43  C   UNL A   1      42.875  33.317  35.256  1.00  0.00     0.040 A 
ATOM     44  F   UNL A   1      42.520  31.006  35.086  1.00  0.00    -0.206 F 
ATOM     45  C   UNL A   1      43.244  34.530  34.677  1.00  0.00     0.006 A 
ENDBRANCH  24  38
BRANCH  25  46
ATOM     46  C   UNL A   1      42.524  23.776  27.587  1.00  0.00     0.057 A 
ATOM     47  C   UNL A   1      42.214  22.525  28.130  1.00  0.00     0.134 A 
ATOM     48  C   UNL A   1      42.776  23.830  26.208  1.00  0.00     0.134 A 
ATOM     49  F   UNL A   1      41.982  22.399  29.445  1.00  0.00    -0.206 F 
ATOM     50  C   UNL A   1      42.176  21.373  27.341  1.00  0.00     0.040 A 
ATOM     51  C   UNL A   1      42.711  22.693  25.402  1.00  0.00     0.040 A 
ATOM     52  F   UNL A   1      43.080  24.996  25.620  1.00  0.00    -0.206 F 
ATOM     53  C   UNL A   1      42.419  21.456  25.971  1.00  0.00     0.006 A 
ENDBRANCH  25  46
BRANCH  37  54
ATOM     54  C   UNL A   1      47.657  26.873  31.114  1.00  0.00     0.057 A 
ATOM     55  C   UNL A   1      48.094  26.027  32.139  1.00  0.00     0.134 A 
ATOM     56  C   UNL A   1      48.609  27.354  30.210  1.00  0.00     0.134 A 
ATOM     57  F   UNL A   1      47.226  25.550  33.045  1.00  0.00    -0.206 F 
ATOM     58  C   UNL A   1      49.438  25.680  32.269  1.00  0.00     0.040 A 
ATOM     59  C   UNL A   1      49.952  26.997  30.314  1.00  0.00     0.040 A 
ATOM     60  F   UNL A   1      48.246  28.164  29.204  1.00  0.00    -0.206 F 
ATOM     61  C   UNL A   1      50.370  26.160  31.349  1.00  0.00     0.006 A 
ENDBRANCH  37  54
ENDBRANCH  11  12
ENDBRANCH   4   6
ENDBRANCH   3   4
ENDBRANCH   2   3
ENDBRANCH   1   2
BRANCH   1  62
ATOM     62  O   UNL A   1      33.387  34.769  29.686  1.00  0.00    -0.374 OA
BRANCH  62  63
ATOM     63  C   UNL A   1      32.969  36.139  29.762  1.00  0.00     0.202 C 
BRANCH  63  64
ATOM     64  C   UNL A   1      33.024  36.632  31.213  1.00  0.00     0.261 C 
BRANCH  64  65
ATOM     65  O   UNL A   1      33.155  35.480  32.061  1.00  0.00    -0.459 OA
BRANCH  65  66
ATOM     66  C   UNL A   1      34.174  35.569  32.969  1.00  0.00     0.368 C 
ATOM     67  O   UNL A   1      34.376  36.545  33.681  1.00  0.00    -0.245 OA
BRANCH  66  68
ATOM     68  C   UNL A   1      34.988  34.258  32.985  1.00  0.00     0.194 C 
ATOM     69  C   UNL A   1      35.409  33.903  34.428  1.00  0.00     0.081 C 
ATOM     70  N   UNL A   1      34.169  33.119  32.432  1.00  0.00    -0.332 N 
ATOM     71  C   UNL A   1      36.206  34.260  32.073  1.00  0.00     0.090 C 
ATOM     72  C   UNL A   1      36.663  33.026  34.495  1.00  0.00     0.008 C 
ATOM     73  C   UNL A   1      35.023  32.308  31.569  1.00  0.00     0.265 C 
ATOM     74  H   UNL A   1      33.387  33.490  31.891  1.00  0.00     0.347 HD
ATOM     75  H   UNL A   1      33.803  32.550  33.195  1.00  0.00     0.347 HD
ATOM     76  C   UNL A   1      36.429  32.751  31.942  1.00  0.00     0.051 C 
ATOM     77  C   UNL A   1      36.839  32.104  33.288  1.00  0.00     0.010 C 
ENDBRANCH  66  68
ENDBRANCH  65  66
ENDBRANCH  64  65
ENDBRANCH  63  64
ENDBRANCH  62  63
ENDBRANCH   1  62
TORSDOF 14
ENDMDL
