MODEL 1
REMARK VINA RESULT:     -11.1      0.000      0.000
REMARK SMILES O=C(C[C@H]1C(=O)NCC[N@@H+]1Cc1cccc(C2CC2)c1)OCCOCCOC(=O)c1ccc(-c2c3nc(c(-c4c(F)cccc4F)c4ccc([nH]4)c(-c4c(F)cccc4F)c4nc(c(-c5c(F)cccc5F)c5ccc2[nH]5)C=C4)C=C3)cc1
REMARK SMILES IDX 23 1 22 2 21 3 2 4 1 5 3 6 4 7 5 8 10 9 6 10 7 11 9 12 8 14
REMARK SMILES IDX 11 16 12 17 13 18 20 19 14 20 16 21 15 22 17 23 18 24 19 25
REMARK SMILES IDX 24 26 25 27 26 28 27 29 28 30 29 31 30 32 31 33 83 34 32 35
REMARK SMILES IDX 82 36 33 37 34 38 35 39 76 40 36 41 81 42 75 43 77 44 37 45
REMARK SMILES IDX 80 46 74 47 73 48 38 50 64 51 47 52 63 53 48 54 51 55 62 56
REMARK SMILES IDX 78 57 49 58 50 59 61 61 79 62 52 63 39 64 40 65 45 66 41 67
REMARK SMILES IDX 42 68 44 69 46 70 43 71 65 72 66 73 71 74 67 75 68 76 70 77
REMARK SMILES IDX 72 78 69 79 53 80 54 81 59 82 55 83 56 84 58 85 60 86 57 87
REMARK H PARENT 10 13 7 15 77 49 51 60
REMARK Flexibility Score: inf
ROOT
ATOM      1  C   UNL A   1      40.542  21.141  26.656  1.00  0.00     0.202 C 
ENDROOT
BRANCH   1   2
ATOM      2  C   UNL A   1      39.181  20.916  26.046  1.00  0.00     0.261 C 
BRANCH   2   3
ATOM      3  O   UNL A   1      38.510  22.080  25.576  1.00  0.00    -0.463 OA
BRANCH   3   4
ATOM      4  C   UNL A   1      37.168  22.194  25.812  1.00  0.00     0.312 C 
ATOM      5  O   UNL A   1      36.459  21.193  25.808  1.00  0.00    -0.252 OA
BRANCH   4   6
ATOM      6  C   UNL A   1      36.570  23.597  25.870  1.00  0.00     0.198 C 
BRANCH   6   7
ATOM      7  C   UNL A   1      35.748  24.124  24.662  1.00  0.00     0.285 C 
ATOM      8  C   UNL A   1      35.636  23.113  23.507  1.00  0.00     0.279 C 
ATOM      9  N   UNL A   1      34.408  24.645  25.099  1.00  0.00    -0.319 N 
ATOM     10  O   UNL A   1      36.532  22.949  22.681  1.00  0.00    -0.268 OA
ATOM     11  N   UNL A   1      34.523  22.317  23.464  1.00  0.00    -0.345 N 
ATOM     12  C   UNL A   1      33.481  23.552  25.424  1.00  0.00     0.284 C 
ATOM     13  H   UNL A   1      34.605  25.155  25.960  1.00  0.00     0.349 HD
ATOM     14  C   UNL A   1      33.408  22.410  24.388  1.00  0.00     0.177 C 
ATOM     15  H   UNL A   1      34.476  21.634  22.758  1.00  0.00     0.163 HD
BRANCH   9  16
ATOM     16  C   UNL A   1      33.803  25.696  24.243  1.00  0.00     0.299 C 
BRANCH  16  17
ATOM     17  C   UNL A   1      32.978  26.765  24.941  1.00  0.00     0.006 A 
ATOM     18  C   UNL A   1      33.531  27.463  26.016  1.00  0.00     0.009 A 
ATOM     19  C   UNL A   1      31.738  27.193  24.412  1.00  0.00     0.013 A 
ATOM     20  C   UNL A   1      32.928  28.630  26.466  1.00  0.00     0.001 A 
ATOM     21  C   UNL A   1      31.202  28.458  24.727  1.00  0.00    -0.044 A 
ATOM     22  C   UNL A   1      31.807  29.135  25.803  1.00  0.00     0.004 A 
BRANCH  21  23
ATOM     23  C   UNL A   1      30.186  29.213  23.866  1.00  0.00     0.019 C 
ATOM     24  C   UNL A   1      30.390  29.436  22.376  1.00  0.00     0.009 C 
ATOM     25  C   UNL A   1      29.272  28.570  22.864  1.00  0.00     0.009 C 
ENDBRANCH  21  23
ENDBRANCH  16  17
ENDBRANCH   9  16
ENDBRANCH   6   7
ENDBRANCH   4   6
ENDBRANCH   3   4
ENDBRANCH   2   3
ENDBRANCH   1   2
BRANCH   1  26
ATOM     26  O   UNL A   1      41.485  21.603  25.688  1.00  0.00    -0.374 OA
BRANCH  26  27
ATOM     27  C   UNL A   1      42.790  21.070  25.906  1.00  0.00     0.202 C 
BRANCH  27  28
ATOM     28  C   UNL A   1      43.909  21.910  25.265  1.00  0.00     0.261 C 
BRANCH  28  29
ATOM     29  O   UNL A   1      43.423  23.139  24.691  1.00  0.00    -0.460 OA
BRANCH  29  30
ATOM     30  C   UNL A   1      44.145  24.242  25.037  1.00  0.00     0.338 C 
ATOM     31  O   UNL A   1      45.247  24.544  24.631  1.00  0.00    -0.246 OA
BRANCH  30  32
ATOM     32  C   UNL A   1      43.319  25.151  25.878  1.00  0.00     0.060 A 
ATOM     33  C   UNL A   1      43.786  26.460  26.067  1.00  0.00     0.016 A 
ATOM     34  C   UNL A   1      42.119  24.750  26.474  1.00  0.00     0.016 A 
ATOM     35  C   UNL A   1      43.108  27.339  26.913  1.00  0.00     0.010 A 
ATOM     36  C   UNL A   1      41.437  25.632  27.324  1.00  0.00     0.010 A 
ATOM     37  C   UNL A   1      41.960  26.911  27.593  1.00  0.00    -0.014 A 
BRANCH  37  38
ATOM     38  C   UNL A   1      41.465  27.700  28.751  1.00  0.00     0.031 A 
ATOM     39  C   UNL A   1      42.201  27.574  30.062  1.00  0.00     0.074 A 
ATOM     40  C   UNL A   1      40.432  28.555  28.643  1.00  0.00     0.049 A 
ATOM     41  N   UNL A   1      41.970  28.161  31.210  1.00  0.00    -0.248 NA
ATOM     42  C   UNL A   1      43.353  26.657  30.078  1.00  0.00     0.031 C 
ATOM     43  C   UNL A   1      39.652  28.795  27.431  1.00  0.00     0.029 A 
ATOM     44  N   UNL A   1      39.860  29.381  29.580  1.00  0.00    -0.354 N 
ATOM     45  C   UNL A   1      42.950  27.691  32.076  1.00  0.00     0.074 A 
ATOM     46  C   UNL A   1      43.743  26.731  31.341  1.00  0.00     0.031 C 
ATOM     47  C   UNL A   1      38.694  29.700  27.702  1.00  0.00     0.029 A 
ATOM     48  C   UNL A   1      38.780  30.087  29.109  1.00  0.00     0.049 A 
ATOM     49  H   UNL A   1      40.194  29.460  30.503  1.00  0.00     0.167 HD
ATOM     50  C   UNL A   1      43.186  28.040  33.363  1.00  0.00     0.037 A 
ATOM     51  C   UNL A   1      37.946  30.933  29.748  1.00  0.00     0.037 A 
ATOM     52  C   UNL A   1      42.394  28.985  34.105  1.00  0.00     0.049 A 
ATOM     53  C   UNL A   1      38.187  31.254  31.202  1.00  0.00     0.074 A 
ATOM     54  C   UNL A   1      42.548  29.399  35.415  1.00  0.00     0.029 A 
ATOM     55  N   UNL A   1      41.294  29.659  33.598  1.00  0.00    -0.354 N 
ATOM     56  N   UNL A   1      39.131  30.822  32.004  1.00  0.00    -0.248 NA
ATOM     57  C   UNL A   1      37.251  32.195  31.837  1.00  0.00     0.031 C 
ATOM     58  C   UNL A   1      41.512  30.289  35.717  1.00  0.00     0.029 A 
ATOM     59  C   UNL A   1      40.749  30.474  34.576  1.00  0.00     0.049 A 
ATOM     60  H   UNL A   1      40.951  29.571  32.680  1.00  0.00     0.167 HD
ATOM     61  C   UNL A   1      38.919  31.456  33.224  1.00  0.00     0.074 A 
ATOM     62  C   UNL A   1      37.772  32.322  33.048  1.00  0.00     0.031 C 
ATOM     63  C   UNL A   1      39.607  31.332  34.386  1.00  0.00     0.037 A 
BRANCH  50  64
ATOM     64  C   UNL A   1      44.348  27.382  34.053  1.00  0.00     0.057 A 
ATOM     65  C   UNL A   1      45.626  27.958  34.056  1.00  0.00     0.134 A 
ATOM     66  C   UNL A   1      44.183  26.173  34.739  1.00  0.00     0.134 A 
ATOM     67  F   UNL A   1      45.857  29.106  33.401  1.00  0.00    -0.206 F 
ATOM     68  C   UNL A   1      46.702  27.343  34.699  1.00  0.00     0.040 A 
ATOM     69  C   UNL A   1      45.245  25.565  35.411  1.00  0.00     0.040 A 
ATOM     70  F   UNL A   1      42.987  25.568  34.777  1.00  0.00    -0.206 F 
ATOM     71  C   UNL A   1      46.510  26.146  35.387  1.00  0.00     0.006 A 
ENDBRANCH  50  64
BRANCH  51  72
ATOM     72  C   UNL A   1      36.789  31.532  29.029  1.00  0.00     0.057 A 
ATOM     73  C   UNL A   1      36.800  32.867  28.605  1.00  0.00     0.134 A 
ATOM     74  C   UNL A   1      35.624  30.792  28.793  1.00  0.00     0.134 A 
ATOM     75  F   UNL A   1      37.876  33.636  28.826  1.00  0.00    -0.206 F 
ATOM     76  C   UNL A   1      35.686  33.450  27.997  1.00  0.00     0.040 A 
ATOM     77  C   UNL A   1      34.514  31.355  28.158  1.00  0.00     0.040 A 
ATOM     78  F   UNL A   1      35.547  29.509  29.175  1.00  0.00    -0.206 F 
ATOM     79  C   UNL A   1      34.541  32.692  27.769  1.00  0.00     0.006 A 
ENDBRANCH  51  72
BRANCH  63  80
ATOM     80  C   UNL A   1      39.161  32.182  35.545  1.00  0.00     0.057 A 
ATOM     81  C   UNL A   1      39.607  33.499  35.717  1.00  0.00     0.134 A 
ATOM     82  C   UNL A   1      38.261  31.678  36.493  1.00  0.00     0.134 A 
ATOM     83  F   UNL A   1      40.475  34.041  34.850  1.00  0.00    -0.206 F 
ATOM     84  C   UNL A   1      39.206  34.269  36.811  1.00  0.00     0.040 A 
ATOM     85  C   UNL A   1      37.827  32.449  37.573  1.00  0.00     0.040 A 
ATOM     86  F   UNL A   1      37.781  30.430  36.383  1.00  0.00    -0.206 F 
ATOM     87  C   UNL A   1      38.310  33.745  37.740  1.00  0.00     0.006 A 
ENDBRANCH  63  80
ENDBRANCH  37  38
ENDBRANCH  30  32
ENDBRANCH  29  30
ENDBRANCH  28  29
ENDBRANCH  27  28
ENDBRANCH  26  27
ENDBRANCH   1  26
TORSDOF 18
ENDMDL
MODEL 2
REMARK VINA RESULT:     -10.9      4.690      9.784
REMARK SMILES O=C(C[C@H]1C(=O)NCC[N@@H+]1Cc1cccc(C2CC2)c1)OCCOCCOC(=O)c1ccc(-c2c3nc(c(-c4c(F)cccc4F)c4ccc([nH]4)c(-c4c(F)cccc4F)c4nc(c(-c5c(F)cccc5F)c5ccc2[nH]5)C=C4)C=C3)cc1
REMARK SMILES IDX 23 1 22 2 21 3 2 4 1 5 3 6 4 7 5 8 10 9 6 10 7 11 9 12 8 14
REMARK SMILES IDX 11 16 12 17 13 18 20 19 14 20 16 21 15 22 17 23 18 24 19 25
REMARK SMILES IDX 24 26 25 27 26 28 27 29 28 30 29 31 30 32 31 33 83 34 32 35
REMARK SMILES IDX 82 36 33 37 34 38 35 39 76 40 36 41 81 42 75 43 77 44 37 45
REMARK SMILES IDX 80 46 74 47 73 48 38 50 64 51 47 52 63 53 48 54 51 55 62 56
REMARK SMILES IDX 78 57 49 58 50 59 61 61 79 62 52 63 39 64 40 65 45 66 41 67
REMARK SMILES IDX 42 68 44 69 46 70 43 71 65 72 66 73 71 74 67 75 68 76 70 77
REMARK SMILES IDX 72 78 69 79 53 80 54 81 59 82 55 83 56 84 58 85 60 86 57 87
REMARK H PARENT 10 13 7 15 77 49 51 60
REMARK Flexibility Score: inf
ROOT
ATOM      1  C   UNL A   1      35.093  33.047  28.002  1.00  0.00     0.202 C 
ENDROOT
BRANCH   1   2
ATOM      2  C   UNL A   1      34.105  31.945  28.296  1.00  0.00     0.261 C 
BRANCH   2   3
ATOM      3  O   UNL A   1      33.745  31.121  27.193  1.00  0.00    -0.463 OA
BRANCH   3   4
ATOM      4  C   UNL A   1      34.282  29.866  27.119  1.00  0.00     0.312 C 
ATOM      5  O   UNL A   1      35.284  29.590  27.771  1.00  0.00    -0.252 OA
BRANCH   4   6
ATOM      6  C   UNL A   1      33.726  28.913  26.064  1.00  0.00     0.198 C 
BRANCH   6   7
ATOM      7  C   UNL A   1      33.203  27.517  26.501  1.00  0.00     0.285 C 
ATOM      8  C   UNL A   1      31.680  27.470  26.714  1.00  0.00     0.279 C 
ATOM      9  N   UNL A   1      33.685  26.438  25.572  1.00  0.00    -0.319 N 
ATOM     10  O   UNL A   1      31.143  27.869  27.746  1.00  0.00    -0.268 OA
ATOM     11  N   UNL A   1      30.904  27.041  25.670  1.00  0.00    -0.345 N 
ATOM     12  C   UNL A   1      32.959  26.458  24.295  1.00  0.00     0.284 C 
ATOM     13  H   UNL A   1      34.657  26.684  25.384  1.00  0.00     0.349 HD
ATOM     14  C   UNL A   1      31.422  26.559  24.403  1.00  0.00     0.177 C 
ATOM     15  H   UNL A   1      29.928  27.063  25.786  1.00  0.00     0.163 HD
BRANCH   9  16
ATOM     16  C   UNL A   1      33.813  25.079  26.156  1.00  0.00     0.299 C 
BRANCH  16  17
ATOM     17  C   UNL A   1      34.442  24.008  25.282  1.00  0.00     0.006 A 
ATOM     18  C   UNL A   1      35.772  24.147  24.879  1.00  0.00     0.009 A 
ATOM     19  C   UNL A   1      33.772  22.790  25.020  1.00  0.00     0.013 A 
ATOM     20  C   UNL A   1      36.450  23.058  24.347  1.00  0.00     0.001 A 
ATOM     21  C   UNL A   1      34.477  21.627  24.650  1.00  0.00    -0.044 A 
ATOM     22  C   UNL A   1      35.821  21.813  24.275  1.00  0.00     0.004 A 
BRANCH  21  23
ATOM     23  C   UNL A   1      33.960  20.199  24.834  1.00  0.00     0.019 C 
ATOM     24  C   UNL A   1      32.521  19.899  25.225  1.00  0.00     0.009 C 
ATOM     25  C   UNL A   1      33.039  19.494  23.881  1.00  0.00     0.009 C 
ENDBRANCH  21  23
ENDBRANCH  16  17
ENDBRANCH   9  16
ENDBRANCH   6   7
ENDBRANCH   4   6
ENDBRANCH   3   4
ENDBRANCH   2   3
ENDBRANCH   1   2
BRANCH   1  26
ATOM     26  O   UNL A   1      35.331  33.861  29.151  1.00  0.00    -0.374 OA
BRANCH  26  27
ATOM     27  C   UNL A   1      34.206  33.901  30.028  1.00  0.00     0.202 C 
BRANCH  27  28
ATOM     28  C   UNL A   1      34.590  33.861  31.518  1.00  0.00     0.261 C 
BRANCH  28  29
ATOM     29  O   UNL A   1      34.680  32.519  32.033  1.00  0.00    -0.460 OA
BRANCH  29  30
ATOM     30  C   UNL A   1      35.781  32.287  32.802  1.00  0.00     0.338 C 
ATOM     31  O   UNL A   1      35.937  32.609  33.961  1.00  0.00    -0.246 OA
BRANCH  30  32
ATOM     32  C   UNL A   1      36.741  31.413  32.073  1.00  0.00     0.060 A 
ATOM     33  C   UNL A   1      37.870  30.965  32.774  1.00  0.00     0.016 A 
ATOM     34  C   UNL A   1      36.556  31.034  30.739  1.00  0.00     0.016 A 
ATOM     35  C   UNL A   1      38.854  30.215  32.127  1.00  0.00     0.010 A 
ATOM     36  C   UNL A   1      37.543  30.281  30.089  1.00  0.00     0.010 A 
ATOM     37  C   UNL A   1      38.724  29.918  30.764  1.00  0.00    -0.014 A 
BRANCH  37  38
ATOM     38  C   UNL A   1      39.915  29.455  30.005  1.00  0.00     0.031 A 
ATOM     39  C   UNL A   1      41.035  30.439  29.775  1.00  0.00     0.074 A 
ATOM     40  C   UNL A   1      40.042  28.185  29.579  1.00  0.00     0.049 A 
ATOM     41  N   UNL A   1      42.176  30.277  29.152  1.00  0.00    -0.248 NA
ATOM     42  C   UNL A   1      40.838  31.792  30.322  1.00  0.00     0.031 C 
ATOM     43  C   UNL A   1      39.051  27.127  29.758  1.00  0.00     0.029 A 
ATOM     44  N   UNL A   1      41.068  27.574  28.899  1.00  0.00    -0.354 N 
ATOM     45  C   UNL A   1      42.831  31.500  29.241  1.00  0.00     0.074 A 
ATOM     46  C   UNL A   1      41.940  32.410  29.928  1.00  0.00     0.031 C 
ATOM     47  C   UNL A   1      39.512  25.998  29.191  1.00  0.00     0.029 A 
ATOM     48  C   UNL A   1      40.820  26.259  28.592  1.00  0.00     0.049 A 
ATOM     49  H   UNL A   1      41.903  28.036  28.656  1.00  0.00     0.167 HD
ATOM     50  C   UNL A   1      44.069  31.835  28.811  1.00  0.00     0.037 A 
ATOM     51  C   UNL A   1      41.559  25.374  27.891  1.00  0.00     0.037 A 
ATOM     52  C   UNL A   1      44.956  30.939  28.116  1.00  0.00     0.049 A 
ATOM     53  C   UNL A   1      42.908  25.790  27.360  1.00  0.00     0.074 A 
ATOM     54  C   UNL A   1      46.227  31.186  27.632  1.00  0.00     0.029 A 
ATOM     55  N   UNL A   1      44.657  29.622  27.803  1.00  0.00    -0.354 N 
ATOM     56  N   UNL A   1      43.525  26.942  27.471  1.00  0.00    -0.248 NA
ATOM     57  C   UNL A   1      43.669  24.775  26.616  1.00  0.00     0.031 C 
ATOM     58  C   UNL A   1      46.680  30.032  26.984  1.00  0.00     0.029 A 
ATOM     59  C   UNL A   1      45.715  29.049  27.117  1.00  0.00     0.049 A 
ATOM     60  H   UNL A   1      43.818  29.162  28.034  1.00  0.00     0.167 HD
ATOM     61  C   UNL A   1      44.754  26.782  26.837  1.00  0.00     0.074 A 
ATOM     62  C   UNL A   1      44.803  25.413  26.367  1.00  0.00     0.031 C 
ATOM     63  C   UNL A   1      45.750  27.684  26.656  1.00  0.00     0.037 A 
BRANCH  50  64
ATOM     64  C   UNL A   1      44.533  33.241  29.072  1.00  0.00     0.057 A 
ATOM     65  C   UNL A   1      44.296  34.276  28.158  1.00  0.00     0.134 A 
ATOM     66  C   UNL A   1      45.201  33.566  30.258  1.00  0.00     0.134 A 
ATOM     67  F   UNL A   1      43.678  34.029  26.994  1.00  0.00    -0.206 F 
ATOM     68  C   UNL A   1      44.729  35.581  28.406  1.00  0.00     0.040 A 
ATOM     69  C   UNL A   1      45.612  34.872  30.530  1.00  0.00     0.040 A 
ATOM     70  F   UNL A   1      45.460  32.623  31.176  1.00  0.00    -0.206 F 
ATOM     71  C   UNL A   1      45.381  35.883  29.599  1.00  0.00     0.006 A 
ENDBRANCH  50  64
BRANCH  51  72
ATOM     72  C   UNL A   1      41.040  24.004  27.630  1.00  0.00     0.057 A 
ATOM     73  C   UNL A   1      41.560  22.884  28.290  1.00  0.00     0.134 A 
ATOM     74  C   UNL A   1      40.041  23.779  26.674  1.00  0.00     0.134 A 
ATOM     75  F   UNL A   1      42.537  23.029  29.197  1.00  0.00    -0.206 F 
ATOM     76  C   UNL A   1      41.125  21.591  27.991  1.00  0.00     0.040 A 
ATOM     77  C   UNL A   1      39.575  22.495  26.387  1.00  0.00     0.040 A 
ATOM     78  F   UNL A   1      39.501  24.808  26.004  1.00  0.00    -0.206 F 
ATOM     79  C   UNL A   1      40.127  21.394  27.040  1.00  0.00     0.006 A 
ENDBRANCH  51  72
BRANCH  63  80
ATOM     80  C   UNL A   1      46.992  27.207  25.954  1.00  0.00     0.057 A 
ATOM     81  C   UNL A   1      48.037  26.572  26.640  1.00  0.00     0.134 A 
ATOM     82  C   UNL A   1      47.137  27.372  24.570  1.00  0.00     0.134 A 
ATOM     83  F   UNL A   1      47.968  26.389  27.966  1.00  0.00    -0.206 F 
ATOM     84  C   UNL A   1      49.197  26.158  25.981  1.00  0.00     0.040 A 
ATOM     85  C   UNL A   1      48.278  26.932  23.896  1.00  0.00     0.040 A 
ATOM     86  F   UNL A   1      46.170  27.957  23.848  1.00  0.00    -0.206 F 
ATOM     87  C   UNL A   1      49.316  26.333  24.604  1.00  0.00     0.006 A 
ENDBRANCH  63  80
ENDBRANCH  37  38
ENDBRANCH  30  32
ENDBRANCH  29  30
ENDBRANCH  28  29
ENDBRANCH  27  28
ENDBRANCH  26  27
ENDBRANCH   1  26
TORSDOF 18
ENDMDL
MODEL 3
REMARK VINA RESULT:     -10.7      1.671      2.717
REMARK SMILES O=C(C[C@H]1C(=O)NCC[N@@H+]1Cc1cccc(C2CC2)c1)OCCOCCOC(=O)c1ccc(-c2c3nc(c(-c4c(F)cccc4F)c4ccc([nH]4)c(-c4c(F)cccc4F)c4nc(c(-c5c(F)cccc5F)c5ccc2[nH]5)C=C4)C=C3)cc1
REMARK SMILES IDX 23 1 22 2 21 3 2 4 1 5 3 6 4 7 5 8 10 9 6 10 7 11 9 12 8 14
REMARK SMILES IDX 11 16 12 17 13 18 20 19 14 20 16 21 15 22 17 23 18 24 19 25
REMARK SMILES IDX 24 26 25 27 26 28 27 29 28 30 29 31 30 32 31 33 83 34 32 35
REMARK SMILES IDX 82 36 33 37 34 38 35 39 76 40 36 41 81 42 75 43 77 44 37 45
REMARK SMILES IDX 80 46 74 47 73 48 38 50 64 51 47 52 63 53 48 54 51 55 62 56
REMARK SMILES IDX 78 57 49 58 50 59 61 61 79 62 52 63 39 64 40 65 45 66 41 67
REMARK SMILES IDX 42 68 44 69 46 70 43 71 65 72 66 73 71 74 67 75 68 76 70 77
REMARK SMILES IDX 72 78 69 79 53 80 54 81 59 82 55 83 56 84 58 85 60 86 57 87
REMARK H PARENT 10 13 7 15 77 49 51 60
REMARK Flexibility Score: inf
ROOT
ATOM      1  C   UNL A   1      38.972  21.841  25.896  1.00  0.00     0.202 C 
ENDROOT
BRANCH   1   2
ATOM      2  C   UNL A   1      37.607  21.549  25.324  1.00  0.00     0.261 C 
BRANCH   2   3
ATOM      3  O   UNL A   1      37.347  22.084  24.031  1.00  0.00    -0.463 OA
BRANCH   3   4
ATOM      4  C   UNL A   1      36.049  22.338  23.684  1.00  0.00     0.312 C 
ATOM      5  O   UNL A   1      35.784  23.296  22.965  1.00  0.00    -0.252 OA
BRANCH   4   6
ATOM      6  C   UNL A   1      34.954  21.533  24.379  1.00  0.00     0.198 C 
BRANCH   6   7
ATOM      7  C   UNL A   1      33.660  22.254  24.846  1.00  0.00     0.285 C 
ATOM      8  C   UNL A   1      32.705  21.349  25.644  1.00  0.00     0.279 C 
ATOM      9  N   UNL A   1      33.979  23.531  25.572  1.00  0.00    -0.319 N 
ATOM     10  O   UNL A   1      31.934  20.559  25.102  1.00  0.00    -0.268 OA
ATOM     11  N   UNL A   1      32.792  21.380  27.010  1.00  0.00    -0.345 N 
ATOM     12  C   UNL A   1      34.484  23.272  26.928  1.00  0.00     0.284 C 
ATOM     13  H   UNL A   1      34.737  23.946  25.030  1.00  0.00     0.349 HD
ATOM     14  C   UNL A   1      33.670  22.259  27.760  1.00  0.00     0.177 C 
ATOM     15  H   UNL A   1      32.220  20.762  27.519  1.00  0.00     0.163 HD
BRANCH   9  16
ATOM     16  C   UNL A   1      32.940  24.590  25.523  1.00  0.00     0.299 C 
BRANCH  16  17
ATOM     17  C   UNL A   1      33.409  26.005  25.227  1.00  0.00     0.006 A 
ATOM     18  C   UNL A   1      33.259  26.521  23.938  1.00  0.00     0.009 A 
ATOM     19  C   UNL A   1      33.825  26.871  26.266  1.00  0.00     0.013 A 
ATOM     20  C   UNL A   1      33.395  27.885  23.720  1.00  0.00     0.001 A 
ATOM     21  C   UNL A   1      33.796  28.271  26.112  1.00  0.00    -0.044 A 
ATOM     22  C   UNL A   1      33.618  28.744  24.799  1.00  0.00     0.004 A 
BRANCH  21  23
ATOM     23  C   UNL A   1      33.726  29.273  27.267  1.00  0.00     0.019 C 
ATOM     24  C   UNL A   1      34.640  30.486  27.347  1.00  0.00     0.009 C 
ATOM     25  C   UNL A   1      33.166  30.662  27.160  1.00  0.00     0.009 C 
ENDBRANCH  21  23
ENDBRANCH  16  17
ENDBRANCH   9  16
ENDBRANCH   6   7
ENDBRANCH   4   6
ENDBRANCH   3   4
ENDBRANCH   2   3
ENDBRANCH   1   2
BRANCH   1  26
ATOM     26  O   UNL A   1      39.687  20.641  26.193  1.00  0.00    -0.374 OA
BRANCH  26  27
ATOM     27  C   UNL A   1      40.907  20.896  26.889  1.00  0.00     0.202 C 
BRANCH  27  28
ATOM     28  C   UNL A   1      41.818  21.910  26.175  1.00  0.00     0.261 C 
BRANCH  28  29
ATOM     29  O   UNL A   1      42.168  23.030  27.011  1.00  0.00    -0.460 OA
BRANCH  29  30
ATOM     30  C   UNL A   1      42.324  24.204  26.337  1.00  0.00     0.338 C 
ATOM     31  O   UNL A   1      42.735  24.341  25.205  1.00  0.00    -0.246 OA
BRANCH  30  32
ATOM     32  C   UNL A   1      41.753  25.328  27.128  1.00  0.00     0.060 A 
ATOM     33  C   UNL A   1      42.371  26.582  27.011  1.00  0.00     0.016 A 
ATOM     34  C   UNL A   1      40.644  25.177  27.968  1.00  0.00     0.016 A 
ATOM     35  C   UNL A   1      41.942  27.659  27.789  1.00  0.00     0.010 A 
ATOM     36  C   UNL A   1      40.213  26.257  28.749  1.00  0.00     0.010 A 
ATOM     37  C   UNL A   1      40.897  27.487  28.706  1.00  0.00    -0.014 A 
BRANCH  37  38
ATOM     38  C   UNL A   1      40.693  28.501  29.774  1.00  0.00     0.031 A 
ATOM     39  C   UNL A   1      41.629  28.483  30.957  1.00  0.00     0.074 A 
ATOM     40  C   UNL A   1      39.750  29.456  29.681  1.00  0.00     0.049 A 
ATOM     41  N   UNL A   1      41.662  29.263  32.008  1.00  0.00    -0.248 NA
ATOM     42  C   UNL A   1      42.667  27.438  30.952  1.00  0.00     0.031 C 
ATOM     43  C   UNL A   1      38.800  29.607  28.582  1.00  0.00     0.029 A 
ATOM     44  N   UNL A   1      39.437  30.482  30.539  1.00  0.00    -0.354 N 
ATOM     45  C   UNL A   1      42.725  28.808  32.781  1.00  0.00     0.074 A 
ATOM     46  C   UNL A   1      43.276  27.653  32.107  1.00  0.00     0.031 C 
ATOM     47  C   UNL A   1      38.001  30.659  28.838  1.00  0.00     0.029 A 
ATOM     48  C   UNL A   1      38.370  31.241  30.128  1.00  0.00     0.049 A 
ATOM     49  H   UNL A   1      39.933  30.657  31.372  1.00  0.00     0.167 HD
ATOM     50  C   UNL A   1      43.216  29.315  33.936  1.00  0.00     0.037 A 
ATOM     51  C   UNL A   1      37.751  32.276  30.733  1.00  0.00     0.037 A 
ATOM     52  C   UNL A   1      42.665  30.457  34.618  1.00  0.00     0.049 A 
ATOM     53  C   UNL A   1      38.272  32.782  32.055  1.00  0.00     0.074 A 
ATOM     54  C   UNL A   1      43.086  31.043  35.797  1.00  0.00     0.029 A 
ATOM     55  N   UNL A   1      41.569  31.182  34.179  1.00  0.00    -0.354 N 
ATOM     56  N   UNL A   1      39.292  32.358  32.763  1.00  0.00    -0.248 NA
ATOM     57  C   UNL A   1      37.561  33.921  32.655  1.00  0.00     0.031 C 
ATOM     58  C   UNL A   1      42.214  32.094  36.098  1.00  0.00     0.029 A 
ATOM     59  C   UNL A   1      41.288  32.201  35.075  1.00  0.00     0.049 A 
ATOM     60  H   UNL A   1      41.064  31.001  33.354  1.00  0.00     0.167 HD
ATOM     61  C   UNL A   1      39.361  33.193  33.874  1.00  0.00     0.074 A 
ATOM     62  C   UNL A   1      38.295  34.163  33.731  1.00  0.00     0.031 C 
ATOM     63  C   UNL A   1      40.224  33.160  34.919  1.00  0.00     0.037 A 
BRANCH  50  64
ATOM     64  C   UNL A   1      44.407  28.626  34.540  1.00  0.00     0.057 A 
ATOM     65  C   UNL A   1      45.717  28.958  34.170  1.00  0.00     0.134 A 
ATOM     66  C   UNL A   1      44.242  27.638  35.518  1.00  0.00     0.134 A 
ATOM     67  F   UNL A   1      45.944  29.882  33.226  1.00  0.00    -0.206 F 
ATOM     68  C   UNL A   1      46.820  28.315  34.735  1.00  0.00     0.040 A 
ATOM     69  C   UNL A   1      45.338  27.009  36.112  1.00  0.00     0.040 A 
ATOM     70  F   UNL A   1      43.016  27.272  35.919  1.00  0.00    -0.206 F 
ATOM     71  C   UNL A   1      46.632  27.342  35.716  1.00  0.00     0.006 A 
ENDBRANCH  50  64
BRANCH  51  72
ATOM     72  C   UNL A   1      36.554  32.902  30.109  1.00  0.00     0.057 A 
ATOM     73  C   UNL A   1      35.255  32.556  30.504  1.00  0.00     0.134 A 
ATOM     74  C   UNL A   1      36.682  33.829  29.067  1.00  0.00     0.134 A 
ATOM     75  F   UNL A   1      35.064  31.655  31.479  1.00  0.00    -0.206 F 
ATOM     76  C   UNL A   1      34.131  33.087  29.869  1.00  0.00     0.040 A 
ATOM     77  C   UNL A   1      35.566  34.392  28.444  1.00  0.00     0.040 A 
ATOM     78  F   UNL A   1      37.897  34.203  28.640  1.00  0.00    -0.206 F 
ATOM     79  C   UNL A   1      34.285  34.011  28.838  1.00  0.00     0.006 A 
ENDBRANCH  51  72
BRANCH  63  80
ATOM     80  C   UNL A   1      40.075  34.227  35.969  1.00  0.00     0.057 A 
ATOM     81  C   UNL A   1      39.326  34.022  37.136  1.00  0.00     0.134 A 
ATOM     82  C   UNL A   1      40.703  35.470  35.817  1.00  0.00     0.134 A 
ATOM     83  F   UNL A   1      38.692  32.859  37.342  1.00  0.00    -0.206 F 
ATOM     84  C   UNL A   1      39.173  35.030  38.091  1.00  0.00     0.040 A 
ATOM     85  C   UNL A   1      40.585  36.473  36.781  1.00  0.00     0.040 A 
ATOM     86  F   UNL A   1      41.448  35.730  34.732  1.00  0.00    -0.206 F 
ATOM     87  C   UNL A   1      39.808  36.258  37.916  1.00  0.00     0.006 A 
ENDBRANCH  63  80
ENDBRANCH  37  38
ENDBRANCH  30  32
ENDBRANCH  29  30
ENDBRANCH  28  29
ENDBRANCH  27  28
ENDBRANCH  26  27
ENDBRANCH   1  26
TORSDOF 18
ENDMDL
