MODEL 1
REMARK VINA RESULT:     -11.1      0.000      0.000
REMARK SMILES O=C(CSc1ccc2ccccc2c1)OCCOCCOC(=O)c1ccc(-c2c3nc(c(-c4c(F)cccc4F)c4ccc([nH]4)c(-c4c(F)cccc4F)c4nc(c(-c5c(F)cccc5F)c5ccc2[nH]5)C=C4)C=C3)cc1
REMARK SMILES IDX 18 1 17 2 16 3 15 4 2 5 1 6 3 7 4 8 5 9 6 10 14 11 7 12
REMARK SMILES IDX 13 13 8 14 12 15 9 16 11 17 10 18 19 19 20 20 21 21 22 22
REMARK SMILES IDX 23 23 24 24 25 25 77 26 26 27 76 28 27 29 28 30 29 31 70 32
REMARK SMILES IDX 30 33 75 34 69 35 71 36 31 37 74 38 68 39 67 40 32 42 58 43
REMARK SMILES IDX 41 44 57 45 42 46 45 47 56 48 72 49 43 50 44 51 55 53 73 54
REMARK SMILES IDX 46 55 33 56 34 57 39 58 35 59 36 60 38 61 40 62 37 63 59 64
REMARK SMILES IDX 60 65 65 66 61 67 62 68 64 69 66 70 63 71 47 72 48 73 53 74
REMARK SMILES IDX 49 75 50 76 52 77 54 78 51 79
REMARK H PARENT 71 41 45 52
REMARK Flexibility Score: inf
ROOT
ATOM      1  O   UNL A   1      34.698  36.539  33.115  1.00  0.00    -0.374 OA
ENDROOT
BRANCH   1   2
ATOM      2  C   UNL A   1      33.372  36.800  32.662  1.00  0.00     0.202 C 
BRANCH   2   3
ATOM      3  C   UNL A   1      33.151  36.686  31.158  1.00  0.00     0.261 C 
BRANCH   3   4
ATOM      4  O   UNL A   1      32.754  35.368  30.748  1.00  0.00    -0.463 OA
BRANCH   4   5
ATOM      5  C   UNL A   1      33.235  34.710  29.668  1.00  0.00     0.316 C 
ATOM      6  O   UNL A   1      32.704  34.897  28.571  1.00  0.00    -0.251 OA
BRANCH   5   7
ATOM      7  C   UNL A   1      34.348  33.694  29.815  1.00  0.00     0.197 C 
BRANCH   7   8
ATOM      8  S   UNL A   1      35.451  33.563  28.380  1.00  0.00    -0.114 SA
BRANCH   8   9
ATOM      9  C   UNL A   1      35.045  31.913  27.885  1.00  0.00     0.008 A 
ATOM     10  C   UNL A   1      36.042  30.950  27.731  1.00  0.00     0.016 A 
ATOM     11  C   UNL A   1      33.711  31.590  27.642  1.00  0.00     0.023 A 
ATOM     12  C   UNL A   1      35.696  29.650  27.361  1.00  0.00     0.010 A 
ATOM     13  C   UNL A   1      33.352  30.298  27.267  1.00  0.00    -0.017 A 
ATOM     14  C   UNL A   1      34.351  29.305  27.145  1.00  0.00    -0.018 A 
ATOM     15  C   UNL A   1      32.010  29.982  27.030  1.00  0.00     0.009 A 
ATOM     16  C   UNL A   1      33.962  27.997  26.824  1.00  0.00     0.009 A 
ATOM     17  C   UNL A   1      31.642  28.679  26.714  1.00  0.00     0.001 A 
ATOM     18  C   UNL A   1      32.615  27.686  26.623  1.00  0.00     0.001 A 
ENDBRANCH   8   9
ENDBRANCH   7   8
ENDBRANCH   5   7
ENDBRANCH   4   5
ENDBRANCH   3   4
ENDBRANCH   2   3
ENDBRANCH   1   2
BRANCH   1  19
ATOM     19  C   UNL A   1      34.942  35.206  33.582  1.00  0.00     0.202 C 
BRANCH  19  20
ATOM     20  C   UNL A   1      36.163  34.519  32.968  1.00  0.00     0.261 C 
BRANCH  20  21
ATOM     21  O   UNL A   1      35.949  33.105  32.862  1.00  0.00    -0.460 OA
BRANCH  21  22
ATOM     22  C   UNL A   1      36.844  32.352  33.539  1.00  0.00     0.338 C 
ATOM     23  O   UNL A   1      36.952  32.239  34.753  1.00  0.00    -0.246 OA
BRANCH  22  24
ATOM     24  C   UNL A   1      37.577  31.494  32.591  1.00  0.00     0.060 A 
ATOM     25  C   UNL A   1      38.504  30.592  33.126  1.00  0.00     0.016 A 
ATOM     26  C   UNL A   1      37.390  31.591  31.209  1.00  0.00     0.016 A 
ATOM     27  C   UNL A   1      39.331  29.865  32.281  1.00  0.00     0.010 A 
ATOM     28  C   UNL A   1      38.220  30.862  30.359  1.00  0.00     0.010 A 
ATOM     29  C   UNL A   1      39.239  30.057  30.897  1.00  0.00    -0.014 A 
BRANCH  29  30
ATOM     30  C   UNL A   1      40.368  29.618  30.050  1.00  0.00     0.031 A 
ATOM     31  C   UNL A   1      41.493  30.591  29.813  1.00  0.00     0.074 A 
ATOM     32  C   UNL A   1      40.423  28.367  29.568  1.00  0.00     0.049 A 
ATOM     33  N   UNL A   1      42.597  30.435  29.131  1.00  0.00    -0.248 NA
ATOM     34  C   UNL A   1      41.350  31.922  30.428  1.00  0.00     0.031 C 
ATOM     35  C   UNL A   1      39.409  27.335  29.776  1.00  0.00     0.029 A 
ATOM     36  N   UNL A   1      41.382  27.753  28.808  1.00  0.00    -0.354 N 
ATOM     37  C   UNL A   1      43.269  31.649  29.223  1.00  0.00     0.074 A 
ATOM     38  C   UNL A   1      42.434  32.543  29.993  1.00  0.00     0.031 C 
ATOM     39  C   UNL A   1      39.805  26.208  29.160  1.00  0.00     0.029 A 
ATOM     40  C   UNL A   1      41.082  26.452  28.493  1.00  0.00     0.049 A 
ATOM     41  H   UNL A   1      42.209  28.202  28.516  1.00  0.00     0.167 HD
ATOM     42  C   UNL A   1      44.479  31.983  28.720  1.00  0.00     0.037 A 
ATOM     43  C   UNL A   1      41.763  25.568  27.741  1.00  0.00     0.037 A 
ATOM     44  C   UNL A   1      45.306  31.080  27.964  1.00  0.00     0.049 A 
ATOM     45  C   UNL A   1      43.082  25.983  27.145  1.00  0.00     0.074 A 
ATOM     46  C   UNL A   1      46.560  31.303  27.426  1.00  0.00     0.029 A 
ATOM     47  N   UNL A   1      44.951  29.780  27.633  1.00  0.00    -0.354 N 
ATOM     48  N   UNL A   1      43.725  27.122  27.259  1.00  0.00    -0.248 NA
ATOM     49  C   UNL A   1      43.777  24.983  26.324  1.00  0.00     0.031 C 
ATOM     50  C   UNL A   1      46.939  30.157  26.719  1.00  0.00     0.029 A 
ATOM     51  C   UNL A   1      45.952  29.196  26.875  1.00  0.00     0.049 A 
ATOM     52  H   UNL A   1      44.113  29.338  27.899  1.00  0.00     0.167 HD
ATOM     53  C   UNL A   1      44.915  26.961  26.560  1.00  0.00     0.074 A 
ATOM     54  C   UNL A   1      44.908  25.610  26.037  1.00  0.00     0.031 C 
ATOM     55  C   UNL A   1      45.927  27.846  26.373  1.00  0.00     0.037 A 
BRANCH  42  56
ATOM     56  C   UNL A   1      44.959  33.389  28.940  1.00  0.00     0.057 A 
ATOM     57  C   UNL A   1      45.679  33.765  30.082  1.00  0.00     0.134 A 
ATOM     58  C   UNL A   1      44.707  34.382  27.984  1.00  0.00     0.134 A 
ATOM     59  F   UNL A   1      45.938  32.870  31.049  1.00  0.00    -0.206 F 
ATOM     60  C   UNL A   1      46.106  35.081  30.279  1.00  0.00     0.040 A 
ATOM     61  C   UNL A   1      45.156  35.693  28.154  1.00  0.00     0.040 A 
ATOM     62  F   UNL A   1      44.023  34.093  26.866  1.00  0.00    -0.206 F 
ATOM     63  C   UNL A   1      45.850  36.047  29.308  1.00  0.00     0.006 A 
ENDBRANCH  42  56
BRANCH  43  64
ATOM     64  C   UNL A   1      41.219  24.206  27.516  1.00  0.00     0.057 A 
ATOM     65  C   UNL A   1      40.155  23.985  26.633  1.00  0.00     0.134 A 
ATOM     66  C   UNL A   1      41.736  23.093  28.190  1.00  0.00     0.134 A 
ATOM     67  F   UNL A   1      39.604  25.013  25.970  1.00  0.00    -0.206 F 
ATOM     68  C   UNL A   1      39.610  22.714  26.447  1.00  0.00     0.040 A 
ATOM     69  C   UNL A   1      41.220  21.812  27.992  1.00  0.00     0.040 A 
ATOM     70  F   UNL A   1      42.760  23.235  29.046  1.00  0.00    -0.206 F 
ATOM     71  C   UNL A   1      40.147  21.622  27.125  1.00  0.00     0.006 A 
ENDBRANCH  43  64
BRANCH  55  72
ATOM     72  C   UNL A   1      47.130  27.359  25.617  1.00  0.00     0.057 A 
ATOM     73  C   UNL A   1      47.290  27.577  24.243  1.00  0.00     0.134 A 
ATOM     74  C   UNL A   1      48.157  26.678  26.287  1.00  0.00     0.134 A 
ATOM     75  F   UNL A   1      46.341  28.213  23.541  1.00  0.00    -0.206 F 
ATOM     76  C   UNL A   1      48.408  27.101  23.555  1.00  0.00     0.040 A 
ATOM     77  C   UNL A   1      49.295  26.229  25.617  1.00  0.00     0.040 A 
ATOM     78  F   UNL A   1      48.076  26.448  27.606  1.00  0.00    -0.206 F 
ATOM     79  C   UNL A   1      49.417  26.429  24.243  1.00  0.00     0.006 A 
ENDBRANCH  55  72
ENDBRANCH  29  30
ENDBRANCH  22  24
ENDBRANCH  21  22
ENDBRANCH  20  21
ENDBRANCH  19  20
ENDBRANCH   1  19
TORSDOF 16
ENDMDL
MODEL 2
REMARK VINA RESULT:     -10.6      5.802     11.270
REMARK SMILES O=C(CSc1ccc2ccccc2c1)OCCOCCOC(=O)c1ccc(-c2c3nc(c(-c4c(F)cccc4F)c4ccc([nH]4)c(-c4c(F)cccc4F)c4nc(c(-c5c(F)cccc5F)c5ccc2[nH]5)C=C4)C=C3)cc1
REMARK SMILES IDX 18 1 17 2 16 3 15 4 2 5 1 6 3 7 4 8 5 9 6 10 14 11 7 12
REMARK SMILES IDX 13 13 8 14 12 15 9 16 11 17 10 18 19 19 20 20 21 21 22 22
REMARK SMILES IDX 23 23 24 24 25 25 77 26 26 27 76 28 27 29 28 30 29 31 70 32
REMARK SMILES IDX 30 33 75 34 69 35 71 36 31 37 74 38 68 39 67 40 32 42 58 43
REMARK SMILES IDX 41 44 57 45 42 46 45 47 56 48 72 49 43 50 44 51 55 53 73 54
REMARK SMILES IDX 46 55 33 56 34 57 39 58 35 59 36 60 38 61 40 62 37 63 59 64
REMARK SMILES IDX 60 65 65 66 61 67 62 68 64 69 66 70 63 71 47 72 48 73 53 74
REMARK SMILES IDX 49 75 50 76 52 77 54 78 51 79
REMARK H PARENT 71 41 45 52
REMARK Flexibility Score: inf
ROOT
ATOM      1  O   UNL A   1      43.826  19.987  24.551  1.00  0.00    -0.374 OA
ENDROOT
BRANCH   1   2
ATOM      2  C   UNL A   1      43.395  19.401  25.777  1.00  0.00     0.202 C 
BRANCH   2   3
ATOM      3  C   UNL A   1      41.912  19.542  26.094  1.00  0.00     0.261 C 
BRANCH   3   4
ATOM      4  O   UNL A   1      41.435  20.890  25.963  1.00  0.00    -0.463 OA
BRANCH   4   5
ATOM      5  C   UNL A   1      40.349  21.398  26.590  1.00  0.00     0.316 C 
ATOM      6  O   UNL A   1      40.405  21.602  27.805  1.00  0.00    -0.251 OA
BRANCH   5   7
ATOM      7  C   UNL A   1      39.057  21.631  25.834  1.00  0.00     0.197 C 
BRANCH   7   8
ATOM      8  S   UNL A   1      38.269  23.234  26.153  1.00  0.00    -0.114 SA
BRANCH   8   9
ATOM      9  C   UNL A   1      36.670  22.879  25.482  1.00  0.00     0.008 A 
ATOM     10  C   UNL A   1      35.891  23.893  24.925  1.00  0.00     0.016 A 
ATOM     11  C   UNL A   1      36.195  21.569  25.524  1.00  0.00     0.023 A 
ATOM     12  C   UNL A   1      34.643  23.587  24.382  1.00  0.00     0.010 A 
ATOM     13  C   UNL A   1      34.949  21.250  24.990  1.00  0.00    -0.017 A 
ATOM     14  C   UNL A   1      34.168  22.264  24.390  1.00  0.00    -0.018 A 
ATOM     15  C   UNL A   1      34.483  19.933  25.033  1.00  0.00     0.009 A 
ATOM     16  C   UNL A   1      32.943  21.911  23.807  1.00  0.00     0.009 A 
ATOM     17  C   UNL A   1      33.266  19.600  24.448  1.00  0.00     0.001 A 
ATOM     18  C   UNL A   1      32.503  20.586  23.825  1.00  0.00     0.001 A 
ENDBRANCH   8   9
ENDBRANCH   7   8
ENDBRANCH   5   7
ENDBRANCH   4   5
ENDBRANCH   3   4
ENDBRANCH   2   3
ENDBRANCH   1   2
BRANCH   1  19
ATOM     19  C   UNL A   1      44.882  20.949  24.661  1.00  0.00     0.202 C 
BRANCH  19  20
ATOM     20  C   UNL A   1      44.657  22.040  25.711  1.00  0.00     0.261 C 
BRANCH  20  21
ATOM     21  O   UNL A   1      43.798  23.068  25.198  1.00  0.00    -0.460 OA
BRANCH  21  22
ATOM     22  C   UNL A   1      44.328  24.310  25.238  1.00  0.00     0.338 C 
ATOM     23  O   UNL A   1      45.299  24.723  24.618  1.00  0.00    -0.246 OA
BRANCH  22  24
ATOM     24  C   UNL A   1      43.433  25.198  26.002  1.00  0.00     0.060 A 
ATOM     25  C   UNL A   1      43.846  26.524  26.183  1.00  0.00     0.016 A 
ATOM     26  C   UNL A   1      42.236  24.740  26.559  1.00  0.00     0.016 A 
ATOM     27  C   UNL A   1      43.124  27.366  27.016  1.00  0.00     0.010 A 
ATOM     28  C   UNL A   1      41.511  25.585  27.398  1.00  0.00     0.010 A 
ATOM     29  C   UNL A   1      41.997  26.873  27.683  1.00  0.00    -0.014 A 
BRANCH  29  30
ATOM     30  C   UNL A   1      41.494  27.616  28.858  1.00  0.00     0.031 A 
ATOM     31  C   UNL A   1      42.240  27.471  30.157  1.00  0.00     0.074 A 
ATOM     32  C   UNL A   1      40.448  28.450  28.750  1.00  0.00     0.049 A 
ATOM     33  N   UNL A   1      42.011  28.034  31.314  1.00  0.00    -0.248 NA
ATOM     34  C   UNL A   1      43.401  26.563  30.151  1.00  0.00     0.031 C 
ATOM     35  C   UNL A   1      39.685  28.697  27.528  1.00  0.00     0.029 A 
ATOM     36  N   UNL A   1      39.855  29.252  29.689  1.00  0.00    -0.354 N 
ATOM     37  C   UNL A   1      42.987  27.538  32.172  1.00  0.00     0.074 A 
ATOM     38  C   UNL A   1      43.786  26.601  31.415  1.00  0.00     0.031 C 
ATOM     39  C   UNL A   1      38.723  29.598  27.793  1.00  0.00     0.029 A 
ATOM     40  C   UNL A   1      38.788  29.965  29.205  1.00  0.00     0.049 A 
ATOM     41  H   UNL A   1      40.166  29.311  30.621  1.00  0.00     0.167 HD
ATOM     42  C   UNL A   1      43.204  27.846  33.471  1.00  0.00     0.037 A 
ATOM     43  C   UNL A   1      37.956  30.809  29.842  1.00  0.00     0.037 A 
ATOM     44  C   UNL A   1      42.408  28.789  34.211  1.00  0.00     0.049 A 
ATOM     45  C   UNL A   1      38.185  31.093  31.303  1.00  0.00     0.074 A 
ATOM     46  C   UNL A   1      42.551  29.197  35.524  1.00  0.00     0.029 A 
ATOM     47  N   UNL A   1      41.311  29.465  33.697  1.00  0.00    -0.354 N 
ATOM     48  N   UNL A   1      39.126  30.644  32.100  1.00  0.00    -0.248 NA
ATOM     49  C   UNL A   1      37.241  32.013  31.950  1.00  0.00     0.031 C 
ATOM     50  C   UNL A   1      41.504  30.075  35.823  1.00  0.00     0.029 A 
ATOM     51  C   UNL A   1      40.750  30.269  34.676  1.00  0.00     0.049 A 
ATOM     52  H   UNL A   1      40.980  29.386  32.773  1.00  0.00     0.167 HD
ATOM     53  C   UNL A   1      38.911  31.256  33.329  1.00  0.00     0.074 A 
ATOM     54  C   UNL A   1      37.757  32.117  33.165  1.00  0.00     0.031 C 
ATOM     55  C   UNL A   1      39.607  31.126  34.486  1.00  0.00     0.037 A 
BRANCH  42  56
ATOM     56  C   UNL A   1      44.319  27.131  34.178  1.00  0.00     0.057 A 
ATOM     57  C   UNL A   1      44.124  25.914  34.846  1.00  0.00     0.134 A 
ATOM     58  C   UNL A   1      45.615  27.663  34.178  1.00  0.00     0.134 A 
ATOM     59  F   UNL A   1      42.904  25.357  34.904  1.00  0.00    -0.206 F 
ATOM     60  C   UNL A   1      45.170  25.268  35.510  1.00  0.00     0.040 A 
ATOM     61  C   UNL A   1      46.675  27.011  34.811  1.00  0.00     0.040 A 
ATOM     62  F   UNL A   1      45.874  28.824  33.558  1.00  0.00    -0.206 F 
ATOM     63  C   UNL A   1      46.451  25.813  35.487  1.00  0.00     0.006 A 
ENDBRANCH  42  56
BRANCH  43  64
ATOM     64  C   UNL A   1      36.840  31.453  29.105  1.00  0.00     0.057 A 
ATOM     65  C   UNL A   1      35.689  30.735  28.759  1.00  0.00     0.134 A 
ATOM     66  C   UNL A   1      36.902  32.795  28.714  1.00  0.00     0.134 A 
ATOM     67  F   UNL A   1      35.576  29.440  29.090  1.00  0.00    -0.206 F 
ATOM     68  C   UNL A   1      34.653  31.320  28.030  1.00  0.00     0.040 A 
ATOM     69  C   UNL A   1      35.862  33.402  28.009  1.00  0.00     0.040 A 
ATOM     70  F   UNL A   1      37.975  33.541  29.019  1.00  0.00    -0.206 F 
ATOM     71  C   UNL A   1      34.736  32.660  27.658  1.00  0.00     0.006 A 
ENDBRANCH  43  64
BRANCH  55  72
ATOM     72  C   UNL A   1      39.171  31.976  35.646  1.00  0.00     0.057 A 
ATOM     73  C   UNL A   1      38.291  31.506  36.629  1.00  0.00     0.134 A 
ATOM     74  C   UNL A   1      39.664  33.281  35.789  1.00  0.00     0.134 A 
ATOM     75  F   UNL A   1      37.776  30.271  36.546  1.00  0.00    -0.206 F 
ATOM     76  C   UNL A   1      37.884  32.318  37.690  1.00  0.00     0.040 A 
ATOM     77  C   UNL A   1      39.292  34.088  36.864  1.00  0.00     0.040 A 
ATOM     78  F   UNL A   1      40.522  33.789  34.893  1.00  0.00    -0.206 F 
ATOM     79  C   UNL A   1      38.389  33.611  37.813  1.00  0.00     0.006 A 
ENDBRANCH  55  72
ENDBRANCH  29  30
ENDBRANCH  22  24
ENDBRANCH  21  22
ENDBRANCH  20  21
ENDBRANCH  19  20
ENDBRANCH   1  19
TORSDOF 16
ENDMDL
MODEL 3
REMARK VINA RESULT:     -10.3      5.052      9.769
REMARK SMILES O=C(CSc1ccc2ccccc2c1)OCCOCCOC(=O)c1ccc(-c2c3nc(c(-c4c(F)cccc4F)c4ccc([nH]4)c(-c4c(F)cccc4F)c4nc(c(-c5c(F)cccc5F)c5ccc2[nH]5)C=C4)C=C3)cc1
REMARK SMILES IDX 18 1 17 2 16 3 15 4 2 5 1 6 3 7 4 8 5 9 6 10 14 11 7 12
REMARK SMILES IDX 13 13 8 14 12 15 9 16 11 17 10 18 19 19 20 20 21 21 22 22
REMARK SMILES IDX 23 23 24 24 25 25 77 26 26 27 76 28 27 29 28 30 29 31 70 32
REMARK SMILES IDX 30 33 75 34 69 35 71 36 31 37 74 38 68 39 67 40 32 42 58 43
REMARK SMILES IDX 41 44 57 45 42 46 45 47 56 48 72 49 43 50 44 51 55 53 73 54
REMARK SMILES IDX 46 55 33 56 34 57 39 58 35 59 36 60 38 61 40 62 37 63 59 64
REMARK SMILES IDX 60 65 65 66 61 67 62 68 64 69 66 70 63 71 47 72 48 73 53 74
REMARK SMILES IDX 49 75 50 76 52 77 54 78 51 79
REMARK H PARENT 71 41 45 52
REMARK Flexibility Score: inf
ROOT
ATOM      1  O   UNL A   1      36.310  21.564  25.242  1.00  0.00    -0.374 OA
ENDROOT
BRANCH   1   2
ATOM      2  C   UNL A   1      35.353  22.159  24.369  1.00  0.00     0.202 C 
BRANCH   2   3
ATOM      3  C   UNL A   1      35.882  23.259  23.457  1.00  0.00     0.261 C 
BRANCH   3   4
ATOM      4  O   UNL A   1      34.844  23.930  22.724  1.00  0.00    -0.463 OA
BRANCH   4   5
ATOM      5  C   UNL A   1      33.822  24.622  23.277  1.00  0.00     0.316 C 
ATOM      6  O   UNL A   1      34.079  25.553  24.043  1.00  0.00    -0.251 OA
BRANCH   5   7
ATOM      7  C   UNL A   1      32.386  24.210  23.030  1.00  0.00     0.197 C 
BRANCH   7   8
ATOM      8  S   UNL A   1      31.586  23.369  24.425  1.00  0.00    -0.114 SA
BRANCH   8   9
ATOM      9  C   UNL A   1      31.926  21.697  23.953  1.00  0.00     0.008 A 
ATOM     10  C   UNL A   1      31.904  21.317  22.612  1.00  0.00     0.016 A 
ATOM     11  C   UNL A   1      32.208  20.760  24.946  1.00  0.00     0.023 A 
ATOM     12  C   UNL A   1      32.196  19.999  22.262  1.00  0.00     0.010 A 
ATOM     13  C   UNL A   1      32.497  19.439  24.611  1.00  0.00    -0.017 A 
ATOM     14  C   UNL A   1      32.515  19.053  23.251  1.00  0.00    -0.018 A 
ATOM     15  C   UNL A   1      32.784  18.507  25.613  1.00  0.00     0.009 A 
ATOM     16  C   UNL A   1      32.864  17.734  22.932  1.00  0.00     0.009 A 
ATOM     17  C   UNL A   1      33.130  17.202  25.278  1.00  0.00     0.001 A 
ATOM     18  C   UNL A   1      33.182  16.820  23.940  1.00  0.00     0.001 A 
ENDBRANCH   8   9
ENDBRANCH   7   8
ENDBRANCH   5   7
ENDBRANCH   4   5
ENDBRANCH   3   4
ENDBRANCH   2   3
ENDBRANCH   1   2
BRANCH   1  19
ATOM     19  C   UNL A   1      36.581  20.176  25.010  1.00  0.00     0.202 C 
BRANCH  19  20
ATOM     20  C   UNL A   1      38.055  19.779  25.109  1.00  0.00     0.261 C 
BRANCH  20  21
ATOM     21  O   UNL A   1      38.877  20.933  25.326  1.00  0.00    -0.460 OA
BRANCH  21  22
ATOM     22  C   UNL A   1      39.885  20.743  26.206  1.00  0.00     0.338 C 
ATOM     23  O   UNL A   1      40.607  19.760  26.306  1.00  0.00    -0.246 OA
BRANCH  22  24
ATOM     24  C   UNL A   1      40.148  22.001  26.928  1.00  0.00     0.060 A 
ATOM     25  C   UNL A   1      39.392  23.121  26.562  1.00  0.00     0.016 A 
ATOM     26  C   UNL A   1      41.134  22.095  27.914  1.00  0.00     0.016 A 
ATOM     27  C   UNL A   1      39.694  24.366  27.096  1.00  0.00     0.010 A 
ATOM     28  C   UNL A   1      41.439  23.345  28.451  1.00  0.00     0.010 A 
ATOM     29  C   UNL A   1      40.767  24.490  27.986  1.00  0.00    -0.014 A 
BRANCH  29  30
ATOM     30  C   UNL A   1      41.338  25.833  28.217  1.00  0.00     0.031 A 
ATOM     31  C   UNL A   1      42.703  26.127  27.654  1.00  0.00     0.074 A 
ATOM     32  C   UNL A   1      40.630  26.784  28.845  1.00  0.00     0.049 A 
ATOM     33  N   UNL A   1      43.402  27.230  27.701  1.00  0.00    -0.248 NA
ATOM     34  C   UNL A   1      43.371  25.023  26.942  1.00  0.00     0.031 C 
ATOM     35  C   UNL A   1      39.283  26.617  29.388  1.00  0.00     0.029 A 
ATOM     36  N   UNL A   1      40.949  28.087  29.123  1.00  0.00    -0.354 N 
ATOM     37  C   UNL A   1      44.594  26.948  27.042  1.00  0.00     0.074 A 
ATOM     38  C   UNL A   1      44.540  25.562  26.637  1.00  0.00     0.031 C 
ATOM     39  C   UNL A   1      38.888  27.781  29.932  1.00  0.00     0.029 A 
ATOM     40  C   UNL A   1      39.964  28.760  29.799  1.00  0.00     0.049 A 
ATOM     41  H   UNL A   1      41.803  28.501  28.861  1.00  0.00     0.167 HD
ATOM     42  C   UNL A   1      45.633  27.775  26.787  1.00  0.00     0.037 A 
ATOM     43  C   UNL A   1      39.946  30.022  30.265  1.00  0.00     0.037 A 
ATOM     44  C   UNL A   1      45.670  29.156  27.187  1.00  0.00     0.049 A 
ATOM     45  C   UNL A   1      41.140  30.907  30.017  1.00  0.00     0.074 A 
ATOM     46  C   UNL A   1      46.660  30.094  26.961  1.00  0.00     0.029 A 
ATOM     47  N   UNL A   1      44.668  29.794  27.904  1.00  0.00    -0.354 N 
ATOM     48  N   UNL A   1      42.250  30.643  29.369  1.00  0.00    -0.248 NA
ATOM     49  C   UNL A   1      41.071  32.271  30.557  1.00  0.00     0.031 C 
ATOM     50  C   UNL A   1      46.284  31.284  27.594  1.00  0.00     0.029 A 
ATOM     51  C   UNL A   1      45.028  31.107  28.153  1.00  0.00     0.049 A 
ATOM     52  H   UNL A   1      43.825  29.375  28.192  1.00  0.00     0.167 HD
ATOM     53  C   UNL A   1      42.993  31.817  29.388  1.00  0.00     0.074 A 
ATOM     54  C   UNL A   1      42.199  32.796  30.103  1.00  0.00     0.031 C 
ATOM     55  C   UNL A   1      44.216  32.067  28.858  1.00  0.00     0.037 A 
BRANCH  42  56
ATOM     56  C   UNL A   1      46.824  27.196  26.079  1.00  0.00     0.057 A 
ATOM     57  C   UNL A   1      46.978  27.272  24.687  1.00  0.00     0.134 A 
ATOM     58  C   UNL A   1      47.842  26.563  26.804  1.00  0.00     0.134 A 
ATOM     59  F   UNL A   1      46.032  27.845  23.928  1.00  0.00    -0.206 F 
ATOM     60  C   UNL A   1      48.086  26.715  24.042  1.00  0.00     0.040 A 
ATOM     61  C   UNL A   1      48.969  26.031  26.174  1.00  0.00     0.040 A 
ATOM     62  F   UNL A   1      47.761  26.455  28.139  1.00  0.00    -0.206 F 
ATOM     63  C   UNL A   1      49.089  26.099  24.788  1.00  0.00     0.006 A 
ENDBRANCH  42  56
BRANCH  43  64
ATOM     64  C   UNL A   1      38.761  30.529  31.001  1.00  0.00     0.057 A 
ATOM     65  C   UNL A   1      38.630  30.341  32.383  1.00  0.00     0.134 A 
ATOM     66  C   UNL A   1      37.723  31.197  30.342  1.00  0.00     0.134 A 
ATOM     67  F   UNL A   1      39.582  29.692  33.069  1.00  0.00    -0.206 F 
ATOM     68  C   UNL A   1      37.499  30.777  33.076  1.00  0.00     0.040 A 
ATOM     69  C   UNL A   1      36.601  31.664  31.027  1.00  0.00     0.040 A 
ATOM     70  F   UNL A   1      37.790  31.415  29.019  1.00  0.00    -0.206 F 
ATOM     71  C   UNL A   1      36.483  31.445  32.397  1.00  0.00     0.006 A 
ENDBRANCH  43  64
BRANCH  55  72
ATOM     72  C   UNL A   1      44.743  33.469  28.984  1.00  0.00     0.057 A 
ATOM     73  C   UNL A   1      45.553  33.871  30.053  1.00  0.00     0.134 A 
ATOM     74  C   UNL A   1      44.448  34.425  28.001  1.00  0.00     0.134 A 
ATOM     75  F   UNL A   1      45.865  33.009  31.032  1.00  0.00    -0.206 F 
ATOM     76  C   UNL A   1      46.018  35.183  30.161  1.00  0.00     0.040 A 
ATOM     77  C   UNL A   1      44.936  35.729  28.081  1.00  0.00     0.040 A 
ATOM     78  F   UNL A   1      43.689  34.104  26.943  1.00  0.00    -0.206 F 
ATOM     79  C   UNL A   1      45.714  36.115  29.171  1.00  0.00     0.006 A 
ENDBRANCH  55  72
ENDBRANCH  29  30
ENDBRANCH  22  24
ENDBRANCH  21  22
ENDBRANCH  20  21
ENDBRANCH  19  20
ENDBRANCH   1  19
TORSDOF 16
ENDMDL
