MODEL 1
REMARK VINA RESULT:     -11.9      0.000      0.000
REMARK SMILES CS(=O)(=O)c1ccc(C(=O)N[C@@H](CC(=O)OCCOCCOC(=O)c2ccc(-c3c4nc(c(-c5c(F)cccc5F)c5ccc([nH]5)c(-c5c(F)cccc5F)c5nc(c(-c6c(F)cccc6F)c6ccc3[nH]6)C=C5)C=C4)cc2)c2ccccc2)cc1
REMARK SMILES IDX 18 1 17 2 16 3 14 4 15 5 13 6 12 7 11 8 9 9 10 10 8 12 5 13
REMARK SMILES IDX 6 14 86 15 7 16 85 17 2 18 1 19 3 20 4 21 79 22 80 23 84 24
REMARK SMILES IDX 81 25 83 26 82 27 19 28 20 29 21 30 22 31 23 32 24 33 25 34
REMARK SMILES IDX 26 35 78 36 27 37 77 38 28 39 29 40 30 41 71 42 31 43 76 44
REMARK SMILES IDX 70 45 72 46 32 47 75 48 69 49 68 50 33 52 59 53 42 54 58 55
REMARK SMILES IDX 43 56 46 57 57 58 73 59 44 60 45 61 56 63 74 64 47 65 34 66
REMARK SMILES IDX 35 67 40 68 36 69 37 70 39 71 41 72 38 73 60 74 61 75 66 76
REMARK SMILES IDX 62 77 63 78 65 79 67 80 64 81 48 82 49 83 54 84 50 85 51 86
REMARK SMILES IDX 53 87 55 88 52 89
REMARK H PARENT 11 11 72 51 46 62
REMARK Flexibility Score: inf
ROOT
ATOM      1  C   UNL A   1      30.510  28.356  24.055  1.00  0.00     0.202 C 
ENDROOT
BRANCH   1   2
ATOM      2  C   UNL A   1      31.026  27.690  22.773  1.00  0.00     0.261 C 
BRANCH   2   3
ATOM      3  O   UNL A   1      32.386  28.035  22.428  1.00  0.00    -0.463 OA
BRANCH   3   4
ATOM      4  C   UNL A   1      33.292  27.029  22.559  1.00  0.00     0.308 C 
ATOM      5  O   UNL A   1      33.750  26.378  21.624  1.00  0.00    -0.252 OA
BRANCH   4   6
ATOM      6  C   UNL A   1      33.610  26.663  23.987  1.00  0.00     0.152 C 
BRANCH   6   7
ATOM      7  C   UNL A   1      33.588  25.190  24.414  1.00  0.00     0.123 C 
BRANCH   7   8
ATOM      8  N   UNL A   1      32.743  25.033  25.595  1.00  0.00    -0.345 N 
ATOM      9  C   UNL A   1      32.241  23.922  26.228  1.00  0.00     0.251 C 
ATOM     10  O   UNL A   1      31.559  24.093  27.238  1.00  0.00    -0.269 OA
ATOM     11  H   UNL A   1      32.484  25.884  26.017  1.00  0.00     0.164 HD
BRANCH   9  12
ATOM     12  C   UNL A   1      32.540  22.522  25.797  1.00  0.00     0.039 A 
ATOM     13  C   UNL A   1      32.878  19.883  24.893  1.00  0.00     0.067 A 
ATOM     14  C   UNL A   1      32.154  20.785  24.118  1.00  0.00     0.021 A 
ATOM     15  C   UNL A   1      33.491  20.306  26.076  1.00  0.00     0.021 A 
ATOM     16  C   UNL A   1      31.984  22.099  24.577  1.00  0.00     0.015 A 
ATOM     17  C   UNL A   1      33.354  21.631  26.501  1.00  0.00     0.015 A 
BRANCH  13  18
ATOM     18  S   UNL A   1      33.074  18.173  24.447  1.00  0.00     0.175 S 
ATOM     19  C   UNL A   1      32.534  17.988  22.774  1.00  0.00     0.163 C 
ATOM     20  O   UNL A   1      32.155  17.432  25.289  1.00  0.00    -0.224 OA
ATOM     21  O   UNL A   1      34.500  17.907  24.475  1.00  0.00    -0.224 OA
ENDBRANCH  13  18
ENDBRANCH   9  12
ENDBRANCH   7   8
BRANCH   7  22
ATOM     22  C   UNL A   1      34.894  24.405  24.474  1.00  0.00    -0.025 A 
ATOM     23  C   UNL A   1      35.691  24.432  25.635  1.00  0.00     0.006 A 
ATOM     24  C   UNL A   1      35.226  23.467  23.480  1.00  0.00     0.006 A 
ATOM     25  C   UNL A   1      36.776  23.564  25.791  1.00  0.00     0.000 A 
ATOM     26  C   UNL A   1      36.317  22.604  23.633  1.00  0.00     0.000 A 
ATOM     27  C   UNL A   1      37.086  22.648  24.791  1.00  0.00     0.000 A 
ENDBRANCH   7  22
ENDBRANCH   6   7
ENDBRANCH   4   6
ENDBRANCH   3   4
ENDBRANCH   2   3
ENDBRANCH   1   2
BRANCH   1  28
ATOM     28  O   UNL A   1      31.054  29.641  24.351  1.00  0.00    -0.374 OA
BRANCH  28  29
ATOM     29  C   UNL A   1      32.003  29.707  25.416  1.00  0.00     0.202 C 
BRANCH  29  30
ATOM     30  C   UNL A   1      31.775  30.846  26.407  1.00  0.00     0.261 C 
BRANCH  30  31
ATOM     31  O   UNL A   1      32.738  30.773  27.471  1.00  0.00    -0.460 OA
BRANCH  31  32
ATOM     32  C   UNL A   1      33.463  31.900  27.607  1.00  0.00     0.338 C 
ATOM     33  O   UNL A   1      33.046  33.047  27.708  1.00  0.00    -0.246 OA
BRANCH  32  34
ATOM     34  C   UNL A   1      34.866  31.545  27.850  1.00  0.00     0.060 A 
ATOM     35  C   UNL A   1      35.158  30.189  28.018  1.00  0.00     0.016 A 
ATOM     36  C   UNL A   1      35.844  32.523  28.046  1.00  0.00     0.016 A 
ATOM     37  C   UNL A   1      36.416  29.809  28.475  1.00  0.00     0.010 A 
ATOM     38  C   UNL A   1      37.111  32.138  28.500  1.00  0.00     0.010 A 
ATOM     39  C   UNL A   1      37.380  30.784  28.772  1.00  0.00    -0.014 A 
BRANCH  39  40
ATOM     40  C   UNL A   1      38.584  30.362  29.528  1.00  0.00     0.031 A 
ATOM     41  C   UNL A   1      38.744  30.809  30.955  1.00  0.00     0.074 A 
ATOM     42  C   UNL A   1      39.455  29.493  28.987  1.00  0.00     0.049 A 
ATOM     43  N   UNL A   1      39.607  30.414  31.857  1.00  0.00    -0.248 NA
ATOM     44  C   UNL A   1      37.798  31.829  31.437  1.00  0.00     0.031 C 
ATOM     45  C   UNL A   1      39.398  28.984  27.619  1.00  0.00     0.029 A 
ATOM     46  N   UNL A   1      40.542  28.864  29.538  1.00  0.00    -0.354 N 
ATOM     47  C   UNL A   1      39.301  31.124  33.011  1.00  0.00     0.074 A 
ATOM     48  C   UNL A   1      38.199  32.006  32.686  1.00  0.00     0.031 C 
ATOM     49  C   UNL A   1      40.393  28.098  27.442  1.00  0.00     0.029 A 
ATOM     50  C   UNL A   1      41.157  27.983  28.684  1.00  0.00     0.049 A 
ATOM     51  H   UNL A   1      40.852  29.029  30.458  1.00  0.00     0.167 HD
ATOM     52  C   UNL A   1      39.871  31.038  34.236  1.00  0.00     0.037 A 
ATOM     53  C   UNL A   1      42.204  27.162  28.889  1.00  0.00     0.037 A 
ATOM     54  C   UNL A   1      40.970  30.166  34.557  1.00  0.00     0.049 A 
ATOM     55  C   UNL A   1      42.833  27.096  30.253  1.00  0.00     0.074 A 
ATOM     56  C   UNL A   1      41.618  30.000  35.769  1.00  0.00     0.029 A 
ATOM     57  N   UNL A   1      41.587  29.315  33.653  1.00  0.00    -0.354 N 
ATOM     58  N   UNL A   1      42.505  27.739  31.347  1.00  0.00    -0.248 NA
ATOM     59  C   UNL A   1      43.968  26.176  30.414  1.00  0.00     0.031 C 
ATOM     60  C   UNL A   1      42.651  29.073  35.587  1.00  0.00     0.029 A 
ATOM     61  C   UNL A   1      42.620  28.634  34.274  1.00  0.00     0.049 A 
ATOM     62  H   UNL A   1      41.329  29.212  32.708  1.00  0.00     0.167 HD
ATOM     63  C   UNL A   1      43.379  27.290  32.329  1.00  0.00     0.074 A 
ATOM     64  C   UNL A   1      44.237  26.305  31.706  1.00  0.00     0.031 C 
ATOM     65  C   UNL A   1      43.465  27.661  33.631  1.00  0.00     0.037 A 
BRANCH  52  66
ATOM     66  C   UNL A   1      39.318  31.922  35.315  1.00  0.00     0.057 A 
ATOM     67  C   UNL A   1      38.326  31.474  36.197  1.00  0.00     0.134 A 
ATOM     68  C   UNL A   1      39.796  33.227  35.487  1.00  0.00     0.134 A 
ATOM     69  F   UNL A   1      37.816  30.239  36.076  1.00  0.00    -0.206 F 
ATOM     70  C   UNL A   1      37.814  32.300  37.200  1.00  0.00     0.040 A 
ATOM     71  C   UNL A   1      39.307  34.055  36.499  1.00  0.00     0.040 A 
ATOM     72  F   UNL A   1      40.747  33.717  34.678  1.00  0.00    -0.206 F 
ATOM     73  C   UNL A   1      38.308  33.593  37.356  1.00  0.00     0.006 A 
ENDBRANCH  52  66
BRANCH  53  74
ATOM     74  C   UNL A   1      42.700  26.309  27.781  1.00  0.00     0.057 A 
ATOM     75  C   UNL A   1      43.689  26.761  26.900  1.00  0.00     0.134 A 
ATOM     76  C   UNL A   1      42.195  25.019  27.576  1.00  0.00     0.134 A 
ATOM     77  F   UNL A   1      44.198  27.995  27.033  1.00  0.00    -0.206 F 
ATOM     78  C   UNL A   1      44.151  25.966  25.850  1.00  0.00     0.040 A 
ATOM     79  C   UNL A   1      42.662  24.206  26.544  1.00  0.00     0.040 A 
ATOM     80  F   UNL A   1      41.246  24.528  28.388  1.00  0.00    -0.206 F 
ATOM     81  C   UNL A   1      43.640  24.682  25.673  1.00  0.00     0.006 A 
ENDBRANCH  53  74
BRANCH  65  82
ATOM     82  C   UNL A   1      44.518  26.986  34.460  1.00  0.00     0.057 A 
ATOM     83  C   UNL A   1      44.266  25.781  35.127  1.00  0.00     0.134 A 
ATOM     84  C   UNL A   1      45.799  27.538  34.577  1.00  0.00     0.134 A 
ATOM     85  F   UNL A   1      43.055  25.207  35.062  1.00  0.00    -0.206 F 
ATOM     86  C   UNL A   1      45.245  25.162  35.906  1.00  0.00     0.040 A 
ATOM     87  C   UNL A   1      46.792  26.917  35.336  1.00  0.00     0.040 A 
ATOM     88  F   UNL A   1      46.106  28.687  33.955  1.00  0.00    -0.206 F 
ATOM     89  C   UNL A   1      46.514  25.730  36.009  1.00  0.00     0.006 A 
ENDBRANCH  65  82
ENDBRANCH  39  40
ENDBRANCH  32  34
ENDBRANCH  31  32
ENDBRANCH  30  31
ENDBRANCH  29  30
ENDBRANCH  28  29
ENDBRANCH   1  28
TORSDOF 19
ENDMDL
MODEL 2
REMARK VINA RESULT:     -11.5      3.709      8.704
REMARK SMILES CS(=O)(=O)c1ccc(C(=O)N[C@@H](CC(=O)OCCOCCOC(=O)c2ccc(-c3c4nc(c(-c5c(F)cccc5F)c5ccc([nH]5)c(-c5c(F)cccc5F)c5nc(c(-c6c(F)cccc6F)c6ccc3[nH]6)C=C5)C=C4)cc2)c2ccccc2)cc1
REMARK SMILES IDX 18 1 17 2 16 3 14 4 15 5 13 6 12 7 11 8 9 9 10 10 8 12 5 13
REMARK SMILES IDX 6 14 86 15 7 16 85 17 2 18 1 19 3 20 4 21 79 22 80 23 84 24
REMARK SMILES IDX 81 25 83 26 82 27 19 28 20 29 21 30 22 31 23 32 24 33 25 34
REMARK SMILES IDX 26 35 78 36 27 37 77 38 28 39 29 40 30 41 71 42 31 43 76 44
REMARK SMILES IDX 70 45 72 46 32 47 75 48 69 49 68 50 33 52 59 53 42 54 58 55
REMARK SMILES IDX 43 56 46 57 57 58 73 59 44 60 45 61 56 63 74 64 47 65 34 66
REMARK SMILES IDX 35 67 40 68 36 69 37 70 39 71 41 72 38 73 60 74 61 75 66 76
REMARK SMILES IDX 62 77 63 78 65 79 67 80 64 81 48 82 49 83 54 84 50 85 51 86
REMARK SMILES IDX 53 87 55 88 52 89
REMARK H PARENT 11 11 72 51 46 62
REMARK Flexibility Score: inf
ROOT
ATOM      1  C   UNL A   1      33.648  23.493  22.515  1.00  0.00     0.202 C 
ENDROOT
BRANCH   1   2
ATOM      2  C   UNL A   1      33.059  24.903  22.375  1.00  0.00     0.261 C 
BRANCH   2   3
ATOM      3  O   UNL A   1      34.009  25.906  21.953  1.00  0.00    -0.463 OA
BRANCH   3   4
ATOM      4  C   UNL A   1      33.559  27.189  21.998  1.00  0.00     0.308 C 
ATOM      5  O   UNL A   1      34.252  28.177  21.777  1.00  0.00    -0.252 OA
BRANCH   4   6
ATOM      6  C   UNL A   1      32.138  27.330  22.483  1.00  0.00     0.152 C 
BRANCH   6   7
ATOM      7  C   UNL A   1      31.556  28.729  22.723  1.00  0.00     0.123 C 
BRANCH   7   8
ATOM      8  N   UNL A   1      32.235  29.357  23.853  1.00  0.00    -0.345 N 
ATOM      9  C   UNL A   1      32.563  28.892  25.105  1.00  0.00     0.251 C 
ATOM     10  O   UNL A   1      33.167  29.653  25.860  1.00  0.00    -0.269 OA
ATOM     11  H   UNL A   1      32.510  30.287  23.688  1.00  0.00     0.164 HD
BRANCH   9  12
ATOM     12  C   UNL A   1      32.290  27.497  25.563  1.00  0.00     0.039 A 
ATOM     13  C   UNL A   1      31.962  24.801  26.288  1.00  0.00     0.067 A 
ATOM     14  C   UNL A   1      33.246  25.314  26.116  1.00  0.00     0.021 A 
ATOM     15  C   UNL A   1      30.850  25.638  26.171  1.00  0.00     0.021 A 
ATOM     16  C   UNL A   1      33.402  26.657  25.749  1.00  0.00     0.015 A 
ATOM     17  C   UNL A   1      31.019  26.989  25.850  1.00  0.00     0.015 A 
BRANCH  13  18
ATOM     18  S   UNL A   1      31.652  23.091  26.663  1.00  0.00     0.175 S 
ATOM     19  C   UNL A   1      33.010  22.496  27.626  1.00  0.00     0.163 C 
ATOM     20  O   UNL A   1      31.677  22.393  25.392  1.00  0.00    -0.224 OA
ATOM     21  O   UNL A   1      30.476  23.068  27.510  1.00  0.00    -0.224 OA
ENDBRANCH  13  18
ENDBRANCH   9  12
ENDBRANCH   7   8
BRANCH   7  22
ATOM     22  C   UNL A   1      30.044  28.925  22.718  1.00  0.00    -0.025 A 
ATOM     23  C   UNL A   1      29.188  27.885  23.129  1.00  0.00     0.006 A 
ATOM     24  C   UNL A   1      29.475  30.197  22.524  1.00  0.00     0.006 A 
ATOM     25  C   UNL A   1      27.822  28.106  23.331  1.00  0.00     0.000 A 
ATOM     26  C   UNL A   1      28.107  30.415  22.718  1.00  0.00     0.000 A 
ATOM     27  C   UNL A   1      27.283  29.372  23.129  1.00  0.00     0.000 A 
ENDBRANCH   7  22
ENDBRANCH   6   7
ENDBRANCH   4   6
ENDBRANCH   3   4
ENDBRANCH   2   3
ENDBRANCH   1   2
BRANCH   1  28
ATOM     28  O   UNL A   1      35.054  23.425  22.747  1.00  0.00    -0.374 OA
BRANCH  28  29
ATOM     29  C   UNL A   1      35.469  23.105  24.076  1.00  0.00     0.202 C 
BRANCH  29  30
ATOM     30  C   UNL A   1      36.737  22.258  24.163  1.00  0.00     0.261 C 
BRANCH  30  31
ATOM     31  O   UNL A   1      37.077  22.020  25.538  1.00  0.00    -0.460 OA
BRANCH  31  32
ATOM     32  C   UNL A   1      38.390  21.786  25.726  1.00  0.00     0.338 C 
ATOM     33  O   UNL A   1      39.094  20.974  25.139  1.00  0.00    -0.246 OA
BRANCH  32  34
ATOM     34  C   UNL A   1      38.944  22.822  26.605  1.00  0.00     0.060 A 
ATOM     35  C   UNL A   1      38.353  24.087  26.547  1.00  0.00     0.016 A 
ATOM     36  C   UNL A   1      40.097  22.600  27.362  1.00  0.00     0.016 A 
ATOM     37  C   UNL A   1      38.970  25.163  27.177  1.00  0.00     0.010 A 
ATOM     38  C   UNL A   1      40.713  23.683  28.000  1.00  0.00     0.010 A 
ATOM     39  C   UNL A   1      40.182  24.978  27.858  1.00  0.00    -0.014 A 
BRANCH  39  40
ATOM     40  C   UNL A   1      40.947  26.185  28.255  1.00  0.00     0.031 A 
ATOM     41  C   UNL A   1      42.361  26.345  27.765  1.00  0.00     0.074 A 
ATOM     42  C   UNL A   1      40.348  27.176  28.934  1.00  0.00     0.049 A 
ATOM     43  N   UNL A   1      43.147  27.391  27.828  1.00  0.00    -0.248 NA
ATOM     44  C   UNL A   1      42.969  25.176  27.109  1.00  0.00     0.031 C 
ATOM     45  C   UNL A   1      38.981  27.137  29.450  1.00  0.00     0.029 A 
ATOM     46  N   UNL A   1      40.806  28.422  29.280  1.00  0.00    -0.354 N 
ATOM     47  C   UNL A   1      44.331  27.011  27.209  1.00  0.00     0.074 A 
ATOM     48  C   UNL A   1      44.179  25.627  26.814  1.00  0.00     0.031 C 
ATOM     49  C   UNL A   1      38.701  28.319  30.028  1.00  0.00     0.029 A 
ATOM     50  C   UNL A   1      39.869  29.191  29.923  1.00  0.00     0.049 A 
ATOM     51  H   UNL A   1      41.719  28.734  29.086  1.00  0.00     0.167 HD
ATOM     52  C   UNL A   1      45.440  27.753  26.971  1.00  0.00     0.037 A 
ATOM     53  C   UNL A   1      39.940  30.464  30.359  1.00  0.00     0.037 A 
ATOM     54  C   UNL A   1      45.593  29.127  27.369  1.00  0.00     0.049 A 
ATOM     55  C   UNL A   1      41.188  31.262  30.100  1.00  0.00     0.074 A 
ATOM     56  C   UNL A   1      46.674  29.970  27.173  1.00  0.00     0.029 A 
ATOM     57  N   UNL A   1      44.633  29.859  28.051  1.00  0.00    -0.354 N 
ATOM     58  N   UNL A   1      42.283  30.906  29.474  1.00  0.00    -0.248 NA
ATOM     59  C   UNL A   1      41.201  32.646  30.595  1.00  0.00     0.031 C 
ATOM     60  C   UNL A   1      46.380  31.202  27.769  1.00  0.00     0.029 A 
ATOM     61  C   UNL A   1      45.102  31.138  28.299  1.00  0.00     0.049 A 
ATOM     62  H   UNL A   1      43.748  29.520  28.319  1.00  0.00     0.167 HD
ATOM     63  C   UNL A   1      43.108  32.024  29.483  1.00  0.00     0.074 A 
ATOM     64  C   UNL A   1      42.377  33.076  30.158  1.00  0.00     0.031 C 
ATOM     65  C   UNL A   1      44.359  32.167  28.979  1.00  0.00     0.037 A 
BRANCH  52  66
ATOM     66  C   UNL A   1      46.575  27.082  26.257  1.00  0.00     0.057 A 
ATOM     67  C   UNL A   1      46.738  27.187  24.870  1.00  0.00     0.134 A 
ATOM     68  C   UNL A   1      47.528  26.339  26.966  1.00  0.00     0.134 A 
ATOM     69  F   UNL A   1      45.852  27.872  24.132  1.00  0.00    -0.206 F 
ATOM     70  C   UNL A   1      47.797  26.561  24.209  1.00  0.00     0.040 A 
ATOM     71  C   UNL A   1      48.602  25.725  26.320  1.00  0.00     0.040 A 
ATOM     72  F   UNL A   1      47.432  26.200  28.296  1.00  0.00    -0.206 F 
ATOM     73  C   UNL A   1      48.735  25.830  24.936  1.00  0.00     0.006 A 
ENDBRANCH  52  66
BRANCH  53  74
ATOM     74  C   UNL A   1      38.779  31.072  31.054  1.00  0.00     0.057 A 
ATOM     75  C   UNL A   1      37.796  31.777  30.351  1.00  0.00     0.134 A 
ATOM     76  C   UNL A   1      38.626  30.961  32.442  1.00  0.00     0.134 A 
ATOM     77  F   UNL A   1      37.898  31.934  29.023  1.00  0.00    -0.206 F 
ATOM     78  C   UNL A   1      36.708  32.359  31.002  1.00  0.00     0.040 A 
ATOM     79  C   UNL A   1      37.532  31.519  33.103  1.00  0.00     0.040 A 
ATOM     80  F   UNL A   1      39.534  30.296  33.171  1.00  0.00    -0.206 F 
ATOM     81  C   UNL A   1      36.571  32.226  32.383  1.00  0.00     0.006 A 
ENDBRANCH  53  74
BRANCH  65  82
ATOM     82  C   UNL A   1      45.002  33.514  29.135  1.00  0.00     0.057 A 
ATOM     83  C   UNL A   1      45.785  33.829  30.252  1.00  0.00     0.134 A 
ATOM     84  C   UNL A   1      44.849  34.498  28.150  1.00  0.00     0.134 A 
ATOM     85  F   UNL A   1      45.960  32.933  31.235  1.00  0.00    -0.206 F 
ATOM     86  C   UNL A   1      46.371  35.087  30.399  1.00  0.00     0.040 A 
ATOM     87  C   UNL A   1      45.449  35.752  28.275  1.00  0.00     0.040 A 
ATOM     88  F   UNL A   1      44.119  34.255  27.051  1.00  0.00    -0.206 F 
ATOM     89  C   UNL A   1      46.206  36.051  29.405  1.00  0.00     0.006 A 
ENDBRANCH  65  82
ENDBRANCH  39  40
ENDBRANCH  32  34
ENDBRANCH  31  32
ENDBRANCH  30  31
ENDBRANCH  29  30
ENDBRANCH  28  29
ENDBRANCH   1  28
TORSDOF 19
ENDMDL
MODEL 3
REMARK VINA RESULT:     -11.3      3.758      6.740
REMARK SMILES CS(=O)(=O)c1ccc(C(=O)N[C@@H](CC(=O)OCCOCCOC(=O)c2ccc(-c3c4nc(c(-c5c(F)cccc5F)c5ccc([nH]5)c(-c5c(F)cccc5F)c5nc(c(-c6c(F)cccc6F)c6ccc3[nH]6)C=C5)C=C4)cc2)c2ccccc2)cc1
REMARK SMILES IDX 18 1 17 2 16 3 14 4 15 5 13 6 12 7 11 8 9 9 10 10 8 12 5 13
REMARK SMILES IDX 6 14 86 15 7 16 85 17 2 18 1 19 3 20 4 21 79 22 80 23 84 24
REMARK SMILES IDX 81 25 83 26 82 27 19 28 20 29 21 30 22 31 23 32 24 33 25 34
REMARK SMILES IDX 26 35 78 36 27 37 77 38 28 39 29 40 30 41 71 42 31 43 76 44
REMARK SMILES IDX 70 45 72 46 32 47 75 48 69 49 68 50 33 52 59 53 42 54 58 55
REMARK SMILES IDX 43 56 46 57 57 58 73 59 44 60 45 61 56 63 74 64 47 65 34 66
REMARK SMILES IDX 35 67 40 68 36 69 37 70 39 71 41 72 38 73 60 74 61 75 66 76
REMARK SMILES IDX 62 77 63 78 65 79 67 80 64 81 48 82 49 83 54 84 50 85 51 86
REMARK SMILES IDX 53 87 55 88 52 89
REMARK H PARENT 11 11 72 51 46 62
REMARK Flexibility Score: inf
ROOT
ATOM      1  C   UNL A   1      33.686  23.350  22.459  1.00  0.00     0.202 C 
ENDROOT
BRANCH   1   2
ATOM      2  C   UNL A   1      32.953  24.695  22.383  1.00  0.00     0.261 C 
BRANCH   2   3
ATOM      3  O   UNL A   1      33.584  25.670  21.523  1.00  0.00    -0.463 OA
BRANCH   3   4
ATOM      4  C   UNL A   1      33.360  26.970  21.856  1.00  0.00     0.308 C 
ATOM      5  O   UNL A   1      34.212  27.853  21.823  1.00  0.00    -0.252 OA
BRANCH   4   6
ATOM      6  C   UNL A   1      31.985  27.240  22.412  1.00  0.00     0.152 C 
BRANCH   6   7
ATOM      7  C   UNL A   1      31.509  28.687  22.588  1.00  0.00     0.123 C 
BRANCH   7   8
ATOM      8  N   UNL A   1      32.275  29.330  23.652  1.00  0.00    -0.345 N 
ATOM      9  C   UNL A   1      32.617  28.919  24.918  1.00  0.00     0.251 C 
ATOM     10  O   UNL A   1      33.303  29.677  25.604  1.00  0.00    -0.269 OA
ATOM     11  H   UNL A   1      32.610  30.226  23.419  1.00  0.00     0.164 HD
BRANCH   9  12
ATOM     12  C   UNL A   1      32.263  27.578  25.473  1.00  0.00     0.039 A 
ATOM     13  C   UNL A   1      31.766  24.962  26.372  1.00  0.00     0.067 A 
ATOM     14  C   UNL A   1      33.072  25.353  26.088  1.00  0.00     0.021 A 
ATOM     15  C   UNL A   1      30.720  25.884  26.279  1.00  0.00     0.021 A 
ATOM     16  C   UNL A   1      33.313  26.657  25.635  1.00  0.00     0.015 A 
ATOM     17  C   UNL A   1      30.978  27.197  25.870  1.00  0.00     0.015 A 
BRANCH  13  18
ATOM     18  S   UNL A   1      31.344  23.307  26.863  1.00  0.00     0.175 S 
ATOM     19  C   UNL A   1      31.449  22.275  25.431  1.00  0.00     0.163 C 
ATOM     20  O   UNL A   1      29.952  23.353  27.269  1.00  0.00    -0.224 OA
ATOM     21  O   UNL A   1      32.380  22.879  27.783  1.00  0.00    -0.224 OA
ENDBRANCH  13  18
ENDBRANCH   9  12
ENDBRANCH   7   8
BRANCH   7  22
ATOM     22  C   UNL A   1      30.015  28.988  22.626  1.00  0.00    -0.025 A 
ATOM     23  C   UNL A   1      29.092  27.979  22.960  1.00  0.00     0.006 A 
ATOM     24  C   UNL A   1      29.537  30.309  22.554  1.00  0.00     0.006 A 
ATOM     25  C   UNL A   1      27.747  28.277  23.203  1.00  0.00     0.000 A 
ATOM     26  C   UNL A   1      28.190  30.605  22.790  1.00  0.00     0.000 A 
ATOM     27  C   UNL A   1      27.298  29.591  23.122  1.00  0.00     0.000 A 
ENDBRANCH   7  22
ENDBRANCH   6   7
ENDBRANCH   4   6
ENDBRANCH   3   4
ENDBRANCH   2   3
ENDBRANCH   1   2
BRANCH   1  28
ATOM     28  O   UNL A   1      35.056  23.407  22.851  1.00  0.00    -0.374 OA
BRANCH  28  29
ATOM     29  C   UNL A   1      35.362  22.974  24.178  1.00  0.00     0.202 C 
BRANCH  29  30
ATOM     30  C   UNL A   1      36.557  22.029  24.283  1.00  0.00     0.261 C 
BRANCH  30  31
ATOM     31  O   UNL A   1      36.915  21.838  25.661  1.00  0.00    -0.460 OA
BRANCH  31  32
ATOM     32  C   UNL A   1      38.228  21.598  25.838  1.00  0.00     0.338 C 
ATOM     33  O   UNL A   1      38.886  20.675  25.375  1.00  0.00    -0.246 OA
BRANCH  32  34
ATOM     34  C   UNL A   1      38.844  22.751  26.505  1.00  0.00     0.060 A 
ATOM     35  C   UNL A   1      38.244  23.998  26.302  1.00  0.00     0.016 A 
ATOM     36  C   UNL A   1      40.053  22.638  27.195  1.00  0.00     0.016 A 
ATOM     37  C   UNL A   1      38.903  25.152  26.713  1.00  0.00     0.010 A 
ATOM     38  C   UNL A   1      40.711  23.800  27.612  1.00  0.00     0.010 A 
ATOM     39  C   UNL A   1      40.165  25.062  27.318  1.00  0.00    -0.014 A 
BRANCH  39  40
ATOM     40  C   UNL A   1      40.953  26.310  27.467  1.00  0.00     0.031 A 
ATOM     41  C   UNL A   1      40.366  27.456  28.244  1.00  0.00     0.074 A 
ATOM     42  C   UNL A   1      42.220  26.371  27.022  1.00  0.00     0.049 A 
ATOM     43  N   UNL A   1      40.938  28.558  28.659  1.00  0.00    -0.248 NA
ATOM     44  C   UNL A   1      38.945  27.343  28.614  1.00  0.00     0.031 C 
ATOM     45  C   UNL A   1      42.898  25.321  26.266  1.00  0.00     0.029 A 
ATOM     46  N   UNL A   1      43.169  27.350  27.171  1.00  0.00    -0.354 N 
ATOM     47  C   UNL A   1      39.956  29.259  29.348  1.00  0.00     0.074 A 
ATOM     48  C   UNL A   1      38.740  28.480  29.261  1.00  0.00     0.031 C 
ATOM     49  C   UNL A   1      44.167  25.701  26.036  1.00  0.00     0.029 A 
ATOM     50  C   UNL A   1      44.386  27.020  26.627  1.00  0.00     0.049 A 
ATOM     51  H   UNL A   1      42.995  28.206  27.624  1.00  0.00     0.167 HD
ATOM     52  C   UNL A   1      40.061  30.436  30.010  1.00  0.00     0.037 A 
ATOM     53  C   UNL A   1      45.549  27.698  26.625  1.00  0.00     0.037 A 
ATOM     54  C   UNL A   1      41.269  31.213  30.092  1.00  0.00     0.049 A 
ATOM     55  C   UNL A   1      45.637  29.012  27.352  1.00  0.00     0.074 A 
ATOM     56  C   UNL A   1      41.483  32.417  30.740  1.00  0.00     0.029 A 
ATOM     57  N   UNL A   1      42.471  30.861  29.495  1.00  0.00    -0.354 N 
ATOM     58  N   UNL A   1      44.714  29.642  28.037  1.00  0.00    -0.248 NA
ATOM     59  C   UNL A   1      46.935  29.700  27.318  1.00  0.00     0.031 C 
ATOM     60  C   UNL A   1      42.806  32.810  30.507  1.00  0.00     0.029 A 
ATOM     61  C   UNL A   1      43.426  31.832  29.747  1.00  0.00     0.049 A 
ATOM     62  H   UNL A   1      42.623  30.042  28.971  1.00  0.00     0.167 HD
ATOM     63  C   UNL A   1      45.322  30.789  28.531  1.00  0.00     0.074 A 
ATOM     64  C   UNL A   1      46.699  30.756  28.084  1.00  0.00     0.031 C 
ATOM     65  C   UNL A   1      44.789  31.781  29.286  1.00  0.00     0.037 A 
BRANCH  52  66
ATOM     66  C   UNL A   1      38.828  30.954  30.688  1.00  0.00     0.057 A 
ATOM     67  C   UNL A   1      37.914  31.781  30.023  1.00  0.00     0.134 A 
ATOM     68  C   UNL A   1      38.540  30.608  32.015  1.00  0.00     0.134 A 
ATOM     69  F   UNL A   1      38.139  32.161  28.756  1.00  0.00    -0.206 F 
ATOM     70  C   UNL A   1      36.767  32.262  30.658  1.00  0.00     0.040 A 
ATOM     71  C   UNL A   1      37.386  31.066  32.654  1.00  0.00     0.040 A 
ATOM     72  F   UNL A   1      39.372  29.818  32.708  1.00  0.00    -0.206 F 
ATOM     73  C   UNL A   1      36.499  31.900  31.976  1.00  0.00     0.006 A 
ENDBRANCH  52  66
BRANCH  53  74
ATOM     74  C   UNL A   1      46.735  27.128  25.940  1.00  0.00     0.057 A 
ATOM     75  C   UNL A   1      47.007  27.413  24.598  1.00  0.00     0.134 A 
ATOM     76  C   UNL A   1      47.624  26.281  26.614  1.00  0.00     0.134 A 
ATOM     77  F   UNL A   1      46.182  28.201  23.894  1.00  0.00    -0.206 F 
ATOM     78  C   UNL A   1      48.115  26.869  23.946  1.00  0.00     0.040 A 
ATOM     79  C   UNL A   1      48.747  25.749  25.981  1.00  0.00     0.040 A 
ATOM     80  F   UNL A   1      47.417  25.972  27.902  1.00  0.00    -0.206 F 
ATOM     81  C   UNL A   1      48.992  26.038  24.640  1.00  0.00     0.006 A 
ENDBRANCH  53  74
BRANCH  65  82
ATOM     82  C   UNL A   1      45.707  32.901  29.678  1.00  0.00     0.057 A 
ATOM     83  C   UNL A   1      45.847  34.048  28.886  1.00  0.00     0.134 A 
ATOM     84  C   UNL A   1      46.443  32.840  30.868  1.00  0.00     0.134 A 
ATOM     85  F   UNL A   1      45.177  34.161  27.729  1.00  0.00    -0.206 F 
ATOM     86  C   UNL A   1      46.711  35.081  29.248  1.00  0.00     0.040 A 
ATOM     87  C   UNL A   1      47.293  33.878  31.251  1.00  0.00     0.040 A 
ATOM     88  F   UNL A   1      46.346  31.773  31.675  1.00  0.00    -0.206 F 
ATOM     89  C   UNL A   1      47.435  34.999  30.437  1.00  0.00     0.006 A 
ENDBRANCH  65  82
ENDBRANCH  39  40
ENDBRANCH  32  34
ENDBRANCH  31  32
ENDBRANCH  30  31
ENDBRANCH  29  30
ENDBRANCH  28  29
ENDBRANCH   1  28
TORSDOF 19
ENDMDL
