MODEL 1
REMARK VINA RESULT:     -10.0      0.000      0.000
REMARK SMILES CC(=O)Oc1ccccc1C(=O)OCCOCCOC(=O)c1ccc(-c2c3nc(c(-c4c(F)cccc4F)c4ccc([nH]4)c(-c4c(F)cccc4F)c4nc(c(-c5c(F)cccc5F)c5ccc2[nH]5)C=C4)C=C3)cc1
REMARK SMILES IDX 16 1 15 2 14 3 13 4 11 5 12 6 10 7 5 8 6 9 7 10 9 11 8 12
REMARK SMILES IDX 4 13 2 14 1 15 3 16 17 17 18 18 19 19 20 20 21 21 22 22
REMARK SMILES IDX 23 23 75 24 24 25 74 26 25 27 26 28 27 29 68 30 28 31 73 32
REMARK SMILES IDX 67 33 69 34 29 35 72 36 66 37 65 38 30 40 56 41 39 42 55 43
REMARK SMILES IDX 40 44 43 45 54 46 70 47 41 48 42 49 53 51 71 52 44 53 31 54
REMARK SMILES IDX 32 55 37 56 33 57 34 58 36 59 38 60 35 61 57 62 58 63 63 64
REMARK SMILES IDX 59 65 60 66 62 67 64 68 61 69 45 70 46 71 51 72 47 73 48 74
REMARK SMILES IDX 50 75 52 76 49 77
REMARK H PARENT 69 39 43 50
REMARK Flexibility Score: inf
ROOT
ATOM      1  O   UNL A   1      33.238  34.545  31.638  1.00  0.00    -0.374 OA
ENDROOT
BRANCH   1   2
ATOM      2  C   UNL A   1      33.467  35.607  30.712  1.00  0.00     0.202 C 
BRANCH   2   3
ATOM      3  C   UNL A   1      33.275  35.266  29.232  1.00  0.00     0.261 C 
BRANCH   3   4
ATOM      4  O   UNL A   1      33.977  34.059  28.890  1.00  0.00    -0.460 OA
BRANCH   4   5
ATOM      5  C   UNL A   1      33.319  33.216  28.058  1.00  0.00     0.342 C 
ATOM      6  O   UNL A   1      32.286  33.464  27.452  1.00  0.00    -0.246 OA
BRANCH   5   7
ATOM      7  C   UNL A   1      34.113  31.989  27.806  1.00  0.00     0.102 A 
ATOM      8  C   UNL A   1      33.586  30.737  27.462  1.00  0.00     0.145 A 
ATOM      9  C   UNL A   1      34.432  29.636  27.279  1.00  0.00     0.048 A 
ATOM     10  C   UNL A   1      35.811  29.777  27.447  1.00  0.00     0.004 A 
ATOM     11  C   UNL A   1      35.502  32.111  27.979  1.00  0.00     0.019 A 
ATOM     12  C   UNL A   1      36.345  31.012  27.809  1.00  0.00     0.001 A 
BRANCH   8  13
ATOM     13  O   UNL A   1      32.213  30.456  27.398  1.00  0.00    -0.426 OA
BRANCH  13  14
ATOM     14  C   UNL A   1      31.830  29.413  26.564  1.00  0.00     0.308 C 
ATOM     15  C   UNL A   1      31.500  28.214  27.406  1.00  0.00     0.139 C 
ATOM     16  O   UNL A   1      31.793  29.436  25.343  1.00  0.00    -0.252 OA
ENDBRANCH  13  14
ENDBRANCH   8  13
ENDBRANCH   5   7
ENDBRANCH   4   5
ENDBRANCH   3   4
ENDBRANCH   2   3
ENDBRANCH   1   2
BRANCH   1  17
ATOM     17  C   UNL A   1      33.905  34.610  32.897  1.00  0.00     0.202 C 
BRANCH  17  18
ATOM     18  C   UNL A   1      34.683  33.360  33.324  1.00  0.00     0.261 C 
BRANCH  18  19
ATOM     19  O   UNL A   1      36.075  33.423  32.964  1.00  0.00    -0.460 OA
BRANCH  19  20
ATOM     20  C   UNL A   1      36.857  32.513  33.592  1.00  0.00     0.338 C 
ATOM     21  O   UNL A   1      36.835  32.204  34.775  1.00  0.00    -0.246 OA
BRANCH  20  22
ATOM     22  C   UNL A   1      37.686  31.784  32.616  1.00  0.00     0.060 A 
ATOM     23  C   UNL A   1      38.770  31.054  33.117  1.00  0.00     0.016 A 
ATOM     24  C   UNL A   1      37.479  31.896  31.238  1.00  0.00     0.016 A 
ATOM     25  C   UNL A   1      39.684  30.479  32.240  1.00  0.00     0.010 A 
ATOM     26  C   UNL A   1      38.403  31.319  30.358  1.00  0.00     0.010 A 
ATOM     27  C   UNL A   1      39.531  30.642  30.856  1.00  0.00    -0.014 A 
BRANCH  27  28
ATOM     28  C   UNL A   1      40.628  30.197  29.963  1.00  0.00     0.031 A 
ATOM     29  C   UNL A   1      41.775  31.126  29.676  1.00  0.00     0.074 A 
ATOM     30  C   UNL A   1      40.646  28.942  29.482  1.00  0.00     0.049 A 
ATOM     31  N   UNL A   1      42.894  30.891  29.038  1.00  0.00    -0.248 NA
ATOM     32  C   UNL A   1      41.646  32.502  30.179  1.00  0.00     0.031 C 
ATOM     33  C   UNL A   1      39.605  27.940  29.707  1.00  0.00     0.029 A 
ATOM     34  N   UNL A   1      41.587  28.291  28.726  1.00  0.00    -0.354 N 
ATOM     35  C   UNL A   1      43.607  32.083  29.072  1.00  0.00     0.074 A 
ATOM     36  C   UNL A   1      42.774  33.051  29.754  1.00  0.00     0.031 C 
ATOM     37  C   UNL A   1      39.977  26.790  29.118  1.00  0.00     0.029 A 
ATOM     38  C   UNL A   1      41.273  26.980  28.470  1.00  0.00     0.049 A 
ATOM     39  H   UNL A   1      42.408  28.724  28.398  1.00  0.00     0.167 HD
ATOM     40  C   UNL A   1      44.849  32.343  28.594  1.00  0.00     0.037 A 
ATOM     41  C   UNL A   1      41.961  26.036  27.802  1.00  0.00     0.037 A 
ATOM     42  C   UNL A   1      45.675  31.385  27.908  1.00  0.00     0.049 A 
ATOM     43  C   UNL A   1      43.315  26.362  27.237  1.00  0.00     0.074 A 
ATOM     44  C   UNL A   1      46.954  31.549  27.403  1.00  0.00     0.029 A 
ATOM     45  N   UNL A   1      45.297  30.083  27.617  1.00  0.00    -0.354 N 
ATOM     46  N   UNL A   1      43.998  27.478  27.312  1.00  0.00    -0.248 NA
ATOM     47  C   UNL A   1      43.998  25.289  26.500  1.00  0.00     0.031 C 
ATOM     48  C   UNL A   1      47.332  30.359  26.770  1.00  0.00     0.029 A 
ATOM     49  C   UNL A   1      46.307  29.439  26.919  1.00  0.00     0.049 A 
ATOM     50  H   UNL A   1      44.437  29.675  27.870  1.00  0.00     0.167 HD
ATOM     51  C   UNL A   1      45.201  27.235  26.661  1.00  0.00     0.074 A 
ATOM     52  C   UNL A   1      45.158  25.861  26.206  1.00  0.00     0.031 C 
ATOM     53  C   UNL A   1      46.249  28.074  26.463  1.00  0.00     0.037 A 
BRANCH  40  54
ATOM     54  C   UNL A   1      45.373  33.737  28.787  1.00  0.00     0.057 A 
ATOM     55  C   UNL A   1      45.149  34.748  27.841  1.00  0.00     0.134 A 
ATOM     56  C   UNL A   1      46.110  34.073  29.928  1.00  0.00     0.134 A 
ATOM     57  F   UNL A   1      44.463  34.488  26.718  1.00  0.00    -0.206 F 
ATOM     58  C   UNL A   1      45.668  36.033  28.009  1.00  0.00     0.040 A 
ATOM     59  C   UNL A   1      46.612  35.361  30.120  1.00  0.00     0.040 A 
ATOM     60  F   UNL A   1      46.356  33.155  30.874  1.00  0.00    -0.206 F 
ATOM     61  C   UNL A   1      46.400  36.344  29.155  1.00  0.00     0.006 A 
ENDBRANCH  40  54
BRANCH  41  62
ATOM     62  C   UNL A   1      41.394  24.672  27.668  1.00  0.00     0.057 A 
ATOM     63  C   UNL A   1      41.844  23.621  28.476  1.00  0.00     0.134 A 
ATOM     64  C   UNL A   1      40.388  24.389  26.739  1.00  0.00     0.134 A 
ATOM     65  F   UNL A   1      42.821  23.829  29.370  1.00  0.00    -0.206 F 
ATOM     66  C   UNL A   1      41.318  22.334  28.359  1.00  0.00     0.040 A 
ATOM     67  C   UNL A   1      39.838  23.111  26.625  1.00  0.00     0.040 A 
ATOM     68  F   UNL A   1      39.914  25.355  25.938  1.00  0.00    -0.206 F 
ATOM     69  C   UNL A   1      40.306  22.079  27.434  1.00  0.00     0.006 A 
ENDBRANCH  41  62
BRANCH  53  70
ATOM     70  C   UNL A   1      47.442  27.514  25.742  1.00  0.00     0.057 A 
ATOM     71  C   UNL A   1      48.508  26.917  26.427  1.00  0.00     0.134 A 
ATOM     72  C   UNL A   1      47.520  27.567  24.344  1.00  0.00     0.134 A 
ATOM     73  F   UNL A   1      48.502  26.846  27.767  1.00  0.00    -0.206 F 
ATOM     74  C   UNL A   1      49.624  26.421  25.750  1.00  0.00     0.040 A 
ATOM     75  C   UNL A   1      48.618  27.052  23.655  1.00  0.00     0.040 A 
ATOM     76  F   UNL A   1      46.529  28.117  23.627  1.00  0.00    -0.206 F 
ATOM     77  C   UNL A   1      49.679  26.485  24.359  1.00  0.00     0.006 A 
ENDBRANCH  53  70
ENDBRANCH  27  28
ENDBRANCH  20  22
ENDBRANCH  19  20
ENDBRANCH  18  19
ENDBRANCH  17  18
ENDBRANCH   1  17
TORSDOF 16
ENDMDL
MODEL 2
REMARK VINA RESULT:      -9.9      4.277      7.059
REMARK SMILES CC(=O)Oc1ccccc1C(=O)OCCOCCOC(=O)c1ccc(-c2c3nc(c(-c4c(F)cccc4F)c4ccc([nH]4)c(-c4c(F)cccc4F)c4nc(c(-c5c(F)cccc5F)c5ccc2[nH]5)C=C4)C=C3)cc1
REMARK SMILES IDX 16 1 15 2 14 3 13 4 11 5 12 6 10 7 5 8 6 9 7 10 9 11 8 12
REMARK SMILES IDX 4 13 2 14 1 15 3 16 17 17 18 18 19 19 20 20 21 21 22 22
REMARK SMILES IDX 23 23 75 24 24 25 74 26 25 27 26 28 27 29 68 30 28 31 73 32
REMARK SMILES IDX 67 33 69 34 29 35 72 36 66 37 65 38 30 40 56 41 39 42 55 43
REMARK SMILES IDX 40 44 43 45 54 46 70 47 41 48 42 49 53 51 71 52 44 53 31 54
REMARK SMILES IDX 32 55 37 56 33 57 34 58 36 59 38 60 35 61 57 62 58 63 63 64
REMARK SMILES IDX 59 65 60 66 62 67 64 68 61 69 45 70 46 71 51 72 47 73 48 74
REMARK SMILES IDX 50 75 52 76 49 77
REMARK H PARENT 69 39 43 50
REMARK Flexibility Score: inf
ROOT
ATOM      1  O   UNL A   1      31.908  30.731  26.123  1.00  0.00    -0.374 OA
ENDROOT
BRANCH   1   2
ATOM      2  C   UNL A   1      32.465  29.818  27.069  1.00  0.00     0.202 C 
BRANCH   2   3
ATOM      3  C   UNL A   1      33.944  29.472  26.884  1.00  0.00     0.261 C 
BRANCH   3   4
ATOM      4  O   UNL A   1      34.101  28.111  26.450  1.00  0.00    -0.460 OA
BRANCH   4   5
ATOM      5  C   UNL A   1      33.559  27.816  25.243  1.00  0.00     0.342 C 
ATOM      6  O   UNL A   1      33.994  28.164  24.155  1.00  0.00    -0.246 OA
BRANCH   5   7
ATOM      7  C   UNL A   1      32.455  26.836  25.381  1.00  0.00     0.102 A 
ATOM      8  C   UNL A   1      31.152  27.006  24.893  1.00  0.00     0.145 A 
ATOM      9  C   UNL A   1      30.178  26.025  25.111  1.00  0.00     0.048 A 
ATOM     10  C   UNL A   1      30.496  24.869  25.825  1.00  0.00     0.004 A 
ATOM     11  C   UNL A   1      32.755  25.670  26.106  1.00  0.00     0.019 A 
ATOM     12  C   UNL A   1      31.782  24.696  26.333  1.00  0.00     0.001 A 
BRANCH   8  13
ATOM     13  O   UNL A   1      30.694  28.182  24.280  1.00  0.00    -0.426 OA
BRANCH  13  14
ATOM     14  C   UNL A   1      30.126  28.046  23.020  1.00  0.00     0.308 C 
ATOM     15  C   UNL A   1      28.722  28.577  23.058  1.00  0.00     0.139 C 
ATOM     16  O   UNL A   1      30.653  27.547  22.037  1.00  0.00    -0.252 OA
ENDBRANCH  13  14
ENDBRANCH   8  13
ENDBRANCH   5   7
ENDBRANCH   4   5
ENDBRANCH   3   4
ENDBRANCH   2   3
ENDBRANCH   1   2
BRANCH   1  17
ATOM     17  C   UNL A   1      31.370  31.954  26.622  1.00  0.00     0.202 C 
BRANCH  17  18
ATOM     18  C   UNL A   1      32.371  33.088  26.874  1.00  0.00     0.261 C 
BRANCH  18  19
ATOM     19  O   UNL A   1      32.180  33.723  28.151  1.00  0.00    -0.460 OA
BRANCH  19  20
ATOM     20  C   UNL A   1      33.204  34.519  28.539  1.00  0.00     0.338 C 
ATOM     21  O   UNL A   1      33.160  35.714  28.797  1.00  0.00    -0.246 OA
BRANCH  20  22
ATOM     22  C   UNL A   1      34.419  33.719  28.775  1.00  0.00     0.060 A 
ATOM     23  C   UNL A   1      34.275  32.543  29.518  1.00  0.00     0.016 A 
ATOM     24  C   UNL A   1      35.684  34.158  28.375  1.00  0.00     0.016 A 
ATOM     25  C   UNL A   1      35.402  31.829  29.914  1.00  0.00     0.010 A 
ATOM     26  C   UNL A   1      36.816  33.439  28.777  1.00  0.00     0.010 A 
ATOM     27  C   UNL A   1      36.682  32.294  29.582  1.00  0.00    -0.014 A 
BRANCH  27  28
ATOM     28  C   UNL A   1      37.859  31.629  30.191  1.00  0.00     0.031 A 
ATOM     29  C   UNL A   1      38.209  31.908  31.627  1.00  0.00     0.074 A 
ATOM     30  C   UNL A   1      38.558  30.716  29.496  1.00  0.00     0.049 A 
ATOM     31  N   UNL A   1      39.108  31.335  32.389  1.00  0.00    -0.248 NA
ATOM     32  C   UNL A   1      37.442  32.970  32.294  1.00  0.00     0.031 C 
ATOM     33  C   UNL A   1      38.306  30.342  28.106  1.00  0.00     0.029 A 
ATOM     34  N   UNL A   1      39.610  29.920  29.877  1.00  0.00    -0.354 N 
ATOM     35  C   UNL A   1      39.006  31.958  33.626  1.00  0.00     0.074 A 
ATOM     36  C   UNL A   1      37.991  32.982  33.500  1.00  0.00     0.031 C 
ATOM     37  C   UNL A   1      39.165  29.369  27.755  1.00  0.00     0.029 A 
ATOM     38  C   UNL A   1      40.032  29.063  28.892  1.00  0.00     0.049 A 
ATOM     39  H   UNL A   1      40.021  29.961  30.770  1.00  0.00     0.167 HD
ATOM     40  C   UNL A   1      39.685  31.690  34.769  1.00  0.00     0.037 A 
ATOM     41  C   UNL A   1      40.999  28.127  28.910  1.00  0.00     0.037 A 
ATOM     42  C   UNL A   1      40.701  30.679  34.895  1.00  0.00     0.049 A 
ATOM     43  C   UNL A   1      41.773  27.882  30.175  1.00  0.00     0.074 A 
ATOM     44  C   UNL A   1      41.432  30.321  36.016  1.00  0.00     0.029 A 
ATOM     45  N   UNL A   1      41.141  29.870  33.858  1.00  0.00    -0.354 N 
ATOM     46  N   UNL A   1      41.640  28.445  31.352  1.00  0.00    -0.248 NA
ATOM     47  C   UNL A   1      42.828  26.860  30.115  1.00  0.00     0.031 C 
ATOM     48  C   UNL A   1      42.344  29.325  35.645  1.00  0.00     0.029 A 
ATOM     49  C   UNL A   1      42.151  29.031  34.305  1.00  0.00     0.049 A 
ATOM     50  H   UNL A   1      40.790  29.889  32.939  1.00  0.00     0.167 HD
ATOM     51  C   UNL A   1      42.570  27.828  32.178  1.00  0.00     0.074 A 
ATOM     52  C   UNL A   1      43.255  26.840  31.370  1.00  0.00     0.031 C 
ATOM     53  C   UNL A   1      42.830  28.057  33.490  1.00  0.00     0.037 A 
BRANCH  40  54
ATOM     54  C   UNL A   1      39.353  32.529  35.969  1.00  0.00     0.057 A 
ATOM     55  C   UNL A   1      38.418  32.112  36.927  1.00  0.00     0.134 A 
ATOM     56  C   UNL A   1      39.973  33.768  36.169  1.00  0.00     0.134 A 
ATOM     57  F   UNL A   1      37.777  30.943  36.787  1.00  0.00    -0.206 F 
ATOM     58  C   UNL A   1      38.089  32.912  38.023  1.00  0.00     0.040 A 
ATOM     59  C   UNL A   1      39.672  34.565  37.275  1.00  0.00     0.040 A 
ATOM     60  F   UNL A   1      40.881  34.225  35.293  1.00  0.00    -0.206 F 
ATOM     61  C   UNL A   1      38.720  34.143  38.201  1.00  0.00     0.006 A 
ENDBRANCH  40  54
BRANCH  41  62
ATOM     62  C   UNL A   1      41.259  27.317  27.695  1.00  0.00     0.057 A 
ATOM     63  C   UNL A   1      40.631  26.082  27.503  1.00  0.00     0.134 A 
ATOM     64  C   UNL A   1      42.134  27.761  26.698  1.00  0.00     0.134 A 
ATOM     65  F   UNL A   1      39.798  25.596  28.434  1.00  0.00    -0.206 F 
ATOM     66  C   UNL A   1      40.868  25.312  26.363  1.00  0.00     0.040 A 
ATOM     67  C   UNL A   1      42.365  27.012  25.544  1.00  0.00     0.040 A 
ATOM     68  F   UNL A   1      42.764  28.939  26.824  1.00  0.00    -0.206 F 
ATOM     69  C   UNL A   1      41.734  25.781  25.377  1.00  0.00     0.006 A 
ENDBRANCH  41  62
BRANCH  53  70
ATOM     70  C   UNL A   1      43.885  27.203  34.133  1.00  0.00     0.057 A 
ATOM     71  C   UNL A   1      45.233  27.586  34.161  1.00  0.00     0.134 A 
ATOM     72  C   UNL A   1      43.547  25.986  34.740  1.00  0.00     0.134 A 
ATOM     73  F   UNL A   1      45.626  28.734  33.587  1.00  0.00    -0.206 F 
ATOM     74  C   UNL A   1      46.211  26.775  34.740  1.00  0.00     0.040 A 
ATOM     75  C   UNL A   1      44.512  25.179  35.344  1.00  0.00     0.040 A 
ATOM     76  F   UNL A   1      42.274  25.565  34.757  1.00  0.00    -0.206 F 
ATOM     77  C   UNL A   1      45.850  25.569  35.337  1.00  0.00     0.006 A 
ENDBRANCH  53  70
ENDBRANCH  27  28
ENDBRANCH  20  22
ENDBRANCH  19  20
ENDBRANCH  18  19
ENDBRANCH  17  18
ENDBRANCH   1  17
TORSDOF 16
ENDMDL
MODEL 3
REMARK VINA RESULT:      -9.9      4.390      7.228
REMARK SMILES CC(=O)Oc1ccccc1C(=O)OCCOCCOC(=O)c1ccc(-c2c3nc(c(-c4c(F)cccc4F)c4ccc([nH]4)c(-c4c(F)cccc4F)c4nc(c(-c5c(F)cccc5F)c5ccc2[nH]5)C=C4)C=C3)cc1
REMARK SMILES IDX 16 1 15 2 14 3 13 4 11 5 12 6 10 7 5 8 6 9 7 10 9 11 8 12
REMARK SMILES IDX 4 13 2 14 1 15 3 16 17 17 18 18 19 19 20 20 21 21 22 22
REMARK SMILES IDX 23 23 75 24 24 25 74 26 25 27 26 28 27 29 68 30 28 31 73 32
REMARK SMILES IDX 67 33 69 34 29 35 72 36 66 37 65 38 30 40 56 41 39 42 55 43
REMARK SMILES IDX 40 44 43 45 54 46 70 47 41 48 42 49 53 51 71 52 44 53 31 54
REMARK SMILES IDX 32 55 37 56 33 57 34 58 36 59 38 60 35 61 57 62 58 63 63 64
REMARK SMILES IDX 59 65 60 66 62 67 64 68 61 69 45 70 46 71 51 72 47 73 48 74
REMARK SMILES IDX 50 75 52 76 49 77
REMARK H PARENT 69 39 43 50
REMARK Flexibility Score: inf
ROOT
ATOM      1  O   UNL A   1      32.806  30.412  27.483  1.00  0.00    -0.374 OA
ENDROOT
BRANCH   1   2
ATOM      2  C   UNL A   1      33.879  29.727  26.835  1.00  0.00     0.202 C 
BRANCH   2   3
ATOM      3  C   UNL A   1      33.480  28.673  25.799  1.00  0.00     0.261 C 
BRANCH   3   4
ATOM      4  O   UNL A   1      34.050  27.394  26.125  1.00  0.00    -0.460 OA
BRANCH   4   5
ATOM      5  C   UNL A   1      33.246  26.324  25.909  1.00  0.00     0.342 C 
ATOM      6  O   UNL A   1      32.053  26.257  26.167  1.00  0.00    -0.246 OA
BRANCH   5   7
ATOM      7  C   UNL A   1      33.949  25.280  25.126  1.00  0.00     0.102 A 
ATOM      8  C   UNL A   1      33.741  25.004  23.768  1.00  0.00     0.145 A 
ATOM      9  C   UNL A   1      34.441  23.968  23.138  1.00  0.00     0.048 A 
ATOM     10  C   UNL A   1      35.350  23.195  23.862  1.00  0.00     0.004 A 
ATOM     11  C   UNL A   1      34.861  24.485  25.842  1.00  0.00     0.019 A 
ATOM     12  C   UNL A   1      35.551  23.446  25.218  1.00  0.00     0.001 A 
BRANCH   8  13
ATOM     13  O   UNL A   1      32.761  25.630  22.983  1.00  0.00    -0.426 OA
BRANCH  13  14
ATOM     14  C   UNL A   1      33.210  26.338  21.875  1.00  0.00     0.308 C 
ATOM     15  C   UNL A   1      33.622  27.713  22.310  1.00  0.00     0.139 C 
ATOM     16  O   UNL A   1      33.240  25.935  20.722  1.00  0.00    -0.252 OA
ENDBRANCH  13  14
ENDBRANCH   8  13
ENDBRANCH   5   7
ENDBRANCH   4   5
ENDBRANCH   3   4
ENDBRANCH   2   3
ENDBRANCH   1   2
BRANCH   1  17
ATOM     17  C   UNL A   1      31.946  31.209  26.670  1.00  0.00     0.202 C 
BRANCH  17  18
ATOM     18  C   UNL A   1      31.790  32.679  27.078  1.00  0.00     0.261 C 
BRANCH  18  19
ATOM     19  O   UNL A   1      33.047  33.379  27.115  1.00  0.00    -0.460 OA
BRANCH  19  20
ATOM     20  C   UNL A   1      33.207  34.184  28.192  1.00  0.00     0.338 C 
ATOM     21  O   UNL A   1      32.481  35.102  28.549  1.00  0.00    -0.246 OA
BRANCH  20  22
ATOM     22  C   UNL A   1      34.332  33.718  29.021  1.00  0.00     0.060 A 
ATOM     23  C   UNL A   1      35.596  34.247  28.739  1.00  0.00     0.016 A 
ATOM     24  C   UNL A   1      34.180  32.711  29.979  1.00  0.00     0.016 A 
ATOM     25  C   UNL A   1      36.723  33.731  29.373  1.00  0.00     0.010 A 
ATOM     26  C   UNL A   1      35.315  32.192  30.613  1.00  0.00     0.010 A 
ATOM     27  C   UNL A   1      36.595  32.673  30.284  1.00  0.00    -0.014 A 
BRANCH  27  28
ATOM     28  C   UNL A   1      37.826  32.012  30.781  1.00  0.00     0.031 A 
ATOM     29  C   UNL A   1      38.325  32.316  32.166  1.00  0.00     0.074 A 
ATOM     30  C   UNL A   1      38.445  31.081  30.035  1.00  0.00     0.049 A 
ATOM     31  N   UNL A   1      39.295  31.753  32.842  1.00  0.00    -0.248 NA
ATOM     32  C   UNL A   1      37.636  33.396  32.889  1.00  0.00     0.031 C 
ATOM     33  C   UNL A   1      38.047  30.682  28.686  1.00  0.00     0.029 A 
ATOM     34  N   UNL A   1      39.527  30.287  30.320  1.00  0.00    -0.354 N 
ATOM     35  C   UNL A   1      39.326  32.400  34.070  1.00  0.00     0.074 A 
ATOM     36  C   UNL A   1      38.308  33.428  34.030  1.00  0.00     0.031 C 
ATOM     37  C   UNL A   1      38.862  29.697  28.268  1.00  0.00     0.029 A 
ATOM     38  C   UNL A   1      39.840  29.408  29.313  1.00  0.00     0.049 A 
ATOM     39  H   UNL A   1      40.029  30.342  31.164  1.00  0.00     0.167 HD
ATOM     40  C   UNL A   1      40.119  32.150  35.142  1.00  0.00     0.037 A 
ATOM     41  C   UNL A   1      40.800  28.466  29.249  1.00  0.00     0.037 A 
ATOM     42  C   UNL A   1      41.139  31.135  35.181  1.00  0.00     0.049 A 
ATOM     43  C   UNL A   1      41.700  28.240  30.432  1.00  0.00     0.074 A 
ATOM     44  C   UNL A   1      41.980  30.794  36.226  1.00  0.00     0.029 A 
ATOM     45  N   UNL A   1      41.465  30.303  34.121  1.00  0.00    -0.354 N 
ATOM     46  N   UNL A   1      41.693  28.827  31.604  1.00  0.00    -0.248 NA
ATOM     47  C   UNL A   1      42.739  27.210  30.283  1.00  0.00     0.031 C 
ATOM     48  C   UNL A   1      42.844  29.785  35.783  1.00  0.00     0.029 A 
ATOM     49  C   UNL A   1      42.511  29.466  34.477  1.00  0.00     0.049 A 
ATOM     50  H   UNL A   1      41.019  30.307  33.243  1.00  0.00     0.167 HD
ATOM     51  C   UNL A   1      42.701  28.220  32.342  1.00  0.00     0.074 A 
ATOM     52  C   UNL A   1      43.294  27.212  31.487  1.00  0.00     0.031 C 
ATOM     53  C   UNL A   1      43.098  28.472  33.614  1.00  0.00     0.037 A 
BRANCH  40  54
ATOM     54  C   UNL A   1      39.918  33.014  36.353  1.00  0.00     0.057 A 
ATOM     55  C   UNL A   1      38.971  32.698  37.337  1.00  0.00     0.134 A 
ATOM     56  C   UNL A   1      40.677  34.176  36.536  1.00  0.00     0.134 A 
ATOM     57  F   UNL A   1      38.201  31.607  37.214  1.00  0.00    -0.206 F 
ATOM     58  C   UNL A   1      38.766  33.524  38.445  1.00  0.00     0.040 A 
ATOM     59  C   UNL A   1      40.499  34.996  37.652  1.00  0.00     0.040 A 
ATOM     60  F   UNL A   1      41.603  34.534  35.635  1.00  0.00    -0.206 F 
ATOM     61  C   UNL A   1      39.534  34.676  38.606  1.00  0.00     0.006 A 
ENDBRANCH  40  54
BRANCH  41  62
ATOM     62  C   UNL A   1      40.928  27.631  28.031  1.00  0.00     0.057 A 
ATOM     63  C   UNL A   1      41.710  28.049  26.948  1.00  0.00     0.134 A 
ATOM     64  C   UNL A   1      40.280  26.396  27.922  1.00  0.00     0.134 A 
ATOM     65  F   UNL A   1      42.338  29.233  26.987  1.00  0.00    -0.206 F 
ATOM     66  C   UNL A   1      41.839  27.271  25.797  1.00  0.00     0.040 A 
ATOM     67  C   UNL A   1      40.416  25.598  26.786  1.00  0.00     0.040 A 
ATOM     68  F   UNL A   1      39.519  25.940  28.928  1.00  0.00    -0.206 F 
ATOM     69  C   UNL A   1      41.194  26.038  25.717  1.00  0.00     0.006 A 
ENDBRANCH  41  62
BRANCH  53  70
ATOM     70  C   UNL A   1      44.211  27.624  34.162  1.00  0.00     0.057 A 
ATOM     71  C   UNL A   1      45.551  28.026  34.090  1.00  0.00     0.134 A 
ATOM     72  C   UNL A   1      43.936  26.395  34.774  1.00  0.00     0.134 A 
ATOM     73  F   UNL A   1      45.884  29.187  33.505  1.00  0.00    -0.206 F 
ATOM     74  C   UNL A   1      46.581  27.220  34.580  1.00  0.00     0.040 A 
ATOM     75  C   UNL A   1      44.955  25.592  35.289  1.00  0.00     0.040 A 
ATOM     76  F   UNL A   1      42.674  25.955  34.883  1.00  0.00    -0.206 F 
ATOM     77  C   UNL A   1      46.283  26.001  35.185  1.00  0.00     0.006 A 
ENDBRANCH  53  70
ENDBRANCH  27  28
ENDBRANCH  20  22
ENDBRANCH  19  20
ENDBRANCH  18  19
ENDBRANCH  17  18
ENDBRANCH   1  17
TORSDOF 16
ENDMDL
