MODEL 1
REMARK VINA RESULT:     -10.5      0.000      0.000
REMARK SMILES CCOc1ccc(N)c(SCc2ccccc2C(=O)OCCOCCOC(=O)c2ccc(-c3c4nc(c(-c5c(F)cccc5F)c5ccc([nH]5)c(-c5c(F)cccc5F)c5nc(c(-c6c(F)cccc6F)c6ccc3[nH]6)C=C5)C=C4)cc2)c1
REMARK SMILES IDX 21 1 20 2 18 3 19 4 17 5 12 6 13 7 14 8 16 9 15 10 11 11
REMARK SMILES IDX 10 12 9 13 4 14 5 15 83 16 6 17 7 18 3 19 2 20 1 21 8 22
REMARK SMILES IDX 22 25 23 26 24 27 25 28 26 29 27 30 28 31 29 32 30 33 82 34
REMARK SMILES IDX 31 35 81 36 32 37 33 38 34 39 75 40 35 41 80 42 74 43 76 44
REMARK SMILES IDX 36 45 79 46 73 47 72 48 37 50 63 51 46 52 62 53 47 54 50 55
REMARK SMILES IDX 61 56 77 57 48 58 49 59 60 61 78 62 51 63 38 64 39 65 44 66
REMARK SMILES IDX 40 67 41 68 43 69 45 70 42 71 64 72 65 73 70 74 66 75 67 76
REMARK SMILES IDX 69 77 71 78 68 79 52 80 53 81 58 82 54 83 55 84 57 85 59 86
REMARK SMILES IDX 56 87
REMARK H PARENT 8 23 8 24 76 49 50 60
REMARK Flexibility Score: inf
ROOT
ATOM      1  C   UNL A   1      39.738  22.148  26.121  1.00  0.00     0.261 C 
ENDROOT
BRANCH   1   2
ATOM      2  O   UNL A   1      38.509  21.471  25.798  1.00  0.00    -0.460 OA
BRANCH   2   3
ATOM      3  C   UNL A   1      37.444  22.284  25.640  1.00  0.00     0.338 C 
ATOM      4  O   UNL A   1      37.500  23.490  25.440  1.00  0.00    -0.246 OA
BRANCH   3   5
ATOM      5  C   UNL A   1      36.146  21.548  25.592  1.00  0.00     0.064 A 
ATOM      6  C   UNL A   1      34.867  22.031  25.938  1.00  0.00    -0.023 A 
ATOM      7  C   UNL A   1      33.765  21.247  25.532  1.00  0.00     0.005 A 
ATOM      8  C   UNL A   1      33.903  19.989  24.949  1.00  0.00     0.000 A 
ATOM      9  C   UNL A   1      36.274  20.248  25.049  1.00  0.00     0.016 A 
ATOM     10  C   UNL A   1      35.165  19.466  24.749  1.00  0.00     0.001 A 
BRANCH   6  11
ATOM     11  C   UNL A   1      34.558  23.327  26.656  1.00  0.00     0.111 C 
BRANCH  11  12
ATOM     12  S   UNL A   1      32.875  24.034  26.340  1.00  0.00    -0.119 SA
BRANCH  12  13
ATOM     13  C   UNL A   1      33.031  25.451  25.222  1.00  0.00     0.034 A 
ATOM     14  C   UNL A   1      33.601  26.143  22.926  1.00  0.00     0.120 A 
ATOM     15  C   UNL A   1      33.462  27.471  23.292  1.00  0.00     0.048 A 
ATOM     16  C   UNL A   1      33.419  25.144  23.895  1.00  0.00     0.063 A 
ATOM     17  C   UNL A   1      33.041  27.791  24.582  1.00  0.00     0.030 A 
ATOM     18  C   UNL A   1      32.710  26.790  25.509  1.00  0.00     0.045 A 
BRANCH  14  19
ATOM     19  O   UNL A   1      33.689  25.751  21.618  1.00  0.00    -0.494 OA
BRANCH  19  20
ATOM     20  C   UNL A   1      32.471  25.534  20.899  1.00  0.00     0.226 C 
ATOM     21  C   UNL A   1      32.605  25.569  19.382  1.00  0.00     0.049 C 
ENDBRANCH  19  20
ENDBRANCH  14  19
BRANCH  18  22
ATOM     22  N   UNL A   1      32.062  27.190  26.678  1.00  0.00    -0.398 N 
ATOM     23  H   UNL A   1      31.080  27.239  26.704  1.00  0.00     0.156 HD
ATOM     24  H   UNL A   1      32.588  27.422  27.477  1.00  0.00     0.156 HD
ENDBRANCH  18  22
ENDBRANCH  12  13
ENDBRANCH  11  12
ENDBRANCH   6  11
ENDBRANCH   3   5
ENDBRANCH   2   3
ENDBRANCH   1   2
BRANCH   1  25
ATOM     25  C   UNL A   1      40.408  21.453  27.305  1.00  0.00     0.202 C 
BRANCH  25  26
ATOM     26  O   UNL A   1      41.798  21.163  27.136  1.00  0.00    -0.374 OA
BRANCH  26  27
ATOM     27  C   UNL A   1      42.281  21.100  25.791  1.00  0.00     0.202 C 
BRANCH  27  28
ATOM     28  C   UNL A   1      43.525  21.941  25.490  1.00  0.00     0.261 C 
BRANCH  28  29
ATOM     29  O   UNL A   1      43.187  23.146  24.779  1.00  0.00    -0.460 OA
BRANCH  29  30
ATOM     30  C   UNL A   1      43.946  24.222  25.078  1.00  0.00     0.338 C 
ATOM     31  O   UNL A   1      45.025  24.527  24.583  1.00  0.00    -0.246 OA
BRANCH  30  32
ATOM     32  C   UNL A   1      43.205  25.126  25.977  1.00  0.00     0.060 A 
ATOM     33  C   UNL A   1      43.689  26.435  26.118  1.00  0.00     0.016 A 
ATOM     34  C   UNL A   1      42.095  24.700  26.707  1.00  0.00     0.016 A 
ATOM     35  C   UNL A   1      43.103  27.302  27.036  1.00  0.00     0.010 A 
ATOM     36  C   UNL A   1      41.513  25.568  27.637  1.00  0.00     0.010 A 
ATOM     37  C   UNL A   1      42.041  26.858  27.832  1.00  0.00    -0.014 A 
BRANCH  37  38
ATOM     38  C   UNL A   1      41.590  27.689  28.975  1.00  0.00     0.031 A 
ATOM     39  C   UNL A   1      42.338  27.601  30.277  1.00  0.00     0.074 A 
ATOM     40  C   UNL A   1      40.556  28.539  28.847  1.00  0.00     0.049 A 
ATOM     41  N   UNL A   1      42.108  28.213  31.411  1.00  0.00    -0.248 NA
ATOM     42  C   UNL A   1      43.503  26.702  30.305  1.00  0.00     0.031 C 
ATOM     43  C   UNL A   1      39.781  28.747  27.626  1.00  0.00     0.029 A 
ATOM     44  N   UNL A   1      39.980  29.383  29.762  1.00  0.00    -0.354 N 
ATOM     45  C   UNL A   1      43.090  27.768  32.286  1.00  0.00     0.074 A 
ATOM     46  C   UNL A   1      43.901  26.812  31.563  1.00  0.00     0.031 C 
ATOM     47  C   UNL A   1      38.821  29.656  27.871  1.00  0.00     0.029 A 
ATOM     48  C   UNL A   1      38.896  30.068  29.271  1.00  0.00     0.049 A 
ATOM     49  H   UNL A   1      40.313  29.488  30.683  1.00  0.00     0.167 HD
ATOM     50  C   UNL A   1      43.306  28.131  33.573  1.00  0.00     0.037 A 
ATOM     51  C   UNL A   1      38.049  30.913  29.890  1.00  0.00     0.037 A 
ATOM     52  C   UNL A   1      42.500  29.084  34.291  1.00  0.00     0.049 A 
ATOM     53  C   UNL A   1      38.263  31.243  31.343  1.00  0.00     0.074 A 
ATOM     54  C   UNL A   1      42.648  29.532  35.592  1.00  0.00     0.029 A 
ATOM     55  N   UNL A   1      41.388  29.727  33.771  1.00  0.00    -0.354 N 
ATOM     56  N   UNL A   1      39.209  30.837  32.156  1.00  0.00    -0.248 NA
ATOM     57  C   UNL A   1      37.290  32.151  31.967  1.00  0.00     0.031 C 
ATOM     58  C   UNL A   1      41.596  30.407  35.875  1.00  0.00     0.029 A 
ATOM     59  C   UNL A   1      40.824  30.548  34.733  1.00  0.00     0.049 A 
ATOM     60  H   UNL A   1      41.049  29.617  32.853  1.00  0.00     0.167 HD
ATOM     61  C   UNL A   1      38.964  31.462  33.372  1.00  0.00     0.074 A 
ATOM     62  C   UNL A   1      37.786  32.284  33.189  1.00  0.00     0.031 C 
ATOM     63  C   UNL A   1      39.655  31.367  34.536  1.00  0.00     0.037 A 
BRANCH  50  64
ATOM     64  C   UNL A   1      44.447  27.475  34.294  1.00  0.00     0.057 A 
ATOM     65  C   UNL A   1      44.312  26.228  34.918  1.00  0.00     0.134 A 
ATOM     66  C   UNL A   1      45.707  28.087  34.339  1.00  0.00     0.134 A 
ATOM     67  F   UNL A   1      43.129  25.596  34.924  1.00  0.00    -0.206 F 
ATOM     68  C   UNL A   1      45.382  25.624  35.581  1.00  0.00     0.040 A 
ATOM     69  C   UNL A   1      46.790  27.480  34.975  1.00  0.00     0.040 A 
ATOM     70  F   UNL A   1      45.907  29.279  33.757  1.00  0.00    -0.206 F 
ATOM     71  C   UNL A   1      46.628  26.249  35.605  1.00  0.00     0.006 A 
ENDBRANCH  50  64
BRANCH  51  72
ATOM     72  C   UNL A   1      36.909  31.502  29.143  1.00  0.00     0.057 A 
ATOM     73  C   UNL A   1      36.944  32.825  28.690  1.00  0.00     0.134 A 
ATOM     74  C   UNL A   1      35.748  30.762  28.885  1.00  0.00     0.134 A 
ATOM     75  F   UNL A   1      38.017  33.593  28.928  1.00  0.00    -0.206 F 
ATOM     76  C   UNL A   1      35.860  33.398  28.022  1.00  0.00     0.040 A 
ATOM     77  C   UNL A   1      34.667  31.314  28.196  1.00  0.00     0.040 A 
ATOM     78  F   UNL A   1      35.652  29.488  29.292  1.00  0.00    -0.206 F 
ATOM     79  C   UNL A   1      34.719  32.640  27.769  1.00  0.00     0.006 A 
ENDBRANCH  51  72
BRANCH  63  80
ATOM     80  C   UNL A   1      39.180  32.201  35.692  1.00  0.00     0.057 A 
ATOM     81  C   UNL A   1      39.559  33.541  35.844  1.00  0.00     0.134 A 
ATOM     82  C   UNL A   1      38.299  31.666  36.640  1.00  0.00     0.134 A 
ATOM     83  F   UNL A   1      40.409  34.110  34.977  1.00  0.00    -0.206 F 
ATOM     84  C   UNL A   1      39.095  34.313  36.911  1.00  0.00     0.040 A 
ATOM     85  C   UNL A   1      37.806  32.435  37.695  1.00  0.00     0.040 A 
ATOM     86  F   UNL A   1      37.889  30.392  36.548  1.00  0.00    -0.206 F 
ATOM     87  C   UNL A   1      38.210  33.762  37.836  1.00  0.00     0.006 A 
ENDBRANCH  63  80
ENDBRANCH  37  38
ENDBRANCH  30  32
ENDBRANCH  29  30
ENDBRANCH  28  29
ENDBRANCH  27  28
ENDBRANCH  26  27
ENDBRANCH  25  26
ENDBRANCH   1  25
TORSDOF 20
ENDMDL
MODEL 2
REMARK VINA RESULT:     -10.4      2.560      8.013
REMARK SMILES CCOc1ccc(N)c(SCc2ccccc2C(=O)OCCOCCOC(=O)c2ccc(-c3c4nc(c(-c5c(F)cccc5F)c5ccc([nH]5)c(-c5c(F)cccc5F)c5nc(c(-c6c(F)cccc6F)c6ccc3[nH]6)C=C5)C=C4)cc2)c1
REMARK SMILES IDX 21 1 20 2 18 3 19 4 17 5 12 6 13 7 14 8 16 9 15 10 11 11
REMARK SMILES IDX 10 12 9 13 4 14 5 15 83 16 6 17 7 18 3 19 2 20 1 21 8 22
REMARK SMILES IDX 22 25 23 26 24 27 25 28 26 29 27 30 28 31 29 32 30 33 82 34
REMARK SMILES IDX 31 35 81 36 32 37 33 38 34 39 75 40 35 41 80 42 74 43 76 44
REMARK SMILES IDX 36 45 79 46 73 47 72 48 37 50 63 51 46 52 62 53 47 54 50 55
REMARK SMILES IDX 61 56 77 57 48 58 49 59 60 61 78 62 51 63 38 64 39 65 44 66
REMARK SMILES IDX 40 67 41 68 43 69 45 70 42 71 64 72 65 73 70 74 66 75 67 76
REMARK SMILES IDX 69 77 71 78 68 79 52 80 53 81 58 82 54 83 55 84 57 85 59 86
REMARK SMILES IDX 56 87
REMARK H PARENT 8 23 8 24 76 49 50 60
REMARK Flexibility Score: inf
ROOT
ATOM      1  C   UNL A   1      33.351  28.272  26.806  1.00  0.00     0.261 C 
ENDROOT
BRANCH   1   2
ATOM      2  O   UNL A   1      33.229  26.872  26.500  1.00  0.00    -0.460 OA
BRANCH   2   3
ATOM      3  C   UNL A   1      31.960  26.436  26.353  1.00  0.00     0.338 C 
ATOM      4  O   UNL A   1      30.987  26.887  26.940  1.00  0.00    -0.246 OA
BRANCH   3   5
ATOM      5  C   UNL A   1      31.812  25.410  25.278  1.00  0.00     0.064 A 
ATOM      6  C   UNL A   1      31.289  24.105  25.396  1.00  0.00    -0.023 A 
ATOM      7  C   UNL A   1      30.983  23.436  24.191  1.00  0.00     0.005 A 
ATOM      8  C   UNL A   1      31.304  23.951  22.936  1.00  0.00     0.000 A 
ATOM      9  C   UNL A   1      32.182  25.897  24.003  1.00  0.00     0.016 A 
ATOM     10  C   UNL A   1      31.949  25.167  22.843  1.00  0.00     0.001 A 
BRANCH   6  11
ATOM     11  C   UNL A   1      30.978  23.373  26.683  1.00  0.00     0.111 C 
BRANCH  11  12
ATOM     12  S   UNL A   1      32.449  22.755  27.627  1.00  0.00    -0.119 SA
BRANCH  12  13
ATOM     13  C   UNL A   1      33.720  22.220  26.453  1.00  0.00     0.034 A 
ATOM     14  C   UNL A   1      35.733  22.919  25.216  1.00  0.00     0.120 A 
ATOM     15  C   UNL A   1      35.757  21.697  24.563  1.00  0.00     0.048 A 
ATOM     16  C   UNL A   1      34.701  23.187  26.128  1.00  0.00     0.063 A 
ATOM     17  C   UNL A   1      34.824  20.718  24.899  1.00  0.00     0.030 A 
ATOM     18  C   UNL A   1      33.884  20.927  25.921  1.00  0.00     0.045 A 
BRANCH  14  19
ATOM     19  O   UNL A   1      36.790  23.788  25.178  1.00  0.00    -0.494 OA
BRANCH  19  20
ATOM     20  C   UNL A   1      38.006  23.393  25.820  1.00  0.00     0.226 C 
ATOM     21  C   UNL A   1      38.582  24.415  26.791  1.00  0.00     0.049 C 
ENDBRANCH  19  20
ENDBRANCH  14  19
BRANCH  18  22
ATOM     22  N   UNL A   1      33.162  19.818  26.364  1.00  0.00    -0.398 N 
ATOM     23  H   UNL A   1      32.547  19.905  27.127  1.00  0.00     0.156 HD
ATOM     24  H   UNL A   1      33.267  18.950  25.912  1.00  0.00     0.156 HD
ENDBRANCH  18  22
ENDBRANCH  12  13
ENDBRANCH  11  12
ENDBRANCH   6  11
ENDBRANCH   3   5
ENDBRANCH   2   3
ENDBRANCH   1   2
BRANCH   1  25
ATOM     25  C   UNL A   1      33.529  29.065  25.513  1.00  0.00     0.202 C 
BRANCH  25  26
ATOM     26  O   UNL A   1      32.487  29.998  25.221  1.00  0.00    -0.374 OA
BRANCH  26  27
ATOM     27  C   UNL A   1      31.766  30.525  26.339  1.00  0.00     0.202 C 
BRANCH  27  28
ATOM     28  C   UNL A   1      31.872  32.039  26.547  1.00  0.00     0.261 C 
BRANCH  28  29
ATOM     29  O   UNL A   1      32.455  32.356  27.823  1.00  0.00    -0.460 OA
BRANCH  29  30
ATOM     30  C   UNL A   1      33.446  33.273  27.790  1.00  0.00     0.338 C 
ATOM     31  O   UNL A   1      33.328  34.485  27.651  1.00  0.00    -0.246 OA
BRANCH  30  32
ATOM     32  C   UNL A   1      34.729  32.640  28.143  1.00  0.00     0.060 A 
ATOM     33  C   UNL A   1      34.718  31.265  28.419  1.00  0.00     0.016 A 
ATOM     34  C   UNL A   1      35.912  33.373  28.255  1.00  0.00     0.016 A 
ATOM     35  C   UNL A   1      35.872  30.631  28.868  1.00  0.00     0.010 A 
ATOM     36  C   UNL A   1      37.070  32.738  28.716  1.00  0.00     0.010 A 
ATOM     37  C   UNL A   1      37.044  31.374  29.062  1.00  0.00    -0.014 A 
BRANCH  37  38
ATOM     38  C   UNL A   1      38.188  30.757  29.775  1.00  0.00     0.031 A 
ATOM     39  C   UNL A   1      38.421  31.109  31.219  1.00  0.00     0.074 A 
ATOM     40  C   UNL A   1      38.987  29.867  29.161  1.00  0.00     0.049 A 
ATOM     41  N   UNL A   1      39.369  30.713  32.029  1.00  0.00    -0.248 NA
ATOM     42  C   UNL A   1      37.453  32.034  31.832  1.00  0.00     0.031 C 
ATOM     43  C   UNL A   1      38.838  29.410  27.780  1.00  0.00     0.029 A 
ATOM     44  N   UNL A   1      40.087  29.190  29.625  1.00  0.00    -0.354 N 
ATOM     45  C   UNL A   1      39.118  31.343  33.241  1.00  0.00     0.074 A 
ATOM     46  C   UNL A   1      37.947  32.173  33.053  1.00  0.00     0.031 C 
ATOM     47  C   UNL A   1      39.819  28.533  27.505  1.00  0.00     0.029 A 
ATOM     48  C   UNL A   1      40.680  28.393  28.678  1.00  0.00     0.049 A 
ATOM     49  H   UNL A   1      40.418  29.269  30.548  1.00  0.00     0.167 HD
ATOM     50  C   UNL A   1      39.794  31.234  34.408  1.00  0.00     0.037 A 
ATOM     51  C   UNL A   1      41.802  27.651  28.746  1.00  0.00     0.037 A 
ATOM     52  C   UNL A   1      40.959  30.407  34.595  1.00  0.00     0.049 A 
ATOM     53  C   UNL A   1      42.582  27.606  30.033  1.00  0.00     0.074 A 
ATOM     54  C   UNL A   1      41.704  30.214  35.745  1.00  0.00     0.029 A 
ATOM     55  N   UNL A   1      41.551  29.643  33.602  1.00  0.00    -0.354 N 
ATOM     56  N   UNL A   1      42.324  28.185  31.181  1.00  0.00    -0.248 NA
ATOM     57  C   UNL A   1      43.812  26.800  30.035  1.00  0.00     0.031 C 
ATOM     58  C   UNL A   1      42.778  29.375  35.434  1.00  0.00     0.029 A 
ATOM     59  C   UNL A   1      42.669  28.999  34.105  1.00  0.00     0.049 A 
ATOM     60  H   UNL A   1      41.225  29.570  32.676  1.00  0.00     0.167 HD
ATOM     61  C   UNL A   1      43.336  27.790  32.046  1.00  0.00     0.074 A 
ATOM     62  C   UNL A   1      44.209  26.912  31.295  1.00  0.00     0.031 C 
ATOM     63  C   UNL A   1      43.525  28.122  33.347  1.00  0.00     0.037 A 
BRANCH  50  64
ATOM     64  C   UNL A   1      39.305  32.048  35.571  1.00  0.00     0.057 A 
ATOM     65  C   UNL A   1      38.423  31.526  36.525  1.00  0.00     0.134 A 
ATOM     66  C   UNL A   1      39.747  33.366  35.753  1.00  0.00     0.134 A 
ATOM     67  F   UNL A   1      37.950  30.276  36.401  1.00  0.00    -0.206 F 
ATOM     68  C   UNL A   1      37.979  32.291  37.604  1.00  0.00     0.040 A 
ATOM     69  C   UNL A   1      39.332  34.131  36.843  1.00  0.00     0.040 A 
ATOM     70  F   UNL A   1      40.598  33.926  34.879  1.00  0.00    -0.206 F 
ATOM     71  C   UNL A   1      38.440  33.596  37.770  1.00  0.00     0.006 A 
ENDBRANCH  50  64
BRANCH  51  72
ATOM     72  C   UNL A   1      42.269  26.898  27.555  1.00  0.00     0.057 A 
ATOM     73  C   UNL A   1      42.059  25.520  27.438  1.00  0.00     0.134 A 
ATOM     74  C   UNL A   1      42.958  27.536  26.514  1.00  0.00     0.134 A 
ATOM     75  F   UNL A   1      41.427  24.849  28.412  1.00  0.00    -0.206 F 
ATOM     76  C   UNL A   1      42.530  24.798  26.339  1.00  0.00     0.040 A 
ATOM     77  C   UNL A   1      43.412  26.832  25.398  1.00  0.00     0.040 A 
ATOM     78  F   UNL A   1      43.192  28.855  26.565  1.00  0.00    -0.206 F 
ATOM     79  C   UNL A   1      43.205  25.456  25.313  1.00  0.00     0.006 A 
ENDBRANCH  51  72
BRANCH  63  80
ATOM     80  C   UNL A   1      44.697  27.504  34.056  1.00  0.00     0.057 A 
ATOM     81  C   UNL A   1      45.937  28.150  34.142  1.00  0.00     0.134 A 
ATOM     82  C   UNL A   1      44.568  26.264  34.696  1.00  0.00     0.134 A 
ATOM     83  F   UNL A   1      46.130  29.333  33.541  1.00  0.00    -0.206 F 
ATOM     84  C   UNL A   1      47.013  27.574  34.821  1.00  0.00     0.040 A 
ATOM     85  C   UNL A   1      45.628  25.692  35.400  1.00  0.00     0.040 A 
ATOM     86  F   UNL A   1      43.406  25.596  34.660  1.00  0.00    -0.206 F 
ATOM     87  C   UNL A   1      46.858  26.345  35.459  1.00  0.00     0.006 A 
ENDBRANCH  63  80
ENDBRANCH  37  38
ENDBRANCH  30  32
ENDBRANCH  29  30
ENDBRANCH  28  29
ENDBRANCH  27  28
ENDBRANCH  26  27
ENDBRANCH  25  26
ENDBRANCH   1  25
TORSDOF 20
ENDMDL
MODEL 3
REMARK VINA RESULT:     -10.4      2.889      8.496
REMARK SMILES CCOc1ccc(N)c(SCc2ccccc2C(=O)OCCOCCOC(=O)c2ccc(-c3c4nc(c(-c5c(F)cccc5F)c5ccc([nH]5)c(-c5c(F)cccc5F)c5nc(c(-c6c(F)cccc6F)c6ccc3[nH]6)C=C5)C=C4)cc2)c1
REMARK SMILES IDX 21 1 20 2 18 3 19 4 17 5 12 6 13 7 14 8 16 9 15 10 11 11
REMARK SMILES IDX 10 12 9 13 4 14 5 15 83 16 6 17 7 18 3 19 2 20 1 21 8 22
REMARK SMILES IDX 22 25 23 26 24 27 25 28 26 29 27 30 28 31 29 32 30 33 82 34
REMARK SMILES IDX 31 35 81 36 32 37 33 38 34 39 75 40 35 41 80 42 74 43 76 44
REMARK SMILES IDX 36 45 79 46 73 47 72 48 37 50 63 51 46 52 62 53 47 54 50 55
REMARK SMILES IDX 61 56 77 57 48 58 49 59 60 61 78 62 51 63 38 64 39 65 44 66
REMARK SMILES IDX 40 67 41 68 43 69 45 70 42 71 64 72 65 73 70 74 66 75 67 76
REMARK SMILES IDX 69 77 71 78 68 79 52 80 53 81 58 82 54 83 55 84 57 85 59 86
REMARK SMILES IDX 56 87
REMARK H PARENT 8 23 8 24 76 49 50 60
REMARK Flexibility Score: inf
ROOT
ATOM      1  C   UNL A   1      33.626  29.141  27.553  1.00  0.00     0.261 C 
ENDROOT
BRANCH   1   2
ATOM      2  O   UNL A   1      33.315  28.103  26.607  1.00  0.00    -0.460 OA
BRANCH   2   3
ATOM      3  C   UNL A   1      32.032  27.687  26.628  1.00  0.00     0.338 C 
ATOM      4  O   UNL A   1      31.342  27.578  27.632  1.00  0.00    -0.246 OA
BRANCH   3   5
ATOM      5  C   UNL A   1      31.456  27.488  25.265  1.00  0.00     0.064 A 
ATOM      6  C   UNL A   1      30.389  26.644  24.892  1.00  0.00    -0.023 A 
ATOM      7  C   UNL A   1      29.841  26.849  23.608  1.00  0.00     0.005 A 
ATOM      8  C   UNL A   1      30.395  27.727  22.678  1.00  0.00     0.000 A 
ATOM      9  C   UNL A   1      32.042  28.336  24.295  1.00  0.00     0.016 A 
ATOM     10  C   UNL A   1      31.530  28.441  23.007  1.00  0.00     0.001 A 
BRANCH   6  11
ATOM     11  C   UNL A   1      29.743  25.579  25.751  1.00  0.00     0.111 C 
BRANCH  11  12
ATOM     12  S   UNL A   1      30.833  24.153  26.212  1.00  0.00    -0.119 SA
BRANCH  12  13
ATOM     13  C   UNL A   1      32.235  24.089  25.066  1.00  0.00     0.034 A 
ATOM     14  C   UNL A   1      34.688  24.247  24.883  1.00  0.00     0.120 A 
ATOM     15  C   UNL A   1      34.592  24.146  23.505  1.00  0.00     0.048 A 
ATOM     16  C   UNL A   1      33.514  24.252  25.652  1.00  0.00     0.063 A 
ATOM     17  C   UNL A   1      33.346  23.944  22.914  1.00  0.00     0.030 A 
ATOM     18  C   UNL A   1      32.186  23.795  23.691  1.00  0.00     0.045 A 
BRANCH  14  19
ATOM     19  O   UNL A   1      35.879  24.118  25.544  1.00  0.00    -0.494 OA
BRANCH  19  20
ATOM     20  C   UNL A   1      36.885  23.286  24.959  1.00  0.00     0.226 C 
ATOM     21  C   UNL A   1      38.104  23.037  25.836  1.00  0.00     0.049 C 
ENDBRANCH  19  20
ENDBRANCH  14  19
BRANCH  18  22
ATOM     22  N   UNL A   1      31.034  23.348  23.043  1.00  0.00    -0.398 N 
ATOM     23  H   UNL A   1      30.807  22.390  23.048  1.00  0.00     0.156 HD
ATOM     24  H   UNL A   1      30.449  23.990  22.581  1.00  0.00     0.156 HD
ENDBRANCH  18  22
ENDBRANCH  12  13
ENDBRANCH  11  12
ENDBRANCH   6  11
ENDBRANCH   3   5
ENDBRANCH   2   3
ENDBRANCH   1   2
BRANCH   1  25
ATOM     25  C   UNL A   1      33.299  30.503  26.944  1.00  0.00     0.202 C 
BRANCH  25  26
ATOM     26  O   UNL A   1      31.913  30.855  26.944  1.00  0.00    -0.374 OA
BRANCH  26  27
ATOM     27  C   UNL A   1      31.604  32.246  26.818  1.00  0.00     0.202 C 
BRANCH  27  28
ATOM     28  C   UNL A   1      32.708  33.215  27.251  1.00  0.00     0.261 C 
BRANCH  28  29
ATOM     29  O   UNL A   1      32.188  34.271  28.079  1.00  0.00    -0.460 OA
BRANCH  29  30
ATOM     30  C   UNL A   1      33.119  35.030  28.695  1.00  0.00     0.338 C 
ATOM     31  O   UNL A   1      33.005  36.198  29.052  1.00  0.00    -0.246 OA
BRANCH  30  32
ATOM     32  C   UNL A   1      34.276  34.199  29.073  1.00  0.00     0.060 A 
ATOM     33  C   UNL A   1      34.033  33.084  29.888  1.00  0.00     0.016 A 
ATOM     34  C   UNL A   1      35.579  34.523  28.688  1.00  0.00     0.016 A 
ATOM     35  C   UNL A   1      35.095  32.326  30.373  1.00  0.00     0.010 A 
ATOM     36  C   UNL A   1      36.647  33.766  29.183  1.00  0.00     0.010 A 
ATOM     37  C   UNL A   1      36.410  32.691  30.059  1.00  0.00    -0.014 A 
BRANCH  37  38
ATOM     38  C   UNL A   1      37.536  32.043  30.776  1.00  0.00     0.031 A 
ATOM     39  C   UNL A   1      38.333  30.982  30.069  1.00  0.00     0.074 A 
ATOM     40  C   UNL A   1      37.869  32.419  32.023  1.00  0.00     0.049 A 
ATOM     41  N   UNL A   1      39.338  30.267  30.507  1.00  0.00    -0.248 NA
ATOM     42  C   UNL A   1      37.945  30.687  28.680  1.00  0.00     0.031 C 
ATOM     43  C   UNL A   1      37.203  33.465  32.796  1.00  0.00     0.029 A 
ATOM     44  N   UNL A   1      38.856  31.957  32.857  1.00  0.00    -0.354 N 
ATOM     45  C   UNL A   1      39.696  29.435  29.453  1.00  0.00     0.074 A 
ATOM     46  C   UNL A   1      38.782  29.710  28.366  1.00  0.00     0.031 C 
ATOM     47  C   UNL A   1      37.795  33.558  34.000  1.00  0.00     0.029 A 
ATOM     48  C   UNL A   1      38.858  32.559  34.091  1.00  0.00     0.049 A 
ATOM     49  H   UNL A   1      39.500  31.260  32.596  1.00  0.00     0.167 HD
ATOM     50  C   UNL A   1      40.702  28.530  29.393  1.00  0.00     0.037 A 
ATOM     51  C   UNL A   1      39.618  32.315  35.175  1.00  0.00     0.037 A 
ATOM     52  C   UNL A   1      41.612  28.258  30.476  1.00  0.00     0.049 A 
ATOM     53  C   UNL A   1      40.680  31.250  35.110  1.00  0.00     0.074 A 
ATOM     54  C   UNL A   1      42.675  27.373  30.507  1.00  0.00     0.029 A 
ATOM     55  N   UNL A   1      41.558  28.862  31.722  1.00  0.00    -0.354 N 
ATOM     56  N   UNL A   1      41.028  30.486  34.103  1.00  0.00    -0.248 NA
ATOM     57  C   UNL A   1      41.459  31.014  36.335  1.00  0.00     0.031 C 
ATOM     58  C   UNL A   1      43.232  27.403  31.788  1.00  0.00     0.029 A 
ATOM     59  C   UNL A   1      42.552  28.349  32.539  1.00  0.00     0.049 A 
ATOM     60  H   UNL A   1      40.909  29.553  31.987  1.00  0.00     0.167 HD
ATOM     61  C   UNL A   1      42.081  29.704  34.561  1.00  0.00     0.074 A 
ATOM     62  C   UNL A   1      42.325  30.094  35.934  1.00  0.00     0.031 C 
ATOM     63  C   UNL A   1      42.787  28.751  33.902  1.00  0.00     0.037 A 
BRANCH  50  64
ATOM     64  C   UNL A   1      40.855  27.750  28.120  1.00  0.00     0.057 A 
ATOM     65  C   UNL A   1      41.638  28.213  27.055  1.00  0.00     0.134 A 
ATOM     66  C   UNL A   1      40.234  26.503  27.970  1.00  0.00     0.134 A 
ATOM     67  F   UNL A   1      42.249  29.406  27.129  1.00  0.00    -0.206 F 
ATOM     68  C   UNL A   1      41.779  27.476  25.878  1.00  0.00     0.040 A 
ATOM     69  C   UNL A   1      40.389  25.745  26.809  1.00  0.00     0.040 A 
ATOM     70  F   UNL A   1      39.474  25.997  28.954  1.00  0.00    -0.206 F 
ATOM     71  C   UNL A   1      41.158  26.234  25.756  1.00  0.00     0.006 A 
ENDBRANCH  50  64
BRANCH  51  72
ATOM     72  C   UNL A   1      39.398  33.084  36.426  1.00  0.00     0.057 A 
ATOM     73  C   UNL A   1      40.102  34.265  36.687  1.00  0.00     0.134 A 
ATOM     74  C   UNL A   1      38.493  32.644  37.401  1.00  0.00     0.134 A 
ATOM     75  F   UNL A   1      41.000  34.724  35.803  1.00  0.00    -0.206 F 
ATOM     76  C   UNL A   1      39.929  34.972  37.878  1.00  0.00     0.040 A 
ATOM     77  C   UNL A   1      38.291  33.354  38.585  1.00  0.00     0.040 A 
ATOM     78  F   UNL A   1      37.786  31.520  37.212  1.00  0.00    -0.206 F 
ATOM     79  C   UNL A   1      39.017  34.519  38.830  1.00  0.00     0.006 A 
ENDBRANCH  51  72
BRANCH  63  80
ATOM     80  C   UNL A   1      43.915  28.090  34.643  1.00  0.00     0.057 A 
ATOM     81  C   UNL A   1      43.741  26.887  35.338  1.00  0.00     0.134 A 
ATOM     82  C   UNL A   1      45.201  28.646  34.623  1.00  0.00     0.134 A 
ATOM     83  F   UNL A   1      42.533  26.308  35.406  1.00  0.00    -0.206 F 
ATOM     84  C   UNL A   1      44.802  26.271  36.006  1.00  0.00     0.040 A 
ATOM     85  C   UNL A   1      46.275  28.025  35.263  1.00  0.00     0.040 A 
ATOM     86  F   UNL A   1      45.438  29.792  33.968  1.00  0.00    -0.206 F 
ATOM     87  C   UNL A   1      46.075  26.837  35.962  1.00  0.00     0.006 A 
ENDBRANCH  63  80
ENDBRANCH  37  38
ENDBRANCH  30  32
ENDBRANCH  29  30
ENDBRANCH  28  29
ENDBRANCH  27  28
ENDBRANCH  26  27
ENDBRANCH  25  26
ENDBRANCH   1  25
TORSDOF 20
ENDMDL
