MODEL 1
REMARK VINA RESULT:     -11.5      0.000      0.000
REMARK SMILES Cc1c(Cl)cc2c(c1C)O[C@@H](C(F)(F)F)C(C(=O)OCCOCCOC(=O)c1ccc(-c3c4nc(c(-c5c(F)cccc5F)c5ccc([nH]5)c(-c5c(F)cccc5F)c5nc(c(-c6c(F)cccc6F)c6ccc3[nH]6)C=C5)C=C4)cc1)=C2
REMARK SMILES IDX 23 1 22 2 21 3 20 4 19 5 17 6 18 7 16 8 1 9 2 10 3 11 8 12
REMARK SMILES IDX 4 13 5 14 7 15 9 16 6 17 10 18 82 19 11 20 12 21 13 22 14 23
REMARK SMILES IDX 15 24 24 25 25 26 26 27 27 28 28 29 29 30 81 31 30 32 80 33
REMARK SMILES IDX 31 34 32 35 33 36 74 37 34 38 79 39 73 40 75 41 35 42 78 43
REMARK SMILES IDX 72 44 71 45 36 47 62 48 45 49 61 50 46 51 49 52 60 53 76 54
REMARK SMILES IDX 47 55 48 56 59 58 77 59 50 60 37 61 38 62 43 63 39 64 40 65
REMARK SMILES IDX 42 66 44 67 41 68 63 69 64 70 69 71 65 72 66 73 68 74 70 75
REMARK SMILES IDX 67 76 51 77 52 78 57 79 53 80 54 81 56 82 58 83 55 84
REMARK H PARENT 75 46 49 57
REMARK Flexibility Score: inf
ROOT
ATOM      1  C   UNL A   1      42.238  20.900  26.667  1.00  0.00     0.202 C 
ENDROOT
BRANCH   1   2
ATOM      2  O   UNL A   1      41.170  20.207  26.014  1.00  0.00    -0.374 OA
BRANCH   2   3
ATOM      3  C   UNL A   1      39.841  20.559  26.397  1.00  0.00     0.202 C 
BRANCH   3   4
ATOM      4  C   UNL A   1      39.289  21.829  25.747  1.00  0.00     0.261 C 
BRANCH   4   5
ATOM      5  O   UNL A   1      37.912  22.023  26.117  1.00  0.00    -0.460 OA
BRANCH   5   6
ATOM      6  C   UNL A   1      37.500  23.305  26.120  1.00  0.00     0.338 C 
ATOM      7  O   UNL A   1      38.214  24.295  26.212  1.00  0.00    -0.246 OA
BRANCH   6   8
ATOM      8  C   UNL A   1      36.049  23.380  25.877  1.00  0.00     0.087 C 
ATOM      9  C   UNL A   1      29.907  25.575  25.912  1.00  0.00     0.046 C 
ATOM     10  C   UNL A   1      31.367  25.249  25.717  1.00  0.00    -0.026 A 
ATOM     11  C   UNL A   1      32.253  26.264  25.294  1.00  0.00     0.045 A 
ATOM     12  C   UNL A   1      31.902  23.976  26.051  1.00  0.00    -0.004 A 
ATOM     13  Cl  UNL A   1      31.717  27.870  24.929  1.00  0.00    -0.084 Cl
ATOM     14  C   UNL A   1      33.625  26.030  25.195  1.00  0.00     0.032 A 
ATOM     15  C   UNL A   1      33.294  23.757  25.941  1.00  0.00     0.131 A 
ATOM     16  C   UNL A   1      31.047  22.823  26.522  1.00  0.00     0.049 C 
ATOM     17  C   UNL A   1      34.148  24.787  25.538  1.00  0.00     0.019 A 
ATOM     18  O   UNL A   1      33.774  22.531  26.335  1.00  0.00    -0.475 OA
ATOM     19  C   UNL A   1      35.584  24.608  25.615  1.00  0.00     0.027 C 
ATOM     20  C   UNL A   1      35.150  22.180  25.997  1.00  0.00     0.316 C 
BRANCH  20  21
ATOM     21  C   UNL A   1      35.147  21.255  24.763  1.00  0.00     0.430 C 
ATOM     22  F   UNL A   1      35.740  20.064  25.010  1.00  0.00    -0.167 F 
ATOM     23  F   UNL A   1      33.896  20.999  24.317  1.00  0.00    -0.167 F 
ATOM     24  F   UNL A   1      35.809  21.821  23.722  1.00  0.00    -0.167 F 
ENDBRANCH  20  21
ENDBRANCH   6   8
ENDBRANCH   5   6
ENDBRANCH   4   5
ENDBRANCH   3   4
ENDBRANCH   2   3
ENDBRANCH   1   2
BRANCH   1  25
ATOM     25  C   UNL A   1      43.300  21.510  25.746  1.00  0.00     0.261 C 
BRANCH  25  26
ATOM     26  O   UNL A   1      42.772  22.644  25.034  1.00  0.00    -0.460 OA
BRANCH  26  27
ATOM     27  C   UNL A   1      43.507  23.773  25.132  1.00  0.00     0.338 C 
ATOM     28  O   UNL A   1      44.557  24.028  24.554  1.00  0.00    -0.246 OA
BRANCH  27  29
ATOM     29  C   UNL A   1      42.775  24.790  25.907  1.00  0.00     0.060 A 
ATOM     30  C   UNL A   1      43.352  26.063  25.994  1.00  0.00     0.016 A 
ATOM     31  C   UNL A   1      41.603  24.491  26.605  1.00  0.00     0.016 A 
ATOM     32  C   UNL A   1      42.805  27.021  26.842  1.00  0.00     0.010 A 
ATOM     33  C   UNL A   1      41.062  25.449  27.468  1.00  0.00     0.010 A 
ATOM     34  C   UNL A   1      41.692  26.697  27.627  1.00  0.00    -0.014 A 
BRANCH  34  35
ATOM     35  C   UNL A   1      41.340  27.573  28.770  1.00  0.00     0.031 A 
ATOM     36  C   UNL A   1      42.177  27.485  30.019  1.00  0.00     0.074 A 
ATOM     37  C   UNL A   1      40.346  28.472  28.684  1.00  0.00     0.049 A 
ATOM     38  N   UNL A   1      42.037  28.111  31.159  1.00  0.00    -0.248 NA
ATOM     39  C   UNL A   1      43.332  26.574  29.970  1.00  0.00     0.031 C 
ATOM     40  C   UNL A   1      39.517  28.709  27.505  1.00  0.00     0.029 A 
ATOM     41  N   UNL A   1      39.871  29.360  29.617  1.00  0.00    -0.354 N 
ATOM     42  C   UNL A   1      43.082  27.669  31.959  1.00  0.00     0.074 A 
ATOM     43  C   UNL A   1      43.834  26.704  31.188  1.00  0.00     0.031 C 
ATOM     44  C   UNL A   1      38.628  29.677  27.787  1.00  0.00     0.029 A 
ATOM     45  C   UNL A   1      38.803  30.101  29.175  1.00  0.00     0.049 A 
ATOM     46  H   UNL A   1      40.258  29.455  30.517  1.00  0.00     0.167 HD
ATOM     47  C   UNL A   1      43.394  28.041  33.223  1.00  0.00     0.037 A 
ATOM     48  C   UNL A   1      38.043  31.000  29.829  1.00  0.00     0.037 A 
ATOM     49  C   UNL A   1      42.645  28.996  33.994  1.00  0.00     0.049 A 
ATOM     50  C   UNL A   1      38.344  31.318  31.270  1.00  0.00     0.074 A 
ATOM     51  C   UNL A   1      42.871  29.426  35.290  1.00  0.00     0.029 A 
ATOM     52  N   UNL A   1      41.523  29.669  33.537  1.00  0.00    -0.354 N 
ATOM     53  N   UNL A   1      39.315  30.873  32.031  1.00  0.00    -0.248 NA
ATOM     54  C   UNL A   1      37.436  32.256  31.945  1.00  0.00     0.031 C 
ATOM     55  C   UNL A   1      41.859  30.329  35.632  1.00  0.00     0.029 A 
ATOM     56  C   UNL A   1      41.031  30.495  34.533  1.00  0.00     0.049 A 
ATOM     57  H   UNL A   1      41.134  29.574  32.637  1.00  0.00     0.167 HD
ATOM     58  C   UNL A   1      39.142  31.483  33.267  1.00  0.00     0.074 A 
ATOM     59  C   UNL A   1      37.987  32.348  33.148  1.00  0.00     0.031 C 
ATOM     60  C   UNL A   1      39.872  31.340  34.401  1.00  0.00     0.037 A 
BRANCH  47  61
ATOM     61  C   UNL A   1      44.587  27.391  33.858  1.00  0.00     0.057 A 
ATOM     62  C   UNL A   1      44.484  26.178  34.549  1.00  0.00     0.134 A 
ATOM     63  C   UNL A   1      45.857  27.970  33.747  1.00  0.00     0.134 A 
ATOM     64  F   UNL A   1      43.292  25.584  34.707  1.00  0.00    -0.206 F 
ATOM     65  C   UNL A   1      45.603  25.568  35.119  1.00  0.00     0.040 A 
ATOM     66  C   UNL A   1      46.986  27.358  34.293  1.00  0.00     0.040 A 
ATOM     67  F   UNL A   1      46.022  29.132  33.098  1.00  0.00    -0.206 F 
ATOM     68  C   UNL A   1      46.860  26.155  34.985  1.00  0.00     0.006 A 
ENDBRANCH  47  61
BRANCH  48  69
ATOM     69  C   UNL A   1      36.903  31.650  29.136  1.00  0.00     0.057 A 
ATOM     70  C   UNL A   1      36.981  32.977  28.701  1.00  0.00     0.134 A 
ATOM     71  C   UNL A   1      35.702  30.965  28.908  1.00  0.00     0.134 A 
ATOM     72  F   UNL A   1      38.095  33.693  28.916  1.00  0.00    -0.206 F 
ATOM     73  C   UNL A   1      35.905  33.605  28.071  1.00  0.00     0.040 A 
ATOM     74  C   UNL A   1      34.626  31.573  28.260  1.00  0.00     0.040 A 
ATOM     75  F   UNL A   1      35.562  29.692  29.307  1.00  0.00    -0.206 F 
ATOM     76  C   UNL A   1      34.724  32.898  27.843  1.00  0.00     0.006 A 
ENDBRANCH  48  69
BRANCH  60  77
ATOM     77  C   UNL A   1      39.445  32.136  35.599  1.00  0.00     0.057 A 
ATOM     78  C   UNL A   1      39.956  33.416  35.851  1.00  0.00     0.134 A 
ATOM     79  C   UNL A   1      38.483  31.637  36.486  1.00  0.00     0.134 A 
ATOM     80  F   UNL A   1      40.888  33.946  35.043  1.00  0.00    -0.206 F 
ATOM     81  C   UNL A   1      39.541  34.163  36.953  1.00  0.00     0.040 A 
ATOM     82  C   UNL A   1      38.042  32.385  37.579  1.00  0.00     0.040 A 
ATOM     83  F   UNL A   1      37.946  30.423  36.297  1.00  0.00    -0.206 F 
ATOM     84  C   UNL A   1      38.576  33.649  37.818  1.00  0.00     0.006 A 
ENDBRANCH  60  77
ENDBRANCH  34  35
ENDBRANCH  27  29
ENDBRANCH  26  27
ENDBRANCH  25  26
ENDBRANCH   1  25
TORSDOF 15
ENDMDL
MODEL 2
REMARK VINA RESULT:     -11.5      1.856      3.047
REMARK SMILES Cc1c(Cl)cc2c(c1C)O[C@@H](C(F)(F)F)C(C(=O)OCCOCCOC(=O)c1ccc(-c3c4nc(c(-c5c(F)cccc5F)c5ccc([nH]5)c(-c5c(F)cccc5F)c5nc(c(-c6c(F)cccc6F)c6ccc3[nH]6)C=C5)C=C4)cc1)=C2
REMARK SMILES IDX 23 1 22 2 21 3 20 4 19 5 17 6 18 7 16 8 1 9 2 10 3 11 8 12
REMARK SMILES IDX 4 13 5 14 7 15 9 16 6 17 10 18 82 19 11 20 12 21 13 22 14 23
REMARK SMILES IDX 15 24 24 25 25 26 26 27 27 28 28 29 29 30 81 31 30 32 80 33
REMARK SMILES IDX 31 34 32 35 33 36 74 37 34 38 79 39 73 40 75 41 35 42 78 43
REMARK SMILES IDX 72 44 71 45 36 47 62 48 45 49 61 50 46 51 49 52 60 53 76 54
REMARK SMILES IDX 47 55 48 56 59 58 77 59 50 60 37 61 38 62 43 63 39 64 40 65
REMARK SMILES IDX 42 66 44 67 41 68 63 69 64 70 69 71 65 72 66 73 68 74 70 75
REMARK SMILES IDX 67 76 51 77 52 78 57 79 53 80 54 81 56 82 58 83 55 84
REMARK H PARENT 75 46 49 57
REMARK Flexibility Score: inf
ROOT
ATOM      1  C   UNL A   1      42.956  21.179  25.773  1.00  0.00     0.202 C 
ENDROOT
BRANCH   1   2
ATOM      2  O   UNL A   1      41.592  21.540  25.536  1.00  0.00    -0.374 OA
BRANCH   2   3
ATOM      3  C   UNL A   1      40.643  21.172  26.537  1.00  0.00     0.202 C 
BRANCH   3   4
ATOM      4  C   UNL A   1      39.523  22.186  26.780  1.00  0.00     0.261 C 
BRANCH   4   5
ATOM      5  O   UNL A   1      38.572  22.148  25.701  1.00  0.00    -0.460 OA
BRANCH   5   6
ATOM      6  C   UNL A   1      37.529  22.989  25.835  1.00  0.00     0.338 C 
ATOM      7  O   UNL A   1      37.588  24.177  26.120  1.00  0.00    -0.246 OA
BRANCH   6   8
ATOM      8  C   UNL A   1      36.272  22.310  25.475  1.00  0.00     0.087 C 
ATOM      9  C   UNL A   1      32.129  18.038  22.804  1.00  0.00     0.046 C 
ATOM     10  C   UNL A   1      33.142  18.831  23.591  1.00  0.00    -0.026 A 
ATOM     11  C   UNL A   1      34.203  18.157  24.234  1.00  0.00     0.045 A 
ATOM     12  C   UNL A   1      33.126  20.252  23.617  1.00  0.00    -0.004 A 
ATOM     13  Cl  UNL A   1      34.357  16.432  24.204  1.00  0.00    -0.084 Cl
ATOM     14  C   UNL A   1      35.214  18.859  24.889  1.00  0.00     0.032 A 
ATOM     15  C   UNL A   1      34.157  20.946  24.290  1.00  0.00     0.131 A 
ATOM     16  C   UNL A   1      32.044  21.074  22.956  1.00  0.00     0.049 C 
ATOM     17  C   UNL A   1      35.204  20.251  24.900  1.00  0.00     0.019 A 
ATOM     18  O   UNL A   1      34.135  22.320  24.235  1.00  0.00    -0.475 OA
ATOM     19  C   UNL A   1      36.349  20.975  25.415  1.00  0.00     0.027 C 
ATOM     20  C   UNL A   1      35.021  23.067  25.121  1.00  0.00     0.316 C 
BRANCH  20  21
ATOM     21  C   UNL A   1      34.214  23.573  26.334  1.00  0.00     0.430 C 
ATOM     22  F   UNL A   1      34.247  24.921  26.449  1.00  0.00    -0.167 F 
ATOM     23  F   UNL A   1      32.913  23.205  26.274  1.00  0.00    -0.167 F 
ATOM     24  F   UNL A   1      34.696  23.062  27.494  1.00  0.00    -0.167 F 
ENDBRANCH  20  21
ENDBRANCH   6   8
ENDBRANCH   5   6
ENDBRANCH   4   5
ENDBRANCH   3   4
ENDBRANCH   2   3
ENDBRANCH   1   2
BRANCH   1  25
ATOM     25  C   UNL A   1      44.008  22.060  25.091  1.00  0.00     0.261 C 
BRANCH  25  26
ATOM     26  O   UNL A   1      43.436  23.315  24.677  1.00  0.00    -0.460 OA
BRANCH  26  27
ATOM     27  C   UNL A   1      44.109  24.411  25.088  1.00  0.00     0.338 C 
ATOM     28  O   UNL A   1      45.224  24.775  24.734  1.00  0.00    -0.246 OA
BRANCH  27  29
ATOM     29  C   UNL A   1      43.234  25.265  25.910  1.00  0.00     0.060 A 
ATOM     30  C   UNL A   1      43.476  26.645  25.879  1.00  0.00     0.016 A 
ATOM     31  C   UNL A   1      42.261  24.732  26.758  1.00  0.00     0.016 A 
ATOM     32  C   UNL A   1      42.801  27.492  26.753  1.00  0.00     0.010 A 
ATOM     33  C   UNL A   1      41.594  25.581  27.648  1.00  0.00     0.010 A 
ATOM     34  C   UNL A   1      41.901  26.954  27.682  1.00  0.00    -0.014 A 
BRANCH  34  35
ATOM     35  C   UNL A   1      41.468  27.790  28.827  1.00  0.00     0.031 A 
ATOM     36  C   UNL A   1      42.277  27.735  30.095  1.00  0.00     0.074 A 
ATOM     37  C   UNL A   1      40.422  28.628  28.728  1.00  0.00     0.049 A 
ATOM     38  N   UNL A   1      42.071  28.333  31.240  1.00  0.00    -0.248 NA
ATOM     39  C   UNL A   1      43.487  26.897  30.064  1.00  0.00     0.031 C 
ATOM     40  C   UNL A   1      39.610  28.831  27.531  1.00  0.00     0.029 A 
ATOM     41  N   UNL A   1      39.871  29.471  29.661  1.00  0.00    -0.354 N 
ATOM     42  C   UNL A   1      43.121  27.945  32.061  1.00  0.00     0.074 A 
ATOM     43  C   UNL A   1      43.950  27.039  31.295  1.00  0.00     0.031 C 
ATOM     44  C   UNL A   1      38.656  29.739  27.804  1.00  0.00     0.029 A 
ATOM     45  C   UNL A   1      38.771  30.151  29.202  1.00  0.00     0.049 A 
ATOM     46  H   UNL A   1      40.230  29.576  30.571  1.00  0.00     0.167 HD
ATOM     47  C   UNL A   1      43.379  28.316  33.337  1.00  0.00     0.037 A 
ATOM     48  C   UNL A   1      37.941  30.993  29.848  1.00  0.00     0.037 A 
ATOM     49  C   UNL A   1      42.554  29.212  34.102  1.00  0.00     0.049 A 
ATOM     50  C   UNL A   1      38.186  31.306  31.300  1.00  0.00     0.074 A 
ATOM     51  C   UNL A   1      42.721  29.634  35.408  1.00  0.00     0.029 A 
ATOM     52  N   UNL A   1      41.405  29.821  33.625  1.00  0.00    -0.354 N 
ATOM     53  N   UNL A   1      39.164  30.910  32.080  1.00  0.00    -0.248 NA
ATOM     54  C   UNL A   1      37.206  32.177  31.965  1.00  0.00     0.031 C 
ATOM     55  C   UNL A   1      41.647  30.469  35.737  1.00  0.00     0.029 A 
ATOM     56  C   UNL A   1      40.838  30.601  34.620  1.00  0.00     0.049 A 
ATOM     57  H   UNL A   1      41.044  29.716  32.714  1.00  0.00     0.167 HD
ATOM     58  C   UNL A   1      38.923  31.490  33.319  1.00  0.00     0.074 A 
ATOM     59  C   UNL A   1      37.720  32.284  33.182  1.00  0.00     0.031 C 
ATOM     60  C   UNL A   1      39.632  31.375  34.470  1.00  0.00     0.037 A 
BRANCH  47  61
ATOM     61  C   UNL A   1      44.594  27.731  33.992  1.00  0.00     0.057 A 
ATOM     62  C   UNL A   1      45.830  28.388  33.973  1.00  0.00     0.134 A 
ATOM     63  C   UNL A   1      44.517  26.512  34.678  1.00  0.00     0.134 A 
ATOM     64  F   UNL A   1      45.973  29.549  33.315  1.00  0.00    -0.206 F 
ATOM     65  C   UNL A   1      46.952  27.848  34.604  1.00  0.00     0.040 A 
ATOM     66  C   UNL A   1      45.626  25.973  35.332  1.00  0.00     0.040 A 
ATOM     67  F   UNL A   1      43.362  25.832  34.733  1.00  0.00    -0.206 F 
ATOM     68  C   UNL A   1      46.849  26.641  35.292  1.00  0.00     0.006 A 
ENDBRANCH  47  61
BRANCH  48  69
ATOM     69  C   UNL A   1      36.780  31.582  29.135  1.00  0.00     0.057 A 
ATOM     70  C   UNL A   1      35.636  30.824  28.864  1.00  0.00     0.134 A 
ATOM     71  C   UNL A   1      36.796  32.910  28.691  1.00  0.00     0.134 A 
ATOM     72  F   UNL A   1      35.574  29.538  29.239  1.00  0.00    -0.206 F 
ATOM     73  C   UNL A   1      34.550  31.362  28.171  1.00  0.00     0.040 A 
ATOM     74  C   UNL A   1      35.709  33.467  28.016  1.00  0.00     0.040 A 
ATOM     75  F   UNL A   1      37.866  33.687  28.915  1.00  0.00    -0.206 F 
ATOM     76  C   UNL A   1      34.583  32.692  27.751  1.00  0.00     0.006 A 
ENDBRANCH  48  69
BRANCH  60  77
ATOM     77  C   UNL A   1      39.128  32.125  35.667  1.00  0.00     0.057 A 
ATOM     78  C   UNL A   1      38.293  31.519  36.614  1.00  0.00     0.134 A 
ATOM     79  C   UNL A   1      39.515  33.451  35.898  1.00  0.00     0.134 A 
ATOM     80  F   UNL A   1      37.878  30.254  36.445  1.00  0.00    -0.206 F 
ATOM     81  C   UNL A   1      37.844  32.212  37.739  1.00  0.00     0.040 A 
ATOM     82  C   UNL A   1      39.092  34.147  37.032  1.00  0.00     0.040 A 
ATOM     83  F   UNL A   1      40.322  34.086  35.035  1.00  0.00    -0.206 F 
ATOM     84  C   UNL A   1      38.249  33.529  37.953  1.00  0.00     0.006 A 
ENDBRANCH  60  77
ENDBRANCH  34  35
ENDBRANCH  27  29
ENDBRANCH  26  27
ENDBRANCH  25  26
ENDBRANCH   1  25
TORSDOF 15
ENDMDL
MODEL 3
REMARK VINA RESULT:     -11.5      3.053      7.916
REMARK SMILES Cc1c(Cl)cc2c(c1C)O[C@@H](C(F)(F)F)C(C(=O)OCCOCCOC(=O)c1ccc(-c3c4nc(c(-c5c(F)cccc5F)c5ccc([nH]5)c(-c5c(F)cccc5F)c5nc(c(-c6c(F)cccc6F)c6ccc3[nH]6)C=C5)C=C4)cc1)=C2
REMARK SMILES IDX 23 1 22 2 21 3 20 4 19 5 17 6 18 7 16 8 1 9 2 10 3 11 8 12
REMARK SMILES IDX 4 13 5 14 7 15 9 16 6 17 10 18 82 19 11 20 12 21 13 22 14 23
REMARK SMILES IDX 15 24 24 25 25 26 26 27 27 28 28 29 29 30 81 31 30 32 80 33
REMARK SMILES IDX 31 34 32 35 33 36 74 37 34 38 79 39 73 40 75 41 35 42 78 43
REMARK SMILES IDX 72 44 71 45 36 47 62 48 45 49 61 50 46 51 49 52 60 53 76 54
REMARK SMILES IDX 47 55 48 56 59 58 77 59 50 60 37 61 38 62 43 63 39 64 40 65
REMARK SMILES IDX 42 66 44 67 41 68 63 69 64 70 69 71 65 72 66 73 68 74 70 75
REMARK SMILES IDX 67 76 51 77 52 78 57 79 53 80 54 81 56 82 58 83 55 84
REMARK H PARENT 75 46 49 57
REMARK Flexibility Score: inf
ROOT
ATOM      1  C   UNL A   1      31.572  31.166  26.202  1.00  0.00     0.202 C 
ENDROOT
BRANCH   1   2
ATOM      2  O   UNL A   1      31.981  30.051  27.000  1.00  0.00    -0.374 OA
BRANCH   2   3
ATOM      3  C   UNL A   1      32.934  29.158  26.421  1.00  0.00     0.202 C 
BRANCH   3   4
ATOM      4  C   UNL A   1      33.019  29.196  24.894  1.00  0.00     0.261 C 
BRANCH   4   5
ATOM      5  O   UNL A   1      33.391  27.904  24.382  1.00  0.00    -0.460 OA
BRANCH   5   6
ATOM      6  C   UNL A   1      32.372  27.035  24.241  1.00  0.00     0.338 C 
ATOM      7  O   UNL A   1      31.264  27.286  23.787  1.00  0.00    -0.246 OA
BRANCH   6   8
ATOM      8  C   UNL A   1      32.802  25.674  24.607  1.00  0.00     0.087 C 
ATOM      9  C   UNL A   1      36.440  20.278  25.052  1.00  0.00     0.046 C 
ATOM     10  C   UNL A   1      35.765  21.626  25.128  1.00  0.00    -0.026 A 
ATOM     11  C   UNL A   1      36.531  22.768  25.449  1.00  0.00     0.045 A 
ATOM     12  C   UNL A   1      34.399  21.801  24.779  1.00  0.00    -0.004 A 
ATOM     13  Cl  UNL A   1      38.220  22.675  25.821  1.00  0.00    -0.084 Cl
ATOM     14  C   UNL A   1      35.968  24.043  25.434  1.00  0.00     0.032 A 
ATOM     15  C   UNL A   1      33.845  23.101  24.773  1.00  0.00     0.131 A 
ATOM     16  C   UNL A   1      33.491  20.651  24.411  1.00  0.00     0.049 C 
ATOM     17  C   UNL A   1      34.634  24.213  25.076  1.00  0.00     0.019 A 
ATOM     18  O   UNL A   1      32.538  23.229  24.368  1.00  0.00    -0.475 OA
ATOM     19  C   UNL A   1      34.107  25.549  24.879  1.00  0.00     0.027 C 
ATOM     20  C   UNL A   1      31.860  24.501  24.593  1.00  0.00     0.316 C 
BRANCH  20  21
ATOM     21  C   UNL A   1      30.966  24.383  25.844  1.00  0.00     0.430 C 
ATOM     22  F   UNL A   1      30.361  23.175  25.934  1.00  0.00    -0.167 F 
ATOM     23  F   UNL A   1      31.660  24.574  26.990  1.00  0.00    -0.167 F 
ATOM     24  F   UNL A   1      29.985  25.320  25.839  1.00  0.00    -0.167 F 
ENDBRANCH  20  21
ENDBRANCH   6   8
ENDBRANCH   5   6
ENDBRANCH   4   5
ENDBRANCH   3   4
ENDBRANCH   2   3
ENDBRANCH   1   2
BRANCH   1  25
ATOM     25  C   UNL A   1      31.459  32.506  26.938  1.00  0.00     0.261 C 
BRANCH  25  26
ATOM     26  O   UNL A   1      32.656  33.287  26.771  1.00  0.00    -0.460 OA
BRANCH  26  27
ATOM     27  C   UNL A   1      33.186  33.771  27.915  1.00  0.00     0.338 C 
ATOM     28  O   UNL A   1      32.664  34.550  28.704  1.00  0.00    -0.246 OA
BRANCH  27  29
ATOM     29  C   UNL A   1      34.450  33.079  28.222  1.00  0.00     0.060 A 
ATOM     30  C   UNL A   1      34.361  31.750  28.656  1.00  0.00     0.016 A 
ATOM     31  C   UNL A   1      35.684  33.731  28.174  1.00  0.00     0.016 A 
ATOM     32  C   UNL A   1      35.494  31.090  29.121  1.00  0.00     0.010 A 
ATOM     33  C   UNL A   1      36.821  33.073  28.655  1.00  0.00     0.010 A 
ATOM     34  C   UNL A   1      36.717  31.770  29.178  1.00  0.00    -0.014 A 
BRANCH  34  35
ATOM     35  C   UNL A   1      37.818  31.201  29.992  1.00  0.00     0.031 A 
ATOM     36  C   UNL A   1      38.749  30.214  29.341  1.00  0.00     0.074 A 
ATOM     37  C   UNL A   1      38.030  31.597  31.259  1.00  0.00     0.049 A 
ATOM     38  N   UNL A   1      39.749  29.549  29.858  1.00  0.00    -0.248 NA
ATOM     39  C   UNL A   1      38.525  29.949  27.910  1.00  0.00     0.031 C 
ATOM     40  C   UNL A   1      37.249  32.603  31.974  1.00  0.00     0.029 A 
ATOM     41  N   UNL A   1      38.978  31.195  32.166  1.00  0.00    -0.354 N 
ATOM     42  C   UNL A   1      40.271  28.789  28.819  1.00  0.00     0.074 A 
ATOM     43  C   UNL A   1      39.464  29.053  27.649  1.00  0.00     0.031 C 
ATOM     44  C   UNL A   1      37.747  32.736  33.216  1.00  0.00     0.029 A 
ATOM     45  C   UNL A   1      38.857  31.801  33.391  1.00  0.00     0.049 A 
ATOM     46  H   UNL A   1      39.678  30.534  31.957  1.00  0.00     0.167 HD
ATOM     47  C   UNL A   1      41.334  27.952  28.836  1.00  0.00     0.037 A 
ATOM     48  C   UNL A   1      39.551  31.601  34.529  1.00  0.00     0.037 A 
ATOM     49  C   UNL A   1      42.136  27.683  30.000  1.00  0.00     0.049 A 
ATOM     50  C   UNL A   1      40.661  30.585  34.551  1.00  0.00     0.074 A 
ATOM     51  C   UNL A   1      43.223  26.837  30.122  1.00  0.00     0.029 A 
ATOM     52  N   UNL A   1      41.933  28.260  31.243  1.00  0.00    -0.354 N 
ATOM     53  N   UNL A   1      41.129  29.847  33.574  1.00  0.00    -0.248 NA
ATOM     54  C   UNL A   1      41.334  30.367  35.840  1.00  0.00     0.031 C 
ATOM     55  C   UNL A   1      43.653  26.869  31.453  1.00  0.00     0.029 A 
ATOM     56  C   UNL A   1      42.861  27.770  32.146  1.00  0.00     0.049 A 
ATOM     57  H   UNL A   1      41.232  28.920  31.454  1.00  0.00     0.167 HD
ATOM     58  C   UNL A   1      42.154  29.088  34.125  1.00  0.00     0.074 A 
ATOM     59  C   UNL A   1      42.256  29.471  35.517  1.00  0.00     0.031 C 
ATOM     60  C   UNL A   1      42.940  28.154  33.533  1.00  0.00     0.037 A 
BRANCH  47  61
ATOM     61  C   UNL A   1      41.676  27.247  27.558  1.00  0.00     0.057 A 
ATOM     62  C   UNL A   1      42.495  27.838  26.587  1.00  0.00     0.134 A 
ATOM     63  C   UNL A   1      41.208  25.950  27.311  1.00  0.00     0.134 A 
ATOM     64  F   UNL A   1      42.958  29.085  26.755  1.00  0.00    -0.206 F 
ATOM     65  C   UNL A   1      42.826  27.167  25.408  1.00  0.00     0.040 A 
ATOM     66  C   UNL A   1      41.551  25.262  26.146  1.00  0.00     0.040 A 
ATOM     67  F   UNL A   1      40.419  25.330  28.200  1.00  0.00    -0.206 F 
ATOM     68  C   UNL A   1      42.360  25.872  25.190  1.00  0.00     0.006 A 
ENDBRANCH  47  61
BRANCH  48  69
ATOM     69  C   UNL A   1      39.200  32.364  35.753  1.00  0.00     0.057 A 
ATOM     70  C   UNL A   1      39.740  33.632  35.995  1.00  0.00     0.134 A 
ATOM     71  C   UNL A   1      38.334  31.835  36.718  1.00  0.00     0.134 A 
ATOM     72  F   UNL A   1      40.597  34.179  35.121  1.00  0.00    -0.206 F 
ATOM     73  C   UNL A   1      39.436  34.345  37.156  1.00  0.00     0.040 A 
ATOM     74  C   UNL A   1      38.005  32.546  37.872  1.00  0.00     0.040 A 
ATOM     75  F   UNL A   1      37.789  30.621  36.547  1.00  0.00    -0.206 F 
ATOM     76  C   UNL A   1      38.559  33.804  38.096  1.00  0.00     0.006 A 
ENDBRANCH  48  69
BRANCH  60  77
ATOM     77  C   UNL A   1      43.978  27.487  34.386  1.00  0.00     0.057 A 
ATOM     78  C   UNL A   1      45.248  28.048  34.570  1.00  0.00     0.134 A 
ATOM     79  C   UNL A   1      43.692  26.296  35.064  1.00  0.00     0.134 A 
ATOM     80  F   UNL A   1      45.587  29.184  33.940  1.00  0.00    -0.206 F 
ATOM     81  C   UNL A   1      46.204  27.437  35.382  1.00  0.00     0.040 A 
ATOM     82  C   UNL A   1      44.631  25.688  35.899  1.00  0.00     0.040 A 
ATOM     83  F   UNL A   1      42.491  25.712  34.939  1.00  0.00    -0.206 F 
ATOM     84  C   UNL A   1      45.893  26.257  36.055  1.00  0.00     0.006 A 
ENDBRANCH  60  77
ENDBRANCH  34  35
ENDBRANCH  27  29
ENDBRANCH  26  27
ENDBRANCH  25  26
ENDBRANCH   1  25
TORSDOF 15
ENDMDL
