MODEL 1
REMARK VINA RESULT:     -10.7      0.000      0.000
REMARK SMILES O=C(Cc1ccn(-c2ccccc2F)c1)OCCOCCOC(=O)c1ccc(-c2c3nc(c(-c4c(F)cccc4F)c4ccc([nH]4)c(-c4c(F)cccc4F)c4nc(c(-c5c(F)cccc5F)c5ccc2[nH]5)C=C4)C=C3)cc1
REMARK SMILES IDX 19 1 18 2 17 3 16 4 2 5 1 6 3 7 4 8 5 9 15 10 6 11 7 12 8 13
REMARK SMILES IDX 9 14 13 15 10 16 12 17 14 18 11 19 20 20 21 21 22 22 23 23
REMARK SMILES IDX 24 24 25 25 26 26 78 27 27 28 77 29 28 30 29 31 30 32 71 33
REMARK SMILES IDX 31 34 76 35 70 36 72 37 32 38 75 39 69 40 68 41 33 43 59 44
REMARK SMILES IDX 42 45 58 46 43 47 46 48 57 49 73 50 44 51 45 52 56 54 74 55
REMARK SMILES IDX 47 56 34 57 35 58 40 59 36 60 37 61 39 62 41 63 38 64 60 65
REMARK SMILES IDX 61 66 66 67 62 68 63 69 65 70 67 71 64 72 48 73 49 74 54 75
REMARK SMILES IDX 50 76 51 77 53 78 55 79 52 80
REMARK H PARENT 72 42 46 53
REMARK Flexibility Score: inf
ROOT
ATOM      1  O   UNL A   1      37.925  20.876  24.683  1.00  0.00    -0.374 OA
ENDROOT
BRANCH   1   2
ATOM      2  C   UNL A   1      37.774  21.758  25.795  1.00  0.00     0.202 C 
BRANCH   2   3
ATOM      3  C   UNL A   1      37.357  23.168  25.424  1.00  0.00     0.261 C 
BRANCH   3   4
ATOM      4  O   UNL A   1      36.186  23.610  26.140  1.00  0.00    -0.463 OA
BRANCH   4   5
ATOM      5  C   UNL A   1      34.896  23.517  25.743  1.00  0.00     0.310 C 
ATOM      6  O   UNL A   1      34.007  23.703  26.577  1.00  0.00    -0.252 OA
BRANCH   5   7
ATOM      7  C   UNL A   1      34.537  23.070  24.345  1.00  0.00     0.159 C 
BRANCH   7   8
ATOM      8  C   UNL A   1      33.814  21.776  24.223  1.00  0.00    -0.019 A 
ATOM      9  C   UNL A   1      32.606  21.507  23.531  1.00  0.00     0.024 A 
ATOM     10  C   UNL A   1      34.251  20.568  24.735  1.00  0.00     0.095 A 
ATOM     11  C   UNL A   1      32.432  20.140  23.531  1.00  0.00     0.091 A 
ATOM     12  N   UNL A   1      33.397  19.565  24.333  1.00  0.00    -0.321 N 
BRANCH  12  13
ATOM     13  C   UNL A   1      33.482  18.198  24.681  1.00  0.00     0.081 A 
ATOM     14  C   UNL A   1      32.379  17.548  25.253  1.00  0.00     0.030 A 
ATOM     15  C   UNL A   1      34.680  17.499  24.511  1.00  0.00     0.147 A 
ATOM     16  C   UNL A   1      32.491  16.217  25.659  1.00  0.00     0.002 A 
ATOM     17  C   UNL A   1      34.799  16.183  24.947  1.00  0.00     0.041 A 
ATOM     18  F   UNL A   1      35.774  18.090  24.008  1.00  0.00    -0.205 F 
ATOM     19  C   UNL A   1      33.704  15.540  25.524  1.00  0.00     0.003 A 
ENDBRANCH  12  13
ENDBRANCH   7   8
ENDBRANCH   5   7
ENDBRANCH   4   5
ENDBRANCH   3   4
ENDBRANCH   2   3
ENDBRANCH   1   2
BRANCH   1  20
ATOM     20  C   UNL A   1      38.371  19.550  24.973  1.00  0.00     0.202 C 
BRANCH  20  21
ATOM     21  C   UNL A   1      39.424  19.437  26.061  1.00  0.00     0.261 C 
BRANCH  21  22
ATOM     22  O   UNL A   1      40.625  18.889  25.535  1.00  0.00    -0.460 OA
BRANCH  22  23
ATOM     23  C   UNL A   1      41.744  19.234  26.196  1.00  0.00     0.338 C 
ATOM     24  O   UNL A   1      42.689  18.510  26.502  1.00  0.00    -0.246 OA
BRANCH  23  25
ATOM     25  C   UNL A   1      41.621  20.623  26.628  1.00  0.00     0.060 A 
ATOM     26  C   UNL A   1      41.550  21.585  25.617  1.00  0.00     0.016 A 
ATOM     27  C   UNL A   1      41.889  20.952  27.964  1.00  0.00     0.016 A 
ATOM     28  C   UNL A   1      41.957  22.865  25.909  1.00  0.00     0.010 A 
ATOM     29  C   UNL A   1      42.343  22.216  28.246  1.00  0.00     0.010 A 
ATOM     30  C   UNL A   1      42.424  23.138  27.198  1.00  0.00    -0.014 A 
BRANCH  30  31
ATOM     31  C   UNL A   1      42.986  24.460  27.455  1.00  0.00     0.031 A 
ATOM     32  C   UNL A   1      41.900  25.474  27.727  1.00  0.00     0.074 A 
ATOM     33  C   UNL A   1      44.344  24.544  27.362  1.00  0.00     0.049 A 
ATOM     34  N   UNL A   1      41.900  26.749  27.510  1.00  0.00    -0.248 NA
ATOM     35  C   UNL A   1      40.580  24.995  28.226  1.00  0.00     0.031 C 
ATOM     36  C   UNL A   1      45.220  23.394  27.065  1.00  0.00     0.029 A 
ATOM     37  N   UNL A   1      45.256  25.569  27.480  1.00  0.00    -0.354 N 
ATOM     38  C   UNL A   1      40.699  27.240  28.040  1.00  0.00     0.074 A 
ATOM     39  C   UNL A   1      39.865  26.112  28.317  1.00  0.00     0.031 C 
ATOM     40  C   UNL A   1      46.501  23.790  26.951  1.00  0.00     0.029 A 
ATOM     41  C   UNL A   1      46.598  25.217  27.187  1.00  0.00     0.049 A 
ATOM     42  H   UNL A   1      44.996  26.480  27.748  1.00  0.00     0.167 HD
ATOM     43  C   UNL A   1      40.527  28.540  28.393  1.00  0.00     0.037 A 
ATOM     44  C   UNL A   1      47.701  26.021  27.101  1.00  0.00     0.037 A 
ATOM     45  C   UNL A   1      41.677  29.316  28.063  1.00  0.00     0.049 A 
ATOM     46  C   UNL A   1      47.252  27.365  27.518  1.00  0.00     0.074 A 
ATOM     47  C   UNL A   1      42.209  29.738  26.872  1.00  0.00     0.029 A 
ATOM     48  N   UNL A   1      42.628  29.456  29.044  1.00  0.00    -0.354 N 
ATOM     49  N   UNL A   1      46.933  27.704  28.734  1.00  0.00    -0.248 NA
ATOM     50  C   UNL A   1      47.028  28.387  26.487  1.00  0.00     0.031 C 
ATOM     51  C   UNL A   1      43.604  29.777  27.099  1.00  0.00     0.029 A 
ATOM     52  C   UNL A   1      43.862  29.466  28.438  1.00  0.00     0.049 A 
ATOM     53  H   UNL A   1      42.456  29.534  30.010  1.00  0.00     0.167 HD
ATOM     54  C   UNL A   1      46.175  28.839  28.546  1.00  0.00     0.074 A 
ATOM     55  C   UNL A   1      46.518  29.355  27.242  1.00  0.00     0.031 C 
ATOM     56  C   UNL A   1      44.995  28.980  29.200  1.00  0.00     0.037 A 
BRANCH  43  57
ATOM     57  C   UNL A   1      39.478  29.141  29.272  1.00  0.00     0.057 A 
ATOM     58  C   UNL A   1      38.314  29.755  28.790  1.00  0.00     0.134 A 
ATOM     59  C   UNL A   1      39.487  28.814  30.641  1.00  0.00     0.134 A 
ATOM     60  F   UNL A   1      38.166  30.061  27.493  1.00  0.00    -0.206 F 
ATOM     61  C   UNL A   1      37.209  29.990  29.612  1.00  0.00     0.040 A 
ATOM     62  C   UNL A   1      38.372  28.999  31.458  1.00  0.00     0.040 A 
ATOM     63  F   UNL A   1      40.561  28.238  31.204  1.00  0.00    -0.206 F 
ATOM     64  C   UNL A   1      37.222  29.579  30.940  1.00  0.00     0.006 A 
ENDBRANCH  43  57
BRANCH  44  65
ATOM     65  C   UNL A   1      49.127  25.879  26.607  1.00  0.00     0.057 A 
ATOM     66  C   UNL A   1      50.139  25.394  27.478  1.00  0.00     0.134 A 
ATOM     67  C   UNL A   1      49.613  26.251  25.348  1.00  0.00     0.134 A 
ATOM     68  F   UNL A   1      49.849  24.861  28.673  1.00  0.00    -0.206 F 
ATOM     69  C   UNL A   1      51.509  25.425  27.186  1.00  0.00     0.040 A 
ATOM     70  C   UNL A   1      50.986  26.263  25.028  1.00  0.00     0.040 A 
ATOM     71  F   UNL A   1      48.800  26.594  24.347  1.00  0.00    -0.206 F 
ATOM     72  C   UNL A   1      51.941  25.884  25.959  1.00  0.00     0.006 A 
ENDBRANCH  44  65
BRANCH  56  73
ATOM     73  C   UNL A   1      44.914  28.201  30.494  1.00  0.00     0.057 A 
ATOM     74  C   UNL A   1      44.202  27.001  30.633  1.00  0.00     0.134 A 
ATOM     75  C   UNL A   1      45.665  28.594  31.607  1.00  0.00     0.134 A 
ATOM     76  F   UNL A   1      43.462  26.533  29.630  1.00  0.00    -0.206 F 
ATOM     77  C   UNL A   1      44.227  26.228  31.799  1.00  0.00     0.040 A 
ATOM     78  C   UNL A   1      45.709  27.831  32.782  1.00  0.00     0.040 A 
ATOM     79  F   UNL A   1      46.374  29.732  31.573  1.00  0.00    -0.206 F 
ATOM     80  C   UNL A   1      44.992  26.640  32.880  1.00  0.00     0.006 A 
ENDBRANCH  56  73
ENDBRANCH  30  31
ENDBRANCH  23  25
ENDBRANCH  22  23
ENDBRANCH  21  22
ENDBRANCH  20  21
ENDBRANCH   1  20
TORSDOF 16
ENDMDL
MODEL 2
REMARK VINA RESULT:     -10.5      5.312      9.642
REMARK SMILES O=C(Cc1ccn(-c2ccccc2F)c1)OCCOCCOC(=O)c1ccc(-c2c3nc(c(-c4c(F)cccc4F)c4ccc([nH]4)c(-c4c(F)cccc4F)c4nc(c(-c5c(F)cccc5F)c5ccc2[nH]5)C=C4)C=C3)cc1
REMARK SMILES IDX 19 1 18 2 17 3 16 4 2 5 1 6 3 7 4 8 5 9 15 10 6 11 7 12 8 13
REMARK SMILES IDX 9 14 13 15 10 16 12 17 14 18 11 19 20 20 21 21 22 22 23 23
REMARK SMILES IDX 24 24 25 25 26 26 78 27 27 28 77 29 28 30 29 31 30 32 71 33
REMARK SMILES IDX 31 34 76 35 70 36 72 37 32 38 75 39 69 40 68 41 33 43 59 44
REMARK SMILES IDX 42 45 58 46 43 47 46 48 57 49 73 50 44 51 45 52 56 54 74 55
REMARK SMILES IDX 47 56 34 57 35 58 40 59 36 60 37 61 39 62 41 63 38 64 60 65
REMARK SMILES IDX 61 66 66 67 62 68 63 69 65 70 67 71 64 72 48 73 49 74 54 75
REMARK SMILES IDX 50 76 51 77 53 78 55 79 52 80
REMARK H PARENT 72 42 46 53
REMARK Flexibility Score: inf
ROOT
ATOM      1  O   UNL A   1      33.439  34.795  31.775  1.00  0.00    -0.374 OA
ENDROOT
BRANCH   1   2
ATOM      2  C   UNL A   1      32.681  35.701  30.975  1.00  0.00     0.202 C 
BRANCH   2   3
ATOM      3  C   UNL A   1      33.154  35.817  29.538  1.00  0.00     0.261 C 
BRANCH   3   4
ATOM      4  O   UNL A   1      33.061  34.571  28.819  1.00  0.00    -0.463 OA
BRANCH   4   5
ATOM      5  C   UNL A   1      34.079  33.807  28.362  1.00  0.00     0.310 C 
ATOM      6  O   UNL A   1      34.713  34.197  27.377  1.00  0.00    -0.252 OA
BRANCH   5   7
ATOM      7  C   UNL A   1      34.365  32.446  28.952  1.00  0.00     0.159 C 
BRANCH   7   8
ATOM      8  C   UNL A   1      34.374  31.298  28.007  1.00  0.00    -0.019 A 
ATOM      9  C   UNL A   1      35.426  30.383  27.747  1.00  0.00     0.024 A 
ATOM     10  C   UNL A   1      33.297  30.886  27.243  1.00  0.00     0.095 A 
ATOM     11  C   UNL A   1      34.910  29.382  26.954  1.00  0.00     0.091 A 
ATOM     12  N   UNL A   1      33.626  29.725  26.579  1.00  0.00    -0.321 N 
BRANCH  12  13
ATOM     13  C   UNL A   1      32.807  29.015  25.671  1.00  0.00     0.081 A 
ATOM     14  C   UNL A   1      32.886  29.281  24.298  1.00  0.00     0.030 A 
ATOM     15  C   UNL A   1      31.876  28.084  26.141  1.00  0.00     0.147 A 
ATOM     16  C   UNL A   1      32.025  28.627  23.413  1.00  0.00     0.002 A 
ATOM     17  C   UNL A   1      30.997  27.459  25.261  1.00  0.00     0.041 A 
ATOM     18  F   UNL A   1      31.735  27.828  27.449  1.00  0.00    -0.205 F 
ATOM     19  C   UNL A   1      31.070  27.731  23.895  1.00  0.00     0.003 A 
ENDBRANCH  12  13
ENDBRANCH   7   8
ENDBRANCH   5   7
ENDBRANCH   4   5
ENDBRANCH   3   4
ENDBRANCH   2   3
ENDBRANCH   1   2
BRANCH   1  20
ATOM     20  C   UNL A   1      34.494  35.359  32.555  1.00  0.00     0.202 C 
BRANCH  20  21
ATOM     21  C   UNL A   1      35.823  34.629  32.484  1.00  0.00     0.261 C 
BRANCH  21  22
ATOM     22  O   UNL A   1      35.617  33.240  32.264  1.00  0.00    -0.460 OA
BRANCH  22  23
ATOM     23  C   UNL A   1      36.261  32.426  33.118  1.00  0.00     0.338 C 
ATOM     24  O   UNL A   1      36.395  32.565  34.332  1.00  0.00    -0.246 OA
BRANCH  23  25
ATOM     25  C   UNL A   1      36.914  31.370  32.352  1.00  0.00     0.060 A 
ATOM     26  C   UNL A   1      37.786  30.537  33.057  1.00  0.00     0.016 A 
ATOM     27  C   UNL A   1      36.896  31.428  30.951  1.00  0.00     0.016 A 
ATOM     28  C   UNL A   1      38.792  29.909  32.361  1.00  0.00     0.010 A 
ATOM     29  C   UNL A   1      37.929  30.845  30.260  1.00  0.00     0.010 A 
ATOM     30  C   UNL A   1      38.895  30.141  30.986  1.00  0.00    -0.014 A 
BRANCH  30  31
ATOM     31  C   UNL A   1      40.048  29.586  30.284  1.00  0.00     0.031 A 
ATOM     32  C   UNL A   1      41.141  30.617  30.127  1.00  0.00     0.074 A 
ATOM     33  C   UNL A   1      39.914  28.294  29.872  1.00  0.00     0.049 A 
ATOM     34  N   UNL A   1      42.042  30.718  29.204  1.00  0.00    -0.248 NA
ATOM     35  C   UNL A   1      41.189  31.762  31.079  1.00  0.00     0.031 C 
ATOM     36  C   UNL A   1      38.719  27.467  30.135  1.00  0.00     0.029 A 
ATOM     37  N   UNL A   1      40.708  27.420  29.164  1.00  0.00    -0.354 N 
ATOM     38  C   UNL A   1      42.877  31.779  29.581  1.00  0.00     0.074 A 
ATOM     39  C   UNL A   1      42.220  32.478  30.641  1.00  0.00     0.031 C 
ATOM     40  C   UNL A   1      38.832  26.266  29.539  1.00  0.00     0.029 A 
ATOM     41  C   UNL A   1      40.108  26.173  28.859  1.00  0.00     0.049 A 
ATOM     42  H   UNL A   1      41.627  27.646  28.889  1.00  0.00     0.167 HD
ATOM     43  C   UNL A   1      44.148  31.914  29.123  1.00  0.00     0.037 A 
ATOM     44  C   UNL A   1      40.586  25.153  28.081  1.00  0.00     0.037 A 
ATOM     45  C   UNL A   1      44.456  30.906  28.163  1.00  0.00     0.049 A 
ATOM     46  C   UNL A   1      41.960  25.545  27.705  1.00  0.00     0.074 A 
ATOM     47  C   UNL A   1      44.043  30.687  26.874  1.00  0.00     0.029 A 
ATOM     48  N   UNL A   1      45.036  29.757  28.640  1.00  0.00    -0.354 N 
ATOM     49  N   UNL A   1      42.976  25.580  28.518  1.00  0.00    -0.248 NA
ATOM     50  C   UNL A   1      42.207  26.045  26.347  1.00  0.00     0.031 C 
ATOM     51  C   UNL A   1      44.055  29.281  26.730  1.00  0.00     0.029 A 
ATOM     52  C   UNL A   1      44.556  28.702  27.900  1.00  0.00     0.049 A 
ATOM     53  H   UNL A   1      45.681  29.699  29.382  1.00  0.00     0.167 HD
ATOM     54  C   UNL A   1      43.863  26.406  27.863  1.00  0.00     0.074 A 
ATOM     55  C   UNL A   1      43.481  26.401  26.470  1.00  0.00     0.031 C 
ATOM     56  C   UNL A   1      44.486  27.403  28.539  1.00  0.00     0.037 A 
BRANCH  43  57
ATOM     57  C   UNL A   1      45.258  32.749  29.675  1.00  0.00     0.057 A 
ATOM     58  C   UNL A   1      46.115  32.329  30.701  1.00  0.00     0.134 A 
ATOM     59  C   UNL A   1      45.674  33.876  28.940  1.00  0.00     0.134 A 
ATOM     60  F   UNL A   1      45.854  31.235  31.431  1.00  0.00    -0.206 F 
ATOM     61  C   UNL A   1      47.333  32.966  30.953  1.00  0.00     0.040 A 
ATOM     62  C   UNL A   1      46.910  34.488  29.151  1.00  0.00     0.040 A 
ATOM     63  F   UNL A   1      44.917  34.368  27.946  1.00  0.00    -0.206 F 
ATOM     64  C   UNL A   1      47.750  34.025  30.155  1.00  0.00     0.006 A 
ENDBRANCH  43  57
BRANCH  44  65
ATOM     65  C   UNL A   1      40.028  23.880  27.477  1.00  0.00     0.057 A 
ATOM     66  C   UNL A   1      40.736  22.656  27.613  1.00  0.00     0.134 A 
ATOM     67  C   UNL A   1      38.870  23.765  26.699  1.00  0.00     0.134 A 
ATOM     68  F   UNL A   1      41.789  22.535  28.433  1.00  0.00    -0.206 F 
ATOM     69  C   UNL A   1      40.416  21.481  26.920  1.00  0.00     0.040 A 
ATOM     70  C   UNL A   1      38.518  22.583  26.016  1.00  0.00     0.040 A 
ATOM     71  F   UNL A   1      37.997  24.767  26.573  1.00  0.00    -0.206 F 
ATOM     72  C   UNL A   1      39.310  21.447  26.096  1.00  0.00     0.006 A 
ENDBRANCH  44  65
BRANCH  56  73
ATOM     73  C   UNL A   1      44.622  27.145  30.024  1.00  0.00     0.057 A 
ATOM     74  C   UNL A   1      43.724  27.638  30.980  1.00  0.00     0.134 A 
ATOM     75  C   UNL A   1      45.610  26.281  30.506  1.00  0.00     0.134 A 
ATOM     76  F   UNL A   1      42.741  28.463  30.625  1.00  0.00    -0.206 F 
ATOM     77  C   UNL A   1      43.790  27.301  32.336  1.00  0.00     0.040 A 
ATOM     78  C   UNL A   1      45.690  25.925  31.859  1.00  0.00     0.040 A 
ATOM     79  F   UNL A   1      46.520  25.763  29.667  1.00  0.00    -0.206 F 
ATOM     80  C   UNL A   1      44.775  26.431  32.780  1.00  0.00     0.006 A 
ENDBRANCH  56  73
ENDBRANCH  30  31
ENDBRANCH  23  25
ENDBRANCH  22  23
ENDBRANCH  21  22
ENDBRANCH  20  21
ENDBRANCH   1  20
TORSDOF 16
ENDMDL
MODEL 3
REMARK VINA RESULT:     -10.5      2.638      4.096
REMARK SMILES O=C(Cc1ccn(-c2ccccc2F)c1)OCCOCCOC(=O)c1ccc(-c2c3nc(c(-c4c(F)cccc4F)c4ccc([nH]4)c(-c4c(F)cccc4F)c4nc(c(-c5c(F)cccc5F)c5ccc2[nH]5)C=C4)C=C3)cc1
REMARK SMILES IDX 19 1 18 2 17 3 16 4 2 5 1 6 3 7 4 8 5 9 15 10 6 11 7 12 8 13
REMARK SMILES IDX 9 14 13 15 10 16 12 17 14 18 11 19 20 20 21 21 22 22 23 23
REMARK SMILES IDX 24 24 25 25 26 26 78 27 27 28 77 29 28 30 29 31 30 32 71 33
REMARK SMILES IDX 31 34 76 35 70 36 72 37 32 38 75 39 69 40 68 41 33 43 59 44
REMARK SMILES IDX 42 45 58 46 43 47 46 48 57 49 73 50 44 51 45 52 56 54 74 55
REMARK SMILES IDX 47 56 34 57 35 58 40 59 36 60 37 61 39 62 41 63 38 64 60 65
REMARK SMILES IDX 61 66 66 67 62 68 63 69 65 70 67 71 64 72 48 73 49 74 54 75
REMARK SMILES IDX 50 76 51 77 53 78 55 79 52 80
REMARK H PARENT 72 42 46 53
REMARK Flexibility Score: inf
ROOT
ATOM      1  O   UNL A   1      36.994  22.502  25.846  1.00  0.00    -0.374 OA
ENDROOT
BRANCH   1   2
ATOM      2  C   UNL A   1      36.228  21.334  25.555  1.00  0.00     0.202 C 
BRANCH   2   3
ATOM      3  C   UNL A   1      34.735  21.492  25.773  1.00  0.00     0.261 C 
BRANCH   3   4
ATOM      4  O   UNL A   1      33.951  20.830  24.760  1.00  0.00    -0.463 OA
BRANCH   4   5
ATOM      5  C   UNL A   1      32.629  20.979  24.516  1.00  0.00     0.310 C 
ATOM      6  O   UNL A   1      31.835  20.234  25.097  1.00  0.00    -0.252 OA
BRANCH   5   7
ATOM      7  C   UNL A   1      32.129  21.942  23.464  1.00  0.00     0.159 C 
BRANCH   7   8
ATOM      8  C   UNL A   1      31.638  23.259  23.946  1.00  0.00    -0.019 A 
ATOM      9  C   UNL A   1      31.468  23.698  25.284  1.00  0.00     0.024 A 
ATOM     10  C   UNL A   1      31.312  24.333  23.137  1.00  0.00     0.095 A 
ATOM     11  C   UNL A   1      31.184  25.045  25.239  1.00  0.00     0.091 A 
ATOM     12  N   UNL A   1      31.012  25.423  23.923  1.00  0.00    -0.321 N 
BRANCH  12  13
ATOM     13  C   UNL A   1      30.595  26.696  23.471  1.00  0.00     0.081 A 
ATOM     14  C   UNL A   1      31.544  27.646  23.071  1.00  0.00     0.030 A 
ATOM     15  C   UNL A   1      29.239  27.036  23.473  1.00  0.00     0.147 A 
ATOM     16  C   UNL A   1      31.130  28.925  22.693  1.00  0.00     0.002 A 
ATOM     17  C   UNL A   1      28.832  28.322  23.128  1.00  0.00     0.041 A 
ATOM     18  F   UNL A   1      28.298  26.176  23.888  1.00  0.00    -0.205 F 
ATOM     19  C   UNL A   1      29.779  29.269  22.738  1.00  0.00     0.003 A 
ENDBRANCH  12  13
ENDBRANCH   7   8
ENDBRANCH   5   7
ENDBRANCH   4   5
ENDBRANCH   3   4
ENDBRANCH   2   3
ENDBRANCH   1   2
BRANCH   1  20
ATOM     20  C   UNL A   1      38.405  22.325  25.983  1.00  0.00     0.202 C 
BRANCH  20  21
ATOM     21  C   UNL A   1      38.946  20.989  25.508  1.00  0.00     0.261 C 
BRANCH  21  22
ATOM     22  O   UNL A   1      39.674  20.348  26.546  1.00  0.00    -0.460 OA
BRANCH  22  23
ATOM     23  C   UNL A   1      40.861  19.836  26.177  1.00  0.00     0.338 C 
ATOM     24  O   UNL A   1      41.090  18.712  25.735  1.00  0.00    -0.246 OA
BRANCH  23  25
ATOM     25  C   UNL A   1      41.906  20.800  26.506  1.00  0.00     0.060 A 
ATOM     26  C   UNL A   1      42.019  21.162  27.851  1.00  0.00     0.016 A 
ATOM     27  C   UNL A   1      42.513  21.532  25.476  1.00  0.00     0.016 A 
ATOM     28  C   UNL A   1      42.569  22.385  28.152  1.00  0.00     0.010 A 
ATOM     29  C   UNL A   1      43.016  22.775  25.769  1.00  0.00     0.010 A 
ATOM     30  C   UNL A   1      42.983  23.206  27.098  1.00  0.00    -0.014 A 
BRANCH  30  31
ATOM     31  C   UNL A   1      43.432  24.556  27.421  1.00  0.00     0.031 A 
ATOM     32  C   UNL A   1      42.262  25.497  27.592  1.00  0.00     0.074 A 
ATOM     33  C   UNL A   1      44.784  24.727  27.463  1.00  0.00     0.049 A 
ATOM     34  N   UNL A   1      42.202  26.772  27.386  1.00  0.00    -0.248 NA
ATOM     35  C   UNL A   1      40.933  24.928  27.953  1.00  0.00     0.031 C 
ATOM     36  C   UNL A   1      45.757  23.639  27.245  1.00  0.00     0.029 A 
ATOM     37  N   UNL A   1      45.613  25.805  27.679  1.00  0.00    -0.354 N 
ATOM     38  C   UNL A   1      40.926  27.179  27.798  1.00  0.00     0.074 A 
ATOM     39  C   UNL A   1      40.143  25.997  27.982  1.00  0.00     0.031 C 
ATOM     40  C   UNL A   1      47.015  24.116  27.262  1.00  0.00     0.029 A 
ATOM     41  C   UNL A   1      46.997  25.542  27.518  1.00  0.00     0.049 A 
ATOM     42  H   UNL A   1      45.270  26.694  27.927  1.00  0.00     0.167 HD
ATOM     43  C   UNL A   1      40.637  28.461  28.142  1.00  0.00     0.037 A 
ATOM     44  C   UNL A   1      48.050  26.415  27.548  1.00  0.00     0.037 A 
ATOM     45  C   UNL A   1      41.762  29.312  27.934  1.00  0.00     0.049 A 
ATOM     46  C   UNL A   1      47.476  27.723  27.929  1.00  0.00     0.074 A 
ATOM     47  C   UNL A   1      42.381  29.783  26.805  1.00  0.00     0.029 A 
ATOM     48  N   UNL A   1      42.601  29.497  29.006  1.00  0.00    -0.354 N 
ATOM     49  N   UNL A   1      47.019  28.024  29.110  1.00  0.00    -0.248 NA
ATOM     50  C   UNL A   1      47.291  28.743  26.889  1.00  0.00     0.031 C 
ATOM     51  C   UNL A   1      43.742  29.907  27.170  1.00  0.00     0.029 A 
ATOM     52  C   UNL A   1      43.886  29.593  28.525  1.00  0.00     0.049 A 
ATOM     53  H   UNL A   1      42.330  29.550  29.951  1.00  0.00     0.167 HD
ATOM     54  C   UNL A   1      46.212  29.111  28.857  1.00  0.00     0.074 A 
ATOM     55  C   UNL A   1      46.648  29.666  27.597  1.00  0.00     0.031 C 
ATOM     56  C   UNL A   1      44.966  29.168  29.392  1.00  0.00     0.037 A 
BRANCH  43  57
ATOM     57  C   UNL A   1      39.471  28.982  28.918  1.00  0.00     0.057 A 
ATOM     58  C   UNL A   1      38.320  29.521  28.327  1.00  0.00     0.134 A 
ATOM     59  C   UNL A   1      39.370  28.644  30.280  1.00  0.00     0.134 A 
ATOM     60  F   UNL A   1      38.276  29.828  27.023  1.00  0.00    -0.206 F 
ATOM     61  C   UNL A   1      37.127  29.674  29.040  1.00  0.00     0.040 A 
ATOM     62  C   UNL A   1      38.172  28.747  30.987  1.00  0.00     0.040 A 
ATOM     63  F   UNL A   1      40.422  28.136  30.943  1.00  0.00    -0.206 F 
ATOM     64  C   UNL A   1      37.040  29.253  30.363  1.00  0.00     0.006 A 
ENDBRANCH  43  57
BRANCH  44  65
ATOM     65  C   UNL A   1      49.523  26.370  27.197  1.00  0.00     0.057 A 
ATOM     66  C   UNL A   1      49.931  26.273  25.840  1.00  0.00     0.134 A 
ATOM     67  C   UNL A   1      50.594  26.344  28.098  1.00  0.00     0.134 A 
ATOM     68  F   UNL A   1      49.064  26.421  24.828  1.00  0.00    -0.206 F 
ATOM     69  C   UNL A   1      51.245  26.015  25.430  1.00  0.00     0.040 A 
ATOM     70  C   UNL A   1      51.926  26.112  27.701  1.00  0.00     0.040 A 
ATOM     71  F   UNL A   1      50.428  26.566  29.404  1.00  0.00    -0.206 F 
ATOM     72  C   UNL A   1      52.252  25.911  26.368  1.00  0.00     0.006 A 
ENDBRANCH  44  65
BRANCH  56  73
ATOM     73  C   UNL A   1      44.809  28.367  30.666  1.00  0.00     0.057 A 
ATOM     74  C   UNL A   1      44.175  27.118  30.721  1.00  0.00     0.134 A 
ATOM     75  C   UNL A   1      45.410  28.797  31.853  1.00  0.00     0.134 A 
ATOM     76  F   UNL A   1      43.578  26.613  29.644  1.00  0.00    -0.206 F 
ATOM     77  C   UNL A   1      44.134  26.333  31.878  1.00  0.00     0.040 A 
ATOM     78  C   UNL A   1      45.387  28.022  33.021  1.00  0.00     0.040 A 
ATOM     79  F   UNL A   1      46.035  29.983  31.900  1.00  0.00    -0.206 F 
ATOM     80  C   UNL A   1      44.751  26.783  33.036  1.00  0.00     0.006 A 
ENDBRANCH  56  73
ENDBRANCH  30  31
ENDBRANCH  23  25
ENDBRANCH  22  23
ENDBRANCH  21  22
ENDBRANCH  20  21
ENDBRANCH   1  20
TORSDOF 16
ENDMDL
