MODEL 1
REMARK VINA RESULT:     -10.9      0.000      0.000
REMARK SMILES Nc1c(CC(=O)OCCOCCOC(=O)c2ccc(-c3c4nc(c(-c5c(F)cccc5F)c5ccc([nH]5)c(-c5c(F)cccc5F)c5nc(c(-c6c(F)cccc6F)c6ccc3[nH]6)C=C5)C=C4)cc2)cccc1C(=O)c1ccc(Br)cc1
REMARK SMILES IDX 9 1 8 2 7 3 5 4 6 5 4 6 3 7 2 8 73 9 70 10 72 11 71 12 1 13
REMARK SMILES IDX 74 16 75 17 76 18 77 19 82 20 78 21 81 22 79 23 80 24 10 25
REMARK SMILES IDX 11 26 12 27 13 28 14 29 15 30 16 31 17 32 69 33 18 34 68 35
REMARK SMILES IDX 19 36 20 37 21 38 62 39 22 40 67 41 61 42 63 43 23 44 66 45
REMARK SMILES IDX 60 46 59 47 24 49 50 50 33 51 49 52 34 53 37 54 48 55 64 56
REMARK SMILES IDX 35 57 36 58 47 60 65 61 38 62 25 63 26 64 31 65 27 66 28 67
REMARK SMILES IDX 30 68 32 69 29 70 51 71 52 72 57 73 53 74 54 75 56 76 58 77
REMARK SMILES IDX 55 78 39 79 40 80 45 81 41 82 42 83 44 84 46 85 43 86
REMARK H PARENT 1 14 1 15 63 48 37 59
REMARK Flexibility Score: inf
ROOT
ATOM      1  C   UNL A   1      32.768  35.744  31.084  1.00  0.00     0.202 C 
ENDROOT
BRANCH   1   2
ATOM      2  C   UNL A   1      33.712  35.315  29.958  1.00  0.00     0.261 C 
BRANCH   2   3
ATOM      3  O   UNL A   1      33.371  34.000  29.487  1.00  0.00    -0.463 OA
BRANCH   3   4
ATOM      4  C   UNL A   1      33.665  33.748  28.188  1.00  0.00     0.310 C 
ATOM      5  O   UNL A   1      34.575  34.288  27.567  1.00  0.00    -0.252 OA
BRANCH   4   6
ATOM      6  C   UNL A   1      32.833  32.646  27.576  1.00  0.00     0.160 C 
BRANCH   6   7
ATOM      7  C   UNL A   1      33.467  31.279  27.399  1.00  0.00    -0.013 A 
ATOM      8  C   UNL A   1      33.003  30.359  26.433  1.00  0.00     0.047 A 
ATOM      9  C   UNL A   1      33.795  29.209  26.176  1.00  0.00     0.046 A 
ATOM     10  C   UNL A   1      34.592  30.961  28.187  1.00  0.00     0.006 A 
ATOM     11  C   UNL A   1      34.898  28.903  26.993  1.00  0.00     0.014 A 
ATOM     12  C   UNL A   1      35.282  29.767  28.010  1.00  0.00     0.001 A 
BRANCH   8  13
ATOM     13  N   UNL A   1      31.859  30.661  25.694  1.00  0.00    -0.398 N 
ATOM     14  H   UNL A   1      31.434  29.968  25.139  1.00  0.00     0.156 HD
ATOM     15  H   UNL A   1      31.476  31.567  25.730  1.00  0.00     0.156 HD
ENDBRANCH   8  13
BRANCH   9  16
ATOM     16  C   UNL A   1      33.551  28.254  25.055  1.00  0.00     0.195 C 
ATOM     17  O   UNL A   1      33.521  28.663  23.896  1.00  0.00    -0.289 OA
BRANCH  16  18
ATOM     18  C   UNL A   1      33.341  26.807  25.298  1.00  0.00     0.023 A 
ATOM     19  C   UNL A   1      32.431  26.434  26.292  1.00  0.00     0.013 A 
ATOM     20  C   UNL A   1      33.968  25.829  24.514  1.00  0.00     0.013 A 
ATOM     21  C   UNL A   1      32.086  25.091  26.452  1.00  0.00     0.016 A 
ATOM     22  C   UNL A   1      33.621  24.486  24.675  1.00  0.00     0.016 A 
ATOM     23  C   UNL A   1      32.670  24.126  25.631  1.00  0.00     0.018 A 
ATOM     24  Br  UNL A   1      32.147  22.317  25.797  1.00  0.00    -0.051 Br
ENDBRANCH  16  18
ENDBRANCH   9  16
ENDBRANCH   6   7
ENDBRANCH   4   6
ENDBRANCH   3   4
ENDBRANCH   2   3
ENDBRANCH   1   2
BRANCH   1  25
ATOM     25  O   UNL A   1      32.881  35.004  32.303  1.00  0.00    -0.374 OA
BRANCH  25  26
ATOM     26  C   UNL A   1      34.198  34.726  32.779  1.00  0.00     0.202 C 
BRANCH  26  27
ATOM     27  C   UNL A   1      34.360  33.467  33.638  1.00  0.00     0.261 C 
BRANCH  27  28
ATOM     28  O   UNL A   1      35.073  32.423  32.952  1.00  0.00    -0.460 OA
BRANCH  28  29
ATOM     29  C   UNL A   1      36.326  32.213  33.414  1.00  0.00     0.338 C 
ATOM     30  O   UNL A   1      36.771  32.527  34.513  1.00  0.00    -0.246 OA
BRANCH  29  31
ATOM     31  C   UNL A   1      37.111  31.386  32.479  1.00  0.00     0.060 A 
ATOM     32  C   UNL A   1      38.147  30.625  33.032  1.00  0.00     0.016 A 
ATOM     33  C   UNL A   1      36.930  31.439  31.094  1.00  0.00     0.016 A 
ATOM     34  C   UNL A   1      39.064  29.989  32.203  1.00  0.00     0.010 A 
ATOM     35  C   UNL A   1      37.858  30.799  30.259  1.00  0.00     0.010 A 
ATOM     36  C   UNL A   1      38.959  30.120  30.811  1.00  0.00    -0.014 A 
BRANCH  36  37
ATOM     37  C   UNL A   1      40.115  29.698  29.981  1.00  0.00     0.031 A 
ATOM     38  C   UNL A   1      41.260  30.657  29.787  1.00  0.00     0.074 A 
ATOM     39  C   UNL A   1      40.198  28.444  29.501  1.00  0.00     0.049 A 
ATOM     40  N   UNL A   1      42.417  30.462  29.205  1.00  0.00    -0.248 NA
ATOM     41  C   UNL A   1      41.081  32.014  30.326  1.00  0.00     0.031 C 
ATOM     42  C   UNL A   1      39.173  27.414  29.650  1.00  0.00     0.029 A 
ATOM     43  N   UNL A   1      41.207  27.822  28.809  1.00  0.00    -0.354 N 
ATOM     44  C   UNL A   1      43.104  31.665  29.316  1.00  0.00     0.074 A 
ATOM     45  C   UNL A   1      42.221  32.596  29.983  1.00  0.00     0.031 C 
ATOM     46  C   UNL A   1      39.609  26.280  29.073  1.00  0.00     0.029 A 
ATOM     47  C   UNL A   1      40.936  26.511  28.506  1.00  0.00     0.049 A 
ATOM     48  H   UNL A   1      42.043  28.272  28.554  1.00  0.00     0.167 HD
ATOM     49  C   UNL A   1      44.362  31.965  28.914  1.00  0.00     0.037 A 
ATOM     50  C   UNL A   1      41.679  25.599  27.847  1.00  0.00     0.037 A 
ATOM     51  C   UNL A   1      45.245  31.042  28.253  1.00  0.00     0.049 A 
ATOM     52  C   UNL A   1      43.056  25.972  27.367  1.00  0.00     0.074 A 
ATOM     53  C   UNL A   1      46.545  31.248  27.822  1.00  0.00     0.029 A 
ATOM     54  N   UNL A   1      44.915  29.737  27.921  1.00  0.00    -0.354 N 
ATOM     55  N   UNL A   1      43.706  27.101  27.512  1.00  0.00    -0.248 NA
ATOM     56  C   UNL A   1      43.806  24.936  26.642  1.00  0.00     0.031 C 
ATOM     57  C   UNL A   1      46.986  30.079  27.192  1.00  0.00     0.029 A 
ATOM     58  C   UNL A   1      45.977  29.132  27.269  1.00  0.00     0.049 A 
ATOM     59  H   UNL A   1      44.053  29.305  28.120  1.00  0.00     0.167 HD
ATOM     60  C   UNL A   1      44.946  26.906  26.915  1.00  0.00     0.074 A 
ATOM     61  C   UNL A   1      44.964  25.544  26.424  1.00  0.00     0.031 C 
ATOM     62  C   UNL A   1      45.978  27.776  26.785  1.00  0.00     0.037 A 
BRANCH  49  63
ATOM     63  C   UNL A   1      44.850  33.361  29.168  1.00  0.00     0.057 A 
ATOM     64  C   UNL A   1      44.637  34.397  28.248  1.00  0.00     0.134 A 
ATOM     65  C   UNL A   1      45.520  33.678  30.356  1.00  0.00     0.134 A 
ATOM     66  F   UNL A   1      44.015  34.155  27.085  1.00  0.00    -0.206 F 
ATOM     67  C   UNL A   1      45.094  35.693  28.492  1.00  0.00     0.040 A 
ATOM     68  C   UNL A   1      45.961  34.975  30.621  1.00  0.00     0.040 A 
ATOM     69  F   UNL A   1      45.751  32.733  31.280  1.00  0.00    -0.206 F 
ATOM     70  C   UNL A   1      45.753  35.987  29.684  1.00  0.00     0.006 A 
ENDBRANCH  49  63
BRANCH  50  71
ATOM     71  C   UNL A   1      41.140  24.238  27.607  1.00  0.00     0.057 A 
ATOM     72  C   UNL A   1      41.614  23.130  28.319  1.00  0.00     0.134 A 
ATOM     73  C   UNL A   1      40.149  24.011  26.644  1.00  0.00     0.134 A 
ATOM     74  F   UNL A   1      42.579  23.281  29.237  1.00  0.00    -0.206 F 
ATOM     75  C   UNL A   1      41.135  21.842  28.069  1.00  0.00     0.040 A 
ATOM     76  C   UNL A   1      39.645  22.733  26.401  1.00  0.00     0.040 A 
ATOM     77  F   UNL A   1      39.654  25.032  25.928  1.00  0.00    -0.206 F 
ATOM     78  C   UNL A   1      40.143  21.643  27.111  1.00  0.00     0.006 A 
ENDBRANCH  50  71
BRANCH  62  79
ATOM     79  C   UNL A   1      47.215  27.273  26.102  1.00  0.00     0.057 A 
ATOM     80  C   UNL A   1      47.432  27.467  24.732  1.00  0.00     0.134 A 
ATOM     81  C   UNL A   1      48.214  26.610  26.828  1.00  0.00     0.134 A 
ATOM     82  F   UNL A   1      46.510  28.085  23.979  1.00  0.00    -0.206 F 
ATOM     83  C   UNL A   1      48.586  26.996  24.103  1.00  0.00     0.040 A 
ATOM     84  C   UNL A   1      49.382  26.156  26.215  1.00  0.00     0.040 A 
ATOM     85  F   UNL A   1      48.073  26.399  28.146  1.00  0.00    -0.206 F 
ATOM     86  C   UNL A   1      49.567  26.343  24.846  1.00  0.00     0.006 A 
ENDBRANCH  62  79
ENDBRANCH  36  37
ENDBRANCH  29  31
ENDBRANCH  28  29
ENDBRANCH  27  28
ENDBRANCH  26  27
ENDBRANCH  25  26
ENDBRANCH   1  25
TORSDOF 18
ENDMDL
MODEL 2
REMARK VINA RESULT:     -10.9      5.131     10.350
REMARK SMILES Nc1c(CC(=O)OCCOCCOC(=O)c2ccc(-c3c4nc(c(-c5c(F)cccc5F)c5ccc([nH]5)c(-c5c(F)cccc5F)c5nc(c(-c6c(F)cccc6F)c6ccc3[nH]6)C=C5)C=C4)cc2)cccc1C(=O)c1ccc(Br)cc1
REMARK SMILES IDX 9 1 8 2 7 3 5 4 6 5 4 6 3 7 2 8 73 9 70 10 72 11 71 12 1 13
REMARK SMILES IDX 74 16 75 17 76 18 77 19 82 20 78 21 81 22 79 23 80 24 10 25
REMARK SMILES IDX 11 26 12 27 13 28 14 29 15 30 16 31 17 32 69 33 18 34 68 35
REMARK SMILES IDX 19 36 20 37 21 38 62 39 22 40 67 41 61 42 63 43 23 44 66 45
REMARK SMILES IDX 60 46 59 47 24 49 50 50 33 51 49 52 34 53 37 54 48 55 64 56
REMARK SMILES IDX 35 57 36 58 47 60 65 61 38 62 25 63 26 64 31 65 27 66 28 67
REMARK SMILES IDX 30 68 32 69 29 70 51 71 52 72 57 73 53 74 54 75 56 76 58 77
REMARK SMILES IDX 55 78 39 79 40 80 45 81 41 82 42 83 44 84 46 85 43 86
REMARK H PARENT 1 14 1 15 63 48 37 59
REMARK Flexibility Score: inf
ROOT
ATOM      1  C   UNL A   1      41.234  20.969  27.264  1.00  0.00     0.202 C 
ENDROOT
BRANCH   1   2
ATOM      2  C   UNL A   1      40.289  21.887  26.485  1.00  0.00     0.261 C 
BRANCH   2   3
ATOM      3  O   UNL A   1      39.300  21.116  25.782  1.00  0.00    -0.463 OA
BRANCH   3   4
ATOM      4  C   UNL A   1      38.088  21.706  25.639  1.00  0.00     0.310 C 
ATOM      5  O   UNL A   1      37.822  22.841  26.020  1.00  0.00    -0.252 OA
BRANCH   4   6
ATOM      6  C   UNL A   1      37.093  20.877  24.861  1.00  0.00     0.160 C 
BRANCH   6   7
ATOM      7  C   UNL A   1      35.690  21.423  24.675  1.00  0.00    -0.013 A 
ATOM      8  C   UNL A   1      35.412  22.481  23.781  1.00  0.00     0.047 A 
ATOM      9  C   UNL A   1      34.051  22.768  23.494  1.00  0.00     0.046 A 
ATOM     10  C   UNL A   1      34.636  20.800  25.375  1.00  0.00     0.006 A 
ATOM     11  C   UNL A   1      33.021  22.150  24.224  1.00  0.00     0.014 A 
ATOM     12  C   UNL A   1      33.314  21.184  25.178  1.00  0.00     0.001 A 
BRANCH   8  13
ATOM     13  N   UNL A   1      36.466  23.123  23.132  1.00  0.00    -0.398 N 
ATOM     14  H   UNL A   1      36.424  24.092  22.965  1.00  0.00     0.156 HD
ATOM     15  H   UNL A   1      37.253  22.607  22.843  1.00  0.00     0.156 HD
ENDBRANCH   8  13
BRANCH   9  16
ATOM     16  C   UNL A   1      33.598  23.710  22.429  1.00  0.00     0.195 C 
ATOM     17  O   UNL A   1      33.637  23.367  21.249  1.00  0.00    -0.289 OA
BRANCH  16  18
ATOM     18  C   UNL A   1      33.094  25.066  22.752  1.00  0.00     0.023 A 
ATOM     19  C   UNL A   1      32.021  25.562  22.003  1.00  0.00     0.013 A 
ATOM     20  C   UNL A   1      33.611  25.811  23.821  1.00  0.00     0.013 A 
ATOM     21  C   UNL A   1      31.414  26.764  22.369  1.00  0.00     0.016 A 
ATOM     22  C   UNL A   1      33.002  27.013  24.185  1.00  0.00     0.016 A 
ATOM     23  C   UNL A   1      31.897  27.475  23.468  1.00  0.00     0.018 A 
ATOM     24  Br  UNL A   1      31.027  29.064  24.009  1.00  0.00    -0.051 Br
ENDBRANCH  16  18
ENDBRANCH   9  16
ENDBRANCH   6   7
ENDBRANCH   4   6
ENDBRANCH   3   4
ENDBRANCH   2   3
ENDBRANCH   1   2
BRANCH   1  25
ATOM     25  O   UNL A   1      42.630  21.223  27.087  1.00  0.00    -0.374 OA
BRANCH  25  26
ATOM     26  C   UNL A   1      43.132  21.214  25.750  1.00  0.00     0.202 C 
BRANCH  26  27
ATOM     27  C   UNL A   1      44.221  22.241  25.425  1.00  0.00     0.261 C 
BRANCH  27  28
ATOM     28  O   UNL A   1      43.707  23.379  24.711  1.00  0.00    -0.460 OA
BRANCH  28  29
ATOM     29  C   UNL A   1      44.297  24.550  25.038  1.00  0.00     0.338 C 
ATOM     30  O   UNL A   1      45.380  24.968  24.643  1.00  0.00    -0.246 OA
BRANCH  29  31
ATOM     31  C   UNL A   1      43.396  25.399  25.840  1.00  0.00     0.060 A 
ATOM     32  C   UNL A   1      43.896  26.645  26.236  1.00  0.00     0.016 A 
ATOM     33  C   UNL A   1      42.154  24.953  26.301  1.00  0.00     0.016 A 
ATOM     34  C   UNL A   1      43.201  27.411  27.165  1.00  0.00     0.010 A 
ATOM     35  C   UNL A   1      41.456  25.727  27.239  1.00  0.00     0.010 A 
ATOM     36  C   UNL A   1      42.006  26.931  27.716  1.00  0.00    -0.014 A 
BRANCH  36  37
ATOM     37  C   UNL A   1      41.464  27.617  28.916  1.00  0.00     0.031 A 
ATOM     38  C   UNL A   1      42.191  27.474  30.227  1.00  0.00     0.074 A 
ATOM     39  C   UNL A   1      40.409  28.446  28.819  1.00  0.00     0.049 A 
ATOM     40  N   UNL A   1      41.970  28.075  31.370  1.00  0.00    -0.248 NA
ATOM     41  C   UNL A   1      43.323  26.534  30.252  1.00  0.00     0.031 C 
ATOM     42  C   UNL A   1      39.641  28.695  27.600  1.00  0.00     0.029 A 
ATOM     43  N   UNL A   1      39.817  29.247  29.763  1.00  0.00    -0.354 N 
ATOM     44  C   UNL A   1      42.937  27.592  32.244  1.00  0.00     0.074 A 
ATOM     45  C   UNL A   1      43.721  26.620  31.514  1.00  0.00     0.031 C 
ATOM     46  C   UNL A   1      38.682  29.598  27.869  1.00  0.00     0.029 A 
ATOM     47  C   UNL A   1      38.763  29.980  29.278  1.00  0.00     0.049 A 
ATOM     48  H   UNL A   1      40.120  29.292  30.698  1.00  0.00     0.167 HD
ATOM     49  C   UNL A   1      43.164  27.938  33.533  1.00  0.00     0.037 A 
ATOM     50  C   UNL A   1      37.956  30.860  29.902  1.00  0.00     0.037 A 
ATOM     51  C   UNL A   1      42.390  28.906  34.263  1.00  0.00     0.049 A 
ATOM     52  C   UNL A   1      38.199  31.192  31.350  1.00  0.00     0.074 A 
ATOM     53  C   UNL A   1      42.554  29.336  35.569  1.00  0.00     0.029 A 
ATOM     54  N   UNL A   1      41.300  29.591  33.749  1.00  0.00    -0.354 N 
ATOM     55  N   UNL A   1      39.139  30.756  32.153  1.00  0.00    -0.248 NA
ATOM     56  C   UNL A   1      37.272  32.148  31.973  1.00  0.00     0.031 C 
ATOM     57  C   UNL A   1      41.535  30.251  35.858  1.00  0.00     0.029 A 
ATOM     58  C   UNL A   1      40.765  30.422  34.719  1.00  0.00     0.049 A 
ATOM     59  H   UNL A   1      40.956  29.498  32.832  1.00  0.00     0.167 HD
ATOM     60  C   UNL A   1      38.930  31.399  33.367  1.00  0.00     0.074 A 
ATOM     61  C   UNL A   1      37.786  32.268  33.190  1.00  0.00     0.031 C 
ATOM     62  C   UNL A   1      39.624  31.280  34.526  1.00  0.00     0.037 A 
BRANCH  49  63
ATOM     63  C   UNL A   1      44.293  27.248  34.241  1.00  0.00     0.057 A 
ATOM     64  C   UNL A   1      45.581  27.798  34.291  1.00  0.00     0.134 A 
ATOM     65  C   UNL A   1      44.084  26.030  34.899  1.00  0.00     0.134 A 
ATOM     66  F   UNL A   1      45.850  28.955  33.668  1.00  0.00    -0.206 F 
ATOM     67  C   UNL A   1      46.626  27.151  34.952  1.00  0.00     0.040 A 
ATOM     68  C   UNL A   1      45.115  25.384  35.583  1.00  0.00     0.040 A 
ATOM     69  F   UNL A   1      42.874  25.451  34.893  1.00  0.00    -0.206 F 
ATOM     70  C   UNL A   1      46.393  25.942  35.606  1.00  0.00     0.006 A 
ENDBRANCH  49  63
BRANCH  50  71
ATOM     71  C   UNL A   1      36.843  31.501  29.158  1.00  0.00     0.057 A 
ATOM     72  C   UNL A   1      35.669  30.802  28.857  1.00  0.00     0.134 A 
ATOM     73  C   UNL A   1      36.938  32.826  28.713  1.00  0.00     0.134 A 
ATOM     74  F   UNL A   1      35.530  29.523  29.236  1.00  0.00    -0.206 F 
ATOM     75  C   UNL A   1      34.635  31.390  28.125  1.00  0.00     0.040 A 
ATOM     76  C   UNL A   1      35.904  33.434  28.001  1.00  0.00     0.040 A 
ATOM     77  F   UNL A   1      38.039  33.549  28.969  1.00  0.00    -0.206 F 
ATOM     78  C   UNL A   1      34.750  32.712  27.700  1.00  0.00     0.006 A 
ENDBRANCH  50  71
BRANCH  62  79
ATOM     79  C   UNL A   1      39.174  32.124  35.682  1.00  0.00     0.057 A 
ATOM     80  C   UNL A   1      38.285  31.637  36.649  1.00  0.00     0.134 A 
ATOM     81  C   UNL A   1      39.656  33.429  35.845  1.00  0.00     0.134 A 
ATOM     82  F   UNL A   1      37.779  30.398  36.544  1.00  0.00    -0.206 F 
ATOM     83  C   UNL A   1      37.870  32.427  37.722  1.00  0.00     0.040 A 
ATOM     84  C   UNL A   1      39.267  34.220  36.928  1.00  0.00     0.040 A 
ATOM     85  F   UNL A   1      40.517  33.954  34.961  1.00  0.00    -0.206 F 
ATOM     86  C   UNL A   1      38.365  33.721  37.866  1.00  0.00     0.006 A 
ENDBRANCH  62  79
ENDBRANCH  36  37
ENDBRANCH  29  31
ENDBRANCH  28  29
ENDBRANCH  27  28
ENDBRANCH  26  27
ENDBRANCH  25  26
ENDBRANCH   1  25
TORSDOF 18
ENDMDL
MODEL 3
REMARK VINA RESULT:     -10.8      3.932      6.858
REMARK SMILES Nc1c(CC(=O)OCCOCCOC(=O)c2ccc(-c3c4nc(c(-c5c(F)cccc5F)c5ccc([nH]5)c(-c5c(F)cccc5F)c5nc(c(-c6c(F)cccc6F)c6ccc3[nH]6)C=C5)C=C4)cc2)cccc1C(=O)c1ccc(Br)cc1
REMARK SMILES IDX 9 1 8 2 7 3 5 4 6 5 4 6 3 7 2 8 73 9 70 10 72 11 71 12 1 13
REMARK SMILES IDX 74 16 75 17 76 18 77 19 82 20 78 21 81 22 79 23 80 24 10 25
REMARK SMILES IDX 11 26 12 27 13 28 14 29 15 30 16 31 17 32 69 33 18 34 68 35
REMARK SMILES IDX 19 36 20 37 21 38 62 39 22 40 67 41 61 42 63 43 23 44 66 45
REMARK SMILES IDX 60 46 59 47 24 49 50 50 33 51 49 52 34 53 37 54 48 55 64 56
REMARK SMILES IDX 35 57 36 58 47 60 65 61 38 62 25 63 26 64 31 65 27 66 28 67
REMARK SMILES IDX 30 68 32 69 29 70 51 71 52 72 57 73 53 74 54 75 56 76 58 77
REMARK SMILES IDX 55 78 39 79 40 80 45 81 41 82 42 83 44 84 46 85 43 86
REMARK H PARENT 1 14 1 15 63 48 37 59
REMARK Flexibility Score: inf
ROOT
ATOM      1  C   UNL A   1      32.932  29.713  26.263  1.00  0.00     0.202 C 
ENDROOT
BRANCH   1   2
ATOM      2  C   UNL A   1      32.729  29.283  24.808  1.00  0.00     0.261 C 
BRANCH   2   3
ATOM      3  O   UNL A   1      32.192  27.951  24.745  1.00  0.00    -0.463 OA
BRANCH   3   4
ATOM      4  C   UNL A   1      31.264  27.736  23.780  1.00  0.00     0.310 C 
ATOM      5  O   UNL A   1      31.354  28.153  22.629  1.00  0.00    -0.252 OA
BRANCH   4   6
ATOM      6  C   UNL A   1      30.132  26.833  24.210  1.00  0.00     0.160 C 
BRANCH   6   7
ATOM      7  C   UNL A   1      30.464  25.413  24.628  1.00  0.00    -0.013 A 
ATOM      8  C   UNL A   1      31.064  24.493  23.740  1.00  0.00     0.047 A 
ATOM      9  C   UNL A   1      31.552  23.273  24.278  1.00  0.00     0.046 A 
ATOM     10  C   UNL A   1      30.217  25.040  25.965  1.00  0.00     0.006 A 
ATOM     11  C   UNL A   1      31.270  22.914  25.608  1.00  0.00     0.014 A 
ATOM     12  C   UNL A   1      30.585  23.787  26.443  1.00  0.00     0.001 A 
BRANCH   8  13
ATOM     13  N   UNL A   1      31.257  24.855  22.407  1.00  0.00    -0.398 N 
ATOM     14  H   UNL A   1      30.692  25.549  21.999  1.00  0.00     0.156 HD
ATOM     15  H   UNL A   1      31.960  24.416  21.875  1.00  0.00     0.156 HD
ENDBRANCH   8  13
BRANCH   9  16
ATOM     16  C   UNL A   1      32.383  22.293  23.518  1.00  0.00     0.195 C 
ATOM     17  O   UNL A   1      31.899  21.687  22.564  1.00  0.00    -0.289 OA
BRANCH  16  18
ATOM     18  C   UNL A   1      33.795  22.025  23.881  1.00  0.00     0.023 A 
ATOM     19  C   UNL A   1      34.756  22.977  23.523  1.00  0.00     0.013 A 
ATOM     20  C   UNL A   1      34.164  20.897  24.625  1.00  0.00     0.013 A 
ATOM     21  C   UNL A   1      36.070  22.843  23.975  1.00  0.00     0.016 A 
ATOM     22  C   UNL A   1      35.479  20.766  25.077  1.00  0.00     0.016 A 
ATOM     23  C   UNL A   1      36.420  21.747  24.764  1.00  0.00     0.018 A 
ATOM     24  Br  UNL A   1      38.180  21.606  25.439  1.00  0.00    -0.051 Br
ENDBRANCH  16  18
ENDBRANCH   9  16
ENDBRANCH   6   7
ENDBRANCH   4   6
ENDBRANCH   3   4
ENDBRANCH   2   3
ENDBRANCH   1   2
BRANCH   1  25
ATOM     25  O   UNL A   1      31.836  30.409  26.862  1.00  0.00    -0.374 OA
BRANCH  25  26
ATOM     26  C   UNL A   1      31.272  31.497  26.127  1.00  0.00     0.202 C 
BRANCH  26  27
ATOM     27  C   UNL A   1      31.713  32.903  26.546  1.00  0.00     0.261 C 
BRANCH  27  28
ATOM     28  O   UNL A   1      32.091  32.970  27.932  1.00  0.00    -0.460 OA
BRANCH  28  29
ATOM     29  C   UNL A   1      33.093  33.839  28.192  1.00  0.00     0.338 C 
ATOM     30  O   UNL A   1      32.988  35.038  28.427  1.00  0.00    -0.246 OA
BRANCH  29  31
ATOM     31  C   UNL A   1      34.385  33.143  28.325  1.00  0.00     0.060 A 
ATOM     32  C   UNL A   1      34.345  31.837  28.828  1.00  0.00     0.016 A 
ATOM     33  C   UNL A   1      35.609  33.775  28.088  1.00  0.00     0.016 A 
ATOM     34  C   UNL A   1      35.524  31.191  29.183  1.00  0.00     0.010 A 
ATOM     35  C   UNL A   1      36.797  33.122  28.450  1.00  0.00     0.010 A 
ATOM     36  C   UNL A   1      36.753  31.851  29.051  1.00  0.00    -0.014 A 
BRANCH  36  37
ATOM     37  C   UNL A   1      37.939  31.262  29.723  1.00  0.00     0.031 A 
ATOM     38  C   UNL A   1      38.188  31.583  31.173  1.00  0.00     0.074 A 
ATOM     39  C   UNL A   1      38.717  30.367  29.088  1.00  0.00     0.049 A 
ATOM     40  N   UNL A   1      39.086  31.092  31.990  1.00  0.00    -0.248 NA
ATOM     41  C   UNL A   1      37.303  32.586  31.786  1.00  0.00     0.031 C 
ATOM     42  C   UNL A   1      38.559  29.948  27.697  1.00  0.00     0.029 A 
ATOM     43  N   UNL A   1      39.784  29.635  29.544  1.00  0.00    -0.354 N 
ATOM     44  C   UNL A   1      38.870  31.719  33.211  1.00  0.00     0.074 A 
ATOM     45  C   UNL A   1      37.783  32.655  33.020  1.00  0.00     0.031 C 
ATOM     46  C   UNL A   1      39.492  29.023  27.414  1.00  0.00     0.029 A 
ATOM     47  C   UNL A   1      40.317  28.795  28.599  1.00  0.00     0.049 A 
ATOM     48  H   UNL A   1      40.133  29.705  30.461  1.00  0.00     0.167 HD
ATOM     49  C   UNL A   1      39.505  31.523  34.390  1.00  0.00     0.037 A 
ATOM     50  C   UNL A   1      41.354  27.937  28.682  1.00  0.00     0.037 A 
ATOM     51  C   UNL A   1      40.584  30.591  34.587  1.00  0.00     0.049 A 
ATOM     52  C   UNL A   1      42.075  27.773  29.993  1.00  0.00     0.074 A 
ATOM     53  C   UNL A   1      41.281  30.310  35.750  1.00  0.00     0.029 A 
ATOM     54  N   UNL A   1      41.126  29.794  33.591  1.00  0.00    -0.354 N 
ATOM     55  N   UNL A   1      41.836  28.344  31.148  1.00  0.00    -0.248 NA
ATOM     56  C   UNL A   1      43.207  26.833  30.010  1.00  0.00     0.031 C 
ATOM     57  C   UNL A   1      42.273  29.371  35.446  1.00  0.00     0.029 A 
ATOM     58  C   UNL A   1      42.166  29.037  34.106  1.00  0.00     0.049 A 
ATOM     59  H   UNL A   1      40.819  29.770  32.657  1.00  0.00     0.167 HD
ATOM     60  C   UNL A   1      42.770  27.819  32.033  1.00  0.00     0.074 A 
ATOM     61  C   UNL A   1      43.568  26.871  31.286  1.00  0.00     0.031 C 
ATOM     62  C   UNL A   1      42.952  28.098  33.347  1.00  0.00     0.037 A 
BRANCH  49  63
ATOM     63  C   UNL A   1      39.054  32.348  35.559  1.00  0.00     0.057 A 
ATOM     64  C   UNL A   1      38.236  31.818  36.567  1.00  0.00     0.134 A 
ATOM     65  C   UNL A   1      39.461  33.681  35.691  1.00  0.00     0.134 A 
ATOM     66  F   UNL A   1      37.800  30.552  36.492  1.00  0.00    -0.206 F 
ATOM     67  C   UNL A   1      37.822  32.592  37.652  1.00  0.00     0.040 A 
ATOM     68  C   UNL A   1      39.071  34.458  36.783  1.00  0.00     0.040 A 
ATOM     69  F   UNL A   1      40.247  34.248  34.764  1.00  0.00    -0.206 F 
ATOM     70  C   UNL A   1      38.244  33.915  37.765  1.00  0.00     0.006 A 
ENDBRANCH  49  63
BRANCH  50  71
ATOM     71  C   UNL A   1      41.769  27.159  27.490  1.00  0.00     0.057 A 
ATOM     72  C   UNL A   1      41.293  25.862  27.263  1.00  0.00     0.134 A 
ATOM     73  C   UNL A   1      42.669  27.688  26.556  1.00  0.00     0.134 A 
ATOM     74  F   UNL A   1      40.447  25.292  28.134  1.00  0.00    -0.206 F 
ATOM     75  C   UNL A   1      41.711  25.113  26.161  1.00  0.00     0.040 A 
ATOM     76  C   UNL A   1      43.077  26.960  25.439  1.00  0.00     0.040 A 
ATOM     77  F   UNL A   1      43.162  28.926  26.718  1.00  0.00    -0.206 F 
ATOM     78  C   UNL A   1      42.602  25.665  25.243  1.00  0.00     0.006 A 
ENDBRANCH  50  71
BRANCH  62  79
ATOM     79  C   UNL A   1      44.042  27.354  34.061  1.00  0.00     0.057 A 
ATOM     80  C   UNL A   1      45.349  27.851  34.132  1.00  0.00     0.134 A 
ATOM     81  C   UNL A   1      43.774  26.140  34.707  1.00  0.00     0.134 A 
ATOM     82  F   UNL A   1      45.672  29.003  33.525  1.00  0.00    -0.206 F 
ATOM     83  C   UNL A   1      46.358  27.153  34.797  1.00  0.00     0.040 A 
ATOM     84  C   UNL A   1      44.769  25.445  35.396  1.00  0.00     0.040 A 
ATOM     85  F   UNL A   1      42.540  25.613  34.685  1.00  0.00    -0.206 F 
ATOM     86  C   UNL A   1      46.068  25.949  35.436  1.00  0.00     0.006 A 
ENDBRANCH  62  79
ENDBRANCH  36  37
ENDBRANCH  29  31
ENDBRANCH  28  29
ENDBRANCH  27  28
ENDBRANCH  26  27
ENDBRANCH  25  26
ENDBRANCH   1  25
TORSDOF 18
ENDMDL
