MODEL 1
REMARK VINA RESULT:     -12.1      0.000      0.000
REMARK SMILES Cc1c(-c2nn(-c3ccccc3)cc2/C=N/O)nnn1-c1ccc(C(=O)OCCOCCOC(=O)c2ccc(-c3c4nc(c(-c5c(F)cccc5F)c5ccc([nH]5)c(-c5c(F)cccc5F)c5nc(c(-c6c(F)cccc6F)c6ccc3[nH]6)C=C5)C=C4)cc2)cc1
REMARK SMILES IDX 29 1 28 2 27 3 25 4 26 5 24 6 21 7 22 8 91 9 23 10 90 11
REMARK SMILES IDX 20 12 1 13 2 14 3 15 18 16 19 17 4 18 5 19 14 20 6 21 13 22
REMARK SMILES IDX 15 23 16 24 17 25 7 27 8 28 12 29 9 30 11 31 10 32 30 33
REMARK SMILES IDX 31 34 32 35 33 36 34 37 35 38 36 39 37 40 89 41 38 42 88 43
REMARK SMILES IDX 39 44 40 45 41 46 82 47 42 48 87 49 81 50 83 51 43 52 86 53
REMARK SMILES IDX 80 54 79 55 44 57 70 58 53 59 69 60 54 61 57 62 68 63 84 64
REMARK SMILES IDX 55 65 56 66 67 68 85 69 58 70 45 71 46 72 51 73 47 74 48 75
REMARK SMILES IDX 50 76 52 77 49 78 71 79 72 80 77 81 73 82 74 83 76 84 78 85
REMARK SMILES IDX 75 86 59 87 60 88 65 89 61 90 62 91 64 92 66 93 63 94
REMARK H PARENT 17 26 83 56 57 67
REMARK Flexibility Score: inf
ROOT
ATOM      1  C   UNL A   1      32.777  36.174  30.716  1.00  0.00     0.202 C 
ENDROOT
BRANCH   1   2
ATOM      2  C   UNL A   1      32.863  35.799  29.235  1.00  0.00     0.261 C 
BRANCH   2   3
ATOM      3  O   UNL A   1      32.809  34.381  29.003  1.00  0.00    -0.460 OA
BRANCH   3   4
ATOM      4  C   UNL A   1      33.935  33.878  28.438  1.00  0.00     0.338 C 
ATOM      5  O   UNL A   1      35.062  34.339  28.509  1.00  0.00    -0.246 OA
BRANCH   4   6
ATOM      6  C   UNL A   1      33.672  32.560  27.829  1.00  0.00     0.060 A 
ATOM      7  C   UNL A   1      32.923  30.015  26.985  1.00  0.00     0.067 A 
ATOM      8  C   UNL A   1      32.030  31.080  26.835  1.00  0.00     0.029 A 
ATOM      9  C   UNL A   1      34.227  30.245  27.455  1.00  0.00     0.029 A 
ATOM     10  C   UNL A   1      32.396  32.344  27.292  1.00  0.00     0.018 A 
ATOM     11  C   UNL A   1      34.610  31.528  27.860  1.00  0.00     0.018 A 
BRANCH   7  12
ATOM     12  N   UNL A   1      32.454  28.703  26.730  1.00  0.00    -0.217 N 
ATOM     13  C   UNL A   1      33.839  28.105  24.678  1.00  0.00     0.069 C 
ATOM     14  C   UNL A   1      32.790  27.850  25.692  1.00  0.00     0.071 A 
ATOM     15  C   UNL A   1      32.029  26.725  25.948  1.00  0.00     0.137 A 
ATOM     16  N   UNL A   1      31.341  26.874  27.114  1.00  0.00    -0.128 NA
ATOM     17  N   UNL A   1      31.656  28.060  27.620  1.00  0.00    -0.061 NA
BRANCH  15  18
ATOM     18  C   UNL A   1      31.976  25.485  25.181  1.00  0.00     0.124 A 
ATOM     19  N   UNL A   1      32.494  24.339  25.639  1.00  0.00    -0.165 NA
ATOM     20  C   UNL A   1      31.459  25.362  23.870  1.00  0.00     0.044 A 
ATOM     21  N   UNL A   1      32.434  23.500  24.582  1.00  0.00    -0.240 N 
ATOM     22  C   UNL A   1      31.822  24.082  23.496  1.00  0.00     0.125 A 
BRANCH  20  23
ATOM     23  C   UNL A   1      30.735  26.287  23.036  1.00  0.00     0.166 C 
ATOM     24  N   UNL A   1      31.370  27.184  22.360  1.00  0.00    -0.097 NA
BRANCH  24  25
ATOM     25  O   UNL A   1      30.449  27.984  21.671  1.00  0.00    -0.411 OA
ATOM     26  H   UNL A   1      30.661  28.316  20.822  1.00  0.00     0.330 HD
ENDBRANCH  24  25
ENDBRANCH  20  23
BRANCH  21  27
ATOM     27  C   UNL A   1      33.000  22.206  24.644  1.00  0.00     0.065 A 
ATOM     28  C   UNL A   1      34.357  22.063  24.955  1.00  0.00     0.028 A 
ATOM     29  C   UNL A   1      32.209  21.082  24.377  1.00  0.00     0.028 A 
ATOM     30  C   UNL A   1      34.913  20.786  25.033  1.00  0.00     0.002 A 
ATOM     31  C   UNL A   1      32.790  19.812  24.400  1.00  0.00     0.002 A 
ATOM     32  C   UNL A   1      34.135  19.664  24.742  1.00  0.00     0.000 A 
ENDBRANCH  21  27
ENDBRANCH  15  18
ENDBRANCH   7  12
ENDBRANCH   4   6
ENDBRANCH   3   4
ENDBRANCH   2   3
ENDBRANCH   1   2
BRANCH   1  33
ATOM     33  O   UNL A   1      32.819  35.150  31.707  1.00  0.00    -0.374 OA
BRANCH  33  34
ATOM     34  C   UNL A   1      34.056  34.717  32.264  1.00  0.00     0.202 C 
BRANCH  34  35
ATOM     35  C   UNL A   1      34.317  33.223  32.402  1.00  0.00     0.261 C 
BRANCH  35  36
ATOM     36  O   UNL A   1      35.264  32.777  31.449  1.00  0.00    -0.460 OA
BRANCH  36  37
ATOM     37  C   UNL A   1      36.019  31.739  31.878  1.00  0.00     0.338 C 
ATOM     38  O   UNL A   1      36.226  31.397  33.025  1.00  0.00    -0.246 OA
BRANCH  37  39
ATOM     39  C   UNL A   1      36.664  31.124  30.709  1.00  0.00     0.060 A 
ATOM     40  C   UNL A   1      36.537  29.736  30.648  1.00  0.00     0.016 A 
ATOM     41  C   UNL A   1      37.693  31.820  30.061  1.00  0.00     0.016 A 
ATOM     42  C   UNL A   1      37.652  29.025  30.293  1.00  0.00     0.010 A 
ATOM     43  C   UNL A   1      38.807  31.109  29.709  1.00  0.00     0.010 A 
ATOM     44  C   UNL A   1      38.805  29.743  29.970  1.00  0.00    -0.014 A 
BRANCH  44  45
ATOM     45  C   UNL A   1      40.054  29.030  29.938  1.00  0.00     0.031 A 
ATOM     46  C   UNL A   1      40.664  28.902  31.267  1.00  0.00     0.074 A 
ATOM     47  C   UNL A   1      40.535  28.495  28.802  1.00  0.00     0.049 A 
ATOM     48  N   UNL A   1      41.692  29.540  31.711  1.00  0.00    -0.248 NA
ATOM     49  C   UNL A   1      39.916  28.156  32.288  1.00  0.00     0.031 C 
ATOM     50  C   UNL A   1      39.904  28.379  27.485  1.00  0.00     0.029 A 
ATOM     51  N   UNL A   1      41.713  27.841  28.641  1.00  0.00    -0.354 N 
ATOM     52  C   UNL A   1      41.840  29.119  33.024  1.00  0.00     0.074 A 
ATOM     53  C   UNL A   1      40.612  28.459  33.383  1.00  0.00     0.031 C 
ATOM     54  C   UNL A   1      40.607  27.499  26.734  1.00  0.00     0.029 A 
ATOM     55  C   UNL A   1      41.790  27.092  27.473  1.00  0.00     0.049 A 
ATOM     56  H   UNL A   1      42.449  27.891  29.293  1.00  0.00     0.167 HD
ATOM     57  C   UNL A   1      43.056  29.119  33.629  1.00  0.00     0.037 A 
ATOM     58  C   UNL A   1      42.718  26.131  27.244  1.00  0.00     0.037 A 
ATOM     59  C   UNL A   1      44.015  29.896  32.886  1.00  0.00     0.049 A 
ATOM     60  C   UNL A   1      43.870  26.420  28.150  1.00  0.00     0.074 A 
ATOM     61  C   UNL A   1      44.111  31.228  32.535  1.00  0.00     0.029 A 
ATOM     62  N   UNL A   1      44.861  29.219  32.040  1.00  0.00    -0.354 N 
ATOM     63  N   UNL A   1      44.632  27.476  28.015  1.00  0.00    -0.248 NA
ATOM     64  C   UNL A   1      43.846  25.845  29.490  1.00  0.00     0.031 C 
ATOM     65  C   UNL A   1      44.635  31.225  31.209  1.00  0.00     0.029 A 
ATOM     66  C   UNL A   1      44.886  29.900  30.848  1.00  0.00     0.049 A 
ATOM     67  H   UNL A   1      45.359  28.396  32.251  1.00  0.00     0.167 HD
ATOM     68  C   UNL A   1      44.838  27.940  29.309  1.00  0.00     0.074 A 
ATOM     69  C   UNL A   1      44.384  26.857  30.180  1.00  0.00     0.031 C 
ATOM     70  C   UNL A   1      45.064  29.265  29.562  1.00  0.00     0.037 A 
BRANCH  57  71
ATOM     71  C   UNL A   1      43.461  28.124  34.675  1.00  0.00     0.057 A 
ATOM     72  C   UNL A   1      43.876  28.588  35.932  1.00  0.00     0.134 A 
ATOM     73  C   UNL A   1      43.720  26.761  34.415  1.00  0.00     0.134 A 
ATOM     74  F   UNL A   1      43.695  29.869  36.287  1.00  0.00    -0.206 F 
ATOM     75  C   UNL A   1      44.563  27.771  36.836  1.00  0.00     0.040 A 
ATOM     76  C   UNL A   1      44.352  25.924  35.332  1.00  0.00     0.040 A 
ATOM     77  F   UNL A   1      43.475  26.196  33.227  1.00  0.00    -0.206 F 
ATOM     78  C   UNL A   1      44.807  26.436  36.535  1.00  0.00     0.006 A 
ENDBRANCH  57  71
BRANCH  58  79
ATOM     79  C   UNL A   1      42.495  24.820  26.589  1.00  0.00     0.057 A 
ATOM     80  C   UNL A   1      43.215  24.431  25.452  1.00  0.00     0.134 A 
ATOM     81  C   UNL A   1      41.735  23.807  27.206  1.00  0.00     0.134 A 
ATOM     82  F   UNL A   1      44.011  25.307  24.820  1.00  0.00    -0.206 F 
ATOM     83  C   UNL A   1      43.185  23.117  24.961  1.00  0.00     0.040 A 
ATOM     84  C   UNL A   1      41.689  22.495  26.723  1.00  0.00     0.040 A 
ATOM     85  F   UNL A   1      41.075  24.030  28.351  1.00  0.00    -0.206 F 
ATOM     86  C   UNL A   1      42.424  22.142  25.602  1.00  0.00     0.006 A 
ENDBRANCH  58  79
BRANCH  70  87
ATOM     87  C   UNL A   1      45.260  30.179  28.383  1.00  0.00     0.057 A 
ATOM     88  C   UNL A   1      44.209  30.852  27.740  1.00  0.00     0.134 A 
ATOM     89  C   UNL A   1      46.557  30.526  27.995  1.00  0.00     0.134 A 
ATOM     90  F   UNL A   1      42.940  30.674  28.125  1.00  0.00    -0.206 F 
ATOM     91  C   UNL A   1      44.433  31.786  26.726  1.00  0.00     0.040 A 
ATOM     92  C   UNL A   1      46.798  31.483  27.004  1.00  0.00     0.040 A 
ATOM     93  F   UNL A   1      47.615  29.979  28.612  1.00  0.00    -0.206 F 
ATOM     94  C   UNL A   1      45.735  32.108  26.358  1.00  0.00     0.006 A 
ENDBRANCH  70  87
ENDBRANCH  44  45
ENDBRANCH  37  39
ENDBRANCH  36  37
ENDBRANCH  35  36
ENDBRANCH  34  35
ENDBRANCH  33  34
ENDBRANCH   1  33
TORSDOF 19
ENDMDL
MODEL 2
REMARK VINA RESULT:     -11.2      2.044      5.909
REMARK SMILES Cc1c(-c2nn(-c3ccccc3)cc2/C=N/O)nnn1-c1ccc(C(=O)OCCOCCOC(=O)c2ccc(-c3c4nc(c(-c5c(F)cccc5F)c5ccc([nH]5)c(-c5c(F)cccc5F)c5nc(c(-c6c(F)cccc6F)c6ccc3[nH]6)C=C5)C=C4)cc2)cc1
REMARK SMILES IDX 29 1 28 2 27 3 25 4 26 5 24 6 21 7 22 8 91 9 23 10 90 11
REMARK SMILES IDX 20 12 1 13 2 14 3 15 18 16 19 17 4 18 5 19 14 20 6 21 13 22
REMARK SMILES IDX 15 23 16 24 17 25 7 27 8 28 12 29 9 30 11 31 10 32 30 33
REMARK SMILES IDX 31 34 32 35 33 36 34 37 35 38 36 39 37 40 89 41 38 42 88 43
REMARK SMILES IDX 39 44 40 45 41 46 82 47 42 48 87 49 81 50 83 51 43 52 86 53
REMARK SMILES IDX 80 54 79 55 44 57 70 58 53 59 69 60 54 61 57 62 68 63 84 64
REMARK SMILES IDX 55 65 56 66 67 68 85 69 58 70 45 71 46 72 51 73 47 74 48 75
REMARK SMILES IDX 50 76 52 77 49 78 71 79 72 80 77 81 73 82 74 83 76 84 78 85
REMARK SMILES IDX 75 86 59 87 60 88 65 89 61 90 62 91 64 92 66 93 63 94
REMARK H PARENT 17 26 83 56 57 67
REMARK Flexibility Score: inf
ROOT
ATOM      1  C   UNL A   1      37.991  33.833  30.005  1.00  0.00     0.202 C 
ENDROOT
BRANCH   1   2
ATOM      2  C   UNL A   1      36.513  33.556  29.723  1.00  0.00     0.261 C 
BRANCH   2   3
ATOM      3  O   UNL A   1      36.296  32.774  28.536  1.00  0.00    -0.460 OA
BRANCH   3   4
ATOM      4  C   UNL A   1      35.117  33.036  27.918  1.00  0.00     0.338 C 
ATOM      5  O   UNL A   1      34.772  34.091  27.412  1.00  0.00    -0.246 OA
BRANCH   4   6
ATOM      6  C   UNL A   1      34.318  31.805  27.771  1.00  0.00     0.060 A 
ATOM      7  C   UNL A   1      33.005  29.430  27.150  1.00  0.00     0.067 A 
ATOM      8  C   UNL A   1      34.335  29.390  27.578  1.00  0.00     0.029 A 
ATOM      9  C   UNL A   1      32.302  30.646  27.137  1.00  0.00     0.029 A 
ATOM     10  C   UNL A   1      34.998  30.583  27.853  1.00  0.00     0.018 A 
ATOM     11  C   UNL A   1      32.955  31.837  27.469  1.00  0.00     0.018 A 
BRANCH   7  12
ATOM     12  N   UNL A   1      32.421  28.237  26.657  1.00  0.00    -0.217 N 
ATOM     13  C   UNL A   1      33.999  27.712  24.727  1.00  0.00     0.069 C 
ATOM     14  C   UNL A   1      32.795  27.481  25.558  1.00  0.00     0.071 A 
ATOM     15  C   UNL A   1      31.875  26.449  25.557  1.00  0.00     0.137 A 
ATOM     16  N   UNL A   1      31.053  26.546  26.639  1.00  0.00    -0.128 NA
ATOM     17  N   UNL A   1      31.435  27.606  27.342  1.00  0.00    -0.061 NA
BRANCH  15  18
ATOM     18  C   UNL A   1      31.781  25.333  24.622  1.00  0.00     0.124 A 
ATOM     19  N   UNL A   1      31.877  24.058  25.020  1.00  0.00    -0.165 NA
ATOM     20  C   UNL A   1      31.661  25.456  23.218  1.00  0.00     0.044 A 
ATOM     21  N   UNL A   1      31.950  23.354  23.870  1.00  0.00    -0.240 N 
ATOM     22  C   UNL A   1      31.828  24.163  22.763  1.00  0.00     0.125 A 
BRANCH  20  23
ATOM     23  C   UNL A   1      31.435  26.602  22.375  1.00  0.00     0.166 C 
ATOM     24  N   UNL A   1      30.513  27.454  22.671  1.00  0.00    -0.097 NA
BRANCH  24  25
ATOM     25  O   UNL A   1      30.460  28.444  21.683  1.00  0.00    -0.411 OA
ATOM     26  H   UNL A   1      31.201  28.997  21.533  1.00  0.00     0.330 HD
ENDBRANCH  24  25
ENDBRANCH  20  23
BRANCH  21  27
ATOM     27  C   UNL A   1      32.175  21.959  23.879  1.00  0.00     0.065 A 
ATOM     28  C   UNL A   1      32.001  21.226  22.701  1.00  0.00     0.028 A 
ATOM     29  C   UNL A   1      32.553  21.318  25.066  1.00  0.00     0.028 A 
ATOM     30  C   UNL A   1      32.239  19.851  22.704  1.00  0.00     0.002 A 
ATOM     31  C   UNL A   1      32.732  19.933  25.072  1.00  0.00     0.002 A 
ATOM     32  C   UNL A   1      32.590  19.204  23.890  1.00  0.00     0.000 A 
ENDBRANCH  21  27
ENDBRANCH  15  18
ENDBRANCH   7  12
ENDBRANCH   4   6
ENDBRANCH   3   4
ENDBRANCH   2   3
ENDBRANCH   1   2
BRANCH   1  33
ATOM     33  O   UNL A   1      38.472  33.797  31.347  1.00  0.00    -0.374 OA
BRANCH  33  34
ATOM     34  C   UNL A   1      38.291  32.643  32.162  1.00  0.00     0.202 C 
BRANCH  34  35
ATOM     35  C   UNL A   1      38.850  31.310  31.683  1.00  0.00     0.261 C 
BRANCH  35  36
ATOM     36  O   UNL A   1      38.040  30.230  32.109  1.00  0.00    -0.460 OA
BRANCH  36  37
ATOM     37  C   UNL A   1      37.084  29.883  31.216  1.00  0.00     0.338 C 
ATOM     38  O   UNL A   1      35.920  30.232  31.203  1.00  0.00    -0.246 OA
BRANCH  37  39
ATOM     39  C   UNL A   1      37.657  28.898  30.288  1.00  0.00     0.060 A 
ATOM     40  C   UNL A   1      38.285  27.819  30.912  1.00  0.00     0.016 A 
ATOM     41  C   UNL A   1      37.963  29.300  28.981  1.00  0.00     0.016 A 
ATOM     42  C   UNL A   1      39.484  27.412  30.391  1.00  0.00     0.010 A 
ATOM     43  C   UNL A   1      39.163  28.895  28.463  1.00  0.00     0.010 A 
ATOM     44  C   UNL A   1      39.956  28.070  29.253  1.00  0.00    -0.014 A 
BRANCH  44  45
ATOM     45  C   UNL A   1      41.342  27.903  28.907  1.00  0.00     0.031 A 
ATOM     46  C   UNL A   1      41.598  26.645  28.195  1.00  0.00     0.074 A 
ATOM     47  C   UNL A   1      42.255  28.856  29.164  1.00  0.00     0.049 A 
ATOM     48  N   UNL A   1      42.177  25.594  28.666  1.00  0.00    -0.248 NA
ATOM     49  C   UNL A   1      40.937  26.454  26.897  1.00  0.00     0.031 C 
ATOM     50  C   UNL A   1      42.066  30.220  29.664  1.00  0.00     0.029 A 
ATOM     51  N   UNL A   1      43.590  28.796  28.924  1.00  0.00    -0.354 N 
ATOM     52  C   UNL A   1      42.128  24.664  27.639  1.00  0.00     0.074 A 
ATOM     53  C   UNL A   1      41.174  25.160  26.682  1.00  0.00     0.031 C 
ATOM     54  C   UNL A   1      43.206  30.924  29.471  1.00  0.00     0.029 A 
ATOM     55  C   UNL A   1      44.226  30.031  28.950  1.00  0.00     0.049 A 
ATOM     56  H   UNL A   1      44.066  27.953  28.746  1.00  0.00     0.167 HD
ATOM     57  C   UNL A   1      43.065  23.687  27.531  1.00  0.00     0.037 A 
ATOM     58  C   UNL A   1      45.464  30.261  28.448  1.00  0.00     0.037 A 
ATOM     59  C   UNL A   1      43.833  23.557  28.743  1.00  0.00     0.049 A 
ATOM     60  C   UNL A   1      46.163  28.941  28.405  1.00  0.00     0.074 A 
ATOM     61  C   UNL A   1      43.528  23.217  30.046  1.00  0.00     0.029 A 
ATOM     62  N   UNL A   1      45.052  24.191  28.793  1.00  0.00    -0.354 N 
ATOM     63  N   UNL A   1      46.499  28.280  29.483  1.00  0.00    -0.248 NA
ATOM     64  C   UNL A   1      46.009  28.126  27.205  1.00  0.00     0.031 C 
ATOM     65  C   UNL A   1      44.335  24.072  30.851  1.00  0.00     0.029 A 
ATOM     66  C   UNL A   1      45.131  24.841  29.999  1.00  0.00     0.049 A 
ATOM     67  H   UNL A   1      45.743  24.181  28.090  1.00  0.00     0.167 HD
ATOM     68  C   UNL A   1      46.188  26.954  29.206  1.00  0.00     0.074 A 
ATOM     69  C   UNL A   1      45.950  26.911  27.763  1.00  0.00     0.031 C 
ATOM     70  C   UNL A   1      45.847  26.080  30.200  1.00  0.00     0.037 A 
BRANCH  57  71
ATOM     71  C   UNL A   1      43.522  23.118  26.221  1.00  0.00     0.057 A 
ATOM     72  C   UNL A   1      43.446  21.732  26.016  1.00  0.00     0.134 A 
ATOM     73  C   UNL A   1      44.281  23.832  25.269  1.00  0.00     0.134 A 
ATOM     74  F   UNL A   1      42.764  20.948  26.864  1.00  0.00    -0.206 F 
ATOM     75  C   UNL A   1      44.133  21.096  24.977  1.00  0.00     0.040 A 
ATOM     76  C   UNL A   1      44.922  23.214  24.197  1.00  0.00     0.040 A 
ATOM     77  F   UNL A   1      44.530  25.142  25.382  1.00  0.00    -0.206 F 
ATOM     78  C   UNL A   1      44.878  21.836  24.067  1.00  0.00     0.006 A 
ENDBRANCH  57  71
BRANCH  58  79
ATOM     79  C   UNL A   1      45.904  31.451  27.681  1.00  0.00     0.057 A 
ATOM     80  C   UNL A   1      45.091  32.043  26.707  1.00  0.00     0.134 A 
ATOM     81  C   UNL A   1      47.045  32.189  28.056  1.00  0.00     0.134 A 
ATOM     82  F   UNL A   1      43.954  31.448  26.317  1.00  0.00    -0.206 F 
ATOM     83  C   UNL A   1      45.390  33.293  26.143  1.00  0.00     0.040 A 
ATOM     84  C   UNL A   1      47.360  33.430  27.496  1.00  0.00     0.040 A 
ATOM     85  F   UNL A   1      47.852  31.772  29.042  1.00  0.00    -0.206 F 
ATOM     86  C   UNL A   1      46.526  33.994  26.542  1.00  0.00     0.006 A 
ENDBRANCH  58  79
BRANCH  70  87
ATOM     87  C   UNL A   1      45.992  26.549  31.623  1.00  0.00     0.057 A 
ATOM     88  C   UNL A   1      47.205  26.520  32.330  1.00  0.00     0.134 A 
ATOM     89  C   UNL A   1      44.923  27.207  32.239  1.00  0.00     0.134 A 
ATOM     90  F   UNL A   1      48.313  26.017  31.774  1.00  0.00    -0.206 F 
ATOM     91  C   UNL A   1      47.336  27.072  33.606  1.00  0.00     0.040 A 
ATOM     92  C   UNL A   1      45.049  27.793  33.502  1.00  0.00     0.040 A 
ATOM     93  F   UNL A   1      43.753  27.339  31.597  1.00  0.00    -0.206 F 
ATOM     94  C   UNL A   1      46.254  27.717  34.195  1.00  0.00     0.006 A 
ENDBRANCH  70  87
ENDBRANCH  44  45
ENDBRANCH  37  39
ENDBRANCH  36  37
ENDBRANCH  35  36
ENDBRANCH  34  35
ENDBRANCH  33  34
ENDBRANCH   1  33
TORSDOF 19
ENDMDL
MODEL 3
REMARK VINA RESULT:     -11.1      2.000      3.981
REMARK SMILES Cc1c(-c2nn(-c3ccccc3)cc2/C=N/O)nnn1-c1ccc(C(=O)OCCOCCOC(=O)c2ccc(-c3c4nc(c(-c5c(F)cccc5F)c5ccc([nH]5)c(-c5c(F)cccc5F)c5nc(c(-c6c(F)cccc6F)c6ccc3[nH]6)C=C5)C=C4)cc2)cc1
REMARK SMILES IDX 29 1 28 2 27 3 25 4 26 5 24 6 21 7 22 8 91 9 23 10 90 11
REMARK SMILES IDX 20 12 1 13 2 14 3 15 18 16 19 17 4 18 5 19 14 20 6 21 13 22
REMARK SMILES IDX 15 23 16 24 17 25 7 27 8 28 12 29 9 30 11 31 10 32 30 33
REMARK SMILES IDX 31 34 32 35 33 36 34 37 35 38 36 39 37 40 89 41 38 42 88 43
REMARK SMILES IDX 39 44 40 45 41 46 82 47 42 48 87 49 81 50 83 51 43 52 86 53
REMARK SMILES IDX 80 54 79 55 44 57 70 58 53 59 69 60 54 61 57 62 68 63 84 64
REMARK SMILES IDX 55 65 56 66 67 68 85 69 58 70 45 71 46 72 51 73 47 74 48 75
REMARK SMILES IDX 50 76 52 77 49 78 71 79 72 80 77 81 73 82 74 83 76 84 78 85
REMARK SMILES IDX 75 86 59 87 60 88 65 89 61 90 62 91 64 92 66 93 63 94
REMARK H PARENT 17 26 83 56 57 67
REMARK Flexibility Score: inf
ROOT
ATOM      1  C   UNL A   1      31.078  31.148  25.795  1.00  0.00     0.202 C 
ENDROOT
BRANCH   1   2
ATOM      2  C   UNL A   1      31.010  30.185  24.608  1.00  0.00     0.261 C 
BRANCH   2   3
ATOM      3  O   UNL A   1      29.823  30.345  23.813  1.00  0.00    -0.460 OA
BRANCH   3   4
ATOM      4  C   UNL A   1      29.828  29.613  22.671  1.00  0.00     0.338 C 
ATOM      5  O   UNL A   1      29.481  29.980  21.561  1.00  0.00    -0.246 OA
BRANCH   4   6
ATOM      6  C   UNL A   1      30.483  28.308  22.888  1.00  0.00     0.060 A 
ATOM      7  C   UNL A   1      31.731  25.950  23.684  1.00  0.00     0.067 A 
ATOM      8  C   UNL A   1      30.378  26.147  23.978  1.00  0.00     0.029 A 
ATOM      9  C   UNL A   1      32.428  26.884  22.899  1.00  0.00     0.029 A 
ATOM     10  C   UNL A   1      29.768  27.343  23.609  1.00  0.00     0.018 A 
ATOM     11  C   UNL A   1      31.795  28.060  22.481  1.00  0.00     0.018 A 
BRANCH   7  12
ATOM     12  N   UNL A   1      32.391  24.839  24.263  1.00  0.00    -0.217 N 
ATOM     13  C   UNL A   1      32.885  23.456  22.181  1.00  0.00     0.069 C 
ATOM     14  C   UNL A   1      32.864  23.694  23.643  1.00  0.00     0.071 A 
ATOM     15  C   UNL A   1      33.400  22.966  24.688  1.00  0.00     0.137 A 
ATOM     16  N   UNL A   1      33.319  23.675  25.849  1.00  0.00    -0.128 NA
ATOM     17  N   UNL A   1      32.759  24.845  25.568  1.00  0.00    -0.061 NA
BRANCH  15  18
ATOM     18  C   UNL A   1      34.052  21.662  24.632  1.00  0.00     0.124 A 
ATOM     19  N   UNL A   1      33.357  20.519  24.568  1.00  0.00    -0.165 NA
ATOM     20  C   UNL A   1      35.447  21.447  24.716  1.00  0.00     0.044 A 
ATOM     21  N   UNL A   1      34.287  19.555  24.741  1.00  0.00    -0.240 N 
ATOM     22  C   UNL A   1      35.557  20.075  24.839  1.00  0.00     0.125 A 
BRANCH  20  23
ATOM     23  C   UNL A   1      36.559  22.362  24.704  1.00  0.00     0.166 C 
ATOM     24  N   UNL A   1      36.962  22.907  25.802  1.00  0.00    -0.097 NA
BRANCH  24  25
ATOM     25  O   UNL A   1      38.017  23.786  25.524  1.00  0.00    -0.411 OA
ATOM     26  H   UNL A   1      38.079  24.601  25.980  1.00  0.00     0.330 HD
ENDBRANCH  24  25
ENDBRANCH  20  23
BRANCH  21  27
ATOM     27  C   UNL A   1      33.918  18.195  24.847  1.00  0.00     0.065 A 
ATOM     28  C   UNL A   1      34.612  17.233  24.105  1.00  0.00     0.028 A 
ATOM     29  C   UNL A   1      32.853  17.820  25.677  1.00  0.00     0.028 A 
ATOM     30  C   UNL A   1      34.260  15.888  24.222  1.00  0.00     0.002 A 
ATOM     31  C   UNL A   1      32.472  16.478  25.741  1.00  0.00     0.002 A 
ATOM     32  C   UNL A   1      33.183  15.513  25.027  1.00  0.00     0.000 A 
ENDBRANCH  21  27
ENDBRANCH  15  18
ENDBRANCH   7  12
ENDBRANCH   4   6
ENDBRANCH   3   4
ENDBRANCH   2   3
ENDBRANCH   1   2
BRANCH   1  33
ATOM     33  O   UNL A   1      31.873  30.812  26.931  1.00  0.00    -0.374 OA
BRANCH  33  34
ATOM     34  C   UNL A   1      32.641  29.614  26.961  1.00  0.00     0.202 C 
BRANCH  34  35
ATOM     35  C   UNL A   1      34.125  29.682  26.623  1.00  0.00     0.261 C 
BRANCH  35  36
ATOM     36  O   UNL A   1      34.919  29.692  27.795  1.00  0.00    -0.460 OA
BRANCH  36  37
ATOM     37  C   UNL A   1      35.426  30.909  28.098  1.00  0.00     0.338 C 
ATOM     38  O   UNL A   1      35.231  31.959  27.518  1.00  0.00    -0.246 OA
BRANCH  37  39
ATOM     39  C   UNL A   1      36.369  30.751  29.214  1.00  0.00     0.060 A 
ATOM     40  C   UNL A   1      37.493  31.574  29.137  1.00  0.00     0.016 A 
ATOM     41  C   UNL A   1      36.354  29.556  29.947  1.00  0.00     0.016 A 
ATOM     42  C   UNL A   1      38.701  31.007  29.443  1.00  0.00     0.010 A 
ATOM     43  C   UNL A   1      37.562  28.990  30.249  1.00  0.00     0.010 A 
ATOM     44  C   UNL A   1      38.707  29.674  29.857  1.00  0.00    -0.014 A 
BRANCH  44  45
ATOM     45  C   UNL A   1      39.963  28.972  29.843  1.00  0.00     0.031 A 
ATOM     46  C   UNL A   1      40.550  28.839  31.182  1.00  0.00     0.074 A 
ATOM     47  C   UNL A   1      40.470  28.449  28.713  1.00  0.00     0.049 A 
ATOM     48  N   UNL A   1      41.564  29.483  31.649  1.00  0.00    -0.248 NA
ATOM     49  C   UNL A   1      39.789  28.079  32.184  1.00  0.00     0.031 C 
ATOM     50  C   UNL A   1      39.864  28.337  27.383  1.00  0.00     0.029 A 
ATOM     51  N   UNL A   1      41.656  27.807  28.568  1.00  0.00    -0.354 N 
ATOM     52  C   UNL A   1      41.691  29.054  32.962  1.00  0.00     0.074 A 
ATOM     53  C   UNL A   1      40.463  28.381  33.294  1.00  0.00     0.031 C 
ATOM     54  C   UNL A   1      40.589  27.469  26.639  1.00  0.00     0.029 A 
ATOM     55  C   UNL A   1      41.761  27.067  27.397  1.00  0.00     0.049 A 
ATOM     56  H   UNL A   1      42.379  27.858  29.234  1.00  0.00     0.167 HD
ATOM     57  C   UNL A   1      42.895  29.061  33.589  1.00  0.00     0.037 A 
ATOM     58  C   UNL A   1      42.702  26.116  27.178  1.00  0.00     0.037 A 
ATOM     59  C   UNL A   1      43.861  29.852  32.869  1.00  0.00     0.049 A 
ATOM     60  C   UNL A   1      43.835  26.409  28.107  1.00  0.00     0.074 A 
ATOM     61  C   UNL A   1      43.952  31.187  32.529  1.00  0.00     0.029 A 
ATOM     62  N   UNL A   1      44.729  29.188  32.034  1.00  0.00    -0.354 N 
ATOM     63  N   UNL A   1      44.589  27.472  27.994  1.00  0.00    -0.248 NA
ATOM     64  C   UNL A   1      43.791  25.823  29.443  1.00  0.00     0.031 C 
ATOM     65  C   UNL A   1      44.500  31.198  31.213  1.00  0.00     0.029 A 
ATOM     66  C   UNL A   1      44.769  29.877  30.848  1.00  0.00     0.049 A 
ATOM     67  H   UNL A   1      45.230  28.368  32.249  1.00  0.00     0.167 HD
ATOM     68  C   UNL A   1      44.767  27.929  29.295  1.00  0.00     0.074 A 
ATOM     69  C   UNL A   1      44.307  26.836  30.150  1.00  0.00     0.031 C 
ATOM     70  C   UNL A   1      44.976  29.253  29.561  1.00  0.00     0.037 A 
BRANCH  57  71
ATOM     71  C   UNL A   1      43.290  28.061  34.636  1.00  0.00     0.057 A 
ATOM     72  C   UNL A   1      43.474  26.722  34.263  1.00  0.00     0.134 A 
ATOM     73  C   UNL A   1      43.229  28.303  36.025  1.00  0.00     0.134 A 
ATOM     74  F   UNL A   1      43.534  26.369  32.970  1.00  0.00    -0.206 F 
ATOM     75  C   UNL A   1      43.524  25.689  35.205  1.00  0.00     0.040 A 
ATOM     76  C   UNL A   1      43.336  27.287  36.973  1.00  0.00     0.040 A 
ATOM     77  F   UNL A   1      42.958  29.510  36.536  1.00  0.00    -0.206 F 
ATOM     78  C   UNL A   1      43.449  25.969  36.564  1.00  0.00     0.006 A 
ENDBRANCH  57  71
BRANCH  58  79
ATOM     79  C   UNL A   1      42.503  24.808  26.510  1.00  0.00     0.057 A 
ATOM     80  C   UNL A   1      43.268  24.421  25.402  1.00  0.00     0.134 A 
ATOM     81  C   UNL A   1      41.716  23.794  27.092  1.00  0.00     0.134 A 
ATOM     82  F   UNL A   1      44.091  25.296  24.806  1.00  0.00    -0.206 F 
ATOM     83  C   UNL A   1      43.255  23.108  24.906  1.00  0.00     0.040 A 
ATOM     84  C   UNL A   1      41.686  22.485  26.603  1.00  0.00     0.040 A 
ATOM     85  F   UNL A   1      41.010  24.016  28.209  1.00  0.00    -0.206 F 
ATOM     86  C   UNL A   1      42.466  22.133  25.511  1.00  0.00     0.006 A 
ENDBRANCH  58  79
BRANCH  70  87
ATOM     87  C   UNL A   1      45.186  30.178  28.392  1.00  0.00     0.057 A 
ATOM     88  C   UNL A   1      44.140  30.840  27.730  1.00  0.00     0.134 A 
ATOM     89  C   UNL A   1      46.487  30.545  28.035  1.00  0.00     0.134 A 
ATOM     90  F   UNL A   1      42.865  30.642  28.085  1.00  0.00    -0.206 F 
ATOM     91  C   UNL A   1      44.374  31.784  26.726  1.00  0.00     0.040 A 
ATOM     92  C   UNL A   1      46.736  31.512  27.056  1.00  0.00     0.040 A 
ATOM     93  F   UNL A   1      47.538  30.009  28.673  1.00  0.00    -0.206 F 
ATOM     94  C   UNL A   1      45.679  32.126  26.390  1.00  0.00     0.006 A 
ENDBRANCH  70  87
ENDBRANCH  44  45
ENDBRANCH  37  39
ENDBRANCH  36  37
ENDBRANCH  35  36
ENDBRANCH  34  35
ENDBRANCH  33  34
ENDBRANCH   1  33
TORSDOF 19
ENDMDL
