MODEL 1
REMARK VINA RESULT:     -10.0      0.000      0.000
REMARK SMILES COc1cnc(F)c(C(=O)OCCOCCOC(=O)c2ccc(-c3c4nc(c(-c5c(F)cccc5F)c5ccc([nH]5)c(-c5c(F)cccc5F)c5nc(c(-c6c(F)cccc6F)c6ccc3[nH]6)C=C5)C=C4)cc2)c1
REMARK SMILES IDX 15 1 14 2 13 3 12 4 11 5 9 6 10 7 8 8 3 9 4 10 74 11 5 12
REMARK SMILES IDX 6 13 7 14 2 15 1 16 16 17 17 18 18 19 19 20 20 21 21 22
REMARK SMILES IDX 73 23 22 24 72 25 23 26 24 27 25 28 66 29 26 30 71 31 65 32
REMARK SMILES IDX 67 33 27 34 70 35 64 36 63 37 28 39 54 40 37 41 53 42 38 43
REMARK SMILES IDX 41 44 52 45 68 46 39 47 40 48 51 50 69 51 42 52 29 53 30 54
REMARK SMILES IDX 35 55 31 56 32 57 34 58 36 59 33 60 55 61 56 62 61 63 57 64
REMARK SMILES IDX 58 65 60 66 62 67 59 68 43 69 44 70 49 71 45 72 46 73 48 74
REMARK SMILES IDX 50 75 47 76
REMARK H PARENT 67 38 41 49
REMARK Flexibility Score: inf
ROOT
ATOM      1  C   UNL A   1      44.800  22.201  23.871  1.00  0.00     0.202 C 
ENDROOT
BRANCH   1   2
ATOM      2  O   UNL A   1      44.562  20.828  23.562  1.00  0.00    -0.374 OA
BRANCH   2   3
ATOM      3  C   UNL A   1      45.100  19.857  24.462  1.00  0.00     0.202 C 
BRANCH   3   4
ATOM      4  C   UNL A   1      44.103  18.820  24.987  1.00  0.00     0.261 C 
BRANCH   4   5
ATOM      5  O   UNL A   1      42.790  19.395  25.103  1.00  0.00    -0.460 OA
BRANCH   5   6
ATOM      6  C   UNL A   1      42.221  19.327  26.326  1.00  0.00     0.343 C 
ATOM      7  O   UNL A   1      42.528  18.572  27.238  1.00  0.00    -0.246 OA
BRANCH   6   8
ATOM      8  C   UNL A   1      41.292  20.444  26.521  1.00  0.00     0.118 A 
ATOM      9  C   UNL A   1      39.205  21.503  25.970  1.00  0.00     0.138 A 
ATOM     10  C   UNL A   1      39.547  22.510  26.863  1.00  0.00     0.160 A 
ATOM     11  C   UNL A   1      40.106  20.464  25.778  1.00  0.00     0.068 A 
ATOM     12  N   UNL A   1      40.682  22.512  27.604  1.00  0.00    -0.224 NA
ATOM     13  C   UNL A   1      41.532  21.473  27.417  1.00  0.00     0.227 A 
ATOM     14  F   UNL A   1      42.663  21.491  28.138  1.00  0.00    -0.184 F 
BRANCH   9  15
ATOM     15  O   UNL A   1      38.048  21.620  25.258  1.00  0.00    -0.495 OA
ATOM     16  C   UNL A   1      37.501  20.351  24.894  1.00  0.00     0.278 C 
ENDBRANCH   9  15
ENDBRANCH   6   8
ENDBRANCH   5   6
ENDBRANCH   4   5
ENDBRANCH   3   4
ENDBRANCH   2   3
ENDBRANCH   1   2
BRANCH   1  17
ATOM     17  C   UNL A   1      43.909  22.811  24.961  1.00  0.00     0.261 C 
BRANCH  17  18
ATOM     18  O   UNL A   1      43.482  24.142  24.622  1.00  0.00    -0.460 OA
BRANCH  18  19
ATOM     19  C   UNL A   1      44.235  25.134  25.153  1.00  0.00     0.338 C 
ATOM     20  O   UNL A   1      45.347  25.492  24.793  1.00  0.00    -0.246 OA
BRANCH  19  21
ATOM     21  C   UNL A   1      43.458  25.877  26.161  1.00  0.00     0.060 A 
ATOM     22  C   UNL A   1      43.771  27.229  26.349  1.00  0.00     0.016 A 
ATOM     23  C   UNL A   1      42.495  25.254  26.960  1.00  0.00     0.016 A 
ATOM     24  C   UNL A   1      43.159  27.953  27.369  1.00  0.00     0.010 A 
ATOM     25  C   UNL A   1      41.886  25.982  27.989  1.00  0.00     0.010 A 
ATOM     26  C   UNL A   1      42.241  27.323  28.220  1.00  0.00    -0.014 A 
BRANCH  26  27
ATOM     27  C   UNL A   1      41.759  28.032  29.430  1.00  0.00     0.031 A 
ATOM     28  C   UNL A   1      40.530  28.892  29.333  1.00  0.00     0.074 A 
ATOM     29  C   UNL A   1      42.388  27.886  30.609  1.00  0.00     0.049 A 
ATOM     30  N   UNL A   1      39.952  29.623  30.252  1.00  0.00    -0.248 NA
ATOM     31  C   UNL A   1      39.861  28.934  28.022  1.00  0.00     0.031 C 
ATOM     32  C   UNL A   1      43.569  27.056  30.839  1.00  0.00     0.029 A 
ATOM     33  N   UNL A   1      42.122  28.443  31.835  1.00  0.00    -0.354 N 
ATOM     34  C   UNL A   1      38.853  30.208  29.635  1.00  0.00     0.074 A 
ATOM     35  C   UNL A   1      38.865  29.777  28.254  1.00  0.00     0.031 C 
ATOM     36  C   UNL A   1      43.937  27.171  32.127  1.00  0.00     0.029 A 
ATOM     37  C   UNL A   1      43.034  28.102  32.802  1.00  0.00     0.049 A 
ATOM     38  H   UNL A   1      41.350  29.031  32.004  1.00  0.00     0.167 HD
ATOM     39  C   UNL A   1      37.913  31.021  30.173  1.00  0.00     0.037 A 
ATOM     40  C   UNL A   1      43.141  28.514  34.081  1.00  0.00     0.037 A 
ATOM     41  C   UNL A   1      37.906  31.457  31.544  1.00  0.00     0.049 A 
ATOM     42  C   UNL A   1      42.122  29.471  34.638  1.00  0.00     0.074 A 
ATOM     43  C   UNL A   1      36.997  32.284  32.182  1.00  0.00     0.029 A 
ATOM     44  N   UNL A   1      38.858  31.104  32.489  1.00  0.00    -0.354 N 
ATOM     45  N   UNL A   1      41.079  30.006  34.051  1.00  0.00    -0.248 NA
ATOM     46  C   UNL A   1      42.293  29.879  36.041  1.00  0.00     0.031 C 
ATOM     47  C   UNL A   1      37.422  32.462  33.504  1.00  0.00     0.029 A 
ATOM     48  C   UNL A   1      38.567  31.709  33.700  1.00  0.00     0.049 A 
ATOM     49  H   UNL A   1      39.625  30.510  32.323  1.00  0.00     0.167 HD
ATOM     50  C   UNL A   1      40.456  30.788  35.015  1.00  0.00     0.074 A 
ATOM     51  C   UNL A   1      41.231  30.649  36.230  1.00  0.00     0.031 C 
ATOM     52  C   UNL A   1      39.342  31.553  34.904  1.00  0.00     0.037 A 
BRANCH  39  53
ATOM     53  C   UNL A   1      36.818  31.502  29.267  1.00  0.00     0.057 A 
ATOM     54  C   UNL A   1      35.734  30.683  28.923  1.00  0.00     0.134 A 
ATOM     55  C   UNL A   1      36.830  32.807  28.760  1.00  0.00     0.134 A 
ATOM     56  F   UNL A   1      35.672  29.418  29.365  1.00  0.00    -0.206 F 
ATOM     57  C   UNL A   1      34.711  31.140  28.091  1.00  0.00     0.040 A 
ATOM     58  C   UNL A   1      35.800  33.282  27.946  1.00  0.00     0.040 A 
ATOM     59  F   UNL A   1      37.837  33.643  29.053  1.00  0.00    -0.206 F 
ATOM     60  C   UNL A   1      34.738  32.446  27.606  1.00  0.00     0.006 A 
ENDBRANCH  39  53
BRANCH  40  61
ATOM     61  C   UNL A   1      44.269  28.038  34.920  1.00  0.00     0.057 A 
ATOM     62  C   UNL A   1      44.159  26.885  35.704  1.00  0.00     0.134 A 
ATOM     63  C   UNL A   1      45.478  28.743  34.975  1.00  0.00     0.134 A 
ATOM     64  F   UNL A   1      43.017  26.180  35.712  1.00  0.00    -0.206 F 
ATOM     65  C   UNL A   1      45.203  26.457  36.526  1.00  0.00     0.040 A 
ATOM     66  C   UNL A   1      46.539  28.314  35.773  1.00  0.00     0.040 A 
ATOM     67  F   UNL A   1      45.646  29.857  34.247  1.00  0.00    -0.206 F 
ATOM     68  C   UNL A   1      46.400  27.171  36.558  1.00  0.00     0.006 A 
ENDBRANCH  40  61
BRANCH  52  69
ATOM     69  C   UNL A   1      38.872  32.269  36.137  1.00  0.00     0.057 A 
ATOM     70  C   UNL A   1      38.107  31.627  37.119  1.00  0.00     0.134 A 
ATOM     71  C   UNL A   1      39.226  33.606  36.362  1.00  0.00     0.134 A 
ATOM     72  F   UNL A   1      37.725  30.352  36.959  1.00  0.00    -0.206 F 
ATOM     73  C   UNL A   1      37.694  32.297  38.272  1.00  0.00     0.040 A 
ATOM     74  C   UNL A   1      38.840  34.278  37.521  1.00  0.00     0.040 A 
ATOM     75  F   UNL A   1      39.966  34.275  35.464  1.00  0.00    -0.206 F 
ATOM     76  C   UNL A   1      38.066  33.625  38.479  1.00  0.00     0.006 A 
ENDBRANCH  52  69
ENDBRANCH  26  27
ENDBRANCH  19  21
ENDBRANCH  18  19
ENDBRANCH  17  18
ENDBRANCH   1  17
TORSDOF 15
ENDMDL
MODEL 2
REMARK VINA RESULT:     -10.0      1.165      6.728
REMARK SMILES COc1cnc(F)c(C(=O)OCCOCCOC(=O)c2ccc(-c3c4nc(c(-c5c(F)cccc5F)c5ccc([nH]5)c(-c5c(F)cccc5F)c5nc(c(-c6c(F)cccc6F)c6ccc3[nH]6)C=C5)C=C4)cc2)c1
REMARK SMILES IDX 15 1 14 2 13 3 12 4 11 5 9 6 10 7 8 8 3 9 4 10 74 11 5 12
REMARK SMILES IDX 6 13 7 14 2 15 1 16 16 17 17 18 18 19 19 20 20 21 21 22
REMARK SMILES IDX 73 23 22 24 72 25 23 26 24 27 25 28 66 29 26 30 71 31 65 32
REMARK SMILES IDX 67 33 27 34 70 35 64 36 63 37 28 39 54 40 37 41 53 42 38 43
REMARK SMILES IDX 41 44 52 45 68 46 39 47 40 48 51 50 69 51 42 52 29 53 30 54
REMARK SMILES IDX 35 55 31 56 32 57 34 58 36 59 33 60 55 61 56 62 61 63 57 64
REMARK SMILES IDX 58 65 60 66 62 67 59 68 43 69 44 70 49 71 45 72 46 73 48 74
REMARK SMILES IDX 50 75 47 76
REMARK H PARENT 67 38 41 49
REMARK Flexibility Score: inf
ROOT
ATOM      1  C   UNL A   1      44.760  21.237  24.806  1.00  0.00     0.202 C 
ENDROOT
BRANCH   1   2
ATOM      2  O   UNL A   1      43.685  20.312  24.640  1.00  0.00    -0.374 OA
BRANCH   2   3
ATOM      3  C   UNL A   1      43.256  19.599  25.802  1.00  0.00     0.202 C 
BRANCH   3   4
ATOM      4  C   UNL A   1      41.785  19.783  26.183  1.00  0.00     0.261 C 
BRANCH   4   5
ATOM      5  O   UNL A   1      41.360  21.133  25.923  1.00  0.00    -0.460 OA
BRANCH   5   6
ATOM      6  C   UNL A   1      40.597  21.706  26.879  1.00  0.00     0.343 C 
ATOM      7  O   UNL A   1      40.954  22.045  27.999  1.00  0.00    -0.246 OA
BRANCH   6   8
ATOM      8  C   UNL A   1      39.290  22.081  26.333  1.00  0.00     0.118 A 
ATOM      9  C   UNL A   1      37.246  21.418  25.252  1.00  0.00     0.138 A 
ATOM     10  C   UNL A   1      36.853  22.748  25.308  1.00  0.00     0.160 A 
ATOM     11  C   UNL A   1      38.498  21.082  25.752  1.00  0.00     0.068 A 
ATOM     12  N   UNL A   1      37.593  23.733  25.874  1.00  0.00    -0.224 NA
ATOM     13  C   UNL A   1      38.799  23.375  26.379  1.00  0.00     0.227 A 
ATOM     14  F   UNL A   1      39.535  24.358  26.920  1.00  0.00    -0.184 F 
BRANCH   9  15
ATOM     15  O   UNL A   1      36.432  20.517  24.633  1.00  0.00    -0.495 OA
ATOM     16  C   UNL A   1      35.060  20.681  24.998  1.00  0.00     0.278 C 
ENDBRANCH   9  15
ENDBRANCH   6   8
ENDBRANCH   5   6
ENDBRANCH   4   5
ENDBRANCH   3   4
ENDBRANCH   2   3
ENDBRANCH   1   2
BRANCH   1  17
ATOM     17  C   UNL A   1      44.663  22.537  23.998  1.00  0.00     0.261 C 
BRANCH  17  18
ATOM     18  O   UNL A   1      43.858  23.525  24.665  1.00  0.00    -0.460 OA
BRANCH  18  19
ATOM     19  C   UNL A   1      44.529  24.632  25.061  1.00  0.00     0.338 C 
ATOM     20  O   UNL A   1      45.593  25.048  24.626  1.00  0.00    -0.246 OA
BRANCH  19  21
ATOM     21  C   UNL A   1      43.711  25.408  26.011  1.00  0.00     0.060 A 
ATOM     22  C   UNL A   1      43.923  26.791  26.065  1.00  0.00     0.016 A 
ATOM     23  C   UNL A   1      42.808  24.793  26.883  1.00  0.00     0.016 A 
ATOM     24  C   UNL A   1      43.271  27.560  27.026  1.00  0.00     0.010 A 
ATOM     25  C   UNL A   1      42.160  25.568  27.852  1.00  0.00     0.010 A 
ATOM     26  C   UNL A   1      42.415  26.947  27.950  1.00  0.00    -0.014 A 
BRANCH  26  27
ATOM     27  C   UNL A   1      41.896  27.730  29.098  1.00  0.00     0.031 A 
ATOM     28  C   UNL A   1      42.586  27.621  30.429  1.00  0.00     0.074 A 
ATOM     29  C   UNL A   1      40.845  28.554  28.948  1.00  0.00     0.049 A 
ATOM     30  N   UNL A   1      42.286  28.190  31.569  1.00  0.00    -0.248 NA
ATOM     31  C   UNL A   1      43.774  26.754  30.483  1.00  0.00     0.031 C 
ATOM     32  C   UNL A   1      40.113  28.772  27.702  1.00  0.00     0.029 A 
ATOM     33  N   UNL A   1      40.206  29.357  29.861  1.00  0.00    -0.354 N 
ATOM     34  C   UNL A   1      43.246  27.753  32.473  1.00  0.00     0.074 A 
ATOM     35  C   UNL A   1      44.117  26.845  31.759  1.00  0.00     0.031 C 
ATOM     36  C   UNL A   1      39.112  29.640  27.933  1.00  0.00     0.029 A 
ATOM     37  C   UNL A   1      39.118  30.016  29.345  1.00  0.00     0.049 A 
ATOM     38  H   UNL A   1      40.501  29.451  30.795  1.00  0.00     0.167 HD
ATOM     39  C   UNL A   1      43.396  28.088  33.777  1.00  0.00     0.037 A 
ATOM     40  C   UNL A   1      38.216  30.813  29.951  1.00  0.00     0.037 A 
ATOM     41  C   UNL A   1      42.525  28.986  34.490  1.00  0.00     0.049 A 
ATOM     42  C   UNL A   1      38.365  31.118  31.418  1.00  0.00     0.074 A 
ATOM     43  C   UNL A   1      42.594  29.384  35.813  1.00  0.00     0.029 A 
ATOM     44  N   UNL A   1      41.422  29.619  33.937  1.00  0.00    -0.354 N 
ATOM     45  N   UNL A   1      39.285  30.713  32.259  1.00  0.00    -0.248 NA
ATOM     46  C   UNL A   1      37.350  31.997  32.019  1.00  0.00     0.031 C 
ATOM     47  C   UNL A   1      41.508  30.230  36.071  1.00  0.00     0.029 A 
ATOM     48  C   UNL A   1      40.793  30.394  34.897  1.00  0.00     0.049 A 
ATOM     49  H   UNL A   1      41.132  29.532  33.001  1.00  0.00     0.167 HD
ATOM     50  C   UNL A   1      38.978  31.306  33.477  1.00  0.00     0.074 A 
ATOM     51  C   UNL A   1      37.793  32.110  33.262  1.00  0.00     0.031 C 
ATOM     52  C   UNL A   1      39.620  31.196  34.666  1.00  0.00     0.037 A 
BRANCH  39  53
ATOM     53  C   UNL A   1      44.543  27.469  34.520  1.00  0.00     0.057 A 
ATOM     54  C   UNL A   1      45.778  28.119  34.643  1.00  0.00     0.134 A 
ATOM     55  C   UNL A   1      44.401  26.226  35.148  1.00  0.00     0.134 A 
ATOM     56  F   UNL A   1      45.982  29.306  34.052  1.00  0.00    -0.206 F 
ATOM     57  C   UNL A   1      46.837  27.545  35.347  1.00  0.00     0.040 A 
ATOM     58  C   UNL A   1      45.446  25.652  35.875  1.00  0.00     0.040 A 
ATOM     59  F   UNL A   1      43.243  25.552  35.072  1.00  0.00    -0.206 F 
ATOM     60  C   UNL A   1      46.670  26.311  35.972  1.00  0.00     0.006 A 
ENDBRANCH  39  53
BRANCH  40  61
ATOM     61  C   UNL A   1      37.077  31.365  29.176  1.00  0.00     0.057 A 
ATOM     62  C   UNL A   1      37.091  32.680  28.698  1.00  0.00     0.134 A 
ATOM     63  C   UNL A   1      35.937  30.595  28.917  1.00  0.00     0.134 A 
ATOM     64  F   UNL A   1      38.145  33.474  28.936  1.00  0.00    -0.206 F 
ATOM     65  C   UNL A   1      36.004  33.216  28.005  1.00  0.00     0.040 A 
ATOM     66  C   UNL A   1      34.854  31.110  28.204  1.00  0.00     0.040 A 
ATOM     67  F   UNL A   1      35.863  29.328  29.349  1.00  0.00    -0.206 F 
ATOM     68  C   UNL A   1      34.882  32.427  27.752  1.00  0.00     0.006 A 
ENDBRANCH  40  61
BRANCH  52  69
ATOM     69  C   UNL A   1      39.078  31.991  35.818  1.00  0.00     0.057 A 
ATOM     70  C   UNL A   1      39.427  33.332  36.022  1.00  0.00     0.134 A 
ATOM     71  C   UNL A   1      38.161  31.418  36.710  1.00  0.00     0.134 A 
ATOM     72  F   UNL A   1      40.308  33.937  35.212  1.00  0.00    -0.206 F 
ATOM     73  C   UNL A   1      38.899  34.068  37.085  1.00  0.00     0.040 A 
ATOM     74  C   UNL A   1      37.609  32.149  37.761  1.00  0.00     0.040 A 
ATOM     75  F   UNL A   1      37.778  30.140  36.564  1.00  0.00    -0.206 F 
ATOM     76  C   UNL A   1      37.982  33.478  37.954  1.00  0.00     0.006 A 
ENDBRANCH  52  69
ENDBRANCH  26  27
ENDBRANCH  19  21
ENDBRANCH  18  19
ENDBRANCH  17  18
ENDBRANCH   1  17
TORSDOF 15
ENDMDL
MODEL 3
REMARK VINA RESULT:      -9.9      1.064      6.636
REMARK SMILES COc1cnc(F)c(C(=O)OCCOCCOC(=O)c2ccc(-c3c4nc(c(-c5c(F)cccc5F)c5ccc([nH]5)c(-c5c(F)cccc5F)c5nc(c(-c6c(F)cccc6F)c6ccc3[nH]6)C=C5)C=C4)cc2)c1
REMARK SMILES IDX 15 1 14 2 13 3 12 4 11 5 9 6 10 7 8 8 3 9 4 10 74 11 5 12
REMARK SMILES IDX 6 13 7 14 2 15 1 16 16 17 17 18 18 19 19 20 20 21 21 22
REMARK SMILES IDX 73 23 22 24 72 25 23 26 24 27 25 28 66 29 26 30 71 31 65 32
REMARK SMILES IDX 67 33 27 34 70 35 64 36 63 37 28 39 54 40 37 41 53 42 38 43
REMARK SMILES IDX 41 44 52 45 68 46 39 47 40 48 51 50 69 51 42 52 29 53 30 54
REMARK SMILES IDX 35 55 31 56 32 57 34 58 36 59 33 60 55 61 56 62 61 63 57 64
REMARK SMILES IDX 58 65 60 66 62 67 59 68 43 69 44 70 49 71 45 72 46 73 48 74
REMARK SMILES IDX 50 75 47 76
REMARK H PARENT 67 38 41 49
REMARK Flexibility Score: inf
ROOT
ATOM      1  C   UNL A   1      45.270  21.638  24.637  1.00  0.00     0.202 C 
ENDROOT
BRANCH   1   2
ATOM      2  O   UNL A   1      44.293  20.604  24.505  1.00  0.00    -0.374 OA
BRANCH   2   3
ATOM      3  C   UNL A   1      44.581  19.355  25.137  1.00  0.00     0.202 C 
BRANCH   3   4
ATOM      4  C   UNL A   1      43.360  18.541  25.574  1.00  0.00     0.261 C 
BRANCH   4   5
ATOM      5  O   UNL A   1      42.156  19.315  25.427  1.00  0.00    -0.460 OA
BRANCH   5   6
ATOM      6  C   UNL A   1      41.568  19.716  26.575  1.00  0.00     0.343 C 
ATOM      7  O   UNL A   1      41.973  19.525  27.713  1.00  0.00    -0.246 OA
BRANCH   6   8
ATOM      8  C   UNL A   1      40.452  20.621  26.288  1.00  0.00     0.118 A 
ATOM      9  C   UNL A   1      39.570  22.859  26.271  1.00  0.00     0.138 A 
ATOM     10  C   UNL A   1      38.390  22.328  25.766  1.00  0.00     0.160 A 
ATOM     11  C   UNL A   1      40.611  21.986  26.560  1.00  0.00     0.068 A 
ATOM     12  N   UNL A   1      38.212  21.014  25.482  1.00  0.00    -0.224 NA
ATOM     13  C   UNL A   1      39.252  20.187  25.749  1.00  0.00     0.227 A 
ATOM     14  F   UNL A   1      39.062  18.886  25.485  1.00  0.00    -0.184 F 
BRANCH   9  15
ATOM     15  O   UNL A   1      39.627  24.193  26.544  1.00  0.00    -0.495 OA
ATOM     16  C   UNL A   1      38.913  24.538  27.733  1.00  0.00     0.278 C 
ENDBRANCH   9  15
ENDBRANCH   6   8
ENDBRANCH   5   6
ENDBRANCH   4   5
ENDBRANCH   3   4
ENDBRANCH   2   3
ENDBRANCH   1   2
BRANCH   1  17
ATOM     17  C   UNL A   1      44.982  22.939  23.878  1.00  0.00     0.261 C 
BRANCH  17  18
ATOM     18  O   UNL A   1      44.193  23.853  24.659  1.00  0.00    -0.460 OA
BRANCH  18  19
ATOM     19  C   UNL A   1      44.864  24.938  25.113  1.00  0.00     0.338 C 
ATOM     20  O   UNL A   1      45.952  25.348  24.736  1.00  0.00    -0.246 OA
BRANCH  19  21
ATOM     21  C   UNL A   1      44.018  25.702  26.048  1.00  0.00     0.060 A 
ATOM     22  C   UNL A   1      44.245  27.081  26.144  1.00  0.00     0.016 A 
ATOM     23  C   UNL A   1      43.074  25.080  26.868  1.00  0.00     0.016 A 
ATOM     24  C   UNL A   1      43.564  27.836  27.096  1.00  0.00     0.010 A 
ATOM     25  C   UNL A   1      42.396  25.840  27.829  1.00  0.00     0.010 A 
ATOM     26  C   UNL A   1      42.664  27.213  27.970  1.00  0.00    -0.014 A 
BRANCH  26  27
ATOM     27  C   UNL A   1      42.110  27.976  29.115  1.00  0.00     0.031 A 
ATOM     28  C   UNL A   1      42.812  27.917  30.443  1.00  0.00     0.074 A 
ATOM     29  C   UNL A   1      41.013  28.739  28.965  1.00  0.00     0.049 A 
ATOM     30  N   UNL A   1      42.487  28.478  31.579  1.00  0.00    -0.248 NA
ATOM     31  C   UNL A   1      44.047  27.118  30.496  1.00  0.00     0.031 C 
ATOM     32  C   UNL A   1      40.262  28.905  27.722  1.00  0.00     0.029 A 
ATOM     33  N   UNL A   1      40.336  29.512  29.875  1.00  0.00    -0.354 N 
ATOM     34  C   UNL A   1      43.476  28.104  32.481  1.00  0.00     0.074 A 
ATOM     35  C   UNL A   1      44.392  27.239  31.769  1.00  0.00     0.031 C 
ATOM     36  C   UNL A   1      39.216  29.717  27.952  1.00  0.00     0.029 A 
ATOM     37  C   UNL A   1      39.210  30.105  29.361  1.00  0.00     0.049 A 
ATOM     38  H   UNL A   1      40.631  29.631  30.807  1.00  0.00     0.167 HD
ATOM     39  C   UNL A   1      43.615  28.458  33.781  1.00  0.00     0.037 A 
ATOM     40  C   UNL A   1      38.268  30.856  29.966  1.00  0.00     0.037 A 
ATOM     41  C   UNL A   1      42.700  29.311  34.492  1.00  0.00     0.049 A 
ATOM     42  C   UNL A   1      38.409  31.181  31.429  1.00  0.00     0.074 A 
ATOM     43  C   UNL A   1      42.753  29.725  35.812  1.00  0.00     0.029 A 
ATOM     44  N   UNL A   1      41.560  29.878  33.941  1.00  0.00    -0.354 N 
ATOM     45  N   UNL A   1      39.355  30.836  32.268  1.00  0.00    -0.248 NA
ATOM     46  C   UNL A   1      37.350  32.008  32.029  1.00  0.00     0.031 C 
ATOM     47  C   UNL A   1      41.624  30.510  36.070  1.00  0.00     0.029 A 
ATOM     48  C   UNL A   1      40.894  30.624  34.898  1.00  0.00     0.049 A 
ATOM     49  H   UNL A   1      41.269  29.766  33.007  1.00  0.00     0.167 HD
ATOM     50  C   UNL A   1      39.022  31.422  33.482  1.00  0.00     0.074 A 
ATOM     51  C   UNL A   1      37.793  32.156  33.269  1.00  0.00     0.031 C 
ATOM     52  C   UNL A   1      39.676  31.358  34.668  1.00  0.00     0.037 A 
BRANCH  39  53
ATOM     53  C   UNL A   1      44.799  27.910  34.522  1.00  0.00     0.057 A 
ATOM     54  C   UNL A   1      46.023  28.591  34.561  1.00  0.00     0.134 A 
ATOM     55  C   UNL A   1      44.705  26.706  35.231  1.00  0.00     0.134 A 
ATOM     56  F   UNL A   1      46.181  29.742  33.890  1.00  0.00    -0.206 F 
ATOM     57  C   UNL A   1      47.117  28.084  35.263  1.00  0.00     0.040 A 
ATOM     58  C   UNL A   1      45.786  26.201  35.957  1.00  0.00     0.040 A 
ATOM     59  F   UNL A   1      43.561  26.006  35.238  1.00  0.00    -0.206 F 
ATOM     60  C   UNL A   1      46.998  26.889  35.970  1.00  0.00     0.006 A 
ENDBRANCH  39  53
BRANCH  40  61
ATOM     61  C   UNL A   1      37.095  31.337  29.194  1.00  0.00     0.057 A 
ATOM     62  C   UNL A   1      37.041  32.640  28.688  1.00  0.00     0.134 A 
ATOM     63  C   UNL A   1      35.990  30.508  28.965  1.00  0.00     0.134 A 
ATOM     64  F   UNL A   1      38.059  33.488  28.895  1.00  0.00    -0.206 F 
ATOM     65  C   UNL A   1      35.922  33.109  27.997  1.00  0.00     0.040 A 
ATOM     66  C   UNL A   1      34.876  30.956  28.255  1.00  0.00     0.040 A 
ATOM     67  F   UNL A   1      35.981  29.249  29.425  1.00  0.00    -0.206 F 
ATOM     68  C   UNL A   1      34.837  32.263  27.775  1.00  0.00     0.006 A 
ENDBRANCH  40  61
BRANCH  52  69
ATOM     69  C   UNL A   1      39.098  32.131  35.817  1.00  0.00     0.057 A 
ATOM     70  C   UNL A   1      38.226  31.542  36.741  1.00  0.00     0.134 A 
ATOM     71  C   UNL A   1      39.451  33.471  36.024  1.00  0.00     0.134 A 
ATOM     72  F   UNL A   1      37.838  30.266  36.594  1.00  0.00    -0.206 F 
ATOM     73  C   UNL A   1      37.710  32.264  37.819  1.00  0.00     0.040 A 
ATOM     74  C   UNL A   1      38.962  34.196  37.110  1.00  0.00     0.040 A 
ATOM     75  F   UNL A   1      40.290  34.092  35.180  1.00  0.00    -0.206 F 
ATOM     76  C   UNL A   1      38.084  33.595  38.009  1.00  0.00     0.006 A 
ENDBRANCH  52  69
ENDBRANCH  26  27
ENDBRANCH  19  21
ENDBRANCH  18  19
ENDBRANCH  17  18
ENDBRANCH   1  17
TORSDOF 15
ENDMDL
