MODEL 1
REMARK VINA RESULT:     -10.9      0.000      0.000
REMARK SMILES Cc1ccc([N+](=O)[O-])c(NCc2ccc(C(=O)OCCOCCOC(=O)c3ccc(-c4c5nc(c(-c6c(F)cccc6F)c6ccc([nH]6)c(-c6c(F)cccc6F)c6nc(c(-c7c(F)cccc7F)c7ccc4[nH]7)C=C6)C=C5)cc3)cc2)c1
REMARK SMILES IDX 20 1 19 2 18 3 16 4 17 5 15 6 12 7 13 8 82 9 14 10 81 11
REMARK SMILES IDX 11 12 10 13 9 15 1 16 2 17 3 18 83 19 4 20 5 21 6 22 7 23
REMARK SMILES IDX 8 24 21 25 22 26 23 27 24 28 25 29 26 30 27 31 28 32 80 33
REMARK SMILES IDX 29 34 79 35 30 36 31 37 32 38 73 39 33 40 78 41 72 42 74 43
REMARK SMILES IDX 34 44 77 45 71 46 70 47 35 49 61 50 44 51 60 52 45 53 48 54
REMARK SMILES IDX 59 55 75 56 46 57 47 58 58 60 76 61 49 62 36 63 37 64 42 65
REMARK SMILES IDX 38 66 39 67 41 68 43 69 40 70 62 71 63 72 68 73 64 74 65 75
REMARK SMILES IDX 67 76 69 77 66 78 50 79 51 80 56 81 52 82 53 83 55 84 57 85
REMARK SMILES IDX 54 86
REMARK H PARENT 10 14 74 48 48 59
REMARK Flexibility Score: inf
ROOT
ATOM      1  C   UNL A   1      34.461  34.594  28.034  1.00  0.00     0.202 C 
ENDROOT
BRANCH   1   2
ATOM      2  C   UNL A   1      33.968  33.369  28.743  1.00  0.00     0.261 C 
BRANCH   2   3
ATOM      3  O   UNL A   1      33.732  32.288  27.830  1.00  0.00    -0.460 OA
BRANCH   3   4
ATOM      4  C   UNL A   1      34.659  31.308  27.637  1.00  0.00     0.338 C 
ATOM      5  O   UNL A   1      35.830  31.281  27.932  1.00  0.00    -0.246 OA
BRANCH   4   6
ATOM      6  C   UNL A   1      33.899  30.156  27.131  1.00  0.00     0.060 A 
ATOM      7  C   UNL A   1      32.452  27.858  26.588  1.00  0.00    -0.029 A 
ATOM      8  C   UNL A   1      33.858  27.851  26.501  1.00  0.00     0.006 A 
ATOM      9  C   UNL A   1      31.788  29.021  26.986  1.00  0.00     0.006 A 
ATOM     10  C   UNL A   1      34.587  28.998  26.777  1.00  0.00     0.016 A 
ATOM     11  C   UNL A   1      32.503  30.177  27.194  1.00  0.00     0.016 A 
BRANCH   7  12
ATOM     12  C   UNL A   1      31.731  26.581  26.242  1.00  0.00     0.149 C 
BRANCH  12  13
ATOM     13  N   UNL A   1      32.619  25.450  26.127  1.00  0.00    -0.375 N 
ATOM     14  H   UNL A   1      33.048  25.169  26.968  1.00  0.00     0.161 HD
BRANCH  13  15
ATOM     15  C   UNL A   1      32.959  24.703  25.020  1.00  0.00     0.114 A 
ATOM     16  C   UNL A   1      32.530  25.575  21.290  1.00  0.00     0.044 C 
ATOM     17  C   UNL A   1      32.896  24.827  22.536  1.00  0.00    -0.049 A 
ATOM     18  C   UNL A   1      33.516  23.588  22.459  1.00  0.00     0.010 A 
ATOM     19  C   UNL A   1      32.621  25.355  23.801  1.00  0.00     0.036 A 
ATOM     20  C   UNL A   1      33.824  22.893  23.627  1.00  0.00     0.088 A 
ATOM     21  C   UNL A   1      33.539  23.426  24.906  1.00  0.00     0.292 A 
BRANCH  21  22
ATOM     22  N   UNL A   1      33.956  22.562  26.027  1.00  0.00     0.064 N 
ATOM     23  O   UNL A   1      34.842  21.722  25.796  1.00  0.00    -0.258 OA
ATOM     24  O   UNL A   1      33.381  22.645  27.116  1.00  0.00    -0.258 OA
ENDBRANCH  21  22
ENDBRANCH  13  15
ENDBRANCH  12  13
ENDBRANCH   7  12
ENDBRANCH   4   6
ENDBRANCH   3   4
ENDBRANCH   2   3
ENDBRANCH   1   2
BRANCH   1  25
ATOM     25  O   UNL A   1      33.997  35.696  28.790  1.00  0.00    -0.374 OA
BRANCH  25  26
ATOM     26  C   UNL A   1      32.841  35.474  29.567  1.00  0.00     0.202 C 
BRANCH  26  27
ATOM     27  C   UNL A   1      32.900  36.239  30.894  1.00  0.00     0.261 C 
BRANCH  27  28
ATOM     28  O   UNL A   1      34.263  36.267  31.383  1.00  0.00    -0.460 OA
BRANCH  28  29
ATOM     29  C   UNL A   1      34.532  35.523  32.494  1.00  0.00     0.338 C 
ATOM     30  O   UNL A   1      34.491  35.931  33.644  1.00  0.00    -0.246 OA
BRANCH  29  31
ATOM     31  C   UNL A   1      35.165  34.224  32.104  1.00  0.00     0.060 A 
ATOM     32  C   UNL A   1      34.944  33.060  32.871  1.00  0.00     0.016 A 
ATOM     33  C   UNL A   1      36.236  34.269  31.221  1.00  0.00     0.016 A 
ATOM     34  C   UNL A   1      35.905  32.030  32.895  1.00  0.00     0.010 A 
ATOM     35  C   UNL A   1      37.228  33.322  31.350  1.00  0.00     0.010 A 
ATOM     36  C   UNL A   1      37.102  32.218  32.215  1.00  0.00    -0.014 A 
BRANCH  36  37
ATOM     37  C   UNL A   1      38.336  31.423  32.333  1.00  0.00     0.031 A 
ATOM     38  C   UNL A   1      38.413  30.197  31.506  1.00  0.00     0.074 A 
ATOM     39  C   UNL A   1      39.483  31.950  32.838  1.00  0.00     0.049 A 
ATOM     40  N   UNL A   1      39.443  29.432  31.446  1.00  0.00    -0.248 NA
ATOM     41  C   UNL A   1      37.305  29.696  30.690  1.00  0.00     0.031 C 
ATOM     42  C   UNL A   1      40.867  31.677  32.420  1.00  0.00     0.029 A 
ATOM     43  N   UNL A   1      39.661  32.911  33.835  1.00  0.00    -0.354 N 
ATOM     44  C   UNL A   1      39.288  28.604  30.363  1.00  0.00     0.074 A 
ATOM     45  C   UNL A   1      37.897  28.704  30.017  1.00  0.00     0.031 C 
ATOM     46  C   UNL A   1      41.731  32.225  33.292  1.00  0.00     0.029 A 
ATOM     47  C   UNL A   1      40.945  32.751  34.390  1.00  0.00     0.049 A 
ATOM     48  H   UNL A   1      38.999  33.589  34.106  1.00  0.00     0.167 HD
ATOM     49  C   UNL A   1      40.410  28.042  29.835  1.00  0.00     0.037 A 
ATOM     50  C   UNL A   1      41.087  32.488  35.716  1.00  0.00     0.037 A 
ATOM     51  C   UNL A   1      41.551  28.264  30.739  1.00  0.00     0.049 A 
ATOM     52  C   UNL A   1      41.645  31.101  35.846  1.00  0.00     0.074 A 
ATOM     53  C   UNL A   1      42.677  29.067  30.688  1.00  0.00     0.029 A 
ATOM     54  N   UNL A   1      41.443  27.834  32.065  1.00  0.00    -0.354 N 
ATOM     55  N   UNL A   1      41.526  30.209  34.898  1.00  0.00    -0.248 NA
ATOM     56  C   UNL A   1      42.481  30.640  36.947  1.00  0.00     0.031 C 
ATOM     57  C   UNL A   1      43.182  29.191  32.020  1.00  0.00     0.029 A 
ATOM     58  C   UNL A   1      42.392  28.429  32.873  1.00  0.00     0.049 A 
ATOM     59  H   UNL A   1      40.772  27.188  32.384  1.00  0.00     0.167 HD
ATOM     60  C   UNL A   1      42.314  29.139  35.176  1.00  0.00     0.074 A 
ATOM     61  C   UNL A   1      42.857  29.430  36.493  1.00  0.00     0.031 C 
ATOM     62  C   UNL A   1      42.474  28.107  34.300  1.00  0.00     0.037 A 
BRANCH  49  63
ATOM     63  C   UNL A   1      40.531  27.425  28.455  1.00  0.00     0.057 A 
ATOM     64  C   UNL A   1      39.950  26.167  28.194  1.00  0.00     0.134 A 
ATOM     65  C   UNL A   1      41.262  27.948  27.367  1.00  0.00     0.134 A 
ATOM     66  F   UNL A   1      39.241  25.517  29.127  1.00  0.00    -0.206 F 
ATOM     67  C   UNL A   1      40.078  25.501  26.964  1.00  0.00     0.040 A 
ATOM     68  C   UNL A   1      41.361  27.313  26.119  1.00  0.00     0.040 A 
ATOM     69  F   UNL A   1      41.972  29.076  27.448  1.00  0.00    -0.206 F 
ATOM     70  C   UNL A   1      40.774  26.078  25.914  1.00  0.00     0.006 A 
ENDBRANCH  49  63
BRANCH  50  71
ATOM     71  C   UNL A   1      40.024  33.186  36.504  1.00  0.00     0.057 A 
ATOM     72  C   UNL A   1      38.979  32.373  37.001  1.00  0.00     0.134 A 
ATOM     73  C   UNL A   1      40.315  34.344  37.238  1.00  0.00     0.134 A 
ATOM     74  F   UNL A   1      38.648  31.239  36.360  1.00  0.00    -0.206 F 
ATOM     75  C   UNL A   1      38.382  32.602  38.246  1.00  0.00     0.040 A 
ATOM     76  C   UNL A   1      39.727  34.575  38.493  1.00  0.00     0.040 A 
ATOM     77  F   UNL A   1      41.302  35.163  36.851  1.00  0.00    -0.206 F 
ATOM     78  C   UNL A   1      38.799  33.679  39.023  1.00  0.00     0.006 A 
ENDBRANCH  50  71
BRANCH  62  79
ATOM     79  C   UNL A   1      42.789  26.703  34.740  1.00  0.00     0.057 A 
ATOM     80  C   UNL A   1      41.921  25.923  35.523  1.00  0.00     0.134 A 
ATOM     81  C   UNL A   1      43.909  26.016  34.228  1.00  0.00     0.134 A 
ATOM     82  F   UNL A   1      40.741  26.386  35.955  1.00  0.00    -0.206 F 
ATOM     83  C   UNL A   1      42.193  24.594  35.851  1.00  0.00     0.040 A 
ATOM     84  C   UNL A   1      44.150  24.665  34.486  1.00  0.00     0.040 A 
ATOM     85  F   UNL A   1      44.802  26.607  33.421  1.00  0.00    -0.206 F 
ATOM     86  C   UNL A   1      43.306  23.956  35.323  1.00  0.00     0.006 A 
ENDBRANCH  62  79
ENDBRANCH  36  37
ENDBRANCH  29  31
ENDBRANCH  28  29
ENDBRANCH  27  28
ENDBRANCH  26  27
ENDBRANCH  25  26
ENDBRANCH   1  25
TORSDOF 18
ENDMDL
MODEL 2
REMARK VINA RESULT:     -10.9      5.196     10.814
REMARK SMILES Cc1ccc([N+](=O)[O-])c(NCc2ccc(C(=O)OCCOCCOC(=O)c3ccc(-c4c5nc(c(-c6c(F)cccc6F)c6ccc([nH]6)c(-c6c(F)cccc6F)c6nc(c(-c7c(F)cccc7F)c7ccc4[nH]7)C=C6)C=C5)cc3)cc2)c1
REMARK SMILES IDX 20 1 19 2 18 3 16 4 17 5 15 6 12 7 13 8 82 9 14 10 81 11
REMARK SMILES IDX 11 12 10 13 9 15 1 16 2 17 3 18 83 19 4 20 5 21 6 22 7 23
REMARK SMILES IDX 8 24 21 25 22 26 23 27 24 28 25 29 26 30 27 31 28 32 80 33
REMARK SMILES IDX 29 34 79 35 30 36 31 37 32 38 73 39 33 40 78 41 72 42 74 43
REMARK SMILES IDX 34 44 77 45 71 46 70 47 35 49 61 50 44 51 60 52 45 53 48 54
REMARK SMILES IDX 59 55 75 56 46 57 47 58 58 60 76 61 49 62 36 63 37 64 42 65
REMARK SMILES IDX 38 66 39 67 41 68 43 69 40 70 62 71 63 72 68 73 64 74 65 75
REMARK SMILES IDX 67 76 69 77 66 78 50 79 51 80 56 81 52 82 53 83 55 84 57 85
REMARK SMILES IDX 54 86
REMARK H PARENT 10 14 74 48 48 59
REMARK Flexibility Score: inf
ROOT
ATOM      1  C   UNL A   1      40.001  20.275  26.204  1.00  0.00     0.202 C 
ENDROOT
BRANCH   1   2
ATOM      2  C   UNL A   1      39.853  21.766  26.208  1.00  0.00     0.261 C 
BRANCH   2   3
ATOM      3  O   UNL A   1      38.639  22.180  25.566  1.00  0.00    -0.460 OA
BRANCH   3   4
ATOM      4  C   UNL A   1      37.940  23.265  26.002  1.00  0.00     0.338 C 
ATOM      5  O   UNL A   1      38.302  24.197  26.679  1.00  0.00    -0.246 OA
BRANCH   4   6
ATOM      6  C   UNL A   1      36.639  23.181  25.323  1.00  0.00     0.060 A 
ATOM      7  C   UNL A   1      34.212  22.600  24.124  1.00  0.00    -0.029 A 
ATOM      8  C   UNL A   1      35.391  22.656  23.355  1.00  0.00     0.006 A 
ATOM      9  C   UNL A   1      34.275  22.804  25.504  1.00  0.00     0.006 A 
ATOM     10  C   UNL A   1      36.610  22.941  23.952  1.00  0.00     0.016 A 
ATOM     11  C   UNL A   1      35.469  23.154  26.088  1.00  0.00     0.016 A 
BRANCH   7  12
ATOM     12  C   UNL A   1      32.923  22.317  23.396  1.00  0.00     0.149 C 
BRANCH  12  13
ATOM     13  N   UNL A   1      32.426  23.462  22.672  1.00  0.00    -0.375 N 
ATOM     14  H   UNL A   1      32.347  23.339  21.698  1.00  0.00     0.161 HD
BRANCH  13  15
ATOM     15  C   UNL A   1      32.044  24.702  23.136  1.00  0.00     0.114 A 
ATOM     16  C   UNL A   1      29.725  25.570  26.090  1.00  0.00     0.044 C 
ATOM     17  C   UNL A   1      30.648  25.730  24.919  1.00  0.00    -0.049 A 
ATOM     18  C   UNL A   1      31.020  26.993  24.482  1.00  0.00     0.010 A 
ATOM     19  C   UNL A   1      31.151  24.616  24.242  1.00  0.00     0.036 A 
ATOM     20  C   UNL A   1      31.856  27.125  23.375  1.00  0.00     0.088 A 
ATOM     21  C   UNL A   1      32.359  25.998  22.685  1.00  0.00     0.292 A 
BRANCH  21  22
ATOM     22  N   UNL A   1      33.247  26.328  21.554  1.00  0.00     0.064 N 
ATOM     23  O   UNL A   1      33.884  27.391  21.626  1.00  0.00    -0.258 OA
ATOM     24  O   UNL A   1      33.278  25.595  20.561  1.00  0.00    -0.258 OA
ENDBRANCH  21  22
ENDBRANCH  13  15
ENDBRANCH  12  13
ENDBRANCH   7  12
ENDBRANCH   4   6
ENDBRANCH   3   4
ENDBRANCH   2   3
ENDBRANCH   1   2
BRANCH   1  25
ATOM     25  O   UNL A   1      41.354  20.015  26.523  1.00  0.00    -0.374 OA
BRANCH  25  26
ATOM     26  C   UNL A   1      41.881  18.796  26.050  1.00  0.00     0.202 C 
BRANCH  26  27
ATOM     27  C   UNL A   1      43.266  18.988  25.422  1.00  0.00     0.261 C 
BRANCH  27  28
ATOM     28  O   UNL A   1      43.967  20.058  26.101  1.00  0.00    -0.460 OA
BRANCH  28  29
ATOM     29  C   UNL A   1      44.426  21.081  25.323  1.00  0.00     0.338 C 
ATOM     30  O   UNL A   1      45.458  21.064  24.671  1.00  0.00    -0.246 OA
BRANCH  29  31
ATOM     31  C   UNL A   1      43.649  22.329  25.603  1.00  0.00     0.060 A 
ATOM     32  C   UNL A   1      43.539  23.340  24.623  1.00  0.00     0.016 A 
ATOM     33  C   UNL A   1      43.366  22.628  26.928  1.00  0.00     0.016 A 
ATOM     34  C   UNL A   1      43.340  24.681  25.003  1.00  0.00     0.010 A 
ATOM     35  C   UNL A   1      43.302  23.953  27.300  1.00  0.00     0.010 A 
ATOM     36  C   UNL A   1      43.332  24.998  26.356  1.00  0.00    -0.014 A 
BRANCH  36  37
ATOM     37  C   UNL A   1      43.426  26.335  26.966  1.00  0.00     0.031 A 
ATOM     38  C   UNL A   1      42.146  27.041  27.209  1.00  0.00     0.074 A 
ATOM     39  C   UNL A   1      44.541  26.745  27.627  1.00  0.00     0.049 A 
ATOM     40  N   UNL A   1      42.052  28.181  27.790  1.00  0.00    -0.248 NA
ATOM     41  C   UNL A   1      40.843  26.531  26.778  1.00  0.00     0.031 C 
ATOM     42  C   UNL A   1      44.622  27.596  28.825  1.00  0.00     0.029 A 
ATOM     43  N   UNL A   1      45.882  26.441  27.390  1.00  0.00    -0.354 N 
ATOM     44  C   UNL A   1      40.737  28.371  28.133  1.00  0.00     0.074 A 
ATOM     45  C   UNL A   1      40.011  27.398  27.363  1.00  0.00     0.031 C 
ATOM     46  C   UNL A   1      45.899  27.951  29.055  1.00  0.00     0.029 A 
ATOM     47  C   UNL A   1      46.679  27.466  27.934  1.00  0.00     0.049 A 
ATOM     48  H   UNL A   1      46.217  25.642  26.922  1.00  0.00     0.167 HD
ATOM     49  C   UNL A   1      40.469  29.258  29.130  1.00  0.00     0.037 A 
ATOM     50  C   UNL A   1      47.515  28.178  27.133  1.00  0.00     0.037 A 
ATOM     51  C   UNL A   1      41.683  30.027  29.454  1.00  0.00     0.049 A 
ATOM     52  C   UNL A   1      47.004  29.588  27.082  1.00  0.00     0.074 A 
ATOM     53  C   UNL A   1      42.560  30.034  30.524  1.00  0.00     0.029 A 
ATOM     54  N   UNL A   1      42.323  30.723  28.425  1.00  0.00    -0.354 N 
ATOM     55  N   UNL A   1      45.761  29.889  27.349  1.00  0.00    -0.248 NA
ATOM     56  C   UNL A   1      47.834  30.767  26.873  1.00  0.00     0.031 C 
ATOM     57  C   UNL A   1      43.770  30.658  30.089  1.00  0.00     0.029 A 
ATOM     58  C   UNL A   1      43.615  31.070  28.771  1.00  0.00     0.049 A 
ATOM     59  H   UNL A   1      41.905  30.941  27.560  1.00  0.00     0.167 HD
ATOM     60  C   UNL A   1      45.630  31.236  27.458  1.00  0.00     0.074 A 
ATOM     61  C   UNL A   1      46.945  31.750  27.105  1.00  0.00     0.031 C 
ATOM     62  C   UNL A   1      44.463  31.825  27.846  1.00  0.00     0.037 A 
BRANCH  49  63
ATOM     63  C   UNL A   1      39.176  29.345  29.918  1.00  0.00     0.057 A 
ATOM     64  C   UNL A   1      38.050  29.981  29.355  1.00  0.00     0.134 A 
ATOM     65  C   UNL A   1      38.978  28.917  31.248  1.00  0.00     0.134 A 
ATOM     66  F   UNL A   1      38.076  30.471  28.108  1.00  0.00    -0.206 F 
ATOM     67  C   UNL A   1      36.842  30.163  30.048  1.00  0.00     0.040 A 
ATOM     68  C   UNL A   1      37.762  29.052  31.936  1.00  0.00     0.040 A 
ATOM     69  F   UNL A   1      39.953  28.387  31.990  1.00  0.00    -0.206 F 
ATOM     70  C   UNL A   1      36.687  29.686  31.340  1.00  0.00     0.006 A 
ENDBRANCH  49  63
BRANCH  50  71
ATOM     71  C   UNL A   1      48.071  27.305  26.052  1.00  0.00     0.057 A 
ATOM     72  C   UNL A   1      47.546  27.507  24.755  1.00  0.00     0.134 A 
ATOM     73  C   UNL A   1      49.383  26.817  26.124  1.00  0.00     0.134 A 
ATOM     74  F   UNL A   1      46.300  27.986  24.601  1.00  0.00    -0.206 F 
ATOM     75  C   UNL A   1      48.337  27.400  23.604  1.00  0.00     0.040 A 
ATOM     76  C   UNL A   1      50.185  26.716  24.975  1.00  0.00     0.040 A 
ATOM     77  F   UNL A   1      49.967  26.614  27.313  1.00  0.00    -0.206 F 
ATOM     78  C   UNL A   1      49.680  27.057  23.720  1.00  0.00     0.006 A 
ENDBRANCH  50  71
BRANCH  62  79
ATOM     79  C   UNL A   1      44.067  33.212  27.418  1.00  0.00     0.057 A 
ATOM     80  C   UNL A   1      43.821  33.570  26.082  1.00  0.00     0.134 A 
ATOM     81  C   UNL A   1      43.734  34.198  28.370  1.00  0.00     0.134 A 
ATOM     82  F   UNL A   1      43.941  32.694  25.075  1.00  0.00    -0.206 F 
ATOM     83  C   UNL A   1      43.373  34.840  25.713  1.00  0.00     0.040 A 
ATOM     84  C   UNL A   1      43.211  35.443  28.017  1.00  0.00     0.040 A 
ATOM     85  F   UNL A   1      43.860  33.989  29.688  1.00  0.00    -0.206 F 
ATOM     86  C   UNL A   1      43.055  35.778  26.683  1.00  0.00     0.006 A 
ENDBRANCH  62  79
ENDBRANCH  36  37
ENDBRANCH  29  31
ENDBRANCH  28  29
ENDBRANCH  27  28
ENDBRANCH  26  27
ENDBRANCH  25  26
ENDBRANCH   1  25
TORSDOF 18
ENDMDL
MODEL 3
REMARK VINA RESULT:     -10.7      4.385      9.685
REMARK SMILES Cc1ccc([N+](=O)[O-])c(NCc2ccc(C(=O)OCCOCCOC(=O)c3ccc(-c4c5nc(c(-c6c(F)cccc6F)c6ccc([nH]6)c(-c6c(F)cccc6F)c6nc(c(-c7c(F)cccc7F)c7ccc4[nH]7)C=C6)C=C5)cc3)cc2)c1
REMARK SMILES IDX 20 1 19 2 18 3 16 4 17 5 15 6 12 7 13 8 82 9 14 10 81 11
REMARK SMILES IDX 11 12 10 13 9 15 1 16 2 17 3 18 83 19 4 20 5 21 6 22 7 23
REMARK SMILES IDX 8 24 21 25 22 26 23 27 24 28 25 29 26 30 27 31 28 32 80 33
REMARK SMILES IDX 29 34 79 35 30 36 31 37 32 38 73 39 33 40 78 41 72 42 74 43
REMARK SMILES IDX 34 44 77 45 71 46 70 47 35 49 61 50 44 51 60 52 45 53 48 54
REMARK SMILES IDX 59 55 75 56 46 57 47 58 58 60 76 61 49 62 36 63 37 64 42 65
REMARK SMILES IDX 38 66 39 67 41 68 43 69 40 70 62 71 63 72 68 73 64 74 65 75
REMARK SMILES IDX 67 76 69 77 66 78 50 79 51 80 56 81 52 82 53 83 55 84 57 85
REMARK SMILES IDX 54 86
REMARK H PARENT 10 14 74 48 48 59
REMARK Flexibility Score: inf
ROOT
ATOM      1  C   UNL A   1      35.540  21.634  25.644  1.00  0.00     0.202 C 
ENDROOT
BRANCH   1   2
ATOM      2  C   UNL A   1      34.617  20.549  25.179  1.00  0.00     0.261 C 
BRANCH   2   3
ATOM      3  O   UNL A   1      33.681  21.031  24.206  1.00  0.00    -0.460 OA
BRANCH   3   4
ATOM      4  C   UNL A   1      32.441  21.465  24.568  1.00  0.00     0.338 C 
ATOM      5  O   UNL A   1      31.652  20.988  25.349  1.00  0.00    -0.246 OA
BRANCH   4   6
ATOM      6  C   UNL A   1      32.294  22.781  23.932  1.00  0.00     0.060 A 
ATOM      7  C   UNL A   1      31.858  25.045  22.398  1.00  0.00    -0.029 A 
ATOM      8  C   UNL A   1      33.113  24.406  22.383  1.00  0.00     0.006 A 
ATOM      9  C   UNL A   1      30.818  24.512  23.163  1.00  0.00     0.006 A 
ATOM     10  C   UNL A   1      33.335  23.269  23.146  1.00  0.00     0.016 A 
ATOM     11  C   UNL A   1      31.054  23.425  23.972  1.00  0.00     0.016 A 
BRANCH   7  12
ATOM     12  C   UNL A   1      31.707  26.293  21.567  1.00  0.00     0.149 C 
BRANCH  12  13
ATOM     13  N   UNL A   1      32.428  27.418  22.112  1.00  0.00    -0.375 N 
ATOM     14  H   UNL A   1      33.242  27.672  21.618  1.00  0.00     0.161 HD
BRANCH  13  15
ATOM     15  C   UNL A   1      32.152  28.192  23.218  1.00  0.00     0.114 A 
ATOM     16  C   UNL A   1      34.279  28.724  26.388  1.00  0.00     0.044 C 
ATOM     17  C   UNL A   1      33.157  28.836  25.400  1.00  0.00    -0.049 A 
ATOM     18  C   UNL A   1      32.070  29.659  25.657  1.00  0.00     0.010 A 
ATOM     19  C   UNL A   1      33.177  28.116  24.203  1.00  0.00     0.036 A 
ATOM     20  C   UNL A   1      31.022  29.730  24.742  1.00  0.00     0.088 A 
ATOM     21  C   UNL A   1      31.040  28.995  23.534  1.00  0.00     0.292 A 
BRANCH  21  22
ATOM     22  N   UNL A   1      29.859  29.212  22.677  1.00  0.00     0.064 N 
ATOM     23  O   UNL A   1      30.065  29.600  21.515  1.00  0.00    -0.258 OA
ATOM     24  O   UNL A   1      28.724  29.075  23.145  1.00  0.00    -0.258 OA
ENDBRANCH  21  22
ENDBRANCH  13  15
ENDBRANCH  12  13
ENDBRANCH   7  12
ENDBRANCH   4   6
ENDBRANCH   3   4
ENDBRANCH   2   3
ENDBRANCH   1   2
BRANCH   1  25
ATOM     25  O   UNL A   1      36.834  21.064  25.663  1.00  0.00    -0.374 OA
BRANCH  25  26
ATOM     26  C   UNL A   1      37.907  21.949  25.427  1.00  0.00     0.202 C 
BRANCH  26  27
ATOM     27  C   UNL A   1      39.238  21.362  25.909  1.00  0.00     0.261 C 
BRANCH  27  28
ATOM     28  O   UNL A   1      40.244  22.402  25.956  1.00  0.00    -0.460 OA
BRANCH  28  29
ATOM     29  C   UNL A   1      40.525  22.928  27.183  1.00  0.00     0.338 C 
ATOM     30  O   UNL A   1      40.815  22.282  28.178  1.00  0.00    -0.246 OA
BRANCH  29  31
ATOM     31  C   UNL A   1      40.147  24.375  27.223  1.00  0.00     0.060 A 
ATOM     32  C   UNL A   1      40.655  25.275  26.261  1.00  0.00     0.016 A 
ATOM     33  C   UNL A   1      39.606  24.868  28.403  1.00  0.00     0.016 A 
ATOM     34  C   UNL A   1      40.798  26.642  26.571  1.00  0.00     0.010 A 
ATOM     35  C   UNL A   1      39.869  26.176  28.745  1.00  0.00     0.010 A 
ATOM     36  C   UNL A   1      40.505  27.069  27.860  1.00  0.00    -0.014 A 
BRANCH  36  37
ATOM     37  C   UNL A   1      40.845  28.362  28.478  1.00  0.00     0.031 A 
ATOM     38  C   UNL A   1      39.748  29.353  28.580  1.00  0.00     0.074 A 
ATOM     39  C   UNL A   1      41.947  28.516  29.258  1.00  0.00     0.049 A 
ATOM     40  N   UNL A   1      39.864  30.498  29.148  1.00  0.00    -0.248 NA
ATOM     41  C   UNL A   1      38.415  29.152  28.009  1.00  0.00     0.031 C 
ATOM     42  C   UNL A   1      42.099  29.354  30.458  1.00  0.00     0.029 A 
ATOM     43  N   UNL A   1      43.197  27.900  29.169  1.00  0.00    -0.354 N 
ATOM     44  C   UNL A   1      38.602  30.999  29.346  1.00  0.00     0.074 A 
ATOM     45  C   UNL A   1      37.753  30.203  28.501  1.00  0.00     0.031 C 
ATOM     46  C   UNL A   1      43.391  29.406  30.826  1.00  0.00     0.029 A 
ATOM     47  C   UNL A   1      44.150  28.724  29.797  1.00  0.00     0.049 A 
ATOM     48  H   UNL A   1      43.382  27.034  28.739  1.00  0.00     0.167 HD
ATOM     49  C   UNL A   1      38.445  31.949  30.308  1.00  0.00     0.037 A 
ATOM     50  C   UNL A   1      45.211  29.200  29.093  1.00  0.00     0.037 A 
ATOM     51  C   UNL A   1      39.764  32.420  30.763  1.00  0.00     0.049 A 
ATOM     52  C   UNL A   1      45.054  30.690  28.987  1.00  0.00     0.074 A 
ATOM     53  C   UNL A   1      40.499  32.248  31.923  1.00  0.00     0.029 A 
ATOM     54  N   UNL A   1      40.656  32.921  29.811  1.00  0.00    -0.354 N 
ATOM     55  N   UNL A   1      43.895  31.279  29.117  1.00  0.00    -0.248 NA
ATOM     56  C   UNL A   1      46.156  31.636  28.871  1.00  0.00     0.031 C 
ATOM     57  C   UNL A   1      41.861  32.561  31.623  1.00  0.00     0.029 A 
ATOM     58  C   UNL A   1      41.948  32.964  30.296  1.00  0.00     0.049 A 
ATOM     59  H   UNL A   1      40.395  33.209  28.906  1.00  0.00     0.167 HD
ATOM     60  C   UNL A   1      44.074  32.622  29.212  1.00  0.00     0.074 A 
ATOM     61  C   UNL A   1      45.502  32.805  29.005  1.00  0.00     0.031 C 
ATOM     62  C   UNL A   1      43.044  33.477  29.470  1.00  0.00     0.037 A 
BRANCH  49  63
ATOM     63  C   UNL A   1      37.132  32.355  30.950  1.00  0.00     0.057 A 
ATOM     64  C   UNL A   1      36.238  33.194  30.254  1.00  0.00     0.134 A 
ATOM     65  C   UNL A   1      36.713  32.045  32.262  1.00  0.00     0.134 A 
ATOM     66  F   UNL A   1      36.496  33.605  29.005  1.00  0.00    -0.206 F 
ATOM     67  C   UNL A   1      35.039  33.669  30.808  1.00  0.00     0.040 A 
ATOM     68  C   UNL A   1      35.496  32.478  32.811  1.00  0.00     0.040 A 
ATOM     69  F   UNL A   1      37.467  31.351  33.118  1.00  0.00    -0.206 F 
ATOM     70  C   UNL A   1      34.654  33.302  32.087  1.00  0.00     0.006 A 
ENDBRANCH  49  63
BRANCH  50  71
ATOM     71  C   UNL A   1      45.658  28.196  28.078  1.00  0.00     0.057 A 
ATOM     72  C   UNL A   1      45.339  28.483  26.731  1.00  0.00     0.134 A 
ATOM     73  C   UNL A   1      46.800  27.414  28.294  1.00  0.00     0.134 A 
ATOM     74  F   UNL A   1      44.265  29.239  26.442  1.00  0.00    -0.206 F 
ATOM     75  C   UNL A   1      46.201  28.165  25.675  1.00  0.00     0.040 A 
ATOM     76  C   UNL A   1      47.675  27.099  27.241  1.00  0.00     0.040 A 
ATOM     77  F   UNL A   1      47.188  27.108  29.540  1.00  0.00    -0.206 F 
ATOM     78  C   UNL A   1      47.404  27.519  25.939  1.00  0.00     0.006 A 
ENDBRANCH  50  71
BRANCH  62  79
ATOM     79  C   UNL A   1      43.033  34.907  29.003  1.00  0.00     0.057 A 
ATOM     80  C   UNL A   1      43.112  36.007  29.873  1.00  0.00     0.134 A 
ATOM     81  C   UNL A   1      43.133  35.224  27.632  1.00  0.00     0.134 A 
ATOM     82  F   UNL A   1      43.185  35.860  31.203  1.00  0.00    -0.206 F 
ATOM     83  C   UNL A   1      43.185  37.324  29.417  1.00  0.00     0.040 A 
ATOM     84  C   UNL A   1      43.285  36.531  27.167  1.00  0.00     0.040 A 
ATOM     85  F   UNL A   1      43.128  34.281  26.679  1.00  0.00    -0.206 F 
ATOM     86  C   UNL A   1      43.284  37.590  28.060  1.00  0.00     0.006 A 
ENDBRANCH  62  79
ENDBRANCH  36  37
ENDBRANCH  29  31
ENDBRANCH  28  29
ENDBRANCH  27  28
ENDBRANCH  26  27
ENDBRANCH  25  26
ENDBRANCH   1  25
TORSDOF 18
ENDMDL
