MODEL 1
REMARK VINA RESULT:      -9.4      0.000      0.000
REMARK SMILES COc1ccc2cc([C@H](C)C(=O)OCCOCCOC(=O)c3ccc(-c4c5nc(c(-c6c(F)cccc6F)c6ccc([nH]6)c(-c6c(F)cccc6F)c6nc(c(-c7c(F)cccc7F)c7ccc4[nH]7)C=C6)C=C5)cc3)ccc2c1
REMARK SMILES IDX 16 1 15 2 14 3 13 4 11 5 12 6 9 7 10 8 8 9 3 10 4 11 79 12
REMARK SMILES IDX 5 13 78 14 6 15 77 16 7 17 76 18 2 19 1 20 17 21 18 22 19 23
REMARK SMILES IDX 20 24 21 25 22 26 23 27 75 28 24 29 74 30 25 31 26 32 27 33
REMARK SMILES IDX 68 34 28 35 73 36 67 37 69 38 29 39 72 40 66 41 65 42 30 44
REMARK SMILES IDX 56 45 39 46 55 47 40 48 43 49 54 50 70 51 41 52 42 53 53 55
REMARK SMILES IDX 71 56 44 57 31 58 32 59 37 60 33 61 34 62 36 63 38 64 35 65
REMARK SMILES IDX 57 66 58 67 63 68 59 69 60 70 62 71 64 72 61 73 45 74 46 75
REMARK SMILES IDX 51 76 47 77 48 78 50 79 52 80 49 81
REMARK H PARENT 69 43 43 54
REMARK Flexibility Score: inf
ROOT
ATOM      1  O   UNL A   1      33.212  36.161  29.477  1.00  0.00    -0.374 OA
ENDROOT
BRANCH   1   2
ATOM      2  C   UNL A   1      32.753  35.734  30.757  1.00  0.00     0.202 C 
BRANCH   2   3
ATOM      3  C   UNL A   1      33.813  35.313  31.778  1.00  0.00     0.261 C 
BRANCH   3   4
ATOM      4  O   UNL A   1      33.858  33.890  31.975  1.00  0.00    -0.463 OA
BRANCH   4   5
ATOM      5  C   UNL A   1      35.032  33.408  32.469  1.00  0.00     0.313 C 
ATOM      6  O   UNL A   1      35.496  32.300  32.222  1.00  0.00    -0.252 OA
BRANCH   5   7
ATOM      7  C   UNL A   1      35.714  34.391  33.418  1.00  0.00     0.126 C 
ATOM      8  C   UNL A   1      35.414  34.141  34.899  1.00  0.00     0.025 C 
BRANCH   7   9
ATOM      9  C   UNL A   1      37.183  34.491  33.061  1.00  0.00    -0.033 A 
ATOM     10  C   UNL A   1      41.540  34.506  30.471  1.00  0.00     0.119 A 
ATOM     11  C   UNL A   1      40.526  34.533  29.516  1.00  0.00     0.047 A 
ATOM     12  C   UNL A   1      41.222  34.457  31.829  1.00  0.00     0.055 A 
ATOM     13  C   UNL A   1      39.192  34.554  29.922  1.00  0.00     0.012 A 
ATOM     14  C   UNL A   1      39.886  34.481  32.252  1.00  0.00    -0.015 A 
ATOM     15  C   UNL A   1      38.862  34.535  31.284  1.00  0.00    -0.018 A 
ATOM     16  C   UNL A   1      39.544  34.440  33.612  1.00  0.00     0.009 A 
ATOM     17  C   UNL A   1      37.527  34.546  31.699  1.00  0.00     0.013 A 
ATOM     18  C   UNL A   1      38.205  34.437  34.013  1.00  0.00     0.005 A 
BRANCH  10  19
ATOM     19  O   UNL A   1      42.873  34.471  30.165  1.00  0.00    -0.497 OA
ATOM     20  C   UNL A   1      43.256  33.319  29.418  1.00  0.00     0.278 C 
ENDBRANCH  10  19
ENDBRANCH   7   9
ENDBRANCH   5   7
ENDBRANCH   4   5
ENDBRANCH   3   4
ENDBRANCH   2   3
ENDBRANCH   1   2
BRANCH   1  21
ATOM     21  C   UNL A   1      34.079  35.290  28.752  1.00  0.00     0.202 C 
BRANCH  21  22
ATOM     22  C   UNL A   1      33.532  33.905  28.390  1.00  0.00     0.261 C 
BRANCH  22  23
ATOM     23  O   UNL A   1      34.279  32.841  29.009  1.00  0.00    -0.460 OA
BRANCH  23  24
ATOM     24  C   UNL A   1      34.338  31.701  28.283  1.00  0.00     0.338 C 
ATOM     25  O   UNL A   1      33.482  31.256  27.529  1.00  0.00    -0.246 OA
BRANCH  24  26
ATOM     26  C   UNL A   1      35.678  31.097  28.374  1.00  0.00     0.060 A 
ATOM     27  C   UNL A   1      35.748  29.711  28.564  1.00  0.00     0.016 A 
ATOM     28  C   UNL A   1      36.838  31.876  28.389  1.00  0.00     0.016 A 
ATOM     29  C   UNL A   1      36.971  29.104  28.836  1.00  0.00     0.010 A 
ATOM     30  C   UNL A   1      38.065  31.266  28.672  1.00  0.00     0.010 A 
ATOM     31  C   UNL A   1      38.128  29.887  28.941  1.00  0.00    -0.014 A 
BRANCH  31  32
ATOM     32  C   UNL A   1      39.359  29.282  29.504  1.00  0.00     0.031 A 
ATOM     33  C   UNL A   1      39.882  29.791  30.818  1.00  0.00     0.074 A 
ATOM     34  C   UNL A   1      39.975  28.261  28.884  1.00  0.00     0.049 A 
ATOM     35  N   UNL A   1      40.931  29.407  31.502  1.00  0.00    -0.248 NA
ATOM     36  C   UNL A   1      39.118  30.879  31.448  1.00  0.00     0.031 C 
ATOM     37  C   UNL A   1      39.536  27.644  27.635  1.00  0.00     0.029 A 
ATOM     38  N   UNL A   1      41.102  27.560  29.232  1.00  0.00    -0.354 N 
ATOM     39  C   UNL A   1      40.956  30.208  32.636  1.00  0.00     0.074 A 
ATOM     40  C   UNL A   1      39.835  31.119  32.535  1.00  0.00     0.031 C 
ATOM     41  C   UNL A   1      40.384  26.648  27.321  1.00  0.00     0.029 A 
ATOM     42  C   UNL A   1      41.437  26.581  28.333  1.00  0.00     0.049 A 
ATOM     43  H   UNL A   1      41.619  27.744  30.049  1.00  0.00     0.167 HD
ATOM     44  C   UNL A   1      41.825  30.181  33.675  1.00  0.00     0.037 A 
ATOM     45  C   UNL A   1      42.484  25.733  28.324  1.00  0.00     0.037 A 
ATOM     46  C   UNL A   1      42.939  29.276  33.776  1.00  0.00     0.049 A 
ATOM     47  C   UNL A   1      43.488  25.780  29.443  1.00  0.00     0.074 A 
ATOM     48  C   UNL A   1      43.862  29.154  34.799  1.00  0.00     0.029 A 
ATOM     49  N   UNL A   1      43.285  28.343  32.811  1.00  0.00    -0.354 N 
ATOM     50  N   UNL A   1      43.491  26.526  30.521  1.00  0.00    -0.248 NA
ATOM     51  C   UNL A   1      44.638  24.870  29.339  1.00  0.00     0.031 C 
ATOM     52  C   UNL A   1      44.796  28.179  34.430  1.00  0.00     0.029 A 
ATOM     53  C   UNL A   1      44.427  27.662  33.199  1.00  0.00     0.049 A 
ATOM     54  H   UNL A   1      42.791  28.186  31.974  1.00  0.00     0.167 HD
ATOM     55  C   UNL A   1      44.622  26.155  31.239  1.00  0.00     0.074 A 
ATOM     56  C   UNL A   1      45.280  25.115  30.473  1.00  0.00     0.031 C 
ATOM     57  C   UNL A   1      45.071  26.629  32.427  1.00  0.00     0.037 A 
BRANCH  44  58
ATOM     58  C   UNL A   1      41.618  31.192  34.764  1.00  0.00     0.057 A 
ATOM     59  C   UNL A   1      40.670  31.006  35.778  1.00  0.00     0.134 A 
ATOM     60  C   UNL A   1      42.372  32.372  34.792  1.00  0.00     0.134 A 
ATOM     61  F   UNL A   1      39.903  29.906  35.799  1.00  0.00    -0.206 F 
ATOM     62  C   UNL A   1      40.457  31.973  36.763  1.00  0.00     0.040 A 
ATOM     63  C   UNL A   1      42.186  33.334  35.785  1.00  0.00     0.040 A 
ATOM     64  F   UNL A   1      43.298  32.611  33.851  1.00  0.00    -0.206 F 
ATOM     65  C   UNL A   1      41.218  33.140  36.770  1.00  0.00     0.006 A 
ENDBRANCH  44  58
BRANCH  45  66
ATOM     66  C   UNL A   1      42.630  24.755  27.217  1.00  0.00     0.057 A 
ATOM     67  C   UNL A   1      43.404  25.053  26.092  1.00  0.00     0.134 A 
ATOM     68  C   UNL A   1      42.004  23.503  27.262  1.00  0.00     0.134 A 
ATOM     69  F   UNL A   1      44.008  26.245  25.984  1.00  0.00    -0.206 F 
ATOM     70  C   UNL A   1      43.549  24.141  25.045  1.00  0.00     0.040 A 
ATOM     71  C   UNL A   1      42.157  22.575  26.232  1.00  0.00     0.040 A 
ATOM     72  F   UNL A   1      41.247  23.162  28.314  1.00  0.00    -0.206 F 
ATOM     73  C   UNL A   1      42.930  22.894  25.117  1.00  0.00     0.006 A 
ENDBRANCH  45  66
BRANCH  57  74
ATOM     74  C   UNL A   1      46.316  26.008  32.989  1.00  0.00     0.057 A 
ATOM     75  C   UNL A   1      47.586  26.542  32.741  1.00  0.00     0.134 A 
ATOM     76  C   UNL A   1      46.238  24.885  33.822  1.00  0.00     0.134 A 
ATOM     77  F   UNL A   1      47.730  27.610  31.941  1.00  0.00    -0.206 F 
ATOM     78  C   UNL A   1      48.737  25.971  33.287  1.00  0.00     0.040 A 
ATOM     79  C   UNL A   1      47.378  24.318  34.393  1.00  0.00     0.040 A 
ATOM     80  F   UNL A   1      45.050  24.328  34.105  1.00  0.00    -0.206 F 
ATOM     81  C   UNL A   1      48.634  24.859  34.122  1.00  0.00     0.006 A 
ENDBRANCH  57  74
ENDBRANCH  31  32
ENDBRANCH  24  26
ENDBRANCH  23  24
ENDBRANCH  22  23
ENDBRANCH  21  22
ENDBRANCH   1  21
TORSDOF 16
ENDMDL
MODEL 2
REMARK VINA RESULT:      -9.3      4.428     10.849
REMARK SMILES COc1ccc2cc([C@H](C)C(=O)OCCOCCOC(=O)c3ccc(-c4c5nc(c(-c6c(F)cccc6F)c6ccc([nH]6)c(-c6c(F)cccc6F)c6nc(c(-c7c(F)cccc7F)c7ccc4[nH]7)C=C6)C=C5)cc3)ccc2c1
REMARK SMILES IDX 16 1 15 2 14 3 13 4 11 5 12 6 9 7 10 8 8 9 3 10 4 11 79 12
REMARK SMILES IDX 5 13 78 14 6 15 77 16 7 17 76 18 2 19 1 20 17 21 18 22 19 23
REMARK SMILES IDX 20 24 21 25 22 26 23 27 75 28 24 29 74 30 25 31 26 32 27 33
REMARK SMILES IDX 68 34 28 35 73 36 67 37 69 38 29 39 72 40 66 41 65 42 30 44
REMARK SMILES IDX 56 45 39 46 55 47 40 48 43 49 54 50 70 51 41 52 42 53 53 55
REMARK SMILES IDX 71 56 44 57 31 58 32 59 37 60 33 61 34 62 36 63 38 64 35 65
REMARK SMILES IDX 57 66 58 67 63 68 59 69 60 70 62 71 64 72 61 73 45 74 46 75
REMARK SMILES IDX 51 76 47 77 48 78 50 79 52 80 49 81
REMARK H PARENT 69 43 43 54
REMARK Flexibility Score: inf
ROOT
ATOM      1  O   UNL A   1      46.106  20.795  24.920  1.00  0.00    -0.374 OA
ENDROOT
BRANCH   1   2
ATOM      2  C   UNL A   1      44.804  20.291  24.632  1.00  0.00     0.202 C 
BRANCH   2   3
ATOM      3  C   UNL A   1      43.897  19.968  25.823  1.00  0.00     0.261 C 
BRANCH   3   4
ATOM      4  O   UNL A   1      42.506  20.175  25.532  1.00  0.00    -0.463 OA
BRANCH   4   5
ATOM      5  C   UNL A   1      42.044  21.435  25.769  1.00  0.00     0.313 C 
ATOM      6  O   UNL A   1      42.299  22.418  25.082  1.00  0.00    -0.252 OA
BRANCH   5   7
ATOM      7  C   UNL A   1      41.189  21.515  27.032  1.00  0.00     0.126 C 
ATOM      8  C   UNL A   1      41.935  22.041  28.260  1.00  0.00     0.025 C 
BRANCH   7   9
ATOM      9  C   UNL A   1      39.890  22.224  26.709  1.00  0.00    -0.033 A 
ATOM     10  C   UNL A   1      35.443  23.452  24.608  1.00  0.00     0.119 A 
ATOM     11  C   UNL A   1      35.723  22.155  24.183  1.00  0.00     0.047 A 
ATOM     12  C   UNL A   1      36.346  24.131  25.428  1.00  0.00     0.055 A 
ATOM     13  C   UNL A   1      36.888  21.521  24.614  1.00  0.00     0.012 A 
ATOM     14  C   UNL A   1      37.519  23.505  25.871  1.00  0.00    -0.015 A 
ATOM     15  C   UNL A   1      37.787  22.182  25.461  1.00  0.00    -0.018 A 
ATOM     16  C   UNL A   1      38.437  24.166  26.701  1.00  0.00     0.009 A 
ATOM     17  C   UNL A   1      38.962  21.558  25.889  1.00  0.00     0.013 A 
ATOM     18  C   UNL A   1      39.615  23.534  27.110  1.00  0.00     0.005 A 
BRANCH  10  19
ATOM     19  O   UNL A   1      34.333  24.155  24.228  1.00  0.00    -0.497 OA
ATOM     20  C   UNL A   1      33.738  23.674  23.025  1.00  0.00     0.278 C 
ENDBRANCH  10  19
ENDBRANCH   7   9
ENDBRANCH   5   7
ENDBRANCH   4   5
ENDBRANCH   3   4
ENDBRANCH   2   3
ENDBRANCH   1   2
BRANCH   1  21
ATOM     21  C   UNL A   1      46.448  22.087  24.422  1.00  0.00     0.202 C 
BRANCH  21  22
ATOM     22  C   UNL A   1      45.293  23.054  24.139  1.00  0.00     0.261 C 
BRANCH  22  23
ATOM     23  O   UNL A   1      44.854  23.744  25.324  1.00  0.00    -0.460 OA
BRANCH  23  24
ATOM     24  C   UNL A   1      45.143  25.066  25.343  1.00  0.00     0.338 C 
ATOM     25  O   UNL A   1      45.978  25.652  24.667  1.00  0.00    -0.246 OA
BRANCH  24  26
ATOM     26  C   UNL A   1      44.184  25.794  26.191  1.00  0.00     0.060 A 
ATOM     27  C   UNL A   1      44.307  27.188  26.249  1.00  0.00     0.016 A 
ATOM     28  C   UNL A   1      43.263  25.127  27.002  1.00  0.00     0.016 A 
ATOM     29  C   UNL A   1      43.553  27.918  27.165  1.00  0.00     0.010 A 
ATOM     30  C   UNL A   1      42.513  25.861  27.928  1.00  0.00     0.010 A 
ATOM     31  C   UNL A   1      42.689  27.252  28.043  1.00  0.00    -0.014 A 
BRANCH  31  32
ATOM     32  C   UNL A   1      42.113  27.994  29.189  1.00  0.00     0.031 A 
ATOM     33  C   UNL A   1      42.842  27.981  30.504  1.00  0.00     0.074 A 
ATOM     34  C   UNL A   1      40.985  28.713  29.052  1.00  0.00     0.049 A 
ATOM     35  N   UNL A   1      42.532  28.565  31.634  1.00  0.00    -0.248 NA
ATOM     36  C   UNL A   1      44.093  27.207  30.549  1.00  0.00     0.031 C 
ATOM     37  C   UNL A   1      40.216  28.849  27.817  1.00  0.00     0.029 A 
ATOM     38  N   UNL A   1      40.298  29.470  29.966  1.00  0.00    -0.354 N 
ATOM     39  C   UNL A   1      43.542  28.224  32.524  1.00  0.00     0.074 A 
ATOM     40  C   UNL A   1      44.459  27.359  31.812  1.00  0.00     0.031 C 
ATOM     41  C   UNL A   1      39.161  29.649  28.050  1.00  0.00     0.029 A 
ATOM     42  C   UNL A   1      39.168  30.055  29.454  1.00  0.00     0.049 A 
ATOM     43  H   UNL A   1      40.589  29.582  30.901  1.00  0.00     0.167 HD
ATOM     44  C   UNL A   1      43.700  28.605  33.814  1.00  0.00     0.037 A 
ATOM     45  C   UNL A   1      38.240  30.823  30.057  1.00  0.00     0.037 A 
ATOM     46  C   UNL A   1      42.789  29.465  34.523  1.00  0.00     0.049 A 
ATOM     47  C   UNL A   1      38.387  31.161  31.515  1.00  0.00     0.074 A 
ATOM     48  C   UNL A   1      42.874  29.928  35.824  1.00  0.00     0.029 A 
ATOM     49  N   UNL A   1      41.619  29.983  33.989  1.00  0.00    -0.354 N 
ATOM     50  N   UNL A   1      39.356  30.852  32.342  1.00  0.00    -0.248 NA
ATOM     51  C   UNL A   1      37.307  31.952  32.124  1.00  0.00     0.031 C 
ATOM     52  C   UNL A   1      41.729  30.688  36.092  1.00  0.00     0.029 A 
ATOM     53  C   UNL A   1      40.955  30.735  34.944  1.00  0.00     0.049 A 
ATOM     54  H   UNL A   1      41.306  29.838  33.066  1.00  0.00     0.167 HD
ATOM     55  C   UNL A   1      39.020  31.434  33.559  1.00  0.00     0.074 A 
ATOM     56  C   UNL A   1      37.758  32.117  33.360  1.00  0.00     0.031 C 
ATOM     57  C   UNL A   1      39.699  31.409  34.731  1.00  0.00     0.037 A 
BRANCH  44  58
ATOM     58  C   UNL A   1      44.888  28.056  34.547  1.00  0.00     0.057 A 
ATOM     59  C   UNL A   1      44.832  26.846  35.250  1.00  0.00     0.134 A 
ATOM     60  C   UNL A   1      46.103  28.754  34.557  1.00  0.00     0.134 A 
ATOM     61  F   UNL A   1      43.695  26.137  35.295  1.00  0.00    -0.206 F 
ATOM     62  C   UNL A   1      45.933  26.364  35.962  1.00  0.00     0.040 A 
ATOM     63  C   UNL A   1      47.216  28.270  35.244  1.00  0.00     0.040 A 
ATOM     64  F   UNL A   1      46.225  29.918  33.901  1.00  0.00    -0.206 F 
ATOM     65  C   UNL A   1      47.131  27.077  35.958  1.00  0.00     0.006 A 
ENDBRANCH  44  58
BRANCH  45  66
ATOM     66  C   UNL A   1      37.088  31.335  29.274  1.00  0.00     0.057 A 
ATOM     67  C   UNL A   1      37.085  32.639  28.767  1.00  0.00     0.134 A 
ATOM     68  C   UNL A   1      35.969  30.535  29.013  1.00  0.00     0.134 A 
ATOM     69  F   UNL A   1      38.118  33.458  29.006  1.00  0.00    -0.206 F 
ATOM     70  C   UNL A   1      36.007  33.132  28.030  1.00  0.00     0.040 A 
ATOM     71  C   UNL A   1      34.894  31.008  28.260  1.00  0.00     0.040 A 
ATOM     72  F   UNL A   1      35.913  29.278  29.475  1.00  0.00    -0.206 F 
ATOM     73  C   UNL A   1      34.910  32.312  27.768  1.00  0.00     0.006 A 
ENDBRANCH  45  66
BRANCH  57  74
ATOM     74  C   UNL A   1      39.108  32.167  35.884  1.00  0.00     0.057 A 
ATOM     75  C   UNL A   1      39.383  33.525  36.095  1.00  0.00     0.134 A 
ATOM     76  C   UNL A   1      38.222  31.541  36.770  1.00  0.00     0.134 A 
ATOM     77  F   UNL A   1      40.234  34.179  35.290  1.00  0.00    -0.206 F 
ATOM     78  C   UNL A   1      38.811  34.227  37.157  1.00  0.00     0.040 A 
ATOM     79  C   UNL A   1      37.626  32.238  37.821  1.00  0.00     0.040 A 
ATOM     80  F   UNL A   1      37.911  30.245  36.619  1.00  0.00    -0.206 F 
ATOM     81  C   UNL A   1      37.924  33.586  38.020  1.00  0.00     0.006 A 
ENDBRANCH  57  74
ENDBRANCH  31  32
ENDBRANCH  24  26
ENDBRANCH  23  24
ENDBRANCH  22  23
ENDBRANCH  21  22
ENDBRANCH   1  21
TORSDOF 16
ENDMDL
MODEL 3
REMARK VINA RESULT:      -9.3      4.496     10.512
REMARK SMILES COc1ccc2cc([C@H](C)C(=O)OCCOCCOC(=O)c3ccc(-c4c5nc(c(-c6c(F)cccc6F)c6ccc([nH]6)c(-c6c(F)cccc6F)c6nc(c(-c7c(F)cccc7F)c7ccc4[nH]7)C=C6)C=C5)cc3)ccc2c1
REMARK SMILES IDX 16 1 15 2 14 3 13 4 11 5 12 6 9 7 10 8 8 9 3 10 4 11 79 12
REMARK SMILES IDX 5 13 78 14 6 15 77 16 7 17 76 18 2 19 1 20 17 21 18 22 19 23
REMARK SMILES IDX 20 24 21 25 22 26 23 27 75 28 24 29 74 30 25 31 26 32 27 33
REMARK SMILES IDX 68 34 28 35 73 36 67 37 69 38 29 39 72 40 66 41 65 42 30 44
REMARK SMILES IDX 56 45 39 46 55 47 40 48 43 49 54 50 70 51 41 52 42 53 53 55
REMARK SMILES IDX 71 56 44 57 31 58 32 59 37 60 33 61 34 62 36 63 38 64 35 65
REMARK SMILES IDX 57 66 58 67 63 68 59 69 60 70 62 71 64 72 61 73 45 74 46 75
REMARK SMILES IDX 51 76 47 77 48 78 50 79 52 80 49 81
REMARK H PARENT 69 43 43 54
REMARK Flexibility Score: inf
ROOT
ATOM      1  O   UNL A   1      41.990  20.973  27.114  1.00  0.00    -0.374 OA
ENDROOT
BRANCH   1   2
ATOM      2  C   UNL A   1      40.609  21.324  27.074  1.00  0.00     0.202 C 
BRANCH   2   3
ATOM      3  C   UNL A   1      39.886  21.173  25.733  1.00  0.00     0.261 C 
BRANCH   3   4
ATOM      4  O   UNL A   1      38.475  20.949  25.887  1.00  0.00    -0.463 OA
BRANCH   4   5
ATOM      5  C   UNL A   1      37.671  21.874  25.293  1.00  0.00     0.313 C 
ATOM      6  O   UNL A   1      37.316  21.847  24.120  1.00  0.00    -0.252 OA
BRANCH   5   7
ATOM      7  C   UNL A   1      37.278  23.002  26.244  1.00  0.00     0.126 C 
ATOM      8  C   UNL A   1      38.174  24.241  26.150  1.00  0.00     0.025 C 
BRANCH   7   9
ATOM      9  C   UNL A   1      35.792  23.266  26.117  1.00  0.00    -0.033 A 
ATOM     10  C   UNL A   1      31.325  25.594  25.551  1.00  0.00     0.119 A 
ATOM     11  C   UNL A   1      32.292  26.529  25.189  1.00  0.00     0.047 A 
ATOM     12  C   UNL A   1      31.705  24.324  25.986  1.00  0.00     0.055 A 
ATOM     13  C   UNL A   1      33.642  26.177  25.222  1.00  0.00     0.012 A 
ATOM     14  C   UNL A   1      33.057  23.955  26.022  1.00  0.00    -0.015 A 
ATOM     15  C   UNL A   1      34.034  24.894  25.629  1.00  0.00    -0.018 A 
ATOM     16  C   UNL A   1      33.462  22.682  26.449  1.00  0.00     0.009 A 
ATOM     17  C   UNL A   1      35.385  24.538  25.675  1.00  0.00     0.013 A 
ATOM     18  C   UNL A   1      34.816  22.343  26.503  1.00  0.00     0.005 A 
BRANCH  10  19
ATOM     19  O   UNL A   1      29.981  25.854  25.560  1.00  0.00    -0.497 OA
ATOM     20  C   UNL A   1      29.473  26.270  24.295  1.00  0.00     0.278 C 
ENDBRANCH  10  19
ENDBRANCH   7   9
ENDBRANCH   5   7
ENDBRANCH   4   5
ENDBRANCH   3   4
ENDBRANCH   2   3
ENDBRANCH   1   2
BRANCH   1  21
ATOM     21  C   UNL A   1      42.670  20.785  25.874  1.00  0.00     0.202 C 
BRANCH  21  22
ATOM     22  C   UNL A   1      43.699  21.848  25.475  1.00  0.00     0.261 C 
BRANCH  22  23
ATOM     23  O   UNL A   1      43.086  23.015  24.895  1.00  0.00    -0.460 OA
BRANCH  23  24
ATOM     24  C   UNL A   1      43.772  24.165  25.091  1.00  0.00     0.338 C 
ATOM     25  O   UNL A   1      44.824  24.500  24.562  1.00  0.00    -0.246 OA
BRANCH  24  26
ATOM     26  C   UNL A   1      42.996  25.094  25.929  1.00  0.00     0.060 A 
ATOM     27  C   UNL A   1      43.509  26.387  26.101  1.00  0.00     0.016 A 
ATOM     28  C   UNL A   1      41.857  24.684  26.625  1.00  0.00     0.016 A 
ATOM     29  C   UNL A   1      42.924  27.254  27.019  1.00  0.00     0.010 A 
ATOM     30  C   UNL A   1      41.275  25.553  27.554  1.00  0.00     0.010 A 
ATOM     31  C   UNL A   1      41.835  26.823  27.786  1.00  0.00    -0.014 A 
BRANCH  31  32
ATOM     32  C   UNL A   1      41.403  27.638  28.947  1.00  0.00     0.031 A 
ATOM     33  C   UNL A   1      42.170  27.532  30.236  1.00  0.00     0.074 A 
ATOM     34  C   UNL A   1      40.377  28.501  28.844  1.00  0.00     0.049 A 
ATOM     35  N   UNL A   1      41.980  28.154  31.371  1.00  0.00    -0.248 NA
ATOM     36  C   UNL A   1      43.307  26.597  30.243  1.00  0.00     0.031 C 
ATOM     37  C   UNL A   1      39.590  28.735  27.636  1.00  0.00     0.029 A 
ATOM     38  N   UNL A   1      39.828  29.344  29.776  1.00  0.00    -0.354 N 
ATOM     39  C   UNL A   1      42.966  27.684  32.229  1.00  0.00     0.074 A 
ATOM     40  C   UNL A   1      43.735  26.703  31.492  1.00  0.00     0.031 C 
ATOM     41  C   UNL A   1      38.659  29.669  27.899  1.00  0.00     0.029 A 
ATOM     42  C   UNL A   1      38.769  30.073  29.299  1.00  0.00     0.049 A 
ATOM     43  H   UNL A   1      40.164  29.419  30.699  1.00  0.00     0.167 HD
ATOM     44  C   UNL A   1      43.219  28.043  33.510  1.00  0.00     0.037 A 
ATOM     45  C   UNL A   1      37.973  30.960  29.928  1.00  0.00     0.037 A 
ATOM     46  C   UNL A   1      42.456  29.018  34.244  1.00  0.00     0.049 A 
ATOM     47  C   UNL A   1      38.215  31.278  31.378  1.00  0.00     0.074 A 
ATOM     48  C   UNL A   1      42.647  29.469  35.538  1.00  0.00     0.029 A 
ATOM     49  N   UNL A   1      41.347  29.686  33.747  1.00  0.00    -0.354 N 
ATOM     50  N   UNL A   1      39.163  30.845  32.173  1.00  0.00    -0.248 NA
ATOM     51  C   UNL A   1      37.272  32.207  32.018  1.00  0.00     0.031 C 
ATOM     52  C   UNL A   1      41.624  30.375  35.840  1.00  0.00     0.029 A 
ATOM     53  C   UNL A   1      40.823  30.522  34.719  1.00  0.00     0.049 A 
ATOM     54  H   UNL A   1      40.986  29.582  32.837  1.00  0.00     0.167 HD
ATOM     55  C   UNL A   1      38.951  31.469  33.397  1.00  0.00     0.074 A 
ATOM     56  C   UNL A   1      37.784  32.314  33.237  1.00  0.00     0.031 C 
ATOM     57  C   UNL A   1      39.661  31.357  34.545  1.00  0.00     0.037 A 
BRANCH  44  58
ATOM     58  C   UNL A   1      44.349  27.343  34.205  1.00  0.00     0.057 A 
ATOM     59  C   UNL A   1      44.163  26.136  34.891  1.00  0.00     0.134 A 
ATOM     60  C   UNL A   1      45.638  27.889  34.195  1.00  0.00     0.134 A 
ATOM     61  F   UNL A   1      42.950  25.568  34.954  1.00  0.00    -0.206 F 
ATOM     62  C   UNL A   1      45.213  25.513  35.569  1.00  0.00     0.040 A 
ATOM     63  C   UNL A   1      46.701  27.263  34.847  1.00  0.00     0.040 A 
ATOM     64  F   UNL A   1      45.885  29.041  33.554  1.00  0.00    -0.206 F 
ATOM     65  C   UNL A   1      46.488  26.077  35.546  1.00  0.00     0.006 A 
ENDBRANCH  44  58
BRANCH  45  66
ATOM     66  C   UNL A   1      36.873  31.619  29.182  1.00  0.00     0.057 A 
ATOM     67  C   UNL A   1      35.682  30.939  28.906  1.00  0.00     0.134 A 
ATOM     68  C   UNL A   1      36.985  32.941  28.734  1.00  0.00     0.134 A 
ATOM     69  F   UNL A   1      35.528  29.664  29.290  1.00  0.00    -0.206 F 
ATOM     70  C   UNL A   1      34.640  31.549  28.206  1.00  0.00     0.040 A 
ATOM     71  C   UNL A   1      35.942  33.569  28.051  1.00  0.00     0.040 A 
ATOM     72  F   UNL A   1      38.102  33.643  28.967  1.00  0.00    -0.206 F 
ATOM     73  C   UNL A   1      34.766  32.871  27.783  1.00  0.00     0.006 A 
ENDBRANCH  45  66
BRANCH  57  74
ATOM     74  C   UNL A   1      39.217  32.190  35.713  1.00  0.00     0.057 A 
ATOM     75  C   UNL A   1      39.682  33.497  35.908  1.00  0.00     0.134 A 
ATOM     76  C   UNL A   1      38.282  31.692  36.629  1.00  0.00     0.134 A 
ATOM     77  F   UNL A   1      40.588  34.027  35.073  1.00  0.00    -0.206 F 
ATOM     78  C   UNL A   1      39.246  34.272  36.984  1.00  0.00     0.040 A 
ATOM     79  C   UNL A   1      37.821  32.464  37.695  1.00  0.00     0.040 A 
ATOM     80  F   UNL A   1      37.792  30.450  36.495  1.00  0.00    -0.206 F 
ATOM     81  C   UNL A   1      38.308  33.758  37.878  1.00  0.00     0.006 A 
ENDBRANCH  57  74
ENDBRANCH  31  32
ENDBRANCH  24  26
ENDBRANCH  23  24
ENDBRANCH  22  23
ENDBRANCH  21  22
ENDBRANCH   1  21
TORSDOF 16
ENDMDL
