MODEL 1
REMARK VINA RESULT:     -13.0      0.000      0.000
REMARK SMILES Cc1ccc(S(=O)(=O)n2cc(C(=O)C(=O)N[C@@H](Cc3c[nH]c4ccccc34)C(=O)NCC(=O)OCCOCCOC(=O)c3ccc(-c4c5nc(c(-c6c(F)cccc6F)c6ccc([nH]6)c(-c6c(F)cccc6F)c6nc(c(-c7c(F)cccc7F)c7ccc4[nH]7)C=C6)C=C5)cc3)c3ccccc32)cc1
REMARK SMILES IDX 35 1 34 2 32 3 33 4 31 5 30 6 28 7 29 8 17 10 16 11 14 12
REMARK SMILES IDX 15 13 12 15 13 16 11 17 9 18 10 19 102 20 97 21 101 22 98 23
REMARK SMILES IDX 100 24 99 25 6 26 7 27 8 28 5 29 1 30 2 31 3 32 104 33 4 34
REMARK SMILES IDX 103 35 18 36 19 37 20 38 27 39 21 40 22 41 26 42 23 44 25 45
REMARK SMILES IDX 24 46 36 47 37 48 38 49 39 50 40 51 41 52 42 53 43 54 44 55
REMARK SMILES IDX 96 56 45 57 95 58 46 59 47 60 48 61 89 62 49 63 94 64 88 65
REMARK SMILES IDX 90 66 50 67 93 68 87 69 86 70 51 72 77 73 60 74 76 75 61 76
REMARK SMILES IDX 64 77 75 78 91 79 62 80 63 81 74 83 92 84 65 85 52 86 53 87
REMARK SMILES IDX 58 88 54 89 55 90 57 91 59 92 56 93 78 94 79 95 84 96 80 97
REMARK SMILES IDX 81 98 83 99 85 100 82 101 66 102 67 103 72 104 68 105 69 106
REMARK SMILES IDX 71 107 73 108 70 109
REMARK H PARENT 30 9 16 14 21 43 90 71 64 82
REMARK Flexibility Score: inf
ROOT
ATOM      1  C   UNL A   1      42.039  19.324  26.604  1.00  0.00     0.261 C 
ENDROOT
BRANCH   1   2
ATOM      2  O   UNL A   1      40.724  19.480  26.052  1.00  0.00    -0.462 OA
BRANCH   2   3
ATOM      3  C   UNL A   1      40.058  20.573  26.509  1.00  0.00     0.325 C 
ATOM      4  O   UNL A   1      40.362  21.199  27.521  1.00  0.00    -0.250 OA
BRANCH   3   5
ATOM      5  C   UNL A   1      38.949  20.960  25.562  1.00  0.00     0.238 C 
BRANCH   5   6
ATOM      6  N   UNL A   1      38.475  22.333  25.633  1.00  0.00    -0.343 N 
ATOM      7  C   UNL A   1      37.265  22.909  25.431  1.00  0.00     0.243 C 
ATOM      8  O   UNL A   1      37.219  24.104  25.755  1.00  0.00    -0.273 OA
ATOM      9  H   UNL A   1      39.178  22.976  25.880  1.00  0.00     0.164 HD
BRANCH   7  10
ATOM     10  C   UNL A   1      35.993  22.216  24.844  1.00  0.00     0.176 C 
BRANCH  10  11
ATOM     11  N   UNL A   1      35.456  22.755  23.568  1.00  0.00    -0.337 N 
ATOM     12  C   UNL A   1      34.243  23.412  23.293  1.00  0.00     0.293 C 
ATOM     13  O   UNL A   1      33.827  23.425  22.138  1.00  0.00    -0.265 OA
ATOM     14  H   UNL A   1      36.045  22.635  22.788  1.00  0.00     0.164 HD
BRANCH  12  15
ATOM     15  C   UNL A   1      33.417  24.131  24.389  1.00  0.00     0.252 C 
ATOM     16  O   UNL A   1      33.441  23.601  25.500  1.00  0.00    -0.283 OA
BRANCH  15  17
ATOM     17  C   UNL A   1      32.541  25.323  24.152  1.00  0.00     0.054 A 
ATOM     18  N   UNL A   1      30.928  26.943  24.099  1.00  0.00    -0.240 N 
ATOM     19  C   UNL A   1      31.154  25.568  24.268  1.00  0.00     0.117 A 
ATOM     20  C   UNL A   1      32.204  27.545  24.016  1.00  0.00     0.065 A 
ATOM     21  C   UNL A   1      33.054  26.534  23.586  1.00  0.00     0.012 A 
ATOM     22  C   UNL A   1      32.574  28.905  23.932  1.00  0.00     0.028 A 
ATOM     23  C   UNL A   1      34.186  26.897  22.822  1.00  0.00     0.011 A 
ATOM     24  C   UNL A   1      33.637  29.235  23.097  1.00  0.00     0.002 A 
ATOM     25  C   UNL A   1      34.404  28.243  22.506  1.00  0.00     0.001 A 
BRANCH  18  26
ATOM     26  S   UNL A   1      29.814  27.810  23.060  1.00  0.00     0.268 S 
ATOM     27  O   UNL A   1      28.524  27.327  23.534  1.00  0.00    -0.201 OA
ATOM     28  O   UNL A   1      30.343  27.400  21.762  1.00  0.00    -0.201 OA
BRANCH  26  29
ATOM     29  C   UNL A   1      29.481  29.487  22.650  1.00  0.00     0.088 A 
ATOM     30  C   UNL A   1      28.293  33.652  22.944  1.00  0.00     0.044 C 
ATOM     31  C   UNL A   1      28.764  32.233  22.784  1.00  0.00    -0.051 A 
ATOM     32  C   UNL A   1      29.184  31.587  23.932  1.00  0.00     0.005 A 
ATOM     33  C   UNL A   1      28.752  31.512  21.565  1.00  0.00     0.005 A 
ATOM     34  C   UNL A   1      29.551  30.258  23.851  1.00  0.00     0.022 A 
ATOM     35  C   UNL A   1      29.105  30.129  21.486  1.00  0.00     0.022 A 
ENDBRANCH  26  29
ENDBRANCH  18  26
ENDBRANCH  15  17
ENDBRANCH  12  15
ENDBRANCH  10  11
BRANCH  10  36
ATOM     36  C   UNL A   1      35.930  20.653  24.951  1.00  0.00     0.072 C 
BRANCH  36  37
ATOM     37  C   UNL A   1      34.615  19.946  25.178  1.00  0.00    -0.020 A 
ATOM     38  C   UNL A   1      33.524  20.451  25.875  1.00  0.00     0.087 A 
ATOM     39  C   UNL A   1      34.212  18.644  24.727  1.00  0.00     0.003 A 
ATOM     40  N   UNL A   1      32.592  19.453  26.020  1.00  0.00    -0.361 N 
ATOM     41  C   UNL A   1      33.035  18.308  25.406  1.00  0.00     0.046 A 
ATOM     42  C   UNL A   1      34.776  17.687  23.874  1.00  0.00     0.010 A 
ATOM     43  H   UNL A   1      31.735  19.545  26.494  1.00  0.00     0.166 HD
ATOM     44  C   UNL A   1      32.506  17.012  25.430  1.00  0.00     0.026 A 
ATOM     45  C   UNL A   1      34.181  16.427  23.801  1.00  0.00     0.001 A 
ATOM     46  C   UNL A   1      33.124  16.062  24.627  1.00  0.00     0.002 A 
ENDBRANCH  36  37
ENDBRANCH  10  36
ENDBRANCH   7  10
ENDBRANCH   5   6
ENDBRANCH   3   5
ENDBRANCH   2   3
ENDBRANCH   1   2
BRANCH   1  47
ATOM     47  C   UNL A   1      42.646  17.957  26.368  1.00  0.00     0.202 C 
BRANCH  47  48
ATOM     48  O   UNL A   1      43.359  18.034  25.138  1.00  0.00    -0.374 OA
BRANCH  48  49
ATOM     49  C   UNL A   1      44.649  18.619  25.179  1.00  0.00     0.202 C 
BRANCH  49  50
ATOM     50  C   UNL A   1      44.779  19.870  24.305  1.00  0.00     0.261 C 
BRANCH  50  51
ATOM     51  O   UNL A   1      44.552  21.046  25.107  1.00  0.00    -0.460 OA
BRANCH  51  52
ATOM     52  C   UNL A   1      44.673  22.235  24.453  1.00  0.00     0.338 C 
ATOM     53  O   UNL A   1      44.617  22.386  23.246  1.00  0.00    -0.246 OA
BRANCH  52  54
ATOM     54  C   UNL A   1      45.190  23.270  25.392  1.00  0.00     0.060 A 
ATOM     55  C   UNL A   1      44.938  23.145  26.770  1.00  0.00     0.016 A 
ATOM     56  C   UNL A   1      45.605  24.492  24.868  1.00  0.00     0.016 A 
ATOM     57  C   UNL A   1      44.936  24.282  27.586  1.00  0.00     0.010 A 
ATOM     58  C   UNL A   1      45.473  25.619  25.647  1.00  0.00     0.010 A 
ATOM     59  C   UNL A   1      45.095  25.529  26.995  1.00  0.00    -0.014 A 
BRANCH  59  60
ATOM     60  C   UNL A   1      44.889  26.828  27.636  1.00  0.00     0.031 A 
ATOM     61  C   UNL A   1      43.500  27.342  27.585  1.00  0.00     0.074 A 
ATOM     62  C   UNL A   1      45.805  27.375  28.472  1.00  0.00     0.049 A 
ATOM     63  N   UNL A   1      43.026  28.223  28.382  1.00  0.00    -0.248 NA
ATOM     64  C   UNL A   1      42.490  26.836  26.652  1.00  0.00     0.031 C 
ATOM     65  C   UNL A   1      45.593  28.424  29.463  1.00  0.00     0.029 A 
ATOM     66  N   UNL A   1      47.182  27.126  28.604  1.00  0.00    -0.354 N 
ATOM     67  C   UNL A   1      41.684  28.362  28.158  1.00  0.00     0.074 A 
ATOM     68  C   UNL A   1      41.381  27.437  27.101  1.00  0.00     0.031 C 
ATOM     69  C   UNL A   1      46.766  28.904  29.904  1.00  0.00     0.029 A 
ATOM     70  C   UNL A   1      47.769  28.332  29.032  1.00  0.00     0.049 A 
ATOM     71  H   UNL A   1      47.645  26.274  28.432  1.00  0.00     0.167 HD
ATOM     72  C   UNL A   1      41.025  29.260  28.936  1.00  0.00     0.037 A 
ATOM     73  C   UNL A   1      48.555  29.059  28.193  1.00  0.00     0.037 A 
ATOM     74  C   UNL A   1      41.999  30.248  29.448  1.00  0.00     0.049 A 
ATOM     75  C   UNL A   1      47.836  30.371  27.953  1.00  0.00     0.074 A 
ATOM     76  C   UNL A   1      42.481  30.612  30.690  1.00  0.00     0.029 A 
ATOM     77  N   UNL A   1      42.858  30.863  28.515  1.00  0.00    -0.354 N 
ATOM     78  N   UNL A   1      46.538  30.491  27.751  1.00  0.00    -0.248 NA
ATOM     79  C   UNL A   1      48.483  31.632  28.312  1.00  0.00     0.031 C 
ATOM     80  C   UNL A   1      43.707  31.329  30.492  1.00  0.00     0.029 A 
ATOM     81  C   UNL A   1      43.953  31.445  29.127  1.00  0.00     0.049 A 
ATOM     82  H   UNL A   1      42.698  30.877  27.545  1.00  0.00     0.167 HD
ATOM     83  C   UNL A   1      46.168  31.772  28.100  1.00  0.00     0.074 A 
ATOM     84  C   UNL A   1      47.424  32.450  28.406  1.00  0.00     0.031 C 
ATOM     85  C   UNL A   1      44.911  32.247  28.369  1.00  0.00     0.037 A 
BRANCH  72  86
ATOM     86  C   UNL A   1      39.549  29.189  29.285  1.00  0.00     0.057 A 
ATOM     87  C   UNL A   1      38.565  29.394  28.298  1.00  0.00     0.134 A 
ATOM     88  C   UNL A   1      39.018  29.055  30.588  1.00  0.00     0.134 A 
ATOM     89  F   UNL A   1      38.893  29.586  27.014  1.00  0.00    -0.206 F 
ATOM     90  C   UNL A   1      37.188  29.450  28.580  1.00  0.00     0.040 A 
ATOM     91  C   UNL A   1      37.644  29.071  30.879  1.00  0.00     0.040 A 
ATOM     92  F   UNL A   1      39.789  28.952  31.674  1.00  0.00    -0.206 F 
ATOM     93  C   UNL A   1      36.719  29.278  29.873  1.00  0.00     0.006 A 
ENDBRANCH  72  86
BRANCH  73  94
ATOM     94  C   UNL A   1      49.379  28.171  27.316  1.00  0.00     0.057 A 
ATOM     95  C   UNL A   1      50.470  27.516  27.933  1.00  0.00     0.134 A 
ATOM     96  C   UNL A   1      48.865  27.549  26.177  1.00  0.00     0.134 A 
ATOM     97  F   UNL A   1      51.094  28.085  28.973  1.00  0.00    -0.206 F 
ATOM     98  C   UNL A   1      50.878  26.223  27.582  1.00  0.00     0.040 A 
ATOM     99  C   UNL A   1      49.296  26.265  25.788  1.00  0.00     0.040 A 
ATOM    100  F   UNL A   1      47.841  28.094  25.506  1.00  0.00    -0.206 F 
ATOM    101  C   UNL A   1      50.251  25.571  26.532  1.00  0.00     0.006 A 
ENDBRANCH  73  94
BRANCH  85 102
ATOM    102  C   UNL A   1      44.518  33.660  27.987  1.00  0.00     0.057 A 
ATOM    103  C   UNL A   1      44.733  34.774  28.818  1.00  0.00     0.134 A 
ATOM    104  C   UNL A   1      44.090  33.972  26.677  1.00  0.00     0.134 A 
ATOM    105  F   UNL A   1      45.238  34.654  30.053  1.00  0.00    -0.206 F 
ATOM    106  C   UNL A   1      44.488  36.084  28.400  1.00  0.00     0.040 A 
ATOM    107  C   UNL A   1      43.894  35.280  26.233  1.00  0.00     0.040 A 
ATOM    108  F   UNL A   1      43.890  33.032  25.742  1.00  0.00    -0.206 F 
ATOM    109  C   UNL A   1      44.080  36.342  27.100  1.00  0.00     0.006 A 
ENDBRANCH  85 102
ENDBRANCH  59  60
ENDBRANCH  52  54
ENDBRANCH  51  52
ENDBRANCH  50  51
ENDBRANCH  49  50
ENDBRANCH  48  49
ENDBRANCH  47  48
ENDBRANCH   1  47
TORSDOF 23
ENDMDL
MODEL 2
REMARK VINA RESULT:     -12.7      4.661     11.088
REMARK SMILES Cc1ccc(S(=O)(=O)n2cc(C(=O)C(=O)N[C@@H](Cc3c[nH]c4ccccc34)C(=O)NCC(=O)OCCOCCOC(=O)c3ccc(-c4c5nc(c(-c6c(F)cccc6F)c6ccc([nH]6)c(-c6c(F)cccc6F)c6nc(c(-c7c(F)cccc7F)c7ccc4[nH]7)C=C6)C=C5)cc3)c3ccccc32)cc1
REMARK SMILES IDX 35 1 34 2 32 3 33 4 31 5 30 6 28 7 29 8 17 10 16 11 14 12
REMARK SMILES IDX 15 13 12 15 13 16 11 17 9 18 10 19 102 20 97 21 101 22 98 23
REMARK SMILES IDX 100 24 99 25 6 26 7 27 8 28 5 29 1 30 2 31 3 32 104 33 4 34
REMARK SMILES IDX 103 35 18 36 19 37 20 38 27 39 21 40 22 41 26 42 23 44 25 45
REMARK SMILES IDX 24 46 36 47 37 48 38 49 39 50 40 51 41 52 42 53 43 54 44 55
REMARK SMILES IDX 96 56 45 57 95 58 46 59 47 60 48 61 89 62 49 63 94 64 88 65
REMARK SMILES IDX 90 66 50 67 93 68 87 69 86 70 51 72 77 73 60 74 76 75 61 76
REMARK SMILES IDX 64 77 75 78 91 79 62 80 63 81 74 83 92 84 65 85 52 86 53 87
REMARK SMILES IDX 58 88 54 89 55 90 57 91 59 92 56 93 78 94 79 95 84 96 80 97
REMARK SMILES IDX 81 98 83 99 85 100 82 101 66 102 67 103 72 104 68 105 69 106
REMARK SMILES IDX 71 107 73 108 70 109
REMARK H PARENT 30 9 16 14 21 43 90 71 64 82
REMARK Flexibility Score: inf
ROOT
ATOM      1  C   UNL A   1      33.492  30.187  26.383  1.00  0.00     0.261 C 
ENDROOT
BRANCH   1   2
ATOM      2  O   UNL A   1      33.872  28.811  26.526  1.00  0.00    -0.462 OA
BRANCH   2   3
ATOM      3  C   UNL A   1      33.929  28.128  25.352  1.00  0.00     0.325 C 
ATOM      4  O   UNL A   1      34.167  26.927  25.258  1.00  0.00    -0.250 OA
BRANCH   3   5
ATOM      5  C   UNL A   1      33.579  29.028  24.191  1.00  0.00     0.238 C 
BRANCH   5   6
ATOM      6  N   UNL A   1      32.857  28.420  23.086  1.00  0.00    -0.343 N 
ATOM      7  C   UNL A   1      31.567  28.039  22.918  1.00  0.00     0.243 C 
ATOM      8  O   UNL A   1      31.291  27.707  21.756  1.00  0.00    -0.273 OA
ATOM      9  H   UNL A   1      33.421  28.250  22.297  1.00  0.00     0.164 HD
BRANCH   7  10
ATOM     10  C   UNL A   1      30.463  27.985  24.022  1.00  0.00     0.176 C 
BRANCH  10  11
ATOM     11  N   UNL A   1      30.917  28.044  25.436  1.00  0.00    -0.337 N 
ATOM     12  C   UNL A   1      30.801  27.100  26.472  1.00  0.00     0.293 C 
ATOM     13  O   UNL A   1      30.886  27.485  27.635  1.00  0.00    -0.265 OA
ATOM     14  H   UNL A   1      31.374  28.879  25.689  1.00  0.00     0.164 HD
BRANCH  12  15
ATOM     15  C   UNL A   1      30.583  25.590  26.204  1.00  0.00     0.252 C 
ATOM     16  O   UNL A   1      29.520  25.129  26.621  1.00  0.00    -0.283 OA
BRANCH  15  17
ATOM     17  C   UNL A   1      31.599  24.677  25.587  1.00  0.00     0.054 A 
ATOM     18  N   UNL A   1      33.163  23.601  24.314  1.00  0.00    -0.240 N 
ATOM     19  C   UNL A   1      32.036  24.437  24.265  1.00  0.00     0.117 A 
ATOM     20  C   UNL A   1      33.483  23.450  25.682  1.00  0.00     0.065 A 
ATOM     21  C   UNL A   1      32.297  23.695  26.361  1.00  0.00     0.012 A 
ATOM     22  C   UNL A   1      34.566  22.791  26.303  1.00  0.00     0.028 A 
ATOM     23  C   UNL A   1      32.092  23.045  27.598  1.00  0.00     0.011 A 
ATOM     24  C   UNL A   1      34.306  22.083  27.473  1.00  0.00     0.002 A 
ATOM     25  C   UNL A   1      33.066  22.167  28.088  1.00  0.00     0.001 A 
BRANCH  18  26
ATOM     26  S   UNL A   1      33.531  22.111  23.468  1.00  0.00     0.268 S 
ATOM     27  O   UNL A   1      34.976  22.199  23.318  1.00  0.00    -0.201 OA
ATOM     28  O   UNL A   1      32.642  22.272  22.320  1.00  0.00    -0.201 OA
BRANCH  26  29
ATOM     29  C   UNL A   1      33.264  20.391  23.720  1.00  0.00     0.088 A 
ATOM     30  C   UNL A   1      33.957  16.175  24.488  1.00  0.00     0.044 C 
ATOM     31  C   UNL A   1      33.641  17.628  24.263  1.00  0.00    -0.051 A 
ATOM     32  C   UNL A   1      34.554  18.543  24.752  1.00  0.00     0.005 A 
ATOM     33  C   UNL A   1      32.517  18.106  23.546  1.00  0.00     0.005 A 
ATOM     34  C   UNL A   1      34.350  19.886  24.500  1.00  0.00     0.022 A 
ATOM     35  C   UNL A   1      32.320  19.493  23.261  1.00  0.00     0.022 A 
ENDBRANCH  26  29
ENDBRANCH  18  26
ENDBRANCH  15  17
ENDBRANCH  12  15
ENDBRANCH  10  11
BRANCH  10  36
ATOM     36  C   UNL A   1      29.147  28.790  23.743  1.00  0.00     0.072 C 
BRANCH  36  37
ATOM     37  C   UNL A   1      29.193  30.270  23.449  1.00  0.00    -0.020 A 
ATOM     38  C   UNL A   1      29.675  31.259  24.297  1.00  0.00     0.087 A 
ATOM     39  C   UNL A   1      28.775  30.957  22.259  1.00  0.00     0.003 A 
ATOM     40  N   UNL A   1      29.386  32.487  23.755  1.00  0.00    -0.361 N 
ATOM     41  C   UNL A   1      28.749  32.326  22.550  1.00  0.00     0.046 A 
ATOM     42  C   UNL A   1      28.335  30.544  20.995  1.00  0.00     0.010 A 
ATOM     43  H   UNL A   1      29.603  33.353  24.169  1.00  0.00     0.166 HD
ATOM     44  C   UNL A   1      28.129  33.274  21.727  1.00  0.00     0.026 A 
ATOM     45  C   UNL A   1      27.828  31.505  20.119  1.00  0.00     0.001 A 
ATOM     46  C   UNL A   1      27.641  32.828  20.505  1.00  0.00     0.002 A 
ENDBRANCH  36  37
ENDBRANCH  10  36
ENDBRANCH   7  10
ENDBRANCH   5   6
ENDBRANCH   3   5
ENDBRANCH   2   3
ENDBRANCH   1   2
BRANCH   1  47
ATOM     47  C   UNL A   1      33.734  31.023  27.623  1.00  0.00     0.202 C 
BRANCH  47  48
ATOM     48  O   UNL A   1      35.001  31.649  27.453  1.00  0.00    -0.374 OA
BRANCH  48  49
ATOM     49  C   UNL A   1      35.167  32.931  28.034  1.00  0.00     0.202 C 
BRANCH  49  50
ATOM     50  C   UNL A   1      34.038  33.314  28.997  1.00  0.00     0.261 C 
BRANCH  50  51
ATOM     51  O   UNL A   1      34.483  34.377  29.864  1.00  0.00    -0.460 OA
BRANCH  51  52
ATOM     52  C   UNL A   1      34.424  34.108  31.198  1.00  0.00     0.338 C 
ATOM     53  O   UNL A   1      33.448  34.265  31.908  1.00  0.00    -0.246 OA
BRANCH  52  54
ATOM     54  C   UNL A   1      35.802  33.891  31.724  1.00  0.00     0.060 A 
ATOM     55  C   UNL A   1      36.909  34.301  30.958  1.00  0.00     0.016 A 
ATOM     56  C   UNL A   1      35.977  32.998  32.778  1.00  0.00     0.016 A 
ATOM     57  C   UNL A   1      38.152  33.684  31.142  1.00  0.00     0.010 A 
ATOM     58  C   UNL A   1      37.164  32.307  32.864  1.00  0.00     0.010 A 
ATOM     59  C   UNL A   1      38.242  32.611  32.019  1.00  0.00    -0.014 A 
BRANCH  59  60
ATOM     60  C   UNL A   1      39.379  31.701  32.167  1.00  0.00     0.031 A 
ATOM     61  C   UNL A   1      39.327  30.487  31.319  1.00  0.00     0.074 A 
ATOM     62  C   UNL A   1      40.526  32.073  32.785  1.00  0.00     0.049 A 
ATOM     63  N   UNL A   1      40.348  29.783  31.003  1.00  0.00    -0.248 NA
ATOM     64  C   UNL A   1      38.100  30.001  30.686  1.00  0.00     0.031 C 
ATOM     65  C   UNL A   1      41.842  31.453  32.669  1.00  0.00     0.029 A 
ATOM     66  N   UNL A   1      40.773  33.105  33.707  1.00  0.00    -0.354 N 
ATOM     67  C   UNL A   1      39.977  28.828  30.097  1.00  0.00     0.074 A 
ATOM     68  C   UNL A   1      38.569  29.033  29.889  1.00  0.00     0.031 C 
ATOM     69  C   UNL A   1      42.666  31.908  33.626  1.00  0.00     0.029 A 
ATOM     70  C   UNL A   1      41.828  32.664  34.529  1.00  0.00     0.049 A 
ATOM     71  H   UNL A   1      40.300  33.967  33.765  1.00  0.00     0.167 HD
ATOM     72  C   UNL A   1      40.954  27.997  29.651  1.00  0.00     0.037 A 
ATOM     73  C   UNL A   1      41.602  32.324  35.827  1.00  0.00     0.037 A 
ATOM     74  C   UNL A   1      42.047  27.973  30.647  1.00  0.00     0.049 A 
ATOM     75  C   UNL A   1      41.895  30.842  35.944  1.00  0.00     0.074 A 
ATOM     76  C   UNL A   1      43.375  28.351  30.669  1.00  0.00     0.029 A 
ATOM     77  N   UNL A   1      41.701  27.732  31.991  1.00  0.00    -0.354 N 
ATOM     78  N   UNL A   1      41.542  29.934  35.056  1.00  0.00    -0.248 NA
ATOM     79  C   UNL A   1      42.928  30.375  36.868  1.00  0.00     0.031 C 
ATOM     80  C   UNL A   1      43.775  28.466  32.041  1.00  0.00     0.029 A 
ATOM     81  C   UNL A   1      42.706  28.115  32.860  1.00  0.00     0.049 A 
ATOM     82  H   UNL A   1      40.846  27.338  32.278  1.00  0.00     0.167 HD
ATOM     83  C   UNL A   1      42.389  28.854  35.189  1.00  0.00     0.074 A 
ATOM     84  C   UNL A   1      43.208  29.168  36.356  1.00  0.00     0.031 C 
ATOM     85  C   UNL A   1      42.617  27.842  34.293  1.00  0.00     0.037 A 
BRANCH  72  86
ATOM     86  C   UNL A   1      40.949  27.294  28.305  1.00  0.00     0.057 A 
ATOM     87  C   UNL A   1      40.172  26.135  28.102  1.00  0.00     0.134 A 
ATOM     88  C   UNL A   1      41.777  27.614  27.206  1.00  0.00     0.134 A 
ATOM     89  F   UNL A   1      39.363  25.660  29.058  1.00  0.00    -0.206 F 
ATOM     90  C   UNL A   1      40.210  25.378  26.918  1.00  0.00     0.040 A 
ATOM     91  C   UNL A   1      41.797  26.889  26.003  1.00  0.00     0.040 A 
ATOM     92  F   UNL A   1      42.660  28.616  27.237  1.00  0.00    -0.206 F 
ATOM     93  C   UNL A   1      41.017  25.758  25.855  1.00  0.00     0.006 A 
ENDBRANCH  72  86
BRANCH  73  94
ATOM     94  C   UNL A   1      40.574  33.214  36.451  1.00  0.00     0.057 A 
ATOM     95  C   UNL A   1      39.295  32.648  36.655  1.00  0.00     0.134 A 
ATOM     96  C   UNL A   1      40.908  34.276  37.292  1.00  0.00     0.134 A 
ATOM     97  F   UNL A   1      38.845  31.689  35.834  1.00  0.00    -0.206 F 
ATOM     98  C   UNL A   1      38.492  32.961  37.759  1.00  0.00     0.040 A 
ATOM     99  C   UNL A   1      40.089  34.630  38.383  1.00  0.00     0.040 A 
ATOM    100  F   UNL A   1      42.090  34.895  37.173  1.00  0.00    -0.206 F 
ATOM    101  C   UNL A   1      38.917  33.926  38.660  1.00  0.00     0.006 A 
ENDBRANCH  73  94
BRANCH  85 102
ATOM    102  C   UNL A   1      42.898  26.432  34.773  1.00  0.00     0.057 A 
ATOM    103  C   UNL A   1      41.888  25.520  35.127  1.00  0.00     0.134 A 
ATOM    104  C   UNL A   1      44.197  25.879  34.700  1.00  0.00     0.134 A 
ATOM    105  F   UNL A   1      40.592  25.861  35.138  1.00  0.00    -0.206 F 
ATOM    106  C   UNL A   1      42.154  24.184  35.438  1.00  0.00     0.040 A 
ATOM    107  C   UNL A   1      44.465  24.535  34.958  1.00  0.00     0.040 A 
ATOM    108  F   UNL A   1      45.265  26.598  34.326  1.00  0.00    -0.206 F 
ATOM    109  C   UNL A   1      43.444  23.684  35.342  1.00  0.00     0.006 A 
ENDBRANCH  85 102
ENDBRANCH  59  60
ENDBRANCH  52  54
ENDBRANCH  51  52
ENDBRANCH  50  51
ENDBRANCH  49  50
ENDBRANCH  48  49
ENDBRANCH  47  48
ENDBRANCH   1  47
TORSDOF 23
ENDMDL
MODEL 3
REMARK VINA RESULT:     -12.7      1.771      2.325
REMARK SMILES Cc1ccc(S(=O)(=O)n2cc(C(=O)C(=O)N[C@@H](Cc3c[nH]c4ccccc34)C(=O)NCC(=O)OCCOCCOC(=O)c3ccc(-c4c5nc(c(-c6c(F)cccc6F)c6ccc([nH]6)c(-c6c(F)cccc6F)c6nc(c(-c7c(F)cccc7F)c7ccc4[nH]7)C=C6)C=C5)cc3)c3ccccc32)cc1
REMARK SMILES IDX 35 1 34 2 32 3 33 4 31 5 30 6 28 7 29 8 17 10 16 11 14 12
REMARK SMILES IDX 15 13 12 15 13 16 11 17 9 18 10 19 102 20 97 21 101 22 98 23
REMARK SMILES IDX 100 24 99 25 6 26 7 27 8 28 5 29 1 30 2 31 3 32 104 33 4 34
REMARK SMILES IDX 103 35 18 36 19 37 20 38 27 39 21 40 22 41 26 42 23 44 25 45
REMARK SMILES IDX 24 46 36 47 37 48 38 49 39 50 40 51 41 52 42 53 43 54 44 55
REMARK SMILES IDX 96 56 45 57 95 58 46 59 47 60 48 61 89 62 49 63 94 64 88 65
REMARK SMILES IDX 90 66 50 67 93 68 87 69 86 70 51 72 77 73 60 74 76 75 61 76
REMARK SMILES IDX 64 77 75 78 91 79 62 80 63 81 74 83 92 84 65 85 52 86 53 87
REMARK SMILES IDX 58 88 54 89 55 90 57 91 59 92 56 93 78 94 79 95 84 96 80 97
REMARK SMILES IDX 81 98 83 99 85 100 82 101 66 102 67 103 72 104 68 105 69 106
REMARK SMILES IDX 71 107 73 108 70 109
REMARK H PARENT 30 9 16 14 21 43 90 71 64 82
REMARK Flexibility Score: inf
ROOT
ATOM      1  C   UNL A   1      41.790  19.784  27.055  1.00  0.00     0.261 C 
ENDROOT
BRANCH   1   2
ATOM      2  O   UNL A   1      40.504  19.935  26.439  1.00  0.00    -0.462 OA
BRANCH   2   3
ATOM      3  C   UNL A   1      40.179  21.221  26.142  1.00  0.00     0.325 C 
ATOM      4  O   UNL A   1      40.972  22.158  26.152  1.00  0.00    -0.250 OA
BRANCH   3   5
ATOM      5  C   UNL A   1      38.733  21.324  25.720  1.00  0.00     0.238 C 
BRANCH   5   6
ATOM      6  N   UNL A   1      38.125  22.643  25.784  1.00  0.00    -0.343 N 
ATOM      7  C   UNL A   1      36.890  23.112  25.478  1.00  0.00     0.243 C 
ATOM      8  O   UNL A   1      36.699  24.284  25.830  1.00  0.00    -0.273 OA
ATOM      9  H   UNL A   1      38.736  23.339  26.118  1.00  0.00     0.164 HD
BRANCH   7  10
ATOM     10  C   UNL A   1      35.754  22.327  24.748  1.00  0.00     0.176 C 
BRANCH  10  11
ATOM     11  N   UNL A   1      35.370  22.796  23.391  1.00  0.00    -0.337 N 
ATOM     12  C   UNL A   1      34.135  23.254  22.899  1.00  0.00     0.293 C 
ATOM     13  O   UNL A   1      33.932  23.221  21.688  1.00  0.00    -0.265 OA
ATOM     14  H   UNL A   1      36.099  22.787  22.729  1.00  0.00     0.164 HD
BRANCH  12  15
ATOM     15  C   UNL A   1      33.022  23.809  23.823  1.00  0.00     0.252 C 
ATOM     16  O   UNL A   1      32.003  23.122  23.893  1.00  0.00    -0.283 OA
BRANCH  15  17
ATOM     17  C   UNL A   1      33.075  25.133  24.522  1.00  0.00     0.054 A 
ATOM     18  N   UNL A   1      33.260  26.902  25.958  1.00  0.00    -0.240 N 
ATOM     19  C   UNL A   1      32.890  25.552  25.859  1.00  0.00     0.117 A 
ATOM     20  C   UNL A   1      33.800  27.257  24.701  1.00  0.00     0.065 A 
ATOM     21  C   UNL A   1      33.241  26.359  23.800  1.00  0.00     0.012 A 
ATOM     22  C   UNL A   1      34.404  28.457  24.267  1.00  0.00     0.028 A 
ATOM     23  C   UNL A   1      33.052  26.785  22.467  1.00  0.00     0.011 A 
ATOM     24  C   UNL A   1      34.120  28.893  22.976  1.00  0.00     0.002 A 
ATOM     25  C   UNL A   1      33.407  28.089  22.100  1.00  0.00     0.001 A 
BRANCH  18  26
ATOM     26  S   UNL A   1      32.418  28.283  26.633  1.00  0.00     0.268 S 
ATOM     27  O   UNL A   1      31.736  27.690  27.775  1.00  0.00    -0.201 OA
ATOM     28  O   UNL A   1      31.676  28.704  25.447  1.00  0.00    -0.201 OA
BRANCH  26  29
ATOM     29  C   UNL A   1      32.841  29.887  27.216  1.00  0.00     0.088 A 
ATOM     30  C   UNL A   1      33.033  34.201  27.661  1.00  0.00     0.044 C 
ATOM     31  C   UNL A   1      32.978  32.700  27.592  1.00  0.00    -0.051 A 
ATOM     32  C   UNL A   1      31.840  32.147  27.035  1.00  0.00     0.005 A 
ATOM     33  C   UNL A   1      34.022  31.836  28.002  1.00  0.00     0.005 A 
ATOM     34  C   UNL A   1      31.775  30.776  26.877  1.00  0.00     0.022 A 
ATOM     35  C   UNL A   1      33.968  30.420  27.812  1.00  0.00     0.022 A 
ENDBRANCH  26  29
ENDBRANCH  18  26
ENDBRANCH  15  17
ENDBRANCH  12  15
ENDBRANCH  10  11
BRANCH  10  36
ATOM     36  C   UNL A   1      35.764  20.766  24.901  1.00  0.00     0.072 C 
BRANCH  36  37
ATOM     37  C   UNL A   1      34.476  19.998  25.071  1.00  0.00    -0.020 A 
ATOM     38  C   UNL A   1      33.313  20.470  25.668  1.00  0.00     0.087 A 
ATOM     39  C   UNL A   1      34.174  18.658  24.653  1.00  0.00     0.003 A 
ATOM     40  N   UNL A   1      32.427  19.428  25.794  1.00  0.00    -0.361 N 
ATOM     41  C   UNL A   1      32.972  18.285  25.264  1.00  0.00     0.046 A 
ATOM     42  C   UNL A   1      34.847  17.698  23.886  1.00  0.00     0.010 A 
ATOM     43  H   UNL A   1      31.535  19.492  26.204  1.00  0.00     0.166 HD
ATOM     44  C   UNL A   1      32.511  16.963  25.312  1.00  0.00     0.026 A 
ATOM     45  C   UNL A   1      34.325  16.405  23.829  1.00  0.00     0.001 A 
ATOM     46  C   UNL A   1      33.233  16.017  24.597  1.00  0.00     0.002 A 
ENDBRANCH  36  37
ENDBRANCH  10  36
ENDBRANCH   7  10
ENDBRANCH   5   6
ENDBRANCH   3   5
ENDBRANCH   2   3
ENDBRANCH   1   2
BRANCH   1  47
ATOM     47  C   UNL A   1      42.465  18.462  26.755  1.00  0.00     0.202 C 
BRANCH  47  48
ATOM     48  O   UNL A   1      43.036  18.581  25.456  1.00  0.00    -0.374 OA
BRANCH  48  49
ATOM     49  C   UNL A   1      43.540  19.854  25.090  1.00  0.00     0.202 C 
BRANCH  49  50
ATOM     50  C   UNL A   1      45.052  19.993  25.294  1.00  0.00     0.261 C 
BRANCH  50  51
ATOM     51  O   UNL A   1      45.377  21.370  25.573  1.00  0.00    -0.460 OA
BRANCH  51  52
ATOM     52  C   UNL A   1      44.917  22.276  24.666  1.00  0.00     0.338 C 
ATOM     53  O   UNL A   1      45.265  22.349  23.501  1.00  0.00    -0.246 OA
BRANCH  52  54
ATOM     54  C   UNL A   1      44.167  23.353  25.373  1.00  0.00     0.060 A 
ATOM     55  C   UNL A   1      43.584  24.395  24.630  1.00  0.00     0.016 A 
ATOM     56  C   UNL A   1      44.348  23.494  26.746  1.00  0.00     0.016 A 
ATOM     57  C   UNL A   1      43.342  25.634  25.234  1.00  0.00     0.010 A 
ATOM     58  C   UNL A   1      44.231  24.749  27.299  1.00  0.00     0.010 A 
ATOM     59  C   UNL A   1      43.773  25.835  26.540  1.00  0.00    -0.014 A 
BRANCH  59  60
ATOM     60  C   UNL A   1      43.824  27.113  27.251  1.00  0.00     0.031 A 
ATOM     61  C   UNL A   1      42.505  27.717  27.554  1.00  0.00     0.074 A 
ATOM     62  C   UNL A   1      44.952  27.559  27.855  1.00  0.00     0.049 A 
ATOM     63  N   UNL A   1      42.304  28.589  28.469  1.00  0.00    -0.248 NA
ATOM     64  C   UNL A   1      41.267  27.323  26.880  1.00  0.00     0.031 C 
ATOM     65  C   UNL A   1      45.063  28.572  28.900  1.00  0.00     0.029 A 
ATOM     66  N   UNL A   1      46.298  27.216  27.642  1.00  0.00    -0.354 N 
ATOM     67  C   UNL A   1      40.961  28.824  28.583  1.00  0.00     0.074 A 
ATOM     68  C   UNL A   1      40.346  27.972  27.602  1.00  0.00     0.031 C 
ATOM     69  C   UNL A   1      46.340  28.953  29.058  1.00  0.00     0.029 A 
ATOM     70  C   UNL A   1      47.058  28.360  27.951  1.00  0.00     0.049 A 
ATOM     71  H   UNL A   1      46.641  26.345  27.336  1.00  0.00     0.167 HD
ATOM     72  C   UNL A   1      40.577  29.725  29.524  1.00  0.00     0.037 A 
ATOM     73  C   UNL A   1      47.671  29.074  26.969  1.00  0.00     0.037 A 
ATOM     74  C   UNL A   1      41.716  30.623  29.814  1.00  0.00     0.049 A 
ATOM     75  C   UNL A   1      47.015  30.440  26.951  1.00  0.00     0.074 A 
ATOM     76  C   UNL A   1      42.508  30.895  30.912  1.00  0.00     0.029 A 
ATOM     77  N   UNL A   1      42.369  31.225  28.720  1.00  0.00    -0.354 N 
ATOM     78  N   UNL A   1      45.720  30.652  27.074  1.00  0.00    -0.248 NA
ATOM     79  C   UNL A   1      47.822  31.638  27.179  1.00  0.00     0.031 C 
ATOM     80  C   UNL A   1      43.699  31.540  30.444  1.00  0.00     0.029 A 
ATOM     81  C   UNL A   1      43.619  31.705  29.065  1.00  0.00     0.049 A 
ATOM     82  H   UNL A   1      41.982  31.295  27.818  1.00  0.00     0.167 HD
ATOM     83  C   UNL A   1      45.540  31.937  27.541  1.00  0.00     0.074 A 
ATOM     84  C   UNL A   1      46.880  32.517  27.553  1.00  0.00     0.031 C 
ATOM     85  C   UNL A   1      44.423  32.479  28.121  1.00  0.00     0.037 A 
BRANCH  72  86
ATOM     86  C   UNL A   1      39.227  29.732  30.219  1.00  0.00     0.057 A 
ATOM     87  C   UNL A   1      39.030  29.015  31.415  1.00  0.00     0.134 A 
ATOM     88  C   UNL A   1      38.042  30.309  29.708  1.00  0.00     0.134 A 
ATOM     89  F   UNL A   1      40.036  28.365  32.015  1.00  0.00    -0.206 F 
ATOM     90  C   UNL A   1      37.778  28.893  32.046  1.00  0.00     0.040 A 
ATOM     91  C   UNL A   1      36.794  30.228  30.347  1.00  0.00     0.040 A 
ATOM     92  F   UNL A   1      37.998  30.946  28.535  1.00  0.00    -0.206 F 
ATOM     93  C   UNL A   1      36.653  29.510  31.519  1.00  0.00     0.006 A 
ENDBRANCH  72  86
BRANCH  73  94
ATOM     94  C   UNL A   1      48.193  28.177  25.891  1.00  0.00     0.057 A 
ATOM     95  C   UNL A   1      49.369  27.451  26.192  1.00  0.00     0.134 A 
ATOM     96  C   UNL A   1      47.370  27.618  24.912  1.00  0.00     0.134 A 
ATOM     97  F   UNL A   1      50.269  27.955  27.047  1.00  0.00    -0.206 F 
ATOM     98  C   UNL A   1      49.602  26.153  25.722  1.00  0.00     0.040 A 
ATOM     99  C   UNL A   1      47.617  26.328  24.400  1.00  0.00     0.040 A 
ATOM    100  F   UNL A   1      46.239  28.232  24.539  1.00  0.00    -0.206 F 
ATOM    101  C   UNL A   1      48.691  25.566  24.857  1.00  0.00     0.006 A 
ENDBRANCH  73  94
BRANCH  85 102
ATOM    102  C   UNL A   1      44.056  33.931  27.890  1.00  0.00     0.057 A 
ATOM    103  C   UNL A   1      44.298  34.949  28.829  1.00  0.00     0.134 A 
ATOM    104  C   UNL A   1      43.627  34.383  26.622  1.00  0.00     0.134 A 
ATOM    105  F   UNL A   1      44.808  34.693  30.041  1.00  0.00    -0.206 F 
ATOM    106  C   UNL A   1      44.077  36.299  28.549  1.00  0.00     0.040 A 
ATOM    107  C   UNL A   1      43.454  35.734  26.316  1.00  0.00     0.040 A 
ATOM    108  F   UNL A   1      43.403  33.549  25.597  1.00  0.00    -0.206 F 
ATOM    109  C   UNL A   1      43.666  36.697  27.286  1.00  0.00     0.006 A 
ENDBRANCH  85 102
ENDBRANCH  59  60
ENDBRANCH  52  54
ENDBRANCH  51  52
ENDBRANCH  50  51
ENDBRANCH  49  50
ENDBRANCH  48  49
ENDBRANCH  47  48
ENDBRANCH   1  47
TORSDOF 23
ENDMDL
