MODEL 1
REMARK VINA RESULT:     -10.4      0.000      0.000
REMARK SMILES C[NH2+][C@@]1(C(=O)OCCOCCOC(=O)c2ccc(-c3c4nc(c(-c5c(F)cccc5F)c5ccc([nH]5)c(-c5c(F)cccc5F)c5nc(c(-c6c(F)cccc6F)c6ccc3[nH]6)C=C5)C=C4)cc2)CC[C@H](SC2CCOCC2)C1
REMARK SMILES IDX 9 1 8 2 7 3 6 4 4 5 5 6 3 7 69 8 79 9 70 10 71 11 2 12 1 13
REMARK SMILES IDX 72 16 73 17 74 18 78 19 75 20 77 21 76 22 10 23 11 24 12 25
REMARK SMILES IDX 13 26 14 27 15 28 16 29 68 30 17 31 67 32 18 33 19 34 20 35
REMARK SMILES IDX 61 36 21 37 66 38 60 39 62 40 22 41 65 42 59 43 58 44 23 46
REMARK SMILES IDX 49 47 32 48 48 49 33 50 36 51 47 52 63 53 34 54 35 55 46 57
REMARK SMILES IDX 64 58 37 59 24 60 25 61 30 62 26 63 27 64 29 65 31 66 28 67
REMARK SMILES IDX 50 68 51 69 56 70 52 71 53 72 55 73 57 74 54 75 38 76 39 77
REMARK SMILES IDX 44 78 40 79 41 80 43 81 45 82 42 83
REMARK H PARENT 2 14 2 15 62 45 36 56
REMARK Flexibility Score: inf
ROOT
ATOM      1  O   UNL A   1      31.785  30.674  27.249  1.00  0.00    -0.374 OA
ENDROOT
BRANCH   1   2
ATOM      2  C   UNL A   1      32.942  29.922  26.881  1.00  0.00     0.202 C 
BRANCH   2   3
ATOM      3  C   UNL A   1      33.025  29.512  25.408  1.00  0.00     0.261 C 
BRANCH   3   4
ATOM      4  O   UNL A   1      33.088  28.079  25.281  1.00  0.00    -0.459 OA
BRANCH   4   5
ATOM      5  C   UNL A   1      31.910  27.420  25.154  1.00  0.00     0.368 C 
ATOM      6  O   UNL A   1      31.069  27.321  26.044  1.00  0.00    -0.245 OA
BRANCH   5   7
ATOM      7  C   UNL A   1      31.725  26.762  23.748  1.00  0.00     0.195 C 
ATOM      8  C   UNL A   1      32.431  27.643  22.713  1.00  0.00     0.082 C 
ATOM      9  C   UNL A   1      30.284  26.712  23.199  1.00  0.00     0.095 C 
ATOM     10  C   UNL A   1      31.407  28.726  22.390  1.00  0.00     0.022 C 
ATOM     11  C   UNL A   1      30.046  28.027  22.425  1.00  0.00     0.054 C 
BRANCH   7  12
ATOM     12  N   UNL A   1      32.413  25.439  23.780  1.00  0.00    -0.335 N 
ATOM     13  C   UNL A   1      33.820  25.476  23.403  1.00  0.00     0.331 C 
ATOM     14  H   UNL A   1      32.348  25.070  24.729  1.00  0.00     0.347 HD
ATOM     15  H   UNL A   1      31.945  24.853  23.089  1.00  0.00     0.347 HD
ENDBRANCH   7  12
BRANCH  11  16
ATOM     16  S   UNL A   1      28.692  28.984  23.213  1.00  0.00    -0.155 SA
BRANCH  16  17
ATOM     17  C   UNL A   1      28.836  30.667  22.492  1.00  0.00     0.051 C 
ATOM     18  C   UNL A   1      28.644  31.799  23.499  1.00  0.00     0.043 C 
ATOM     19  C   UNL A   1      27.967  30.866  21.252  1.00  0.00     0.043 C 
ATOM     20  C   UNL A   1      28.810  33.144  22.797  1.00  0.00     0.161 C 
ATOM     21  C   UNL A   1      28.178  32.265  20.688  1.00  0.00     0.161 C 
ATOM     22  O   UNL A   1      27.913  33.245  21.691  1.00  0.00    -0.381 OA
ENDBRANCH  16  17
ENDBRANCH  11  16
ENDBRANCH   5   7
ENDBRANCH   4   5
ENDBRANCH   3   4
ENDBRANCH   2   3
ENDBRANCH   1   2
BRANCH   1  23
ATOM     23  C   UNL A   1      31.376  31.700  26.347  1.00  0.00     0.202 C 
BRANCH  23  24
ATOM     24  C   UNL A   1      31.891  33.111  26.651  1.00  0.00     0.261 C 
BRANCH  24  25
ATOM     25  O   UNL A   1      32.286  33.253  28.025  1.00  0.00    -0.460 OA
BRANCH  25  26
ATOM     26  C   UNL A   1      33.338  34.079  28.225  1.00  0.00     0.338 C 
ATOM     27  O   UNL A   1      33.310  35.299  28.326  1.00  0.00    -0.246 OA
BRANCH  26  28
ATOM     28  C   UNL A   1      34.566  33.302  28.476  1.00  0.00     0.060 A 
ATOM     29  C   UNL A   1      34.406  32.017  29.007  1.00  0.00     0.016 A 
ATOM     30  C   UNL A   1      35.841  33.834  28.276  1.00  0.00     0.016 A 
ATOM     31  C   UNL A   1      35.520  31.281  29.402  1.00  0.00     0.010 A 
ATOM     32  C   UNL A   1      36.961  33.095  28.677  1.00  0.00     0.010 A 
ATOM     33  C   UNL A   1      36.802  31.834  29.281  1.00  0.00    -0.014 A 
BRANCH  33  34
ATOM     34  C   UNL A   1      37.943  31.157  29.941  1.00  0.00     0.031 A 
ATOM     35  C   UNL A   1      38.226  31.453  31.390  1.00  0.00     0.074 A 
ATOM     36  C   UNL A   1      38.683  30.248  29.283  1.00  0.00     0.049 A 
ATOM     37  N   UNL A   1      39.163  30.974  32.168  1.00  0.00    -0.248 NA
ATOM     38  C   UNL A   1      37.330  32.417  32.049  1.00  0.00     0.031 C 
ATOM     39  C   UNL A   1      38.480  29.841  27.893  1.00  0.00     0.029 A 
ATOM     40  N   UNL A   1      39.752  29.499  29.703  1.00  0.00    -0.354 N 
ATOM     41  C   UNL A   1      38.972  31.580  33.403  1.00  0.00     0.074 A 
ATOM     42  C   UNL A   1      37.852  32.485  33.264  1.00  0.00     0.031 C 
ATOM     43  C   UNL A   1      39.401  28.914  27.574  1.00  0.00     0.029 A 
ATOM     44  C   UNL A   1      40.271  28.685  28.727  1.00  0.00     0.049 A 
ATOM     45  H   UNL A   1      40.114  29.541  30.618  1.00  0.00     0.167 HD
ATOM     46  C   UNL A   1      39.660  31.392  34.555  1.00  0.00     0.037 A 
ATOM     47  C   UNL A   1      41.336  27.861  28.759  1.00  0.00     0.037 A 
ATOM     48  C   UNL A   1      40.770  30.487  34.699  1.00  0.00     0.049 A 
ATOM     49  C   UNL A   1      42.127  27.718  30.033  1.00  0.00     0.074 A 
ATOM     50  C   UNL A   1      41.520  30.215  35.829  1.00  0.00     0.029 A 
ATOM     51  N   UNL A   1      41.291  29.712  33.675  1.00  0.00    -0.354 N 
ATOM     52  N   UNL A   1      41.925  28.280  31.200  1.00  0.00    -0.248 NA
ATOM     53  C   UNL A   1      43.295  26.824  29.993  1.00  0.00     0.031 C 
ATOM     54  C   UNL A   1      42.525  29.308  35.478  1.00  0.00     0.029 A 
ATOM     55  C   UNL A   1      42.370  28.978  34.141  1.00  0.00     0.049 A 
ATOM     56  H   UNL A   1      40.946  29.684  32.754  1.00  0.00     0.167 HD
ATOM     57  C   UNL A   1      42.919  27.788  32.038  1.00  0.00     0.074 A 
ATOM     58  C   UNL A   1      43.717  26.874  31.248  1.00  0.00     0.031 C 
ATOM     59  C   UNL A   1      43.151  28.068  33.345  1.00  0.00     0.037 A 
BRANCH  46  60
ATOM     60  C   UNL A   1      39.243  32.200  35.748  1.00  0.00     0.057 A 
ATOM     61  C   UNL A   1      38.335  31.708  36.694  1.00  0.00     0.134 A 
ATOM     62  C   UNL A   1      39.779  33.475  35.967  1.00  0.00     0.134 A 
ATOM     63  F   UNL A   1      37.774  30.500  36.535  1.00  0.00    -0.206 F 
ATOM     64  C   UNL A   1      37.958  32.466  37.805  1.00  0.00     0.040 A 
ATOM     65  C   UNL A   1      39.429  34.232  37.086  1.00  0.00     0.040 A 
ATOM     66  F   UNL A   1      40.656  34.003  35.100  1.00  0.00    -0.206 F 
ATOM     67  C   UNL A   1      38.511  33.729  38.007  1.00  0.00     0.006 A 
ENDBRANCH  46  60
BRANCH  47  68
ATOM     68  C   UNL A   1      41.729  27.110  27.540  1.00  0.00     0.057 A 
ATOM     69  C   UNL A   1      41.319  25.787  27.337  1.00  0.00     0.134 A 
ATOM     70  C   UNL A   1      42.546  27.690  26.563  1.00  0.00     0.134 A 
ATOM     71  F   UNL A   1      40.555  25.169  28.249  1.00  0.00    -0.206 F 
ATOM     72  C   UNL A   1      41.720  25.063  26.212  1.00  0.00     0.040 A 
ATOM     73  C   UNL A   1      42.936  26.986  25.423  1.00  0.00     0.040 A 
ATOM     74  F   UNL A   1      42.970  28.955  26.698  1.00  0.00    -0.206 F 
ATOM     75  C   UNL A   1      42.528  25.665  25.249  1.00  0.00     0.006 A 
ENDBRANCH  47  68
BRANCH  59  76
ATOM     76  C   UNL A   1      44.291  27.354  34.011  1.00  0.00     0.057 A 
ATOM     77  C   UNL A   1      45.572  27.914  34.085  1.00  0.00     0.134 A 
ATOM     78  C   UNL A   1      44.091  26.112  34.629  1.00  0.00     0.134 A 
ATOM     79  F   UNL A   1      45.832  29.095  33.505  1.00  0.00    -0.206 F 
ATOM     80  C   UNL A   1      46.620  27.253  34.729  1.00  0.00     0.040 A 
ATOM     81  C   UNL A   1      45.124  25.455  35.297  1.00  0.00     0.040 A 
ATOM     82  F   UNL A   1      42.885  25.525  34.604  1.00  0.00    -0.206 F 
ATOM     83  C   UNL A   1      46.395  26.023  35.344  1.00  0.00     0.006 A 
ENDBRANCH  59  76
ENDBRANCH  33  34
ENDBRANCH  26  28
ENDBRANCH  25  26
ENDBRANCH  24  25
ENDBRANCH  23  24
ENDBRANCH   1  23
TORSDOF 17
ENDMDL
MODEL 2
REMARK VINA RESULT:     -10.2      4.295      7.268
REMARK SMILES C[NH2+][C@@]1(C(=O)OCCOCCOC(=O)c2ccc(-c3c4nc(c(-c5c(F)cccc5F)c5ccc([nH]5)c(-c5c(F)cccc5F)c5nc(c(-c6c(F)cccc6F)c6ccc3[nH]6)C=C5)C=C4)cc2)CC[C@H](SC2CCOCC2)C1
REMARK SMILES IDX 9 1 8 2 7 3 6 4 4 5 5 6 3 7 69 8 79 9 70 10 71 11 2 12 1 13
REMARK SMILES IDX 72 16 73 17 74 18 78 19 75 20 77 21 76 22 10 23 11 24 12 25
REMARK SMILES IDX 13 26 14 27 15 28 16 29 68 30 17 31 67 32 18 33 19 34 20 35
REMARK SMILES IDX 61 36 21 37 66 38 60 39 62 40 22 41 65 42 59 43 58 44 23 46
REMARK SMILES IDX 49 47 32 48 48 49 33 50 36 51 47 52 63 53 34 54 35 55 46 57
REMARK SMILES IDX 64 58 37 59 24 60 25 61 30 62 26 63 27 64 29 65 31 66 28 67
REMARK SMILES IDX 50 68 51 69 56 70 52 71 53 72 55 73 57 74 54 75 38 76 39 77
REMARK SMILES IDX 44 78 40 79 41 80 43 81 45 82 42 83
REMARK H PARENT 2 14 2 15 62 45 36 56
REMARK Flexibility Score: inf
ROOT
ATOM      1  O   UNL A   1      35.506  21.668  24.618  1.00  0.00    -0.374 OA
ENDROOT
BRANCH   1   2
ATOM      2  C   UNL A   1      34.897  22.486  25.618  1.00  0.00     0.202 C 
BRANCH   2   3
ATOM      3  C   UNL A   1      35.002  23.997  25.392  1.00  0.00     0.261 C 
BRANCH   3   4
ATOM      4  O   UNL A   1      33.756  24.526  24.900  1.00  0.00    -0.459 OA
BRANCH   4   5
ATOM      5  C   UNL A   1      33.195  25.537  25.606  1.00  0.00     0.368 C 
ATOM      6  O   UNL A   1      33.819  26.477  26.092  1.00  0.00    -0.245 OA
BRANCH   5   7
ATOM      7  C   UNL A   1      31.647  25.384  25.770  1.00  0.00     0.195 C 
ATOM      8  C   UNL A   1      31.088  24.782  24.477  1.00  0.00     0.082 C 
ATOM      9  C   UNL A   1      30.838  26.692  25.893  1.00  0.00     0.095 C 
ATOM     10  C   UNL A   1      30.916  25.985  23.555  1.00  0.00     0.022 C 
ATOM     11  C   UNL A   1      30.469  27.135  24.460  1.00  0.00     0.054 C 
BRANCH   7  12
ATOM     12  N   UNL A   1      31.410  24.412  26.876  1.00  0.00    -0.335 N 
ATOM     13  C   UNL A   1      30.651  23.228  26.494  1.00  0.00     0.331 C 
ATOM     14  H   UNL A   1      32.317  24.107  27.231  1.00  0.00     0.347 HD
ATOM     15  H   UNL A   1      30.850  24.900  27.574  1.00  0.00     0.347 HD
ENDBRANCH   7  12
BRANCH  11  16
ATOM     16  S   UNL A   1      31.229  28.765  24.092  1.00  0.00    -0.155 SA
BRANCH  16  17
ATOM     17  C   UNL A   1      29.874  29.744  23.331  1.00  0.00     0.051 C 
ATOM     18  C   UNL A   1      29.530  31.029  24.082  1.00  0.00     0.043 C 
ATOM     19  C   UNL A   1      28.625  28.915  23.038  1.00  0.00     0.043 C 
ATOM     20  C   UNL A   1      28.415  31.768  23.350  1.00  0.00     0.161 C 
ATOM     21  C   UNL A   1      27.569  29.784  22.367  1.00  0.00     0.161 C 
ATOM     22  O   UNL A   1      27.279  30.921  23.179  1.00  0.00    -0.381 OA
ENDBRANCH  16  17
ENDBRANCH  11  16
ENDBRANCH   5   7
ENDBRANCH   4   5
ENDBRANCH   3   4
ENDBRANCH   2   3
ENDBRANCH   1   2
BRANCH   1  23
ATOM     23  C   UNL A   1      35.845  20.337  25.001  1.00  0.00     0.202 C 
BRANCH  23  24
ATOM     24  C   UNL A   1      37.338  19.993  25.002  1.00  0.00     0.261 C 
BRANCH  24  25
ATOM     25  O   UNL A   1      38.154  21.152  25.236  1.00  0.00    -0.460 OA
BRANCH  25  26
ATOM     26  C   UNL A   1      39.234  20.930  26.020  1.00  0.00     0.338 C 
ATOM     27  O   UNL A   1      39.853  19.880  26.145  1.00  0.00    -0.246 OA
BRANCH  26  28
ATOM     28  C   UNL A   1      39.706  22.191  26.620  1.00  0.00     0.060 A 
ATOM     29  C   UNL A   1      39.150  23.377  26.124  1.00  0.00     0.016 A 
ATOM     30  C   UNL A   1      40.719  22.230  27.581  1.00  0.00     0.016 A 
ATOM     31  C   UNL A   1      39.649  24.609  26.540  1.00  0.00     0.010 A 
ATOM     32  C   UNL A   1      41.222  23.469  27.995  1.00  0.00     0.010 A 
ATOM     33  C   UNL A   1      40.718  24.661  27.443  1.00  0.00    -0.014 A 
BRANCH  33  34
ATOM     34  C   UNL A   1      41.404  25.955  27.672  1.00  0.00     0.031 A 
ATOM     35  C   UNL A   1      40.686  27.035  28.434  1.00  0.00     0.074 A 
ATOM     36  C   UNL A   1      42.669  26.149  27.260  1.00  0.00     0.049 A 
ATOM     37  N   UNL A   1      41.092  28.237  28.755  1.00  0.00    -0.248 NA
ATOM     38  C   UNL A   1      39.326  26.716  28.898  1.00  0.00     0.031 C 
ATOM     39  C   UNL A   1      43.487  25.165  26.552  1.00  0.00     0.029 A 
ATOM     40  N   UNL A   1      43.487  27.243  27.385  1.00  0.00    -0.354 N 
ATOM     41  C   UNL A   1      40.041  28.817  29.453  1.00  0.00     0.074 A 
ATOM     42  C   UNL A   1      38.965  27.849  29.482  1.00  0.00     0.031 C 
ATOM     43  C   UNL A   1      44.694  25.704  26.303  1.00  0.00     0.029 A 
ATOM     44  C   UNL A   1      44.722  27.076  26.809  1.00  0.00     0.049 A 
ATOM     45  H   UNL A   1      43.214  28.071  27.844  1.00  0.00     0.167 HD
ATOM     46  C   UNL A   1      39.979  30.042  30.030  1.00  0.00     0.037 A 
ATOM     47  C   UNL A   1      45.750  27.938  26.693  1.00  0.00     0.037 A 
ATOM     48  C   UNL A   1      41.049  31.003  30.010  1.00  0.00     0.049 A 
ATOM     49  C   UNL A   1      45.633  29.319  27.283  1.00  0.00     0.074 A 
ATOM     50  C   UNL A   1      41.086  32.263  30.580  1.00  0.00     0.029 A 
ATOM     51  N   UNL A   1      42.268  30.811  29.380  1.00  0.00    -0.354 N 
ATOM     52  N   UNL A   1      44.642  29.848  27.960  1.00  0.00    -0.248 NA
ATOM     53  C   UNL A   1      46.780  30.221  27.096  1.00  0.00     0.031 C 
ATOM     54  C   UNL A   1      42.314  32.852  30.256  1.00  0.00     0.029 A 
ATOM     55  C   UNL A   1      43.058  31.940  29.526  1.00  0.00     0.049 A 
ATOM     56  H   UNL A   1      42.535  29.993  28.901  1.00  0.00     0.167 HD
ATOM     57  C   UNL A   1      45.055  31.130  28.301  1.00  0.00     0.074 A 
ATOM     58  C   UNL A   1      46.391  31.296  27.767  1.00  0.00     0.031 C 
ATOM     59  C   UNL A   1      44.388  32.087  28.995  1.00  0.00     0.037 A 
BRANCH  46  60
ATOM     60  C   UNL A   1      38.698  30.417  30.714  1.00  0.00     0.057 A 
ATOM     61  C   UNL A   1      37.667  31.084  30.041  1.00  0.00     0.134 A 
ATOM     62  C   UNL A   1      38.483  30.082  32.057  1.00  0.00     0.134 A 
ATOM     63  F   UNL A   1      37.815  31.446  28.758  1.00  0.00    -0.206 F 
ATOM     64  C   UNL A   1      36.475  31.422  30.685  1.00  0.00     0.040 A 
ATOM     65  C   UNL A   1      37.287  30.393  32.705  1.00  0.00     0.040 A 
ATOM     66  F   UNL A   1      39.430  29.440  32.759  1.00  0.00    -0.206 F 
ATOM     67  C   UNL A   1      36.280  31.071  32.020  1.00  0.00     0.006 A 
ENDBRANCH  46  60
BRANCH  47  68
ATOM     68  C   UNL A   1      46.983  27.529  25.974  1.00  0.00     0.057 A 
ATOM     69  C   UNL A   1      47.094  27.665  24.586  1.00  0.00     0.134 A 
ATOM     70  C   UNL A   1      48.069  26.968  26.657  1.00  0.00     0.134 A 
ATOM     71  F   UNL A   1      46.079  28.173  23.873  1.00  0.00    -0.206 F 
ATOM     72  C   UNL A   1      48.236  27.243  23.900  1.00  0.00     0.040 A 
ATOM     73  C   UNL A   1      49.224  26.563  25.988  1.00  0.00     0.040 A 
ATOM     74  F   UNL A   1      48.024  26.814  27.989  1.00  0.00    -0.206 F 
ATOM     75  C   UNL A   1      49.307  26.693  24.603  1.00  0.00     0.006 A 
ENDBRANCH  47  68
BRANCH  59  76
ATOM     76  C   UNL A   1      45.103  33.382  29.246  1.00  0.00     0.057 A 
ATOM     77  C   UNL A   1      44.981  34.475  28.378  1.00  0.00     0.134 A 
ATOM     78  C   UNL A   1      45.886  33.553  30.395  1.00  0.00     0.134 A 
ATOM     79  F   UNL A   1      44.255  34.372  27.254  1.00  0.00    -0.206 F 
ATOM     80  C   UNL A   1      45.631  35.684  28.633  1.00  0.00     0.040 A 
ATOM     81  C   UNL A   1      46.519  34.765  30.673  1.00  0.00     0.040 A 
ATOM     82  F   UNL A   1      46.036  32.550  31.273  1.00  0.00    -0.206 F 
ATOM     83  C   UNL A   1      46.397  35.833  29.787  1.00  0.00     0.006 A 
ENDBRANCH  59  76
ENDBRANCH  33  34
ENDBRANCH  26  28
ENDBRANCH  25  26
ENDBRANCH  24  25
ENDBRANCH  23  24
ENDBRANCH   1  23
TORSDOF 17
ENDMDL
MODEL 3
REMARK VINA RESULT:     -10.2      1.538      3.519
REMARK SMILES C[NH2+][C@@]1(C(=O)OCCOCCOC(=O)c2ccc(-c3c4nc(c(-c5c(F)cccc5F)c5ccc([nH]5)c(-c5c(F)cccc5F)c5nc(c(-c6c(F)cccc6F)c6ccc3[nH]6)C=C5)C=C4)cc2)CC[C@H](SC2CCOCC2)C1
REMARK SMILES IDX 9 1 8 2 7 3 6 4 4 5 5 6 3 7 69 8 79 9 70 10 71 11 2 12 1 13
REMARK SMILES IDX 72 16 73 17 74 18 78 19 75 20 77 21 76 22 10 23 11 24 12 25
REMARK SMILES IDX 13 26 14 27 15 28 16 29 68 30 17 31 67 32 18 33 19 34 20 35
REMARK SMILES IDX 61 36 21 37 66 38 60 39 62 40 22 41 65 42 59 43 58 44 23 46
REMARK SMILES IDX 49 47 32 48 48 49 33 50 36 51 47 52 63 53 34 54 35 55 46 57
REMARK SMILES IDX 64 58 37 59 24 60 25 61 30 62 26 63 27 64 29 65 31 66 28 67
REMARK SMILES IDX 50 68 51 69 56 70 52 71 53 72 55 73 57 74 54 75 38 76 39 77
REMARK SMILES IDX 44 78 40 79 41 80 43 81 45 82 42 83
REMARK H PARENT 2 14 2 15 62 45 36 56
REMARK Flexibility Score: inf
ROOT
ATOM      1  O   UNL A   1      31.769  30.826  27.223  1.00  0.00    -0.374 OA
ENDROOT
BRANCH   1   2
ATOM      2  C   UNL A   1      32.728  29.920  26.674  1.00  0.00     0.202 C 
BRANCH   2   3
ATOM      3  C   UNL A   1      32.609  29.661  25.169  1.00  0.00     0.261 C 
BRANCH   3   4
ATOM      4  O   UNL A   1      32.555  28.248  24.898  1.00  0.00    -0.459 OA
BRANCH   4   5
ATOM      5  C   UNL A   1      31.355  27.637  25.052  1.00  0.00     0.368 C 
ATOM      6  O   UNL A   1      30.924  27.207  26.119  1.00  0.00    -0.245 OA
BRANCH   5   7
ATOM      7  C   UNL A   1      30.558  27.507  23.712  1.00  0.00     0.195 C 
ATOM      8  C   UNL A   1      29.705  26.237  23.786  1.00  0.00     0.082 C 
ATOM      9  C   UNL A   1      31.393  27.261  22.439  1.00  0.00     0.095 C 
ATOM     10  C   UNL A   1      30.664  25.124  23.375  1.00  0.00     0.022 C 
ATOM     11  C   UNL A   1      31.556  25.732  22.291  1.00  0.00     0.054 C 
BRANCH   7  12
ATOM     12  N   UNL A   1      29.640  28.680  23.624  1.00  0.00    -0.335 N 
ATOM     13  C   UNL A   1      28.362  28.405  22.982  1.00  0.00     0.331 C 
ATOM     14  H   UNL A   1      29.455  29.010  24.571  1.00  0.00     0.347 HD
ATOM     15  H   UNL A   1      30.112  29.372  23.043  1.00  0.00     0.347 HD
ENDBRANCH   7  12
BRANCH  11  16
ATOM     16  S   UNL A   1      33.331  25.277  22.388  1.00  0.00    -0.155 SA
BRANCH  16  17
ATOM     17  C   UNL A   1      33.447  24.180  23.857  1.00  0.00     0.051 C 
ATOM     18  C   UNL A   1      33.885  24.889  25.137  1.00  0.00     0.043 C 
ATOM     19  C   UNL A   1      34.273  22.921  23.603  1.00  0.00     0.043 C 
ATOM     20  C   UNL A   1      33.921  23.891  26.290  1.00  0.00     0.161 C 
ATOM     21  C   UNL A   1      34.280  22.044  24.848  1.00  0.00     0.161 C 
ATOM     22  O   UNL A   1      34.764  22.784  25.969  1.00  0.00    -0.381 OA
ENDBRANCH  16  17
ENDBRANCH  11  16
ENDBRANCH   5   7
ENDBRANCH   4   5
ENDBRANCH   3   4
ENDBRANCH   2   3
ENDBRANCH   1   2
BRANCH   1  23
ATOM     23  C   UNL A   1      31.349  31.898  26.382  1.00  0.00     0.202 C 
BRANCH  23  24
ATOM     24  C   UNL A   1      32.002  33.258  26.644  1.00  0.00     0.261 C 
BRANCH  24  25
ATOM     25  O   UNL A   1      32.218  33.488  28.046  1.00  0.00    -0.460 OA
BRANCH  25  26
ATOM     26  C   UNL A   1      33.265  34.296  28.329  1.00  0.00     0.338 C 
ATOM     27  O   UNL A   1      33.237  35.508  28.504  1.00  0.00    -0.246 OA
BRANCH  26  28
ATOM     28  C   UNL A   1      34.483  33.500  28.570  1.00  0.00     0.060 A 
ATOM     29  C   UNL A   1      34.308  32.218  29.106  1.00  0.00     0.016 A 
ATOM     30  C   UNL A   1      35.765  34.011  28.356  1.00  0.00     0.016 A 
ATOM     31  C   UNL A   1      35.414  31.466  29.492  1.00  0.00     0.010 A 
ATOM     32  C   UNL A   1      36.877  33.255  28.748  1.00  0.00     0.010 A 
ATOM     33  C   UNL A   1      36.703  31.998  29.358  1.00  0.00    -0.014 A 
BRANCH  33  34
ATOM     34  C   UNL A   1      37.839  31.305  30.008  1.00  0.00     0.031 A 
ATOM     35  C   UNL A   1      38.133  31.590  31.456  1.00  0.00     0.074 A 
ATOM     36  C   UNL A   1      38.565  30.390  29.341  1.00  0.00     0.049 A 
ATOM     37  N   UNL A   1      39.069  31.097  32.228  1.00  0.00    -0.248 NA
ATOM     38  C   UNL A   1      37.253  32.562  32.125  1.00  0.00     0.031 C 
ATOM     39  C   UNL A   1      38.351  29.992  27.951  1.00  0.00     0.029 A 
ATOM     40  N   UNL A   1      39.627  29.627  29.753  1.00  0.00    -0.354 N 
ATOM     41  C   UNL A   1      38.892  31.699  33.467  1.00  0.00     0.074 A 
ATOM     42  C   UNL A   1      37.782  32.618  33.338  1.00  0.00     0.031 C 
ATOM     43  C   UNL A   1      39.259  29.056  27.623  1.00  0.00     0.029 A 
ATOM     44  C   UNL A   1      40.132  28.811  28.770  1.00  0.00     0.049 A 
ATOM     45  H   UNL A   1      39.994  29.660  30.666  1.00  0.00     0.167 HD
ATOM     46  C   UNL A   1      39.584  31.497  34.614  1.00  0.00     0.037 A 
ATOM     47  C   UNL A   1      41.187  27.974  28.793  1.00  0.00     0.037 A 
ATOM     48  C   UNL A   1      40.683  30.579  34.748  1.00  0.00     0.049 A 
ATOM     49  C   UNL A   1      41.983  27.816  30.062  1.00  0.00     0.074 A 
ATOM     50  C   UNL A   1      41.436  30.293  35.873  1.00  0.00     0.029 A 
ATOM     51  N   UNL A   1      41.190  29.802  33.718  1.00  0.00    -0.354 N 
ATOM     52  N   UNL A   1      41.794  28.375  31.233  1.00  0.00    -0.248 NA
ATOM     53  C   UNL A   1      43.140  26.909  30.011  1.00  0.00     0.031 C 
ATOM     54  C   UNL A   1      42.429  29.375  35.512  1.00  0.00     0.029 A 
ATOM     55  C   UNL A   1      42.263  29.054  34.175  1.00  0.00     0.049 A 
ATOM     56  H   UNL A   1      40.839  29.784  32.798  1.00  0.00     0.167 HD
ATOM     57  C   UNL A   1      42.786  27.867  32.063  1.00  0.00     0.074 A 
ATOM     58  C   UNL A   1      43.570  26.947  31.264  1.00  0.00     0.031 C 
ATOM     59  C   UNL A   1      43.028  28.138  33.370  1.00  0.00     0.037 A 
BRANCH  46  60
ATOM     60  C   UNL A   1      39.182  32.305  35.813  1.00  0.00     0.057 A 
ATOM     61  C   UNL A   1      39.667  33.600  36.029  1.00  0.00     0.134 A 
ATOM     62  C   UNL A   1      38.276  31.788  36.747  1.00  0.00     0.134 A 
ATOM     63  F   UNL A   1      40.549  34.147  35.179  1.00  0.00    -0.206 F 
ATOM     64  C   UNL A   1      39.280  34.347  37.144  1.00  0.00     0.040 A 
ATOM     65  C   UNL A   1      37.863  32.534  37.853  1.00  0.00     0.040 A 
ATOM     66  F   UNL A   1      37.771  30.554  36.598  1.00  0.00    -0.206 F 
ATOM     67  C   UNL A   1      38.370  33.815  38.057  1.00  0.00     0.006 A 
ENDBRANCH  46  60
BRANCH  47  68
ATOM     68  C   UNL A   1      41.565  27.224  27.568  1.00  0.00     0.057 A 
ATOM     69  C   UNL A   1      41.132  25.910  27.358  1.00  0.00     0.134 A 
ATOM     70  C   UNL A   1      42.389  27.797  26.593  1.00  0.00     0.134 A 
ATOM     71  F   UNL A   1      40.360  25.300  28.268  1.00  0.00    -0.206 F 
ATOM     72  C   UNL A   1      41.518  25.186  26.228  1.00  0.00     0.040 A 
ATOM     73  C   UNL A   1      42.765  27.093  25.448  1.00  0.00     0.040 A 
ATOM     74  F   UNL A   1      42.835  29.054  26.735  1.00  0.00    -0.206 F 
ATOM     75  C   UNL A   1      42.335  25.780  25.267  1.00  0.00     0.006 A 
ENDBRANCH  47  68
BRANCH  59  76
ATOM     76  C   UNL A   1      44.163  27.408  34.027  1.00  0.00     0.057 A 
ATOM     77  C   UNL A   1      43.990  26.151  34.619  1.00  0.00     0.134 A 
ATOM     78  C   UNL A   1      45.456  27.950  34.025  1.00  0.00     0.134 A 
ATOM     79  F   UNL A   1      42.776  25.582  34.664  1.00  0.00    -0.206 F 
ATOM     80  C   UNL A   1      45.058  25.469  35.207  1.00  0.00     0.040 A 
ATOM     81  C   UNL A   1      46.534  27.267  34.586  1.00  0.00     0.040 A 
ATOM     82  F   UNL A   1      45.692  29.146  33.465  1.00  0.00    -0.206 F 
ATOM     83  C   UNL A   1      46.336  26.024  35.184  1.00  0.00     0.006 A 
ENDBRANCH  59  76
ENDBRANCH  33  34
ENDBRANCH  26  28
ENDBRANCH  25  26
ENDBRANCH  24  25
ENDBRANCH  23  24
ENDBRANCH   1  23
TORSDOF 17
ENDMDL
