MODEL 1
REMARK VINA RESULT:      -9.0      0.000      0.000
REMARK SMILES CC[C@@H](C)[NH2+][C@H](CN=[N+]=[N-])C(=O)OCCOCCOC(=O)c1ccc(-c2c3nc(c(-c4c(F)cccc4F)c4ccc([nH]4)c(-c4c(F)cccc4F)c4nc(c(-c5c(F)cccc5F)c5ccc2[nH]5)C=C4)C=C3)cc1
REMARK SMILES IDX 15 1 14 2 13 3 11 4 12 5 6 6 5 7 3 10 4 11 2 12 1 13 7 14
REMARK SMILES IDX 8 15 9 16 10 17 16 18 17 19 18 20 19 21 20 22 21 23 22 24
REMARK SMILES IDX 23 25 75 26 24 27 74 28 25 29 26 30 27 31 68 32 28 33 73 34
REMARK SMILES IDX 67 35 69 36 29 37 72 38 66 39 65 40 30 42 56 43 39 44 55 45
REMARK SMILES IDX 40 46 43 47 54 48 70 49 41 50 42 51 53 53 71 54 44 55 31 56
REMARK SMILES IDX 32 57 37 58 33 59 34 60 36 61 38 62 35 63 57 64 58 65 63 66
REMARK SMILES IDX 59 67 60 68 62 69 64 70 61 71 45 72 46 73 51 74 47 75 48 76
REMARK SMILES IDX 50 77 52 78 49 79
REMARK H PARENT 5 8 5 9 69 41 43 52
REMARK Flexibility Score: inf
ROOT
ATOM      1  C   UNL A   1      38.988  21.497  25.728  1.00  0.00     0.202 C 
ENDROOT
BRANCH   1   2
ATOM      2  C   UNL A   1      37.890  20.623  25.114  1.00  0.00     0.261 C 
BRANCH   2   3
ATOM      3  O   UNL A   1      36.595  20.917  25.657  1.00  0.00    -0.459 OA
BRANCH   3   4
ATOM      4  C   UNL A   1      35.669  21.370  24.767  1.00  0.00     0.365 C 
ATOM      5  O   UNL A   1      35.891  22.198  23.888  1.00  0.00    -0.245 OA
BRANCH   4   6
ATOM      6  C   UNL A   1      34.257  20.793  25.012  1.00  0.00     0.299 C 
BRANCH   6   7
ATOM      7  N   UNL A   1      34.349  19.338  24.753  1.00  0.00    -0.332 N 
ATOM      8  H   UNL A   1      34.905  19.211  23.907  1.00  0.00     0.347 HD
ATOM      9  H   UNL A   1      34.759  18.942  25.598  1.00  0.00     0.347 HD
BRANCH   7  10
ATOM     10  C   UNL A   1      33.085  18.621  24.566  1.00  0.00     0.179 C 
ATOM     11  C   UNL A   1      32.687  17.760  25.768  1.00  0.00     0.075 C 
BRANCH  10  12
ATOM     12  C   UNL A   1      33.243  17.761  23.298  1.00  0.00     0.061 C 
ATOM     13  C   UNL A   1      34.185  16.584  23.503  1.00  0.00     0.010 C 
ENDBRANCH  10  12
ENDBRANCH   7  10
ENDBRANCH   6   7
BRANCH   6  14
ATOM     14  C   UNL A   1      33.140  21.554  24.251  1.00  0.00     0.168 C 
BRANCH  14  15
ATOM     15  N   UNL A   1      32.261  22.272  25.207  1.00  0.00    -0.087 NA
ATOM     16  N   UNL A   1      32.793  23.170  25.883  1.00  0.00     0.001 N 
ATOM     17  N   UNL A   1      33.278  24.001  26.497  1.00  0.00    -0.003 NA
ENDBRANCH  14  15
ENDBRANCH   6  14
ENDBRANCH   4   6
ENDBRANCH   3   4
ENDBRANCH   2   3
ENDBRANCH   1   2
BRANCH   1  18
ATOM     18  O   UNL A   1      39.728  20.978  26.829  1.00  0.00    -0.374 OA
BRANCH  18  19
ATOM     19  C   UNL A   1      40.873  20.175  26.549  1.00  0.00     0.202 C 
BRANCH  19  20
ATOM     20  C   UNL A   1      42.164  20.879  26.104  1.00  0.00     0.261 C 
BRANCH  20  21
ATOM     21  O   UNL A   1      42.439  22.083  26.844  1.00  0.00    -0.460 OA
BRANCH  21  22
ATOM     22  C   UNL A   1      42.607  23.183  26.070  1.00  0.00     0.338 C 
ATOM     23  O   UNL A   1      42.985  23.224  24.910  1.00  0.00    -0.246 OA
BRANCH  22  24
ATOM     24  C   UNL A   1      42.085  24.378  26.754  1.00  0.00     0.060 A 
ATOM     25  C   UNL A   1      42.841  25.553  26.657  1.00  0.00     0.016 A 
ATOM     26  C   UNL A   1      40.955  24.324  27.571  1.00  0.00     0.016 A 
ATOM     27  C   UNL A   1      42.506  26.664  27.423  1.00  0.00     0.010 A 
ATOM     28  C   UNL A   1      40.622  25.442  28.345  1.00  0.00     0.010 A 
ATOM     29  C   UNL A   1      41.421  26.600  28.306  1.00  0.00    -0.014 A 
BRANCH  29  30
ATOM     30  C   UNL A   1      41.222  27.692  29.290  1.00  0.00     0.031 A 
ATOM     31  C   UNL A   1      42.150  27.797  30.470  1.00  0.00     0.074 A 
ATOM     32  C   UNL A   1      40.254  28.608  29.109  1.00  0.00     0.049 A 
ATOM     33  N   UNL A   1      42.137  28.647  31.465  1.00  0.00    -0.248 NA
ATOM     34  C   UNL A   1      43.240  26.809  30.536  1.00  0.00     0.031 C 
ATOM     35  C   UNL A   1      39.324  28.640  27.982  1.00  0.00     0.029 A 
ATOM     36  N   UNL A   1      39.893  29.686  29.877  1.00  0.00    -0.354 N 
ATOM     37  C   UNL A   1      43.205  28.293  32.279  1.00  0.00     0.074 A 
ATOM     38  C   UNL A   1      43.824  27.128  31.681  1.00  0.00     0.031 C 
ATOM     39  C   UNL A   1      38.489  29.681  28.137  1.00  0.00     0.029 A 
ATOM     40  C   UNL A   1      38.801  30.362  29.392  1.00  0.00     0.049 A 
ATOM     41  H   UNL A   1      40.370  29.949  30.697  1.00  0.00     0.167 HD
ATOM     42  C   UNL A   1      43.639  28.889  33.415  1.00  0.00     0.037 A 
ATOM     43  C   UNL A   1      38.114  31.396  29.917  1.00  0.00     0.037 A 
ATOM     44  C   UNL A   1      43.018  30.048  34.006  1.00  0.00     0.049 A 
ATOM     45  C   UNL A   1      38.565  31.992  31.224  1.00  0.00     0.074 A 
ATOM     46  C   UNL A   1      43.388  30.736  35.148  1.00  0.00     0.029 A 
ATOM     47  N   UNL A   1      41.892  30.684  33.504  1.00  0.00    -0.354 N 
ATOM     48  N   UNL A   1      39.587  31.662  31.977  1.00  0.00    -0.248 NA
ATOM     49  C   UNL A   1      37.768  33.108  31.752  1.00  0.00     0.031 C 
ATOM     50  C   UNL A   1      42.450  31.748  35.371  1.00  0.00     0.029 A 
ATOM     51  C   UNL A   1      41.536  31.736  34.330  1.00  0.00     0.049 A 
ATOM     52  H   UNL A   1      41.416  30.425  32.681  1.00  0.00     0.167 HD
ATOM     53  C   UNL A   1      39.575  32.548  33.047  1.00  0.00     0.074 A 
ATOM     54  C   UNL A   1      38.452  33.438  32.839  1.00  0.00     0.031 C 
ATOM     55  C   UNL A   1      40.418  32.620  34.107  1.00  0.00     0.037 A 
BRANCH  42  56
ATOM     56  C   UNL A   1      44.823  28.283  34.113  1.00  0.00     0.057 A 
ATOM     57  C   UNL A   1      44.686  27.244  35.045  1.00  0.00     0.134 A 
ATOM     58  C   UNL A   1      46.122  28.721  33.823  1.00  0.00     0.134 A 
ATOM     59  F   UNL A   1      43.470  26.785  35.378  1.00  0.00    -0.206 F 
ATOM     60  C   UNL A   1      45.796  26.684  35.681  1.00  0.00     0.040 A 
ATOM     61  C   UNL A   1      47.241  28.146  34.430  1.00  0.00     0.040 A 
ATOM     62  F   UNL A   1      46.328  29.706  32.937  1.00  0.00    -0.206 F 
ATOM     63  C   UNL A   1      47.077  27.129  35.368  1.00  0.00     0.006 A 
ENDBRANCH  42  56
BRANCH  43  64
ATOM     64  C   UNL A   1      36.913  31.920  29.217  1.00  0.00     0.057 A 
ATOM     65  C   UNL A   1      36.945  33.138  28.529  1.00  0.00     0.134 A 
ATOM     66  C   UNL A   1      35.698  31.224  29.240  1.00  0.00     0.134 A 
ATOM     67  F   UNL A   1      38.073  33.863  28.489  1.00  0.00    -0.206 F 
ATOM     68  C   UNL A   1      35.807  33.656  27.906  1.00  0.00     0.040 A 
ATOM     69  C   UNL A   1      34.561  31.715  28.596  1.00  0.00     0.040 A 
ATOM     70  F   UNL A   1      35.600  30.050  29.880  1.00  0.00    -0.206 F 
ATOM     71  C   UNL A   1      34.612  32.940  27.934  1.00  0.00     0.006 A 
ENDBRANCH  43  64
BRANCH  55  72
ATOM     72  C   UNL A   1      40.189  33.726  35.100  1.00  0.00     0.057 A 
ATOM     73  C   UNL A   1      39.468  33.526  36.284  1.00  0.00     0.134 A 
ATOM     74  C   UNL A   1      40.732  34.999  34.884  1.00  0.00     0.134 A 
ATOM     75  F   UNL A   1      38.911  32.334  36.550  1.00  0.00    -0.206 F 
ATOM     76  C   UNL A   1      39.272  34.560  37.203  1.00  0.00     0.040 A 
ATOM     77  C   UNL A   1      40.571  36.031  35.810  1.00  0.00     0.040 A 
ATOM     78  F   UNL A   1      41.444  35.258  33.776  1.00  0.00    -0.206 F 
ATOM     79  C   UNL A   1      39.831  35.815  36.969  1.00  0.00     0.006 A 
ENDBRANCH  55  72
ENDBRANCH  29  30
ENDBRANCH  22  24
ENDBRANCH  21  22
ENDBRANCH  20  21
ENDBRANCH  19  20
ENDBRANCH  18  19
ENDBRANCH   1  18
TORSDOF 19
ENDMDL
MODEL 2
REMARK VINA RESULT:      -8.9      3.693      8.517
REMARK SMILES CC[C@@H](C)[NH2+][C@H](CN=[N+]=[N-])C(=O)OCCOCCOC(=O)c1ccc(-c2c3nc(c(-c4c(F)cccc4F)c4ccc([nH]4)c(-c4c(F)cccc4F)c4nc(c(-c5c(F)cccc5F)c5ccc2[nH]5)C=C4)C=C3)cc1
REMARK SMILES IDX 15 1 14 2 13 3 11 4 12 5 6 6 5 7 3 10 4 11 2 12 1 13 7 14
REMARK SMILES IDX 8 15 9 16 10 17 16 18 17 19 18 20 19 21 20 22 21 23 22 24
REMARK SMILES IDX 23 25 75 26 24 27 74 28 25 29 26 30 27 31 68 32 28 33 73 34
REMARK SMILES IDX 67 35 69 36 29 37 72 38 66 39 65 40 30 42 56 43 39 44 55 45
REMARK SMILES IDX 40 46 43 47 54 48 70 49 41 50 42 51 53 53 71 54 44 55 31 56
REMARK SMILES IDX 32 57 37 58 33 59 34 60 36 61 38 62 35 63 57 64 58 65 63 66
REMARK SMILES IDX 59 67 60 68 62 69 64 70 61 71 45 72 46 73 51 74 47 75 48 76
REMARK SMILES IDX 50 77 52 78 49 79
REMARK H PARENT 5 8 5 9 69 41 43 52
REMARK Flexibility Score: inf
ROOT
ATOM      1  C   UNL A   1      32.246  30.282  26.110  1.00  0.00     0.202 C 
ENDROOT
BRANCH   1   2
ATOM      2  C   UNL A   1      32.286  29.047  25.204  1.00  0.00     0.261 C 
BRANCH   2   3
ATOM      3  O   UNL A   1      32.780  27.887  25.889  1.00  0.00    -0.459 OA
BRANCH   3   4
ATOM      4  C   UNL A   1      31.833  27.043  26.384  1.00  0.00     0.365 C 
ATOM      5  O   UNL A   1      31.046  27.326  27.283  1.00  0.00    -0.245 OA
BRANCH   4   6
ATOM      6  C   UNL A   1      31.883  25.635  25.752  1.00  0.00     0.299 C 
BRANCH   6   7
ATOM      7  N   UNL A   1      32.084  25.835  24.299  1.00  0.00    -0.332 N 
ATOM      8  H   UNL A   1      31.199  25.629  23.835  1.00  0.00     0.347 HD
ATOM      9  H   UNL A   1      32.402  26.799  24.203  1.00  0.00     0.347 HD
BRANCH   7  10
ATOM     10  C   UNL A   1      33.121  25.022  23.658  1.00  0.00     0.179 C 
ATOM     11  C   UNL A   1      34.436  24.980  24.443  1.00  0.00     0.075 C 
BRANCH  10  12
ATOM     12  C   UNL A   1      33.336  25.603  22.249  1.00  0.00     0.061 C 
ATOM     13  C   UNL A   1      33.533  27.111  22.260  1.00  0.00     0.010 C 
ENDBRANCH  10  12
ENDBRANCH   7  10
ENDBRANCH   6   7
BRANCH   6  14
ATOM     14  C   UNL A   1      30.688  24.734  26.160  1.00  0.00     0.168 C 
BRANCH  14  15
ATOM     15  N   UNL A   1      31.086  23.812  27.252  1.00  0.00    -0.087 NA
ATOM     16  N   UNL A   1      32.173  23.224  27.114  1.00  0.00     0.001 N 
ATOM     17  N   UNL A   1      33.175  22.691  26.993  1.00  0.00    -0.003 NA
ENDBRANCH  14  15
ENDBRANCH   6  14
ENDBRANCH   4   6
ENDBRANCH   3   4
ENDBRANCH   2   3
ENDBRANCH   1   2
BRANCH   1  18
ATOM     18  O   UNL A   1      31.109  31.137  26.035  1.00  0.00    -0.374 OA
BRANCH  18  19
ATOM     19  C   UNL A   1      31.253  32.486  26.473  1.00  0.00     0.202 C 
BRANCH  19  20
ATOM     20  C   UNL A   1      32.490  32.852  27.305  1.00  0.00     0.261 C 
BRANCH  20  21
ATOM     21  O   UNL A   1      32.589  34.260  27.588  1.00  0.00    -0.460 OA
BRANCH  21  22
ATOM     22  C   UNL A   1      33.197  34.548  28.765  1.00  0.00     0.338 C 
ATOM     23  O   UNL A   1      32.782  35.270  29.658  1.00  0.00    -0.246 OA
BRANCH  22  24
ATOM     24  C   UNL A   1      34.394  33.709  28.945  1.00  0.00     0.060 A 
ATOM     25  C   UNL A   1      34.205  32.426  29.473  1.00  0.00     0.016 A 
ATOM     26  C   UNL A   1      35.680  34.204  28.722  1.00  0.00     0.016 A 
ATOM     27  C   UNL A   1      35.301  31.652  29.837  1.00  0.00     0.010 A 
ATOM     28  C   UNL A   1      36.782  33.427  29.095  1.00  0.00     0.010 A 
ATOM     29  C   UNL A   1      36.595  32.167  29.693  1.00  0.00    -0.014 A 
BRANCH  29  30
ATOM     30  C   UNL A   1      37.735  31.442  30.306  1.00  0.00     0.031 A 
ATOM     31  C   UNL A   1      38.079  31.699  31.749  1.00  0.00     0.074 A 
ATOM     32  C   UNL A   1      38.427  30.530  29.600  1.00  0.00     0.049 A 
ATOM     33  N   UNL A   1      39.051  31.205  32.472  1.00  0.00    -0.248 NA
ATOM     34  C   UNL A   1      37.208  32.640  32.472  1.00  0.00     0.031 C 
ATOM     35  C   UNL A   1      38.160  30.160  28.212  1.00  0.00     0.029 A 
ATOM     36  N   UNL A   1      39.501  29.754  29.957  1.00  0.00    -0.354 N 
ATOM     37  C   UNL A   1      38.917  31.781  33.730  1.00  0.00     0.074 A 
ATOM     38  C   UNL A   1      37.791  32.689  33.661  1.00  0.00     0.031 C 
ATOM     39  C   UNL A   1      39.055  29.234  27.829  1.00  0.00     0.029 A 
ATOM     40  C   UNL A   1      39.979  28.978  28.931  1.00  0.00     0.049 A 
ATOM     41  H   UNL A   1      39.891  29.756  30.860  1.00  0.00     0.167 HD
ATOM     42  C   UNL A   1      39.657  31.565  34.844  1.00  0.00     0.037 A 
ATOM     43  C   UNL A   1      41.058  28.172  28.881  1.00  0.00     0.037 A 
ATOM     44  C   UNL A   1      40.777  30.661  34.906  1.00  0.00     0.049 A 
ATOM     45  C   UNL A   1      41.915  28.010  30.108  1.00  0.00     0.074 A 
ATOM     46  C   UNL A   1      41.583  30.361  35.989  1.00  0.00     0.029 A 
ATOM     47  N   UNL A   1      41.253  29.916  33.836  1.00  0.00    -0.354 N 
ATOM     48  N   UNL A   1      41.770  28.544  31.297  1.00  0.00    -0.248 NA
ATOM     49  C   UNL A   1      43.085  27.130  29.987  1.00  0.00     0.031 C 
ATOM     50  C   UNL A   1      42.585  29.485  35.560  1.00  0.00     0.029 A 
ATOM     51  C   UNL A   1      42.360  29.183  34.226  1.00  0.00     0.049 A 
ATOM     52  H   UNL A   1      40.861  29.912  32.932  1.00  0.00     0.167 HD
ATOM     53  C   UNL A   1      42.807  28.040  32.072  1.00  0.00     0.074 A 
ATOM     54  C   UNL A   1      43.566  27.147  31.222  1.00  0.00     0.031 C 
ATOM     55  C   UNL A   1      43.104  28.291  33.371  1.00  0.00     0.037 A 
BRANCH  42  56
ATOM     56  C   UNL A   1      39.299  32.342  36.079  1.00  0.00     0.057 A 
ATOM     57  C   UNL A   1      39.867  33.592  36.362  1.00  0.00     0.134 A 
ATOM     58  C   UNL A   1      38.347  31.848  36.982  1.00  0.00     0.134 A 
ATOM     59  F   UNL A   1      40.794  34.119  35.548  1.00  0.00    -0.206 F 
ATOM     60  C   UNL A   1      39.520  34.307  37.511  1.00  0.00     0.040 A 
ATOM     61  C   UNL A   1      37.971  32.569  38.116  1.00  0.00     0.040 A 
ATOM     62  F   UNL A   1      37.759  30.661  36.769  1.00  0.00    -0.206 F 
ATOM     63  C   UNL A   1      38.564  33.799  38.387  1.00  0.00     0.006 A 
ENDBRANCH  42  56
BRANCH  43  64
ATOM     64  C   UNL A   1      41.403  27.473  27.616  1.00  0.00     0.057 A 
ATOM     65  C   UNL A   1      40.989  26.158  27.373  1.00  0.00     0.134 A 
ATOM     66  C   UNL A   1      42.175  28.098  26.628  1.00  0.00     0.134 A 
ATOM     67  F   UNL A   1      40.266  25.498  28.290  1.00  0.00    -0.206 F 
ATOM     68  C   UNL A   1      41.347  25.483  26.205  1.00  0.00     0.040 A 
ATOM     69  C   UNL A   1      42.515  27.444  25.442  1.00  0.00     0.040 A 
ATOM     70  F   UNL A   1      42.602  29.357  26.797  1.00  0.00    -0.206 F 
ATOM     71  C   UNL A   1      42.107  26.129  25.233  1.00  0.00     0.006 A 
ENDBRANCH  43  64
BRANCH  55  72
ATOM     72  C   UNL A   1      44.273  27.558  33.968  1.00  0.00     0.057 A 
ATOM     73  C   UNL A   1      45.561  28.107  33.998  1.00  0.00     0.134 A 
ATOM     74  C   UNL A   1      44.095  26.298  34.557  1.00  0.00     0.134 A 
ATOM     75  F   UNL A   1      45.804  29.304  33.443  1.00  0.00    -0.206 F 
ATOM     76  C   UNL A   1      46.635  27.418  34.566  1.00  0.00     0.040 A 
ATOM     77  C   UNL A   1      45.154  25.616  35.157  1.00  0.00     0.040 A 
ATOM     78  F   UNL A   1      42.886  25.718  34.575  1.00  0.00    -0.206 F 
ATOM     79  C   UNL A   1      46.430  26.172  35.154  1.00  0.00     0.006 A 
ENDBRANCH  55  72
ENDBRANCH  29  30
ENDBRANCH  22  24
ENDBRANCH  21  22
ENDBRANCH  20  21
ENDBRANCH  19  20
ENDBRANCH  18  19
ENDBRANCH   1  18
TORSDOF 19
ENDMDL
MODEL 3
REMARK VINA RESULT:      -8.7      3.437      8.215
REMARK SMILES CC[C@@H](C)[NH2+][C@H](CN=[N+]=[N-])C(=O)OCCOCCOC(=O)c1ccc(-c2c3nc(c(-c4c(F)cccc4F)c4ccc([nH]4)c(-c4c(F)cccc4F)c4nc(c(-c5c(F)cccc5F)c5ccc2[nH]5)C=C4)C=C3)cc1
REMARK SMILES IDX 15 1 14 2 13 3 11 4 12 5 6 6 5 7 3 10 4 11 2 12 1 13 7 14
REMARK SMILES IDX 8 15 9 16 10 17 16 18 17 19 18 20 19 21 20 22 21 23 22 24
REMARK SMILES IDX 23 25 75 26 24 27 74 28 25 29 26 30 27 31 68 32 28 33 73 34
REMARK SMILES IDX 67 35 69 36 29 37 72 38 66 39 65 40 30 42 56 43 39 44 55 45
REMARK SMILES IDX 40 46 43 47 54 48 70 49 41 50 42 51 53 53 71 54 44 55 31 56
REMARK SMILES IDX 32 57 37 58 33 59 34 60 36 61 38 62 35 63 57 64 58 65 63 66
REMARK SMILES IDX 59 67 60 68 62 69 64 70 61 71 45 72 46 73 51 74 47 75 48 76
REMARK SMILES IDX 50 77 52 78 49 79
REMARK H PARENT 5 8 5 9 69 41 43 52
REMARK Flexibility Score: inf
ROOT
ATOM      1  C   UNL A   1      32.667  29.214  25.178  1.00  0.00     0.202 C 
ENDROOT
BRANCH   1   2
ATOM      2  C   UNL A   1      31.471  28.265  25.047  1.00  0.00     0.261 C 
BRANCH   2   3
ATOM      3  O   UNL A   1      31.870  26.936  24.680  1.00  0.00    -0.459 OA
BRANCH   3   4
ATOM      4  C   UNL A   1      32.499  26.217  25.651  1.00  0.00     0.365 C 
ATOM      5  O   UNL A   1      32.883  26.677  26.723  1.00  0.00    -0.245 OA
BRANCH   4   6
ATOM      6  C   UNL A   1      32.761  24.750  25.248  1.00  0.00     0.299 C 
BRANCH   6   7
ATOM      7  N   UNL A   1      33.108  24.029  26.494  1.00  0.00    -0.332 N 
ATOM      8  H   UNL A   1      34.119  23.892  26.498  1.00  0.00     0.347 HD
ATOM      9  H   UNL A   1      32.753  24.615  27.249  1.00  0.00     0.347 HD
BRANCH   7  10
ATOM     10  C   UNL A   1      32.481  22.720  26.695  1.00  0.00     0.179 C 
ATOM     11  C   UNL A   1      33.345  21.548  26.220  1.00  0.00     0.075 C 
BRANCH  10  12
ATOM     12  C   UNL A   1      31.134  22.752  25.949  1.00  0.00     0.061 C 
ATOM     13  C   UNL A   1      29.954  22.991  26.880  1.00  0.00     0.010 C 
ENDBRANCH  10  12
ENDBRANCH   7  10
ENDBRANCH   6   7
BRANCH   6  14
ATOM     14  C   UNL A   1      33.761  24.603  24.072  1.00  0.00     0.168 C 
BRANCH  14  15
ATOM     15  N   UNL A   1      33.033  24.364  22.801  1.00  0.00    -0.087 NA
ATOM     16  N   UNL A   1      33.158  25.230  21.919  1.00  0.00     0.001 N 
ATOM     17  N   UNL A   1      33.279  26.021  21.104  1.00  0.00    -0.003 NA
ENDBRANCH  14  15
ENDBRANCH   6  14
ENDBRANCH   4   6
ENDBRANCH   3   4
ENDBRANCH   2   3
ENDBRANCH   1   2
BRANCH   1  18
ATOM     18  O   UNL A   1      32.589  30.269  26.132  1.00  0.00    -0.374 OA
BRANCH  18  19
ATOM     19  C   UNL A   1      31.435  31.105  26.117  1.00  0.00     0.202 C 
BRANCH  19  20
ATOM     20  C   UNL A   1      31.421  32.342  27.027  1.00  0.00     0.261 C 
BRANCH  20  21
ATOM     21  O   UNL A   1      32.563  33.199  26.839  1.00  0.00    -0.460 OA
BRANCH  21  22
ATOM     22  C   UNL A   1      33.102  33.664  27.993  1.00  0.00     0.338 C 
ATOM     23  O   UNL A   1      32.584  34.411  28.806  1.00  0.00    -0.246 OA
BRANCH  22  24
ATOM     24  C   UNL A   1      34.384  32.993  28.269  1.00  0.00     0.060 A 
ATOM     25  C   UNL A   1      34.343  31.621  28.544  1.00  0.00     0.016 A 
ATOM     26  C   UNL A   1      35.579  33.706  28.379  1.00  0.00     0.016 A 
ATOM     27  C   UNL A   1      35.485  30.964  28.989  1.00  0.00     0.010 A 
ATOM     28  C   UNL A   1      36.725  33.044  28.833  1.00  0.00     0.010 A 
ATOM     29  C   UNL A   1      36.672  31.682  29.180  1.00  0.00    -0.014 A 
BRANCH  29  30
ATOM     30  C   UNL A   1      37.806  31.032  29.882  1.00  0.00     0.031 A 
ATOM     31  C   UNL A   1      38.055  31.356  31.331  1.00  0.00     0.074 A 
ATOM     32  C   UNL A   1      38.577  30.130  29.250  1.00  0.00     0.049 A 
ATOM     33  N   UNL A   1      39.006  30.934  32.125  1.00  0.00    -0.248 NA
ATOM     34  C   UNL A   1      37.104  32.281  31.969  1.00  0.00     0.031 C 
ATOM     35  C   UNL A   1      38.406  29.699  27.864  1.00  0.00     0.029 A 
ATOM     36  N   UNL A   1      39.662  29.418  29.695  1.00  0.00    -0.354 N 
ATOM     37  C   UNL A   1      38.775  31.547  33.350  1.00  0.00     0.074 A 
ATOM     38  C   UNL A   1      37.615  32.398  33.185  1.00  0.00     0.031 C 
ATOM     39  C   UNL A   1      39.361  28.803  27.567  1.00  0.00     0.029 A 
ATOM     40  C   UNL A   1      40.232  28.628  28.728  1.00  0.00     0.049 A 
ATOM     41  H   UNL A   1      39.999  29.469  30.618  1.00  0.00     0.167 HD
ATOM     42  C   UNL A   1      39.459  31.404  34.511  1.00  0.00     0.037 A 
ATOM     43  C   UNL A   1      41.346  27.872  28.767  1.00  0.00     0.037 A 
ATOM     44  C   UNL A   1      40.612  30.556  34.669  1.00  0.00     0.049 A 
ATOM     45  C   UNL A   1      42.138  27.794  30.045  1.00  0.00     0.074 A 
ATOM     46  C   UNL A   1      41.368  30.333  35.806  1.00  0.00     0.029 A 
ATOM     47  N   UNL A   1      41.181  29.797  33.656  1.00  0.00    -0.354 N 
ATOM     48  N   UNL A   1      41.902  28.361  31.203  1.00  0.00    -0.248 NA
ATOM     49  C   UNL A   1      43.351  26.965  30.022  1.00  0.00     0.031 C 
ATOM     50  C   UNL A   1      42.430  29.489  35.466  1.00  0.00     0.029 A 
ATOM     51  C   UNL A   1      42.296  29.130  34.135  1.00  0.00     0.049 A 
ATOM     52  H   UNL A   1      40.842  29.742  32.733  1.00  0.00     0.167 HD
ATOM     53  C   UNL A   1      42.915  27.934  32.053  1.00  0.00     0.074 A 
ATOM     54  C   UNL A   1      43.760  27.047  31.280  1.00  0.00     0.031 C 
ATOM     55  C   UNL A   1      43.126  28.244  33.356  1.00  0.00     0.037 A 
BRANCH  42  56
ATOM     56  C   UNL A   1      38.997  32.207  35.694  1.00  0.00     0.057 A 
ATOM     57  C   UNL A   1      38.198  31.652  36.704  1.00  0.00     0.134 A 
ATOM     58  C   UNL A   1      39.386  33.545  35.844  1.00  0.00     0.134 A 
ATOM     59  F   UNL A   1      37.780  30.380  36.619  1.00  0.00    -0.206 F 
ATOM     60  C   UNL A   1      37.782  32.407  37.803  1.00  0.00     0.040 A 
ATOM     61  C   UNL A   1      39.002  34.299  36.954  1.00  0.00     0.040 A 
ATOM     62  F   UNL A   1      40.155  34.138  34.919  1.00  0.00    -0.206 F 
ATOM     63  C   UNL A   1      38.191  33.732  37.934  1.00  0.00     0.006 A 
ENDBRANCH  42  56
BRANCH  43  64
ATOM     64  C   UNL A   1      41.794  27.146  27.551  1.00  0.00     0.057 A 
ATOM     65  C   UNL A   1      41.467  25.801  27.344  1.00  0.00     0.134 A 
ATOM     66  C   UNL A   1      42.578  27.776  26.576  1.00  0.00     0.134 A 
ATOM     67  F   UNL A   1      40.738  25.135  28.251  1.00  0.00    -0.206 F 
ATOM     68  C   UNL A   1      41.921  25.102  26.223  1.00  0.00     0.040 A 
ATOM     69  C   UNL A   1      43.013  27.098  25.436  1.00  0.00     0.040 A 
ATOM     70  F   UNL A   1      42.924  29.064  26.712  1.00  0.00    -0.206 F 
ATOM     71  C   UNL A   1      42.691  25.753  25.262  1.00  0.00     0.006 A 
ENDBRANCH  43  64
BRANCH  55  72
ATOM     72  C   UNL A   1      44.290  27.588  34.044  1.00  0.00     0.057 A 
ATOM     73  C   UNL A   1      45.547  28.198  34.129  1.00  0.00     0.134 A 
ATOM     74  C   UNL A   1      44.137  26.340  34.665  1.00  0.00     0.134 A 
ATOM     75  F   UNL A   1      45.767  29.388  33.548  1.00  0.00    -0.206 F 
ATOM     76  C   UNL A   1      46.617  27.581  34.781  1.00  0.00     0.040 A 
ATOM     77  C   UNL A   1      45.189  25.729  35.348  1.00  0.00     0.040 A 
ATOM     78  F   UNL A   1      42.957  25.703  34.633  1.00  0.00    -0.206 F 
ATOM     79  C   UNL A   1      46.436  26.345  35.399  1.00  0.00     0.006 A 
ENDBRANCH  55  72
ENDBRANCH  29  30
ENDBRANCH  22  24
ENDBRANCH  21  22
ENDBRANCH  20  21
ENDBRANCH  19  20
ENDBRANCH  18  19
ENDBRANCH   1  18
TORSDOF 19
ENDMDL
