MODEL 1
REMARK VINA RESULT:     -10.2      0.000      0.000
REMARK SMILES CC1=C(CC(=O)OCCOCCOC(=O)c2ccc(-c3c4nc(c(-c5c(F)cccc5F)c5ccc([nH]5)c(-c5c(F)cccc5F)c5nc(c(-c6c(F)cccc6F)c6ccc3[nH]6)C=C5)C=C4)cc2)c2cc(F)ccc2/C1=C\c1ccc([S@@+](C)[O-])cc1
REMARK SMILES IDX 9 1 8 2 7 3 5 4 6 5 4 6 3 7 1 8 2 9 77 10 70 11 76 12 78 13
REMARK SMILES IDX 71 14 75 15 72 16 74 17 73 18 79 19 80 20 87 21 81 22 86 23
REMARK SMILES IDX 82 24 83 25 84 26 85 27 10 28 11 29 12 30 13 31 14 32 15 33
REMARK SMILES IDX 16 34 17 35 69 36 18 37 68 38 19 39 20 40 21 41 62 42 22 43
REMARK SMILES IDX 67 44 61 45 63 46 23 47 66 48 60 49 59 50 24 52 50 53 33 54
REMARK SMILES IDX 49 55 34 56 37 57 48 58 64 59 35 60 36 61 47 63 65 64 38 65
REMARK SMILES IDX 25 66 26 67 31 68 27 69 28 70 30 71 32 72 29 73 51 74 52 75
REMARK SMILES IDX 57 76 53 77 54 78 56 79 58 80 55 81 39 82 40 83 45 84 41 85
REMARK SMILES IDX 42 86 44 87 46 88 43 89
REMARK H PARENT 63 51 37 62
REMARK Flexibility Score: inf
ROOT
ATOM      1  C   UNL A   1      33.424  36.704  32.448  1.00  0.00     0.202 C 
ENDROOT
BRANCH   1   2
ATOM      2  C   UNL A   1      32.815  35.798  31.368  1.00  0.00     0.261 C 
BRANCH   2   3
ATOM      3  O   UNL A   1      33.627  35.637  30.186  1.00  0.00    -0.463 OA
BRANCH   3   4
ATOM      4  C   UNL A   1      34.228  34.421  30.061  1.00  0.00     0.310 C 
ATOM      5  O   UNL A   1      34.029  33.473  30.817  1.00  0.00    -0.252 OA
BRANCH   4   6
ATOM      6  C   UNL A   1      35.179  34.274  28.874  1.00  0.00     0.159 C 
BRANCH   6   7
ATOM      7  C   UNL A   1      35.938  33.002  28.662  1.00  0.00    -0.025 C 
ATOM      8  C   UNL A   1      38.130  33.552  29.836  1.00  0.00     0.045 C 
ATOM      9  C   UNL A   1      37.186  32.680  29.076  1.00  0.00    -0.039 C 
ATOM     10  C   UNL A   1      37.491  31.281  28.724  1.00  0.00    -0.014 C 
ATOM     11  C   UNL A   1      35.330  31.779  28.107  1.00  0.00    -0.011 A 
ATOM     12  C   UNL A   1      36.273  30.734  28.090  1.00  0.00    -0.010 A 
ATOM     13  C   UNL A   1      38.661  30.661  28.985  1.00  0.00     0.017 C 
ATOM     14  C   UNL A   1      34.028  31.556  27.676  1.00  0.00     0.048 A 
ATOM     15  C   UNL A   1      35.934  29.489  27.574  1.00  0.00     0.012 A 
ATOM     16  C   UNL A   1      33.708  30.308  27.144  1.00  0.00     0.123 A 
ATOM     17  C   UNL A   1      34.649  29.284  27.070  1.00  0.00     0.040 A 
ATOM     18  F   UNL A   1      32.480  30.103  26.647  1.00  0.00    -0.207 F 
BRANCH  13  19
ATOM     19  C   UNL A   1      38.970  29.264  28.662  1.00  0.00    -0.025 A 
ATOM     20  C   UNL A   1      38.736  28.252  29.600  1.00  0.00     0.013 A 
ATOM     21  C   UNL A   1      39.628  28.955  27.469  1.00  0.00     0.013 A 
ATOM     22  C   UNL A   1      39.278  26.975  29.409  1.00  0.00     0.061 A 
ATOM     23  C   UNL A   1      40.147  27.672  27.268  1.00  0.00     0.061 A 
ATOM     24  C   UNL A   1      40.018  26.687  28.256  1.00  0.00     0.152 A 
BRANCH  24  25
ATOM     25  S   UNL A   1      40.980  25.159  28.119  1.00  0.00    -0.018 S 
ATOM     26  C   UNL A   1      39.744  24.065  27.397  1.00  0.00     0.346 C 
ATOM     27  O   UNL A   1      42.096  25.409  27.043  1.00  0.00    -0.612 OA
ENDBRANCH  24  25
ENDBRANCH  13  19
ENDBRANCH   6   7
ENDBRANCH   4   6
ENDBRANCH   3   4
ENDBRANCH   2   3
ENDBRANCH   1   2
BRANCH   1  28
ATOM     28  O   UNL A   1      34.780  36.493  32.825  1.00  0.00    -0.374 OA
BRANCH  28  29
ATOM     29  C   UNL A   1      35.099  35.289  33.517  1.00  0.00     0.202 C 
BRANCH  29  30
ATOM     30  C   UNL A   1      36.437  34.611  33.199  1.00  0.00     0.261 C 
BRANCH  30  31
ATOM     31  O   UNL A   1      36.401  33.185  33.286  1.00  0.00    -0.460 OA
BRANCH  31  32
ATOM     32  C   UNL A   1      37.080  32.679  34.339  1.00  0.00     0.338 C 
ATOM     33  O   UNL A   1      36.770  32.710  35.522  1.00  0.00    -0.246 OA
BRANCH  32  34
ATOM     34  C   UNL A   1      38.226  31.913  33.842  1.00  0.00     0.060 A 
ATOM     35  C   UNL A   1      38.069  30.956  32.839  1.00  0.00     0.016 A 
ATOM     36  C   UNL A   1      39.488  32.215  34.366  1.00  0.00     0.016 A 
ATOM     37  C   UNL A   1      39.199  30.322  32.327  1.00  0.00     0.010 A 
ATOM     38  C   UNL A   1      40.615  31.588  33.850  1.00  0.00     0.010 A 
ATOM     39  C   UNL A   1      40.479  30.657  32.809  1.00  0.00    -0.014 A 
BRANCH  39  40
ATOM     40  C   UNL A   1      41.688  30.141  32.132  1.00  0.00     0.031 A 
ATOM     41  C   UNL A   1      42.353  28.881  32.586  1.00  0.00     0.074 A 
ATOM     42  C   UNL A   1      42.204  30.870  31.125  1.00  0.00     0.049 A 
ATOM     43  N   UNL A   1      43.396  28.273  32.081  1.00  0.00    -0.248 NA
ATOM     44  C   UNL A   1      41.781  28.222  33.769  1.00  0.00     0.031 C 
ATOM     45  C   UNL A   1      41.659  32.140  30.639  1.00  0.00     0.029 A 
ATOM     46  N   UNL A   1      43.296  30.648  30.329  1.00  0.00    -0.354 N 
ATOM     47  C   UNL A   1      43.605  27.156  32.877  1.00  0.00     0.074 A 
ATOM     48  C   UNL A   1      42.609  27.199  33.929  1.00  0.00     0.031 C 
ATOM     49  C   UNL A   1      42.395  32.563  29.600  1.00  0.00     0.029 A 
ATOM     50  C   UNL A   1      43.481  31.618  29.374  1.00  0.00     0.049 A 
ATOM     51  H   UNL A   1      43.891  29.871  30.430  1.00  0.00     0.167 HD
ATOM     52  C   UNL A   1      44.536  26.181  32.733  1.00  0.00     0.037 A 
ATOM     53  C   UNL A   1      44.423  31.726  28.422  1.00  0.00     0.037 A 
ATOM     54  C   UNL A   1      45.541  26.173  31.699  1.00  0.00     0.049 A 
ATOM     55  C   UNL A   1      45.475  30.657  28.323  1.00  0.00     0.074 A 
ATOM     56  C   UNL A   1      46.505  25.216  31.436  1.00  0.00     0.029 A 
ATOM     57  N   UNL A   1      45.728  27.190  30.771  1.00  0.00    -0.354 N 
ATOM     58  N   UNL A   1      45.609  29.555  29.022  1.00  0.00    -0.248 NA
ATOM     59  C   UNL A   1      46.506  30.850  27.296  1.00  0.00     0.031 C 
ATOM     60  C   UNL A   1      47.312  25.681  30.389  1.00  0.00     0.029 A 
ATOM     61  C   UNL A   1      46.812  26.899  29.957  1.00  0.00     0.049 A 
ATOM     62  H   UNL A   1      45.170  27.998  30.700  1.00  0.00     0.167 HD
ATOM     63  C   UNL A   1      46.719  28.907  28.499  1.00  0.00     0.074 A 
ATOM     64  C   UNL A   1      47.204  29.731  27.409  1.00  0.00     0.031 C 
ATOM     65  C   UNL A   1      47.288  27.737  28.883  1.00  0.00     0.037 A 
BRANCH  52  66
ATOM     66  C   UNL A   1      44.518  25.062  33.737  1.00  0.00     0.057 A 
ATOM     67  C   UNL A   1      44.987  25.260  35.041  1.00  0.00     0.134 A 
ATOM     68  C   UNL A   1      44.038  23.785  33.415  1.00  0.00     0.134 A 
ATOM     69  F   UNL A   1      45.470  26.454  35.418  1.00  0.00    -0.206 F 
ATOM     70  C   UNL A   1      44.971  24.235  35.989  1.00  0.00     0.040 A 
ATOM     71  C   UNL A   1      43.987  22.760  34.363  1.00  0.00     0.040 A 
ATOM     72  F   UNL A   1      43.563  23.526  32.186  1.00  0.00    -0.206 F 
ATOM     73  C   UNL A   1      44.458  22.984  35.654  1.00  0.00     0.006 A 
ENDBRANCH  52  66
BRANCH  53  74
ATOM     74  C   UNL A   1      44.403  32.861  27.466  1.00  0.00     0.057 A 
ATOM     75  C   UNL A   1      44.918  34.117  27.802  1.00  0.00     0.134 A 
ATOM     76  C   UNL A   1      43.886  32.698  26.175  1.00  0.00     0.134 A 
ATOM     77  F   UNL A   1      45.416  34.341  29.027  1.00  0.00    -0.206 F 
ATOM     78  C   UNL A   1      44.925  35.171  26.886  1.00  0.00     0.040 A 
ATOM     79  C   UNL A   1      43.913  33.734  25.241  1.00  0.00     0.040 A 
ATOM     80  F   UNL A   1      43.390  31.513  25.791  1.00  0.00    -0.206 F 
ATOM     81  C   UNL A   1      44.433  34.976  25.597  1.00  0.00     0.006 A 
ENDBRANCH  53  74
BRANCH  65  82
ATOM     82  C   UNL A   1      48.476  27.275  28.086  1.00  0.00     0.057 A 
ATOM     83  C   UNL A   1      49.776  27.615  28.484  1.00  0.00     0.134 A 
ATOM     84  C   UNL A   1      48.339  26.478  26.941  1.00  0.00     0.134 A 
ATOM     85  F   UNL A   1      49.980  28.382  29.565  1.00  0.00    -0.206 F 
ATOM     86  C   UNL A   1      50.894  27.170  27.780  1.00  0.00     0.040 A 
ATOM     87  C   UNL A   1      49.452  25.997  26.249  1.00  0.00     0.040 A 
ATOM     88  F   UNL A   1      47.124  26.102  26.515  1.00  0.00    -0.206 F 
ATOM     89  C   UNL A   1      50.735  26.346  26.667  1.00  0.00     0.006 A 
ENDBRANCH  65  82
ENDBRANCH  39  40
ENDBRANCH  32  34
ENDBRANCH  31  32
ENDBRANCH  30  31
ENDBRANCH  29  30
ENDBRANCH  28  29
ENDBRANCH   1  28
TORSDOF 17
ENDMDL
MODEL 2
REMARK VINA RESULT:     -10.1      4.955      8.684
REMARK SMILES CC1=C(CC(=O)OCCOCCOC(=O)c2ccc(-c3c4nc(c(-c5c(F)cccc5F)c5ccc([nH]5)c(-c5c(F)cccc5F)c5nc(c(-c6c(F)cccc6F)c6ccc3[nH]6)C=C5)C=C4)cc2)c2cc(F)ccc2/C1=C\c1ccc([S@@+](C)[O-])cc1
REMARK SMILES IDX 9 1 8 2 7 3 5 4 6 5 4 6 3 7 1 8 2 9 77 10 70 11 76 12 78 13
REMARK SMILES IDX 71 14 75 15 72 16 74 17 73 18 79 19 80 20 87 21 81 22 86 23
REMARK SMILES IDX 82 24 83 25 84 26 85 27 10 28 11 29 12 30 13 31 14 32 15 33
REMARK SMILES IDX 16 34 17 35 69 36 18 37 68 38 19 39 20 40 21 41 62 42 22 43
REMARK SMILES IDX 67 44 61 45 63 46 23 47 66 48 60 49 59 50 24 52 50 53 33 54
REMARK SMILES IDX 49 55 34 56 37 57 48 58 64 59 35 60 36 61 47 63 65 64 38 65
REMARK SMILES IDX 25 66 26 67 31 68 27 69 28 70 30 71 32 72 29 73 51 74 52 75
REMARK SMILES IDX 57 76 53 77 54 78 56 79 58 80 55 81 39 82 40 83 45 84 41 85
REMARK SMILES IDX 42 86 44 87 46 88 43 89
REMARK H PARENT 63 51 37 62
REMARK Flexibility Score: inf
ROOT
ATOM      1  C   UNL A   1      31.614  29.283  25.095  1.00  0.00     0.202 C 
ENDROOT
BRANCH   1   2
ATOM      2  C   UNL A   1      33.011  28.885  24.595  1.00  0.00     0.261 C 
BRANCH   2   3
ATOM      3  O   UNL A   1      33.785  28.103  25.529  1.00  0.00    -0.463 OA
BRANCH   3   4
ATOM      4  C   UNL A   1      33.428  26.791  25.616  1.00  0.00     0.310 C 
ATOM      5  O   UNL A   1      32.684  26.335  26.482  1.00  0.00    -0.252 OA
BRANCH   4   6
ATOM      6  C   UNL A   1      33.993  25.880  24.528  1.00  0.00     0.159 C 
BRANCH   6   7
ATOM      7  C   UNL A   1      33.792  24.399  24.598  1.00  0.00    -0.025 C 
ATOM      8  C   UNL A   1      31.382  24.205  23.799  1.00  0.00     0.045 C 
ATOM      9  C   UNL A   1      32.692  23.676  24.280  1.00  0.00    -0.039 C 
ATOM     10  C   UNL A   1      32.978  22.235  24.413  1.00  0.00    -0.014 C 
ATOM     11  C   UNL A   1      34.886  23.444  24.855  1.00  0.00    -0.011 A 
ATOM     12  C   UNL A   1      34.400  22.124  24.796  1.00  0.00    -0.010 A 
ATOM     13  C   UNL A   1      32.084  21.251  24.182  1.00  0.00     0.017 C 
ATOM     14  C   UNL A   1      36.235  23.686  25.088  1.00  0.00     0.048 A 
ATOM     15  C   UNL A   1      35.249  21.051  25.043  1.00  0.00     0.012 A 
ATOM     16  C   UNL A   1      37.069  22.602  25.351  1.00  0.00     0.123 A 
ATOM     17  C   UNL A   1      36.588  21.294  25.352  1.00  0.00     0.040 A 
ATOM     18  F   UNL A   1      38.354  22.824  25.661  1.00  0.00    -0.207 F 
BRANCH  13  19
ATOM     19  C   UNL A   1      32.359  19.814  24.287  1.00  0.00    -0.025 A 
ATOM     20  C   UNL A   1      32.524  19.215  25.540  1.00  0.00     0.013 A 
ATOM     21  C   UNL A   1      32.594  19.065  23.131  1.00  0.00     0.013 A 
ATOM     22  C   UNL A   1      33.053  17.922  25.639  1.00  0.00     0.061 A 
ATOM     23  C   UNL A   1      33.100  17.764  23.231  1.00  0.00     0.061 A 
ATOM     24  C   UNL A   1      33.378  17.201  24.484  1.00  0.00     0.152 A 
BRANCH  24  25
ATOM     25  S   UNL A   1      34.339  15.669  24.576  1.00  0.00    -0.018 S 
ATOM     26  C   UNL A   1      35.717  16.215  25.600  1.00  0.00     0.346 C 
ATOM     27  O   UNL A   1      33.491  14.641  25.408  1.00  0.00    -0.612 OA
ENDBRANCH  24  25
ENDBRANCH  13  19
ENDBRANCH   6   7
ENDBRANCH   4   6
ENDBRANCH   3   4
ENDBRANCH   2   3
ENDBRANCH   1   2
BRANCH   1  28
ATOM     28  O   UNL A   1      31.407  30.619  25.538  1.00  0.00    -0.374 OA
BRANCH  28  29
ATOM     29  C   UNL A   1      32.173  31.080  26.648  1.00  0.00     0.202 C 
BRANCH  29  30
ATOM     30  C   UNL A   1      31.970  32.528  27.109  1.00  0.00     0.261 C 
BRANCH  30  31
ATOM     31  O   UNL A   1      33.165  33.312  27.106  1.00  0.00    -0.460 OA
BRANCH  31  32
ATOM     32  C   UNL A   1      33.316  34.092  28.199  1.00  0.00     0.338 C 
ATOM     33  O   UNL A   1      32.586  34.991  28.591  1.00  0.00    -0.246 OA
BRANCH  32  34
ATOM     34  C   UNL A   1      34.452  33.597  28.983  1.00  0.00     0.060 A 
ATOM     35  C   UNL A   1      34.266  32.665  30.006  1.00  0.00     0.016 A 
ATOM     36  C   UNL A   1      35.730  34.046  28.633  1.00  0.00     0.016 A 
ATOM     37  C   UNL A   1      35.383  32.148  30.658  1.00  0.00     0.010 A 
ATOM     38  C   UNL A   1      36.843  33.525  29.280  1.00  0.00     0.010 A 
ATOM     39  C   UNL A   1      36.677  32.553  30.278  1.00  0.00    -0.014 A 
BRANCH  39  40
ATOM     40  C   UNL A   1      37.864  31.861  30.823  1.00  0.00     0.031 A 
ATOM     41  C   UNL A   1      38.446  32.243  32.147  1.00  0.00     0.074 A 
ATOM     42  C   UNL A   1      38.439  30.907  30.067  1.00  0.00     0.049 A 
ATOM     43  N   UNL A   1      39.459  31.714  32.784  1.00  0.00    -0.248 NA
ATOM     44  C   UNL A   1      37.817  33.375  32.842  1.00  0.00     0.031 C 
ATOM     45  C   UNL A   1      37.978  30.495  28.739  1.00  0.00     0.029 A 
ATOM     46  N   UNL A   1      39.529  30.113  30.304  1.00  0.00    -0.354 N 
ATOM     47  C   UNL A   1      39.588  32.441  33.959  1.00  0.00     0.074 A 
ATOM     48  C   UNL A   1      38.579  33.481  33.921  1.00  0.00     0.031 C 
ATOM     49  C   UNL A   1      38.754  29.494  28.297  1.00  0.00     0.029 A 
ATOM     50  C   UNL A   1      39.787  29.223  29.290  1.00  0.00     0.049 A 
ATOM     51  H   UNL A   1      40.074  30.173  31.121  1.00  0.00     0.167 HD
ATOM     52  C   UNL A   1      40.461  32.248  34.978  1.00  0.00     0.037 A 
ATOM     53  C   UNL A   1      40.749  28.291  29.181  1.00  0.00     0.037 A 
ATOM     54  C   UNL A   1      41.481  31.228  34.982  1.00  0.00     0.049 A 
ATOM     55  C   UNL A   1      41.736  28.139  30.303  1.00  0.00     0.074 A 
ATOM     56  C   UNL A   1      42.391  30.918  35.978  1.00  0.00     0.029 A 
ATOM     57  N   UNL A   1      41.743  30.368  33.923  1.00  0.00    -0.354 N 
ATOM     58  N   UNL A   1      41.793  28.769  31.452  1.00  0.00    -0.248 NA
ATOM     59  C   UNL A   1      42.794  27.139  30.109  1.00  0.00     0.031 C 
ATOM     60  C   UNL A   1      43.240  29.913  35.499  1.00  0.00     0.029 A 
ATOM     61  C   UNL A   1      42.821  29.552  34.228  1.00  0.00     0.049 A 
ATOM     62  H   UNL A   1      41.235  30.341  33.080  1.00  0.00     0.167 HD
ATOM     63  C   UNL A   1      42.872  28.221  32.133  1.00  0.00     0.074 A 
ATOM     64  C   UNL A   1      43.422  27.190  31.274  1.00  0.00     0.031 C 
ATOM     65  C   UNL A   1      43.363  28.538  33.356  1.00  0.00     0.037 A 
BRANCH  52  66
ATOM     66  C   UNL A   1      40.361  33.180  36.154  1.00  0.00     0.057 A 
ATOM     67  C   UNL A   1      39.482  32.909  37.210  1.00  0.00     0.134 A 
ATOM     68  C   UNL A   1      41.132  34.346  36.243  1.00  0.00     0.134 A 
ATOM     69  F   UNL A   1      38.706  31.815  37.188  1.00  0.00    -0.206 F 
ATOM     70  C   UNL A   1      39.381  33.758  38.315  1.00  0.00     0.040 A 
ATOM     71  C   UNL A   1      41.064  35.187  37.357  1.00  0.00     0.040 A 
ATOM     72  F   UNL A   1      42.004  34.663  35.272  1.00  0.00    -0.206 F 
ATOM     73  C   UNL A   1      40.184  34.894  38.395  1.00  0.00     0.006 A 
ENDBRANCH  52  66
BRANCH  53  74
ATOM     74  C   UNL A   1      40.811  27.408  27.990  1.00  0.00     0.057 A 
ATOM     75  C   UNL A   1      41.612  27.715  26.885  1.00  0.00     0.134 A 
ATOM     76  C   UNL A   1      40.083  26.213  27.948  1.00  0.00     0.134 A 
ATOM     77  F   UNL A   1      42.325  28.852  26.858  1.00  0.00    -0.206 F 
ATOM     78  C   UNL A   1      41.691  26.863  25.782  1.00  0.00     0.040 A 
ATOM     79  C   UNL A   1      40.175  25.338  26.865  1.00  0.00     0.040 A 
ATOM     80  F   UNL A   1      39.307  25.858  28.983  1.00  0.00    -0.206 F 
ATOM     81  C   UNL A   1      40.981  25.665  25.776  1.00  0.00     0.006 A 
ENDBRANCH  53  74
BRANCH  65  82
ATOM     82  C   UNL A   1      44.535  27.729  33.838  1.00  0.00     0.057 A 
ATOM     83  C   UNL A   1      44.334  26.518  34.513  1.00  0.00     0.134 A 
ATOM     84  C   UNL A   1      45.859  28.133  33.618  1.00  0.00     0.134 A 
ATOM     85  F   UNL A   1      43.093  26.075  34.766  1.00  0.00    -0.206 F 
ATOM     86  C   UNL A   1      45.405  25.734  34.941  1.00  0.00     0.040 A 
ATOM     87  C   UNL A   1      46.939  27.338  34.009  1.00  0.00     0.040 A 
ATOM     88  F   UNL A   1      46.123  29.273  32.962  1.00  0.00    -0.206 F 
ATOM     89  C   UNL A   1      46.713  26.136  34.676  1.00  0.00     0.006 A 
ENDBRANCH  65  82
ENDBRANCH  39  40
ENDBRANCH  32  34
ENDBRANCH  31  32
ENDBRANCH  30  31
ENDBRANCH  29  30
ENDBRANCH  28  29
ENDBRANCH   1  28
TORSDOF 17
ENDMDL
MODEL 3
REMARK VINA RESULT:     -10.1      4.989      9.073
REMARK SMILES CC1=C(CC(=O)OCCOCCOC(=O)c2ccc(-c3c4nc(c(-c5c(F)cccc5F)c5ccc([nH]5)c(-c5c(F)cccc5F)c5nc(c(-c6c(F)cccc6F)c6ccc3[nH]6)C=C5)C=C4)cc2)c2cc(F)ccc2/C1=C\c1ccc([S@@+](C)[O-])cc1
REMARK SMILES IDX 9 1 8 2 7 3 5 4 6 5 4 6 3 7 1 8 2 9 77 10 70 11 76 12 78 13
REMARK SMILES IDX 71 14 75 15 72 16 74 17 73 18 79 19 80 20 87 21 81 22 86 23
REMARK SMILES IDX 82 24 83 25 84 26 85 27 10 28 11 29 12 30 13 31 14 32 15 33
REMARK SMILES IDX 16 34 17 35 69 36 18 37 68 38 19 39 20 40 21 41 62 42 22 43
REMARK SMILES IDX 67 44 61 45 63 46 23 47 66 48 60 49 59 50 24 52 50 53 33 54
REMARK SMILES IDX 49 55 34 56 37 57 48 58 64 59 35 60 36 61 47 63 65 64 38 65
REMARK SMILES IDX 25 66 26 67 31 68 27 69 28 70 30 71 32 72 29 73 51 74 52 75
REMARK SMILES IDX 57 76 53 77 54 78 56 79 58 80 55 81 39 82 40 83 45 84 41 85
REMARK SMILES IDX 42 86 44 87 46 88 43 89
REMARK H PARENT 63 51 37 62
REMARK Flexibility Score: inf
ROOT
ATOM      1  C   UNL A   1      31.549  29.981  25.491  1.00  0.00     0.202 C 
ENDROOT
BRANCH   1   2
ATOM      2  C   UNL A   1      31.652  28.449  25.521  1.00  0.00     0.261 C 
BRANCH   2   3
ATOM      3  O   UNL A   1      32.769  27.905  24.786  1.00  0.00    -0.463 OA
BRANCH   3   4
ATOM      4  C   UNL A   1      33.275  26.743  25.285  1.00  0.00     0.310 C 
ATOM      5  O   UNL A   1      33.210  26.414  26.467  1.00  0.00    -0.252 OA
BRANCH   4   6
ATOM      6  C   UNL A   1      33.930  25.816  24.262  1.00  0.00     0.159 C 
BRANCH   6   7
ATOM      7  C   UNL A   1      33.759  24.333  24.363  1.00  0.00    -0.025 C 
ATOM      8  C   UNL A   1      31.407  24.058  23.427  1.00  0.00     0.045 C 
ATOM      9  C   UNL A   1      32.697  23.575  24.001  1.00  0.00    -0.039 C 
ATOM     10  C   UNL A   1      33.008  22.146  24.191  1.00  0.00    -0.014 C 
ATOM     11  C   UNL A   1      34.857  23.413  24.712  1.00  0.00    -0.011 A 
ATOM     12  C   UNL A   1      34.407  22.080  24.662  1.00  0.00    -0.010 A 
ATOM     13  C   UNL A   1      32.152  21.134  23.936  1.00  0.00     0.017 C 
ATOM     14  C   UNL A   1      36.184  23.694  25.017  1.00  0.00     0.048 A 
ATOM     15  C   UNL A   1      35.264  21.036  24.989  1.00  0.00     0.012 A 
ATOM     16  C   UNL A   1      37.026  22.639  25.361  1.00  0.00     0.123 A 
ATOM     17  C   UNL A   1      36.575  21.320  25.370  1.00  0.00     0.040 A 
ATOM     18  F   UNL A   1      38.284  22.901  25.739  1.00  0.00    -0.207 F 
BRANCH  13  19
ATOM     19  C   UNL A   1      32.453  19.708  24.099  1.00  0.00    -0.025 A 
ATOM     20  C   UNL A   1      32.567  19.150  25.377  1.00  0.00     0.013 A 
ATOM     21  C   UNL A   1      32.764  18.931  22.980  1.00  0.00     0.013 A 
ATOM     22  C   UNL A   1      33.119  17.873  25.541  1.00  0.00     0.061 A 
ATOM     23  C   UNL A   1      33.293  17.646  23.144  1.00  0.00     0.061 A 
ATOM     24  C   UNL A   1      33.519  17.127  24.426  1.00  0.00     0.152 A 
BRANCH  24  25
ATOM     25  S   UNL A   1      34.507  15.621  24.613  1.00  0.00    -0.018 S 
ATOM     26  C   UNL A   1      35.775  16.208  25.750  1.00  0.00     0.346 C 
ATOM     27  O   UNL A   1      33.617  14.575  25.375  1.00  0.00    -0.612 OA
ENDBRANCH  24  25
ENDBRANCH  13  19
ENDBRANCH   6   7
ENDBRANCH   4   6
ENDBRANCH   3   4
ENDBRANCH   2   3
ENDBRANCH   1   2
BRANCH   1  28
ATOM     28  O   UNL A   1      32.122  30.721  26.564  1.00  0.00    -0.374 OA
BRANCH  28  29
ATOM     29  C   UNL A   1      31.669  32.055  26.771  1.00  0.00     0.202 C 
BRANCH  29  30
ATOM     30  C   UNL A   1      32.710  33.118  27.143  1.00  0.00     0.261 C 
BRANCH  30  31
ATOM     31  O   UNL A   1      32.268  34.040  28.140  1.00  0.00    -0.460 OA
BRANCH  31  32
ATOM     32  C   UNL A   1      33.248  34.824  28.641  1.00  0.00     0.338 C 
ATOM     33  O   UNL A   1      33.213  36.026  28.865  1.00  0.00    -0.246 OA
BRANCH  32  34
ATOM     34  C   UNL A   1      34.373  33.977  29.046  1.00  0.00     0.060 A 
ATOM     35  C   UNL A   1      35.677  34.275  28.646  1.00  0.00     0.016 A 
ATOM     36  C   UNL A   1      34.103  32.896  29.893  1.00  0.00     0.016 A 
ATOM     37  C   UNL A   1      36.727  33.501  29.134  1.00  0.00     0.010 A 
ATOM     38  C   UNL A   1      35.152  32.129  30.384  1.00  0.00     0.010 A 
ATOM     39  C   UNL A   1      36.472  32.444  30.029  1.00  0.00    -0.014 A 
BRANCH  39  40
ATOM     40  C   UNL A   1      37.591  31.754  30.706  1.00  0.00     0.031 A 
ATOM     41  C   UNL A   1      38.374  30.683  30.015  1.00  0.00     0.074 A 
ATOM     42  C   UNL A   1      37.853  32.085  31.985  1.00  0.00     0.049 A 
ATOM     43  N   UNL A   1      39.406  30.007  30.452  1.00  0.00    -0.248 NA
ATOM     44  C   UNL A   1      37.935  30.314  28.662  1.00  0.00     0.031 C 
ATOM     45  C   UNL A   1      37.114  33.081  32.764  1.00  0.00     0.029 A 
ATOM     46  N   UNL A   1      38.808  31.623  32.851  1.00  0.00    -0.354 N 
ATOM     47  C   UNL A   1      39.747  29.135  29.428  1.00  0.00     0.074 A 
ATOM     48  C   UNL A   1      38.780  29.335  28.367  1.00  0.00     0.031 C 
ATOM     49  C   UNL A   1      37.671  33.186  33.980  1.00  0.00     0.029 A 
ATOM     50  C   UNL A   1      38.776  32.240  34.077  1.00  0.00     0.049 A 
ATOM     51  H   UNL A   1      39.453  30.918  32.618  1.00  0.00     0.167 HD
ATOM     52  C   UNL A   1      40.780  28.259  29.377  1.00  0.00     0.037 A 
ATOM     53  C   UNL A   1      39.557  32.060  35.156  1.00  0.00     0.037 A 
ATOM     54  C   UNL A   1      41.713  28.049  30.457  1.00  0.00     0.049 A 
ATOM     55  C   UNL A   1      40.659  31.041  35.087  1.00  0.00     0.074 A 
ATOM     56  C   UNL A   1      42.818  27.218  30.496  1.00  0.00     0.029 A 
ATOM     57  N   UNL A   1      41.631  28.661  31.701  1.00  0.00    -0.354 N 
ATOM     58  N   UNL A   1      41.033  30.287  34.082  1.00  0.00    -0.248 NA
ATOM     59  C   UNL A   1      41.450  30.853  36.310  1.00  0.00     0.031 C 
ATOM     60  C   UNL A   1      43.369  27.281  31.783  1.00  0.00     0.029 A 
ATOM     61  C   UNL A   1      42.645  28.199  32.527  1.00  0.00     0.049 A 
ATOM     62  H   UNL A   1      40.953  29.326  31.959  1.00  0.00     0.167 HD
ATOM     63  C   UNL A   1      42.123  29.558  34.538  1.00  0.00     0.074 A 
ATOM     64  C   UNL A   1      42.361  29.982  35.904  1.00  0.00     0.031 C 
ATOM     65  C   UNL A   1      42.860  28.624  33.889  1.00  0.00     0.037 A 
BRANCH  52  66
ATOM     66  C   UNL A   1      40.930  27.448  28.120  1.00  0.00     0.057 A 
ATOM     67  C   UNL A   1      40.293  26.208  27.986  1.00  0.00     0.134 A 
ATOM     68  C   UNL A   1      41.707  27.891  27.040  1.00  0.00     0.134 A 
ATOM     69  F   UNL A   1      39.541  25.716  28.982  1.00  0.00    -0.206 F 
ATOM     70  C   UNL A   1      40.414  25.444  26.823  1.00  0.00     0.040 A 
ATOM     71  C   UNL A   1      41.810  27.151  25.859  1.00  0.00     0.040 A 
ATOM     72  F   UNL A   1      42.337  29.075  27.095  1.00  0.00    -0.206 F 
ATOM     73  C   UNL A   1      41.164  25.922  25.751  1.00  0.00     0.006 A 
ENDBRANCH  52  66
BRANCH  53  74
ATOM     74  C   UNL A   1      39.355  32.878  36.377  1.00  0.00     0.057 A 
ATOM     75  C   UNL A   1      38.484  32.478  37.397  1.00  0.00     0.134 A 
ATOM     76  C   UNL A   1      40.059  34.074  36.561  1.00  0.00     0.134 A 
ATOM     77  F   UNL A   1      37.771  31.348  37.277  1.00  0.00    -0.206 F 
ATOM     78  C   UNL A   1      38.324  33.237  38.558  1.00  0.00     0.040 A 
ATOM     79  C   UNL A   1      39.930  34.827  37.729  1.00  0.00     0.040 A 
ATOM     80  F   UNL A   1      40.917  34.503  35.624  1.00  0.00    -0.206 F 
ATOM     81  C   UNL A   1      39.058  34.408  38.731  1.00  0.00     0.006 A 
ENDBRANCH  53  74
BRANCH  65  82
ATOM     82  C   UNL A   1      44.013  28.032  34.650  1.00  0.00     0.057 A 
ATOM     83  C   UNL A   1      43.851  26.847  35.381  1.00  0.00     0.134 A 
ATOM     84  C   UNL A   1      45.287  28.617  34.645  1.00  0.00     0.134 A 
ATOM     85  F   UNL A   1      42.657  26.239  35.437  1.00  0.00    -0.206 F 
ATOM     86  C   UNL A   1      44.914  26.262  36.068  1.00  0.00     0.040 A 
ATOM     87  C   UNL A   1      46.368  28.020  35.298  1.00  0.00     0.040 A 
ATOM     88  F   UNL A   1      45.516  29.742  33.951  1.00  0.00    -0.206 F 
ATOM     89  C   UNL A   1      46.181  26.840  36.015  1.00  0.00     0.006 A 
ENDBRANCH  65  82
ENDBRANCH  39  40
ENDBRANCH  32  34
ENDBRANCH  31  32
ENDBRANCH  30  31
ENDBRANCH  29  30
ENDBRANCH  28  29
ENDBRANCH   1  28
TORSDOF 17
ENDMDL
