MODEL 1
REMARK VINA RESULT:      -9.9      0.000      0.000
REMARK SMILES O=C(N[C@@H](CS)C(=O)N[C@@H](CO)C(=O)OCCOCCOC(=O)c1ccc(-c2c3nc(c(-c4c(F)cccc4F)c4ccc([nH]4)c(-c4c(F)cccc4F)c4nc(c(-c5c(F)cccc5F)c5ccc2[nH]5)C=C4)C=C3)cc1)c1ccc(F)cc1
REMARK SMILES IDX 17 1 16 2 15 3 13 4 14 5 10 6 9 7 7 8 8 9 4 11 3 12 1 13
REMARK SMILES IDX 2 14 78 16 79 17 84 18 80 19 83 20 81 21 82 22 5 23 6 24
REMARK SMILES IDX 11 26 12 27 18 29 19 30 20 31 21 32 22 33 23 34 24 35 25 36
REMARK SMILES IDX 77 37 26 38 76 39 27 40 28 41 29 42 70 43 30 44 75 45 69 46
REMARK SMILES IDX 71 47 31 48 74 49 68 50 67 51 32 53 58 54 41 55 57 56 42 57
REMARK SMILES IDX 45 58 56 59 72 60 43 61 44 62 55 64 73 65 46 66 33 67 34 68
REMARK SMILES IDX 39 69 35 70 36 71 38 72 40 73 37 74 59 75 60 76 65 77 61 78
REMARK SMILES IDX 62 79 64 80 66 81 63 82 47 83 48 84 53 85 49 86 50 87 52 88
REMARK SMILES IDX 54 89 51 90
REMARK H PARENT 9 10 3 15 6 25 12 28 71 52 45 63
REMARK Flexibility Score: inf
ROOT
ATOM      1  C   UNL A   1      39.452  20.997  25.933  1.00  0.00     0.202 C 
ENDROOT
BRANCH   1   2
ATOM      2  C   UNL A   1      38.617  22.231  25.588  1.00  0.00     0.261 C 
BRANCH   2   3
ATOM      3  O   UNL A   1      37.213  21.929  25.649  1.00  0.00    -0.462 OA
BRANCH   3   4
ATOM      4  C   UNL A   1      36.396  22.823  25.022  1.00  0.00     0.331 C 
ATOM      5  O   UNL A   1      36.781  23.817  24.418  1.00  0.00    -0.250 OA
BRANCH   4   6
ATOM      6  C   UNL A   1      34.910  22.457  25.177  1.00  0.00     0.218 C 
BRANCH   6   7
ATOM      7  N   UNL A   1      34.197  22.301  23.899  1.00  0.00    -0.339 N 
ATOM      8  C   UNL A   1      33.458  23.142  23.135  1.00  0.00     0.244 C 
ATOM      9  O   UNL A   1      33.169  22.733  22.003  1.00  0.00    -0.273 OA
ATOM     10  H   UNL A   1      34.272  21.396  23.518  1.00  0.00     0.164 HD
BRANCH   8  11
ATOM     11  C   UNL A   1      33.062  24.582  23.526  1.00  0.00     0.181 C 
BRANCH  11  12
ATOM     12  N   UNL A   1      33.600  25.639  22.667  1.00  0.00    -0.339 N 
ATOM     13  O   UNL A   1      33.923  27.724  21.910  1.00  0.00    -0.269 OA
ATOM     14  C   UNL A   1      33.571  27.001  22.837  1.00  0.00     0.251 C 
ATOM     15  H   UNL A   1      34.047  25.327  21.847  1.00  0.00     0.164 HD
BRANCH  14  16
ATOM     16  C   UNL A   1      33.080  27.610  24.094  1.00  0.00     0.040 A 
ATOM     17  C   UNL A   1      31.847  28.270  24.162  1.00  0.00     0.017 A 
ATOM     18  C   UNL A   1      33.859  27.462  25.249  1.00  0.00     0.017 A 
ATOM     19  C   UNL A   1      31.438  28.858  25.361  1.00  0.00     0.040 A 
ATOM     20  C   UNL A   1      33.438  28.033  26.451  1.00  0.00     0.040 A 
ATOM     21  C   UNL A   1      32.240  28.740  26.492  1.00  0.00     0.123 A 
ATOM     22  F   UNL A   1      31.847  29.307  27.640  1.00  0.00    -0.207 F 
ENDBRANCH  14  16
ENDBRANCH  11  12
BRANCH  11  23
ATOM     23  C   UNL A   1      31.569  24.736  23.864  1.00  0.00     0.101 C 
BRANCH  23  24
ATOM     24  S   UNL A   1      31.130  24.696  25.628  1.00  0.00    -0.177 SA
ATOM     25  H   UNL A   1      32.112  25.292  26.355  1.00  0.00     0.102 HD
ENDBRANCH  23  24
ENDBRANCH  11  23
ENDBRANCH   8  11
ENDBRANCH   6   7
BRANCH   6  26
ATOM     26  C   UNL A   1      34.824  21.171  26.002  1.00  0.00     0.193 C 
BRANCH  26  27
ATOM     27  O   UNL A   1      35.265  20.043  25.245  1.00  0.00    -0.394 OA
ATOM     28  H   UNL A   1      36.212  19.901  25.399  1.00  0.00     0.210 HD
ENDBRANCH  26  27
ENDBRANCH   6  26
ENDBRANCH   4   6
ENDBRANCH   3   4
ENDBRANCH   2   3
ENDBRANCH   1   2
BRANCH   1  29
ATOM     29  O   UNL A   1      40.672  21.242  26.634  1.00  0.00    -0.374 OA
BRANCH  29  30
ATOM     30  C   UNL A   1      41.862  20.654  26.111  1.00  0.00     0.202 C 
BRANCH  30  31
ATOM     31  C   UNL A   1      43.030  21.606  25.829  1.00  0.00     0.261 C 
BRANCH  31  32
ATOM     32  O   UNL A   1      42.672  22.660  24.919  1.00  0.00    -0.460 OA
BRANCH  32  33
ATOM     33  C   UNL A   1      43.430  23.773  25.030  1.00  0.00     0.338 C 
ATOM     34  O   UNL A   1      44.484  24.021  24.449  1.00  0.00    -0.246 OA
BRANCH  33  35
ATOM     35  C   UNL A   1      42.740  24.786  25.841  1.00  0.00     0.060 A 
ATOM     36  C   UNL A   1      43.366  26.031  25.982  1.00  0.00     0.016 A 
ATOM     37  C   UNL A   1      41.566  24.493  26.537  1.00  0.00     0.016 A 
ATOM     38  C   UNL A   1      42.852  26.971  26.870  1.00  0.00     0.010 A 
ATOM     39  C   UNL A   1      41.057  25.434  27.438  1.00  0.00     0.010 A 
ATOM     40  C   UNL A   1      41.724  26.658  27.638  1.00  0.00    -0.014 A 
BRANCH  40  41
ATOM     41  C   UNL A   1      41.361  27.540  28.772  1.00  0.00     0.031 A 
ATOM     42  C   UNL A   1      42.197  27.493  30.021  1.00  0.00     0.074 A 
ATOM     43  C   UNL A   1      40.340  28.408  28.670  1.00  0.00     0.049 A 
ATOM     44  N   UNL A   1      42.071  28.173  31.133  1.00  0.00    -0.248 NA
ATOM     45  C   UNL A   1      43.331  26.554  30.017  1.00  0.00     0.031 C 
ATOM     46  C   UNL A   1      39.488  28.576  27.496  1.00  0.00     0.029 A 
ATOM     47  N   UNL A   1      39.851  29.314  29.577  1.00  0.00    -0.354 N 
ATOM     48  C   UNL A   1      43.103  27.744  31.956  1.00  0.00     0.074 A 
ATOM     49  C   UNL A   1      43.829  26.724  31.232  1.00  0.00     0.031 C 
ATOM     50  C   UNL A   1      38.572  29.526  27.757  1.00  0.00     0.029 A 
ATOM     51  C   UNL A   1      38.760  30.011  29.122  1.00  0.00     0.049 A 
ATOM     52  H   UNL A   1      40.244  29.450  30.470  1.00  0.00     0.167 HD
ATOM     53  C   UNL A   1      43.424  28.169  33.201  1.00  0.00     0.037 A 
ATOM     54  C   UNL A   1      37.994  30.927  29.746  1.00  0.00     0.037 A 
ATOM     55  C   UNL A   1      42.702  29.184  33.920  1.00  0.00     0.049 A 
ATOM     56  C   UNL A   1      38.331  31.335  31.155  1.00  0.00     0.074 A 
ATOM     57  C   UNL A   1      42.954  29.692  35.182  1.00  0.00     0.029 A 
ATOM     58  N   UNL A   1      41.581  29.842  33.439  1.00  0.00    -0.354 N 
ATOM     59  N   UNL A   1      39.320  30.938  31.918  1.00  0.00    -0.248 NA
ATOM     60  C   UNL A   1      37.444  32.322  31.789  1.00  0.00     0.031 C 
ATOM     61  C   UNL A   1      41.958  30.629  35.482  1.00  0.00     0.029 A 
ATOM     62  C   UNL A   1      41.115  30.737  34.387  1.00  0.00     0.049 A 
ATOM     63  H   UNL A   1      41.177  29.696  32.553  1.00  0.00     0.167 HD
ATOM     64  C   UNL A   1      39.193  31.644  33.108  1.00  0.00     0.074 A 
ATOM     65  C   UNL A   1      38.035  32.502  32.962  1.00  0.00     0.031 C 
ATOM     66  C   UNL A   1      39.965  31.589  34.220  1.00  0.00     0.037 A 
BRANCH  53  67
ATOM     67  C   UNL A   1      44.597  27.516  33.870  1.00  0.00     0.057 A 
ATOM     68  C   UNL A   1      45.891  28.043  33.777  1.00  0.00     0.134 A 
ATOM     69  C   UNL A   1      44.425  26.353  34.633  1.00  0.00     0.134 A 
ATOM     70  F   UNL A   1      46.124  29.144  33.048  1.00  0.00    -0.206 F 
ATOM     71  C   UNL A   1      46.977  27.426  34.401  1.00  0.00     0.040 A 
ATOM     72  C   UNL A   1      45.499  25.741  35.281  1.00  0.00     0.040 A 
ATOM     73  F   UNL A   1      43.212  25.798  34.764  1.00  0.00    -0.206 F 
ATOM     74  C   UNL A   1      46.781  26.274  35.160  1.00  0.00     0.006 A 
ENDBRANCH  53  67
BRANCH  54  75
ATOM     75  C   UNL A   1      36.826  31.518  29.046  1.00  0.00     0.057 A 
ATOM     76  C   UNL A   1      36.852  32.834  28.572  1.00  0.00     0.134 A 
ATOM     77  C   UNL A   1      35.649  30.785  28.853  1.00  0.00     0.134 A 
ATOM     78  F   UNL A   1      37.943  33.594  28.749  1.00  0.00    -0.206 F 
ATOM     79  C   UNL A   1      35.745  33.407  27.944  1.00  0.00     0.040 A 
ATOM     80  C   UNL A   1      34.542  31.337  28.205  1.00  0.00     0.040 A 
ATOM     81  F   UNL A   1      35.561  29.519  29.285  1.00  0.00    -0.206 F 
ATOM     82  C   UNL A   1      34.587  32.655  27.755  1.00  0.00     0.006 A 
ENDBRANCH  54  75
BRANCH  66  83
ATOM     83  C   UNL A   1      39.606  32.505  35.353  1.00  0.00     0.057 A 
ATOM     84  C   UNL A   1      38.758  32.101  36.390  1.00  0.00     0.134 A 
ATOM     85  C   UNL A   1      40.152  33.794  35.426  1.00  0.00     0.134 A 
ATOM     86  F   UNL A   1      38.194  30.884  36.373  1.00  0.00    -0.206 F 
ATOM     87  C   UNL A   1      38.449  32.953  37.452  1.00  0.00     0.040 A 
ATOM     88  C   UNL A   1      39.870  34.646  36.494  1.00  0.00     0.040 A 
ATOM     89  F   UNL A   1      40.979  34.239  34.468  1.00  0.00    -0.206 F 
ATOM     90  C   UNL A   1      39.011  34.228  37.508  1.00  0.00     0.006 A 
ENDBRANCH  66  83
ENDBRANCH  40  41
ENDBRANCH  33  35
ENDBRANCH  32  33
ENDBRANCH  31  32
ENDBRANCH  30  31
ENDBRANCH  29  30
ENDBRANCH   1  29
TORSDOF 22
ENDMDL
MODEL 2
REMARK VINA RESULT:      -9.8      1.879      6.705
REMARK SMILES O=C(N[C@@H](CS)C(=O)N[C@@H](CO)C(=O)OCCOCCOC(=O)c1ccc(-c2c3nc(c(-c4c(F)cccc4F)c4ccc([nH]4)c(-c4c(F)cccc4F)c4nc(c(-c5c(F)cccc5F)c5ccc2[nH]5)C=C4)C=C3)cc1)c1ccc(F)cc1
REMARK SMILES IDX 17 1 16 2 15 3 13 4 14 5 10 6 9 7 7 8 8 9 4 11 3 12 1 13
REMARK SMILES IDX 2 14 78 16 79 17 84 18 80 19 83 20 81 21 82 22 5 23 6 24
REMARK SMILES IDX 11 26 12 27 18 29 19 30 20 31 21 32 22 33 23 34 24 35 25 36
REMARK SMILES IDX 77 37 26 38 76 39 27 40 28 41 29 42 70 43 30 44 75 45 69 46
REMARK SMILES IDX 71 47 31 48 74 49 68 50 67 51 32 53 58 54 41 55 57 56 42 57
REMARK SMILES IDX 45 58 56 59 72 60 43 61 44 62 55 64 73 65 46 66 33 67 34 68
REMARK SMILES IDX 39 69 35 70 36 71 38 72 40 73 37 74 59 75 60 76 65 77 61 78
REMARK SMILES IDX 62 79 64 80 66 81 63 82 47 83 48 84 53 85 49 86 50 87 52 88
REMARK SMILES IDX 54 89 51 90
REMARK H PARENT 9 10 3 15 6 25 12 28 71 52 45 63
REMARK Flexibility Score: inf
ROOT
ATOM      1  C   UNL A   1      36.617  22.017  25.083  1.00  0.00     0.202 C 
ENDROOT
BRANCH   1   2
ATOM      2  C   UNL A   1      35.962  22.678  23.868  1.00  0.00     0.261 C 
BRANCH   2   3
ATOM      3  O   UNL A   1      35.142  23.786  24.273  1.00  0.00    -0.462 OA
BRANCH   3   4
ATOM      4  C   UNL A   1      33.799  23.548  24.274  1.00  0.00     0.331 C 
ATOM      5  O   UNL A   1      33.245  22.679  24.936  1.00  0.00    -0.250 OA
BRANCH   4   6
ATOM      6  C   UNL A   1      33.043  24.490  23.323  1.00  0.00     0.218 C 
BRANCH   6   7
ATOM      7  N   UNL A   1      33.657  25.821  23.185  1.00  0.00    -0.339 N 
ATOM      8  C   UNL A   1      33.177  27.084  23.292  1.00  0.00     0.244 C 
ATOM      9  O   UNL A   1      34.025  27.985  23.315  1.00  0.00    -0.273 OA
ATOM     10  H   UNL A   1      34.617  25.787  22.971  1.00  0.00     0.164 HD
BRANCH   8  11
ATOM     11  C   UNL A   1      31.693  27.457  23.498  1.00  0.00     0.181 C 
BRANCH  11  12
ATOM     12  N   UNL A   1      31.064  26.900  24.696  1.00  0.00    -0.339 N 
ATOM     13  O   UNL A   1      30.816  26.436  26.876  1.00  0.00    -0.269 OA
ATOM     14  C   UNL A   1      31.341  27.141  26.020  1.00  0.00     0.251 C 
ATOM     15  H   UNL A   1      30.337  26.257  24.530  1.00  0.00     0.164 HD
BRANCH  14  16
ATOM     16  C   UNL A   1      32.293  28.199  26.427  1.00  0.00     0.040 A 
ATOM     17  C   UNL A   1      33.656  27.936  26.609  1.00  0.00     0.017 A 
ATOM     18  C   UNL A   1      31.807  29.505  26.573  1.00  0.00     0.017 A 
ATOM     19  C   UNL A   1      34.512  28.957  27.025  1.00  0.00     0.040 A 
ATOM     20  C   UNL A   1      32.670  30.529  26.969  1.00  0.00     0.040 A 
ATOM     21  C   UNL A   1      34.010  30.242  27.207  1.00  0.00     0.123 A 
ATOM     22  F   UNL A   1      34.833  31.219  27.609  1.00  0.00    -0.207 F 
ENDBRANCH  14  16
ENDBRANCH  11  12
BRANCH  11  23
ATOM     23  C   UNL A   1      31.399  28.948  23.260  1.00  0.00     0.101 C 
BRANCH  23  24
ATOM     24  S   UNL A   1      29.747  29.356  22.617  1.00  0.00    -0.177 SA
ATOM     25  H   UNL A   1      29.832  30.441  21.802  1.00  0.00     0.102 HD
ENDBRANCH  23  24
ENDBRANCH  11  23
ENDBRANCH   8  11
ENDBRANCH   6   7
BRANCH   6  26
ATOM     26  C   UNL A   1      32.940  23.801  21.960  1.00  0.00     0.193 C 
BRANCH  26  27
ATOM     27  O   UNL A   1      32.275  22.542  22.068  1.00  0.00    -0.394 OA
ATOM     28  H   UNL A   1      31.718  22.537  22.863  1.00  0.00     0.210 HD
ENDBRANCH  26  27
ENDBRANCH   6  26
ENDBRANCH   4   6
ENDBRANCH   3   4
ENDBRANCH   2   3
ENDBRANCH   1   2
BRANCH   1  29
ATOM     29  O   UNL A   1      37.831  22.613  25.542  1.00  0.00    -0.374 OA
BRANCH  29  30
ATOM     30  C   UNL A   1      38.868  21.738  25.984  1.00  0.00     0.202 C 
BRANCH  30  31
ATOM     31  C   UNL A   1      40.147  22.401  26.508  1.00  0.00     0.261 C 
BRANCH  31  32
ATOM     32  O   UNL A   1      40.186  23.812  26.235  1.00  0.00    -0.460 OA
BRANCH  32  33
ATOM     33  C   UNL A   1      41.265  24.448  26.742  1.00  0.00     0.338 C 
ATOM     34  O   UNL A   1      42.447  24.240  26.481  1.00  0.00    -0.246 OA
BRANCH  33  35
ATOM     35  C   UNL A   1      40.846  25.593  27.564  1.00  0.00     0.060 A 
ATOM     36  C   UNL A   1      41.674  26.722  27.560  1.00  0.00     0.016 A 
ATOM     37  C   UNL A   1      39.732  25.524  28.404  1.00  0.00     0.016 A 
ATOM     38  C   UNL A   1      41.425  27.769  28.442  1.00  0.00     0.010 A 
ATOM     39  C   UNL A   1      39.491  26.572  29.299  1.00  0.00     0.010 A 
ATOM     40  C   UNL A   1      40.362  27.677  29.349  1.00  0.00    -0.014 A 
BRANCH  40  41
ATOM     41  C   UNL A   1      40.283  28.652  30.463  1.00  0.00     0.031 A 
ATOM     42  C   UNL A   1      39.267  29.757  30.386  1.00  0.00     0.074 A 
ATOM     43  C   UNL A   1      41.063  28.520  31.549  1.00  0.00     0.049 A 
ATOM     44  N   UNL A   1      39.017  30.718  31.240  1.00  0.00    -0.248 NA
ATOM     45  C   UNL A   1      38.417  29.784  29.185  1.00  0.00     0.031 C 
ATOM     46  C   UNL A   1      42.051  27.465  31.757  1.00  0.00     0.029 A 
ATOM     47  N   UNL A   1      41.141  29.287  32.684  1.00  0.00    -0.354 N 
ATOM     48  C   UNL A   1      37.986  31.461  30.680  1.00  0.00     0.074 A 
ATOM     49  C   UNL A   1      37.676  30.861  29.400  1.00  0.00     0.031 C 
ATOM     50  C   UNL A   1      42.644  27.654  32.949  1.00  0.00     0.029 A 
ATOM     51  C   UNL A   1      42.094  28.856  33.573  1.00  0.00     0.049 A 
ATOM     52  H   UNL A   1      40.568  30.071  32.846  1.00  0.00     0.167 HD
ATOM     53  C   UNL A   1      37.347  32.539  31.190  1.00  0.00     0.037 A 
ATOM     54  C   UNL A   1      42.486  29.384  34.749  1.00  0.00     0.037 A 
ATOM     55  C   UNL A   1      37.654  33.133  32.463  1.00  0.00     0.049 A 
ATOM     56  C   UNL A   1      41.806  30.623  35.264  1.00  0.00     0.074 A 
ATOM     57  C   UNL A   1      37.057  34.222  33.075  1.00  0.00     0.029 A 
ATOM     58  N   UNL A   1      38.651  32.689  33.318  1.00  0.00    -0.354 N 
ATOM     59  N   UNL A   1      40.818  31.307  34.737  1.00  0.00    -0.248 NA
ATOM     60  C   UNL A   1      42.292  31.164  36.543  1.00  0.00     0.031 C 
ATOM     61  C   UNL A   1      37.722  34.463  34.282  1.00  0.00     0.029 A 
ATOM     62  C   UNL A   1      38.702  33.495  34.443  1.00  0.00     0.049 A 
ATOM     63  H   UNL A   1      39.235  31.915  33.151  1.00  0.00     0.167 HD
ATOM     64  C   UNL A   1      40.548  32.337  35.628  1.00  0.00     0.074 A 
ATOM     65  C   UNL A   1      41.469  32.184  36.736  1.00  0.00     0.031 C 
ATOM     66  C   UNL A   1      39.621  33.322  35.539  1.00  0.00     0.037 A 
BRANCH  53  67
ATOM     67  C   UNL A   1      36.265  33.157  30.355  1.00  0.00     0.057 A 
ATOM     68  C   UNL A   1      36.553  34.009  29.281  1.00  0.00     0.134 A 
ATOM     69  C   UNL A   1      34.917  32.880  30.617  1.00  0.00     0.134 A 
ATOM     70  F   UNL A   1      37.824  34.326  28.988  1.00  0.00    -0.206 F 
ATOM     71  C   UNL A   1      35.540  34.581  28.510  1.00  0.00     0.040 A 
ATOM     72  C   UNL A   1      33.895  33.427  29.839  1.00  0.00     0.040 A 
ATOM     73  F   UNL A   1      34.572  32.072  31.629  1.00  0.00    -0.206 F 
ATOM     74  C   UNL A   1      34.206  34.286  28.786  1.00  0.00     0.006 A 
ENDBRANCH  53  67
BRANCH  54  75
ATOM     75  C   UNL A   1      43.584  28.748  35.519  1.00  0.00     0.057 A 
ATOM     76  C   UNL A   1      44.922  29.081  35.285  1.00  0.00     0.134 A 
ATOM     77  C   UNL A   1      43.321  27.779  36.494  1.00  0.00     0.134 A 
ATOM     78  F   UNL A   1      45.239  29.985  34.346  1.00  0.00    -0.206 F 
ATOM     79  C   UNL A   1      45.962  28.463  35.981  1.00  0.00     0.040 A 
ATOM     80  C   UNL A   1      44.349  27.170  37.215  1.00  0.00     0.040 A 
ATOM     81  F   UNL A   1      42.059  27.416  36.765  1.00  0.00    -0.206 F 
ATOM     82  C   UNL A   1      45.675  27.508  36.954  1.00  0.00     0.006 A 
ENDBRANCH  54  75
BRANCH  66  83
ATOM     83  C   UNL A   1      39.530  34.287  36.684  1.00  0.00     0.057 A 
ATOM     84  C   UNL A   1      40.122  35.554  36.631  1.00  0.00     0.134 A 
ATOM     85  C   UNL A   1      38.804  33.958  37.837  1.00  0.00     0.134 A 
ATOM     86  F   UNL A   1      40.841  35.925  35.562  1.00  0.00    -0.206 F 
ATOM     87  C   UNL A   1      40.012  36.455  37.693  1.00  0.00     0.040 A 
ATOM     88  C   UNL A   1      38.667  34.858  38.894  1.00  0.00     0.040 A 
ATOM     89  F   UNL A   1      38.204  32.763  37.946  1.00  0.00    -0.206 F 
ATOM     90  C   UNL A   1      39.277  36.109  38.826  1.00  0.00     0.006 A 
ENDBRANCH  66  83
ENDBRANCH  40  41
ENDBRANCH  33  35
ENDBRANCH  32  33
ENDBRANCH  31  32
ENDBRANCH  30  31
ENDBRANCH  29  30
ENDBRANCH   1  29
TORSDOF 22
ENDMDL
MODEL 3
REMARK VINA RESULT:      -9.8      3.686      5.622
REMARK SMILES O=C(N[C@@H](CS)C(=O)N[C@@H](CO)C(=O)OCCOCCOC(=O)c1ccc(-c2c3nc(c(-c4c(F)cccc4F)c4ccc([nH]4)c(-c4c(F)cccc4F)c4nc(c(-c5c(F)cccc5F)c5ccc2[nH]5)C=C4)C=C3)cc1)c1ccc(F)cc1
REMARK SMILES IDX 17 1 16 2 15 3 13 4 14 5 10 6 9 7 7 8 8 9 4 11 3 12 1 13
REMARK SMILES IDX 2 14 78 16 79 17 84 18 80 19 83 20 81 21 82 22 5 23 6 24
REMARK SMILES IDX 11 26 12 27 18 29 19 30 20 31 21 32 22 33 23 34 24 35 25 36
REMARK SMILES IDX 77 37 26 38 76 39 27 40 28 41 29 42 70 43 30 44 75 45 69 46
REMARK SMILES IDX 71 47 31 48 74 49 68 50 67 51 32 53 58 54 41 55 57 56 42 57
REMARK SMILES IDX 45 58 56 59 72 60 43 61 44 62 55 64 73 65 46 66 33 67 34 68
REMARK SMILES IDX 39 69 35 70 36 71 38 72 40 73 37 74 59 75 60 76 65 77 61 78
REMARK SMILES IDX 62 79 64 80 66 81 63 82 47 83 48 84 53 85 49 86 50 87 52 88
REMARK SMILES IDX 54 89 51 90
REMARK H PARENT 9 10 3 15 6 25 12 28 71 52 45 63
REMARK Flexibility Score: inf
ROOT
ATOM      1  C   UNL A   1      37.182  21.543  25.397  1.00  0.00     0.202 C 
ENDROOT
BRANCH   1   2
ATOM      2  C   UNL A   1      36.849  23.032  25.524  1.00  0.00     0.261 C 
BRANCH   2   3
ATOM      3  O   UNL A   1      35.568  23.318  24.937  1.00  0.00    -0.462 OA
BRANCH   3   4
ATOM      4  C   UNL A   1      34.494  23.114  25.753  1.00  0.00     0.331 C 
ATOM      5  O   UNL A   1      34.470  23.363  26.952  1.00  0.00    -0.250 OA
BRANCH   4   6
ATOM      6  C   UNL A   1      33.301  22.505  24.997  1.00  0.00     0.218 C 
BRANCH   6   7
ATOM      7  N   UNL A   1      33.428  22.563  23.532  1.00  0.00    -0.339 N 
ATOM      8  C   UNL A   1      33.289  23.559  22.623  1.00  0.00     0.244 C 
ATOM      9  O   UNL A   1      33.671  23.302  21.475  1.00  0.00    -0.273 OA
ATOM     10  H   UNL A   1      33.664  21.698  23.127  1.00  0.00     0.164 HD
BRANCH   8  11
ATOM     11  C   UNL A   1      32.807  24.991  22.940  1.00  0.00     0.181 C 
BRANCH  11  12
ATOM     12  N   UNL A   1      33.540  26.066  22.267  1.00  0.00    -0.339 N 
ATOM     13  O   UNL A   1      34.166  28.169  21.808  1.00  0.00    -0.269 OA
ATOM     14  C   UNL A   1      33.649  27.392  22.605  1.00  0.00     0.251 C 
ATOM     15  H   UNL A   1      34.024  25.798  21.453  1.00  0.00     0.164 HD
BRANCH  14  16
ATOM     16  C   UNL A   1      33.113  27.908  23.885  1.00  0.00     0.040 A 
ATOM     17  C   UNL A   1      33.718  27.609  25.113  1.00  0.00     0.017 A 
ATOM     18  C   UNL A   1      32.004  28.763  23.841  1.00  0.00     0.017 A 
ATOM     19  C   UNL A   1      33.159  28.091  26.298  1.00  0.00     0.040 A 
ATOM     20  C   UNL A   1      31.460  29.260  25.028  1.00  0.00     0.040 A 
ATOM     21  C   UNL A   1      32.032  28.906  26.245  1.00  0.00     0.123 A 
ATOM     22  F   UNL A   1      31.497  29.364  27.384  1.00  0.00    -0.207 F 
ENDBRANCH  14  16
ENDBRANCH  11  12
BRANCH  11  23
ATOM     23  C   UNL A   1      31.277  25.144  22.903  1.00  0.00     0.101 C 
BRANCH  23  24
ATOM     24  S   UNL A   1      30.443  25.355  24.505  1.00  0.00    -0.177 SA
ATOM     25  H   UNL A   1      29.986  26.631  24.614  1.00  0.00     0.102 HD
ENDBRANCH  23  24
ENDBRANCH  11  23
ENDBRANCH   8  11
ENDBRANCH   6   7
BRANCH   6  26
ATOM     26  C   UNL A   1      33.134  21.058  25.466  1.00  0.00     0.193 C 
BRANCH  26  27
ATOM     27  O   UNL A   1      31.770  20.644  25.384  1.00  0.00    -0.394 OA
ATOM     28  H   UNL A   1      31.619  20.192  24.539  1.00  0.00     0.210 HD
ENDBRANCH  26  27
ENDBRANCH   6  26
ENDBRANCH   4   6
ENDBRANCH   3   4
ENDBRANCH   2   3
ENDBRANCH   1   2
BRANCH   1  29
ATOM     29  O   UNL A   1      38.570  21.211  25.385  1.00  0.00    -0.374 OA
BRANCH  29  30
ATOM     30  C   UNL A   1      38.917  19.835  25.240  1.00  0.00     0.202 C 
BRANCH  30  31
ATOM     31  C   UNL A   1      40.028  19.308  26.156  1.00  0.00     0.261 C 
BRANCH  31  32
ATOM     32  O   UNL A   1      41.256  19.067  25.449  1.00  0.00    -0.460 OA
BRANCH  32  33
ATOM     33  C   UNL A   1      42.366  19.476  26.102  1.00  0.00     0.338 C 
ATOM     34  O   UNL A   1      43.421  18.863  26.240  1.00  0.00    -0.246 OA
BRANCH  33  35
ATOM     35  C   UNL A   1      42.229  20.880  26.517  1.00  0.00     0.060 A 
ATOM     36  C   UNL A   1      42.176  21.846  25.503  1.00  0.00     0.016 A 
ATOM     37  C   UNL A   1      42.264  21.255  27.861  1.00  0.00     0.016 A 
ATOM     38  C   UNL A   1      42.217  23.197  25.829  1.00  0.00     0.010 A 
ATOM     39  C   UNL A   1      42.318  22.614  28.186  1.00  0.00     0.010 A 
ATOM     40  C   UNL A   1      42.338  23.587  27.169  1.00  0.00    -0.014 A 
BRANCH  40  41
ATOM     41  C   UNL A   1      42.668  24.998  27.479  1.00  0.00     0.031 A 
ATOM     42  C   UNL A   1      44.026  25.522  27.104  1.00  0.00     0.074 A 
ATOM     43  C   UNL A   1      41.755  25.813  28.033  1.00  0.00     0.049 A 
ATOM     44  N   UNL A   1      44.532  26.718  27.273  1.00  0.00    -0.248 NA
ATOM     45  C   UNL A   1      44.938  24.571  26.446  1.00  0.00     0.031 C 
ATOM     46  C   UNL A   1      40.393  25.432  28.399  1.00  0.00     0.029 A 
ATOM     47  N   UNL A   1      41.842  27.137  28.383  1.00  0.00    -0.354 N 
ATOM     48  C   UNL A   1      45.817  26.661  26.748  1.00  0.00     0.074 A 
ATOM     49  C   UNL A   1      46.026  25.308  26.281  1.00  0.00     0.031 C 
ATOM     50  C   UNL A   1      39.771  26.499  28.930  1.00  0.00     0.029 A 
ATOM     51  C   UNL A   1      40.699  27.628  28.963  1.00  0.00     0.049 A 
ATOM     52  H   UNL A   1      42.647  27.683  28.233  1.00  0.00     0.167 HD
ATOM     53  C   UNL A   1      46.736  27.651  26.652  1.00  0.00     0.037 A 
ATOM     54  C   UNL A   1      40.441  28.846  29.475  1.00  0.00     0.037 A 
ATOM     55  C   UNL A   1      46.526  28.996  27.115  1.00  0.00     0.049 A 
ATOM     56  C   UNL A   1      41.502  29.911  29.419  1.00  0.00     0.074 A 
ATOM     57  C   UNL A   1      47.391  30.075  27.055  1.00  0.00     0.029 A 
ATOM     58  N   UNL A   1      45.367  29.445  27.730  1.00  0.00    -0.354 N 
ATOM     59  N   UNL A   1      42.707  29.854  28.902  1.00  0.00    -0.248 NA
ATOM     60  C   UNL A   1      41.168  31.214  30.014  1.00  0.00     0.031 C 
ATOM     61  C   UNL A   1      46.771  31.166  27.673  1.00  0.00     0.029 A 
ATOM     62  C   UNL A   1      45.502  30.779  28.075  1.00  0.00     0.049 A 
ATOM     63  H   UNL A   1      44.567  28.896  27.896  1.00  0.00     0.167 HD
ATOM     64  C   UNL A   1      43.261  31.114  29.084  1.00  0.00     0.074 A 
ATOM     65  C   UNL A   1      42.258  31.920  29.751  1.00  0.00     0.031 C 
ATOM     66  C   UNL A   1      44.489  31.566  28.731  1.00  0.00     0.037 A 
BRANCH  53  67
ATOM     67  C   UNL A   1      48.061  27.302  26.042  1.00  0.00     0.057 A 
ATOM     68  C   UNL A   1      49.143  26.867  26.818  1.00  0.00     0.134 A 
ATOM     69  C   UNL A   1      48.251  27.385  24.656  1.00  0.00     0.134 A 
ATOM     70  F   UNL A   1      49.030  26.782  28.152  1.00  0.00    -0.206 F 
ATOM     71  C   UNL A   1      50.373  26.547  26.242  1.00  0.00     0.040 A 
ATOM     72  C   UNL A   1      49.469  27.045  24.066  1.00  0.00     0.040 A 
ATOM     73  F   UNL A   1      47.256  27.793  23.856  1.00  0.00    -0.206 F 
ATOM     74  C   UNL A   1      50.536  26.631  24.860  1.00  0.00     0.006 A 
ENDBRANCH  53  67
BRANCH  54  75
ATOM     75  C   UNL A   1      39.122  29.126  30.097  1.00  0.00     0.057 A 
ATOM     76  C   UNL A   1      38.879  28.842  31.445  1.00  0.00     0.134 A 
ATOM     77  C   UNL A   1      38.068  29.667  29.350  1.00  0.00     0.134 A 
ATOM     78  F   UNL A   1      39.842  28.300  32.205  1.00  0.00    -0.206 F 
ATOM     79  C   UNL A   1      37.631  29.071  32.027  1.00  0.00     0.040 A 
ATOM     80  C   UNL A   1      36.822  29.923  29.925  1.00  0.00     0.040 A 
ATOM     81  F   UNL A   1      38.238  29.961  28.053  1.00  0.00    -0.206 F 
ATOM     82  C   UNL A   1      36.600  29.618  31.266  1.00  0.00     0.006 A 
ENDBRANCH  54  75
BRANCH  66  83
ATOM     83  C   UNL A   1      44.804  33.003  29.024  1.00  0.00     0.057 A 
ATOM     84  C   UNL A   1      44.471  34.029  28.133  1.00  0.00     0.134 A 
ATOM     85  C   UNL A   1      45.410  33.367  30.235  1.00  0.00     0.134 A 
ATOM     86  F   UNL A   1      43.901  33.747  26.953  1.00  0.00    -0.206 F 
ATOM     87  C   UNL A   1      44.747  35.367  28.425  1.00  0.00     0.040 A 
ATOM     88  C   UNL A   1      45.669  34.701  30.548  1.00  0.00     0.040 A 
ATOM     89  F   UNL A   1      45.746  32.432  31.136  1.00  0.00    -0.206 F 
ATOM     90  C   UNL A   1      45.343  35.705  29.639  1.00  0.00     0.006 A 
ENDBRANCH  66  83
ENDBRANCH  40  41
ENDBRANCH  33  35
ENDBRANCH  32  33
ENDBRANCH  31  32
ENDBRANCH  30  31
ENDBRANCH  29  30
ENDBRANCH   1  29
TORSDOF 22
ENDMDL
