MODEL 1
REMARK VINA RESULT:     -11.8      0.000      0.000
REMARK SMILES COc1cccc(-c2nn(-c3cc4c(cc3C(N)=O)OCO4)cc2C(=O)OCCOCCOC(=O)c2ccc(-c3c4nc(c(-c5c(F)cccc5F)c5ccc([nH]5)c(-c5c(F)cccc5F)c5nc(c(-c6c(F)cccc6F)c6ccc3[nH]6)C=C5)C=C4)cc2)c1
REMARK SMILES IDX 30 1 29 2 28 3 27 4 25 5 26 6 24 7 8 8 9 9 10 10 23 11 7 12
REMARK SMILES IDX 3 13 4 14 90 15 5 16 6 17 2 18 1 19 11 20 12 21 16 22 13 23
REMARK SMILES IDX 15 24 14 25 22 26 20 27 21 28 17 29 18 30 19 31 31 34 32 35
REMARK SMILES IDX 33 36 34 37 35 38 36 39 37 40 89 41 38 42 88 43 39 44 40 45
REMARK SMILES IDX 41 46 82 47 42 48 87 49 81 50 83 51 43 52 86 53 80 54 79 55
REMARK SMILES IDX 44 57 70 58 53 59 69 60 54 61 57 62 68 63 84 64 55 65 56 66
REMARK SMILES IDX 67 68 85 69 58 70 45 71 46 72 51 73 47 74 48 75 50 76 52 77
REMARK SMILES IDX 49 78 71 79 72 80 77 81 73 82 74 83 76 84 78 85 75 86 59 87
REMARK SMILES IDX 60 88 65 89 61 90 62 91 64 92 66 93 63 94
REMARK H PARENT 18 32 18 33 83 56 57 67
REMARK Flexibility Score: inf
ROOT
ATOM      1  O   UNL A   1      40.544  21.134  26.899  1.00  0.00    -0.374 OA
ENDROOT
BRANCH   1   2
ATOM      2  C   UNL A   1      39.560  22.026  26.376  1.00  0.00     0.202 C 
BRANCH   2   3
ATOM      3  C   UNL A   1      38.426  21.473  25.509  1.00  0.00     0.261 C 
BRANCH   3   4
ATOM      4  O   UNL A   1      37.179  22.142  25.740  1.00  0.00    -0.460 OA
BRANCH   4   5
ATOM      5  C   UNL A   1      36.543  22.593  24.623  1.00  0.00     0.342 C 
ATOM      6  O   UNL A   1      36.926  22.386  23.467  1.00  0.00    -0.246 OA
BRANCH   5   7
ATOM      7  C   UNL A   1      35.297  23.251  24.921  1.00  0.00     0.106 A 
ATOM      8  C   UNL A   1      33.963  22.845  24.632  1.00  0.00     0.107 A 
ATOM      9  N   UNL A   1      33.086  23.821  24.945  1.00  0.00    -0.167 NA
ATOM     10  N   UNL A   1      33.892  24.883  25.210  1.00  0.00    -0.239 N 
ATOM     11  C   UNL A   1      35.148  24.459  25.570  1.00  0.00     0.131 A 
BRANCH   8  12
ATOM     12  C   UNL A   1      33.548  21.527  24.157  1.00  0.00     0.007 A 
ATOM     13  C   UNL A   1      33.480  19.118  24.390  1.00  0.00     0.119 A 
ATOM     14  C   UNL A   1      32.512  19.049  23.384  1.00  0.00     0.046 A 
ATOM     15  C   UNL A   1      33.994  20.358  24.784  1.00  0.00     0.056 A 
ATOM     16  C   UNL A   1      32.071  20.207  22.751  1.00  0.00     0.005 A 
ATOM     17  C   UNL A   1      32.611  21.437  23.118  1.00  0.00     0.011 A 
BRANCH  13  18
ATOM     18  O   UNL A   1      33.893  17.904  24.868  1.00  0.00    -0.497 OA
ATOM     19  C   UNL A   1      34.032  16.876  23.896  1.00  0.00     0.278 C 
ENDBRANCH  13  18
ENDBRANCH   8  12
BRANCH  10  20
ATOM     20  C   UNL A   1      33.441  26.226  25.172  1.00  0.00     0.081 A 
ATOM     21  C   UNL A   1      33.161  26.867  26.396  1.00  0.00     0.079 A 
ATOM     22  C   UNL A   1      33.283  26.924  23.932  1.00  0.00     0.069 A 
ATOM     23  C   UNL A   1      32.812  28.200  26.349  1.00  0.00     0.167 A 
ATOM     24  C   UNL A   1      33.069  28.311  23.956  1.00  0.00     0.066 A 
ATOM     25  C   UNL A   1      32.807  28.904  25.168  1.00  0.00     0.166 A 
ATOM     26  O   UNL A   1      32.424  28.979  27.396  1.00  0.00    -0.454 OA
ATOM     27  O   UNL A   1      32.426  30.200  25.331  1.00  0.00    -0.454 OA
ATOM     28  C   UNL A   1      31.944  30.143  26.688  1.00  0.00     0.468 C 
BRANCH  22  29
ATOM     29  C   UNL A   1      33.067  26.203  22.622  1.00  0.00     0.251 C 
ATOM     30  N   UNL A   1      31.929  25.463  22.455  1.00  0.00    -0.366 N 
ATOM     31  O   UNL A   1      33.889  26.151  21.720  1.00  0.00    -0.269 OA
ATOM     32  H   UNL A   1      31.232  25.467  23.151  1.00  0.00     0.159 HD
ATOM     33  H   UNL A   1      31.805  24.926  21.639  1.00  0.00     0.159 HD
ENDBRANCH  22  29
ENDBRANCH  10  20
ENDBRANCH   5   7
ENDBRANCH   4   5
ENDBRANCH   3   4
ENDBRANCH   2   3
ENDBRANCH   1   2
BRANCH   1  34
ATOM     34  C   UNL A   1      41.663  20.750  26.114  1.00  0.00     0.202 C 
BRANCH  34  35
ATOM     35  C   UNL A   1      42.823  21.717  25.926  1.00  0.00     0.261 C 
BRANCH  35  36
ATOM     36  O   UNL A   1      42.517  22.784  25.053  1.00  0.00    -0.460 OA
BRANCH  36  37
ATOM     37  C   UNL A   1      43.146  23.931  25.386  1.00  0.00     0.338 C 
ATOM     38  O   UNL A   1      44.269  24.290  25.053  1.00  0.00    -0.246 OA
BRANCH  37  39
ATOM     39  C   UNL A   1      42.343  24.617  26.393  1.00  0.00     0.060 A 
ATOM     40  C   UNL A   1      41.381  25.504  25.910  1.00  0.00     0.016 A 
ATOM     41  C   UNL A   1      42.820  24.669  27.709  1.00  0.00     0.016 A 
ATOM     42  C   UNL A   1      41.133  26.635  26.650  1.00  0.00     0.010 A 
ATOM     43  C   UNL A   1      42.567  25.794  28.444  1.00  0.00     0.010 A 
ATOM     44  C   UNL A   1      41.832  26.815  27.851  1.00  0.00    -0.014 A 
BRANCH  44  45
ATOM     45  C   UNL A   1      41.628  28.028  28.609  1.00  0.00     0.031 A 
ATOM     46  C   UNL A   1      42.747  28.959  28.347  1.00  0.00     0.074 A 
ATOM     47  C   UNL A   1      40.515  28.266  29.336  1.00  0.00     0.049 A 
ATOM     48  N   UNL A   1      43.757  29.185  29.120  1.00  0.00    -0.248 NA
ATOM     49  C   UNL A   1      42.938  29.441  26.965  1.00  0.00     0.031 C 
ATOM     50  C   UNL A   1      39.295  27.457  29.440  1.00  0.00     0.029 A 
ATOM     51  N   UNL A   1      40.213  29.358  30.100  1.00  0.00    -0.354 N 
ATOM     52  C   UNL A   1      44.548  30.080  28.412  1.00  0.00     0.074 A 
ATOM     53  C   UNL A   1      44.170  29.949  27.036  1.00  0.00     0.031 C 
ATOM     54  C   UNL A   1      38.310  28.190  30.015  1.00  0.00     0.029 A 
ATOM     55  C   UNL A   1      38.858  29.461  30.447  1.00  0.00     0.049 A 
ATOM     56  H   UNL A   1      40.890  30.014  30.383  1.00  0.00     0.167 HD
ATOM     57  C   UNL A   1      45.138  31.116  29.066  1.00  0.00     0.037 A 
ATOM     58  C   UNL A   1      38.271  30.559  31.005  1.00  0.00     0.037 A 
ATOM     59  C   UNL A   1      45.191  30.845  30.485  1.00  0.00     0.049 A 
ATOM     60  C   UNL A   1      39.366  31.373  31.599  1.00  0.00     0.074 A 
ATOM     61  C   UNL A   1      45.771  29.872  31.274  1.00  0.00     0.029 A 
ATOM     62  N   UNL A   1      44.201  31.416  31.247  1.00  0.00    -0.354 N 
ATOM     63  N   UNL A   1      40.079  30.974  32.615  1.00  0.00    -0.248 NA
ATOM     64  C   UNL A   1      39.998  32.350  30.725  1.00  0.00     0.031 C 
ATOM     65  C   UNL A   1      44.820  29.610  32.304  1.00  0.00     0.029 A 
ATOM     66  C   UNL A   1      43.756  30.501  32.161  1.00  0.00     0.049 A 
ATOM     67  H   UNL A   1      43.867  32.337  31.150  1.00  0.00     0.167 HD
ATOM     68  C   UNL A   1      41.386  31.277  32.258  1.00  0.00     0.074 A 
ATOM     69  C   UNL A   1      41.267  32.160  31.096  1.00  0.00     0.031 C 
ATOM     70  C   UNL A   1      42.430  30.538  32.736  1.00  0.00     0.037 A 
BRANCH  57  71
ATOM     71  C   UNL A   1      45.184  32.527  28.514  1.00  0.00     0.057 A 
ATOM     72  C   UNL A   1      43.966  33.166  28.225  1.00  0.00     0.134 A 
ATOM     73  C   UNL A   1      46.327  33.164  27.979  1.00  0.00     0.134 A 
ATOM     74  F   UNL A   1      42.805  32.662  28.667  1.00  0.00    -0.206 F 
ATOM     75  C   UNL A   1      43.886  34.291  27.396  1.00  0.00     0.040 A 
ATOM     76  C   UNL A   1      46.261  34.315  27.191  1.00  0.00     0.040 A 
ATOM     77  F   UNL A   1      47.565  32.676  28.096  1.00  0.00    -0.206 F 
ATOM     78  C   UNL A   1      45.034  34.863  26.868  1.00  0.00     0.006 A 
ENDBRANCH  57  71
BRANCH  58  79
ATOM     79  C   UNL A   1      36.935  31.157  30.740  1.00  0.00     0.057 A 
ATOM     80  C   UNL A   1      36.066  31.509  31.789  1.00  0.00     0.134 A 
ATOM     81  C   UNL A   1      36.616  31.690  29.480  1.00  0.00     0.134 A 
ATOM     82  F   UNL A   1      36.310  31.099  33.042  1.00  0.00    -0.206 F 
ATOM     83  C   UNL A   1      34.961  32.356  31.597  1.00  0.00     0.040 A 
ATOM     84  C   UNL A   1      35.518  32.536  29.277  1.00  0.00     0.040 A 
ATOM     85  F   UNL A   1      37.418  31.487  28.426  1.00  0.00    -0.206 F 
ATOM     86  C   UNL A   1      34.693  32.883  30.339  1.00  0.00     0.006 A 
ENDBRANCH  58  79
BRANCH  70  87
ATOM     87  C   UNL A   1      42.148  29.559  33.846  1.00  0.00     0.057 A 
ATOM     88  C   UNL A   1      41.803  28.211  33.660  1.00  0.00     0.134 A 
ATOM     89  C   UNL A   1      42.383  29.975  35.160  1.00  0.00     0.134 A 
ATOM     90  F   UNL A   1      41.642  27.699  32.432  1.00  0.00    -0.206 F 
ATOM     91  C   UNL A   1      41.669  27.328  34.740  1.00  0.00     0.040 A 
ATOM     92  C   UNL A   1      42.285  29.099  36.242  1.00  0.00     0.040 A 
ATOM     93  F   UNL A   1      42.767  31.237  35.408  1.00  0.00    -0.206 F 
ATOM     94  C   UNL A   1      41.917  27.772  36.036  1.00  0.00     0.006 A 
ENDBRANCH  70  87
ENDBRANCH  44  45
ENDBRANCH  37  39
ENDBRANCH  36  37
ENDBRANCH  35  36
ENDBRANCH  34  35
ENDBRANCH   1  34
TORSDOF 18
ENDMDL
MODEL 2
REMARK VINA RESULT:     -11.3      2.389      8.516
REMARK SMILES COc1cccc(-c2nn(-c3cc4c(cc3C(N)=O)OCO4)cc2C(=O)OCCOCCOC(=O)c2ccc(-c3c4nc(c(-c5c(F)cccc5F)c5ccc([nH]5)c(-c5c(F)cccc5F)c5nc(c(-c6c(F)cccc6F)c6ccc3[nH]6)C=C5)C=C4)cc2)c1
REMARK SMILES IDX 30 1 29 2 28 3 27 4 25 5 26 6 24 7 8 8 9 9 10 10 23 11 7 12
REMARK SMILES IDX 3 13 4 14 90 15 5 16 6 17 2 18 1 19 11 20 12 21 16 22 13 23
REMARK SMILES IDX 15 24 14 25 22 26 20 27 21 28 17 29 18 30 19 31 31 34 32 35
REMARK SMILES IDX 33 36 34 37 35 38 36 39 37 40 89 41 38 42 88 43 39 44 40 45
REMARK SMILES IDX 41 46 82 47 42 48 87 49 81 50 83 51 43 52 86 53 80 54 79 55
REMARK SMILES IDX 44 57 70 58 53 59 69 60 54 61 57 62 68 63 84 64 55 65 56 66
REMARK SMILES IDX 67 68 85 69 58 70 45 71 46 72 51 73 47 74 48 75 50 76 52 77
REMARK SMILES IDX 49 78 71 79 72 80 77 81 73 82 74 83 76 84 78 85 75 86 59 87
REMARK SMILES IDX 60 88 65 89 61 90 62 91 64 92 66 93 63 94
REMARK H PARENT 18 32 18 33 83 56 57 67
REMARK Flexibility Score: inf
ROOT
ATOM      1  O   UNL A   1      32.332  32.690  26.916  1.00  0.00    -0.374 OA
ENDROOT
BRANCH   1   2
ATOM      2  C   UNL A   1      31.745  31.391  26.994  1.00  0.00     0.202 C 
BRANCH   2   3
ATOM      3  C   UNL A   1      32.352  30.241  26.187  1.00  0.00     0.261 C 
BRANCH   3   4
ATOM      4  O   UNL A   1      32.785  29.154  27.018  1.00  0.00    -0.460 OA
BRANCH   4   5
ATOM      5  C   UNL A   1      32.040  28.017  26.928  1.00  0.00     0.342 C 
ATOM      6  O   UNL A   1      31.034  27.784  27.607  1.00  0.00    -0.246 OA
BRANCH   5   7
ATOM      7  C   UNL A   1      32.480  27.147  25.869  1.00  0.00     0.106 A 
ATOM      8  C   UNL A   1      31.845  26.823  24.636  1.00  0.00     0.107 A 
ATOM      9  N   UNL A   1      32.517  25.848  23.991  1.00  0.00    -0.167 NA
ATOM     10  N   UNL A   1      33.417  25.432  24.921  1.00  0.00    -0.239 N 
ATOM     11  C   UNL A   1      33.653  26.421  25.844  1.00  0.00     0.131 A 
BRANCH   8  12
ATOM     12  C   UNL A   1      30.683  27.499  24.062  1.00  0.00     0.007 A 
ATOM     13  C   UNL A   1      29.713  29.214  22.654  1.00  0.00     0.119 A 
ATOM     14  C   UNL A   1      28.464  28.596  22.765  1.00  0.00     0.046 A 
ATOM     15  C   UNL A   1      30.827  28.662  23.296  1.00  0.00     0.056 A 
ATOM     16  C   UNL A   1      28.313  27.446  23.532  1.00  0.00     0.005 A 
ATOM     17  C   UNL A   1      29.415  26.918  24.202  1.00  0.00     0.011 A 
BRANCH  13  18
ATOM     18  O   UNL A   1      29.710  30.386  21.947  1.00  0.00    -0.497 OA
ATOM     19  C   UNL A   1      28.437  30.824  21.490  1.00  0.00     0.278 C 
ENDBRANCH  13  18
ENDBRANCH   8  12
BRANCH  10  20
ATOM     20  C   UNL A   1      34.053  24.165  24.871  1.00  0.00     0.081 A 
ATOM     21  C   UNL A   1      35.459  24.126  24.951  1.00  0.00     0.079 A 
ATOM     22  C   UNL A   1      33.296  22.957  24.755  1.00  0.00     0.069 A 
ATOM     23  C   UNL A   1      36.058  22.883  24.994  1.00  0.00     0.167 A 
ATOM     24  C   UNL A   1      33.945  21.727  24.951  1.00  0.00     0.066 A 
ATOM     25  C   UNL A   1      35.317  21.726  25.032  1.00  0.00     0.166 A 
ATOM     26  O   UNL A   1      37.394  22.621  24.987  1.00  0.00    -0.454 OA
ATOM     27  O   UNL A   1      36.091  20.608  25.062  1.00  0.00    -0.454 OA
ATOM     28  C   UNL A   1      37.375  21.193  24.769  1.00  0.00     0.468 C 
BRANCH  22  29
ATOM     29  C   UNL A   1      31.902  22.929  24.170  1.00  0.00     0.251 C 
ATOM     30  N   UNL A   1      30.842  23.245  24.974  1.00  0.00    -0.366 N 
ATOM     31  O   UNL A   1      31.637  22.548  23.040  1.00  0.00    -0.269 OA
ATOM     32  H   UNL A   1      30.997  23.558  25.894  1.00  0.00     0.159 HD
ATOM     33  H   UNL A   1      29.922  23.160  24.632  1.00  0.00     0.159 HD
ENDBRANCH  22  29
ENDBRANCH  10  20
ENDBRANCH   5   7
ENDBRANCH   4   5
ENDBRANCH   3   4
ENDBRANCH   2   3
ENDBRANCH   1   2
BRANCH   1  34
ATOM     34  C   UNL A   1      33.172  33.169  27.956  1.00  0.00     0.202 C 
BRANCH  34  35
ATOM     35  C   UNL A   1      34.169  32.227  28.617  1.00  0.00     0.261 C 
BRANCH  35  36
ATOM     36  O   UNL A   1      34.834  32.811  29.718  1.00  0.00    -0.460 OA
BRANCH  36  37
ATOM     37  C   UNL A   1      35.434  31.898  30.511  1.00  0.00     0.338 C 
ATOM     38  O   UNL A   1      35.265  31.726  31.712  1.00  0.00    -0.246 OA
BRANCH  37  39
ATOM     39  C   UNL A   1      36.492  31.251  29.742  1.00  0.00     0.060 A 
ATOM     40  C   UNL A   1      36.418  29.862  29.643  1.00  0.00     0.016 A 
ATOM     41  C   UNL A   1      37.679  31.958  29.510  1.00  0.00     0.016 A 
ATOM     42  C   UNL A   1      37.600  29.163  29.623  1.00  0.00     0.010 A 
ATOM     43  C   UNL A   1      38.854  31.258  29.484  1.00  0.00     0.010 A 
ATOM     44  C   UNL A   1      38.802  29.881  29.670  1.00  0.00    -0.014 A 
BRANCH  44  45
ATOM     45  C   UNL A   1      40.053  29.158  29.711  1.00  0.00     0.031 A 
ATOM     46  C   UNL A   1      40.535  29.101  31.108  1.00  0.00     0.074 A 
ATOM     47  C   UNL A   1      40.591  28.553  28.631  1.00  0.00     0.049 A 
ATOM     48  N   UNL A   1      41.463  29.831  31.632  1.00  0.00    -0.248 NA
ATOM     49  C   UNL A   1      39.698  28.403  32.103  1.00  0.00     0.031 C 
ATOM     50  C   UNL A   1      40.030  28.407  27.284  1.00  0.00     0.029 A 
ATOM     51  N   UNL A   1      41.765  27.858  28.540  1.00  0.00    -0.354 N 
ATOM     52  C   UNL A   1      41.505  29.444  32.965  1.00  0.00     0.074 A 
ATOM     53  C   UNL A   1      40.241  28.829  33.244  1.00  0.00     0.031 C 
ATOM     54  C   UNL A   1      40.736  27.478  26.593  1.00  0.00     0.029 A 
ATOM     55  C   UNL A   1      41.878  27.067  27.387  1.00  0.00     0.049 A 
ATOM     56  H   UNL A   1      42.470  27.910  29.226  1.00  0.00     0.167 HD
ATOM     57  C   UNL A   1      42.707  29.301  33.585  1.00  0.00     0.037 A 
ATOM     58  C   UNL A   1      42.836  26.121  27.174  1.00  0.00     0.037 A 
ATOM     59  C   UNL A   1      43.732  30.014  32.855  1.00  0.00     0.049 A 
ATOM     60  C   UNL A   1      43.953  26.426  28.109  1.00  0.00     0.074 A 
ATOM     61  C   UNL A   1      43.945  31.332  32.504  1.00  0.00     0.029 A 
ATOM     62  N   UNL A   1      44.502  29.261  32.003  1.00  0.00    -0.354 N 
ATOM     63  N   UNL A   1      44.688  27.498  28.014  1.00  0.00    -0.248 NA
ATOM     64  C   UNL A   1      43.877  25.825  29.432  1.00  0.00     0.031 C 
ATOM     65  C   UNL A   1      44.487  31.284  31.185  1.00  0.00     0.029 A 
ATOM     66  C   UNL A   1      44.677  29.948  30.833  1.00  0.00     0.049 A 
ATOM     67  H   UNL A   1      44.870  28.370  32.203  1.00  0.00     0.167 HD
ATOM     68  C   UNL A   1      44.781  27.969  29.317  1.00  0.00     0.074 A 
ATOM     69  C   UNL A   1      44.291  26.870  30.152  1.00  0.00     0.031 C 
ATOM     70  C   UNL A   1      44.945  29.301  29.568  1.00  0.00     0.037 A 
BRANCH  57  71
ATOM     71  C   UNL A   1      43.034  28.142  34.505  1.00  0.00     0.057 A 
ATOM     72  C   UNL A   1      42.988  26.841  33.975  1.00  0.00     0.134 A 
ATOM     73  C   UNL A   1      43.092  28.203  35.916  1.00  0.00     0.134 A 
ATOM     74  F   UNL A   1      42.923  26.641  32.651  1.00  0.00    -0.206 F 
ATOM     75  C   UNL A   1      42.911  25.702  34.785  1.00  0.00     0.040 A 
ATOM     76  C   UNL A   1      43.066  27.070  36.731  1.00  0.00     0.040 A 
ATOM     77  F   UNL A   1      43.083  29.348  36.605  1.00  0.00    -0.206 F 
ATOM     78  C   UNL A   1      42.940  25.814  36.168  1.00  0.00     0.006 A 
ENDBRANCH  57  71
BRANCH  58  79
ATOM     79  C   UNL A   1      42.721  24.782  26.537  1.00  0.00     0.057 A 
ATOM     80  C   UNL A   1      43.501  24.428  25.422  1.00  0.00     0.134 A 
ATOM     81  C   UNL A   1      42.086  23.717  27.197  1.00  0.00     0.134 A 
ATOM     82  F   UNL A   1      44.195  25.360  24.752  1.00  0.00    -0.206 F 
ATOM     83  C   UNL A   1      43.656  23.095  25.004  1.00  0.00     0.040 A 
ATOM     84  C   UNL A   1      42.232  22.384  26.791  1.00  0.00     0.040 A 
ATOM     85  F   UNL A   1      41.382  23.926  28.319  1.00  0.00    -0.206 F 
ATOM     86  C   UNL A   1      43.030  22.066  25.699  1.00  0.00     0.006 A 
ENDBRANCH  58  79
BRANCH  70  87
ATOM     87  C   UNL A   1      45.273  30.200  28.406  1.00  0.00     0.057 A 
ATOM     88  C   UNL A   1      44.324  30.864  27.611  1.00  0.00     0.134 A 
ATOM     89  C   UNL A   1      46.616  30.518  28.182  1.00  0.00     0.134 A 
ATOM     90  F   UNL A   1      43.011  30.691  27.808  1.00  0.00    -0.206 F 
ATOM     91  C   UNL A   1      44.704  31.778  26.619  1.00  0.00     0.040 A 
ATOM     92  C   UNL A   1      47.006  31.450  27.220  1.00  0.00     0.040 A 
ATOM     93  F   UNL A   1      47.574  29.961  28.940  1.00  0.00    -0.206 F 
ATOM     94  C   UNL A   1      46.050  32.077  26.427  1.00  0.00     0.006 A 
ENDBRANCH  70  87
ENDBRANCH  44  45
ENDBRANCH  37  39
ENDBRANCH  36  37
ENDBRANCH  35  36
ENDBRANCH  34  35
ENDBRANCH   1  34
TORSDOF 18
ENDMDL
MODEL 3
REMARK VINA RESULT:     -11.3      2.230      5.860
REMARK SMILES COc1cccc(-c2nn(-c3cc4c(cc3C(N)=O)OCO4)cc2C(=O)OCCOCCOC(=O)c2ccc(-c3c4nc(c(-c5c(F)cccc5F)c5ccc([nH]5)c(-c5c(F)cccc5F)c5nc(c(-c6c(F)cccc6F)c6ccc3[nH]6)C=C5)C=C4)cc2)c1
REMARK SMILES IDX 30 1 29 2 28 3 27 4 25 5 26 6 24 7 8 8 9 9 10 10 23 11 7 12
REMARK SMILES IDX 3 13 4 14 90 15 5 16 6 17 2 18 1 19 11 20 12 21 16 22 13 23
REMARK SMILES IDX 15 24 14 25 22 26 20 27 21 28 17 29 18 30 19 31 31 34 32 35
REMARK SMILES IDX 33 36 34 37 35 38 36 39 37 40 89 41 38 42 88 43 39 44 40 45
REMARK SMILES IDX 41 46 82 47 42 48 87 49 81 50 83 51 43 52 86 53 80 54 79 55
REMARK SMILES IDX 44 57 70 58 53 59 69 60 54 61 57 62 68 63 84 64 55 65 56 66
REMARK SMILES IDX 67 68 85 69 58 70 45 71 46 72 51 73 47 74 48 75 50 76 52 77
REMARK SMILES IDX 49 78 71 79 72 80 77 81 73 82 74 83 76 84 78 85 75 86 59 87
REMARK SMILES IDX 60 88 65 89 61 90 62 91 64 92 66 93 63 94
REMARK H PARENT 18 32 18 33 83 56 57 67
REMARK Flexibility Score: inf
ROOT
ATOM      1  O   UNL A   1      39.802  19.587  25.320  1.00  0.00    -0.374 OA
ENDROOT
BRANCH   1   2
ATOM      2  C   UNL A   1      39.221  20.869  25.555  1.00  0.00     0.202 C 
BRANCH   2   3
ATOM      3  C   UNL A   1      37.745  21.100  25.219  1.00  0.00     0.261 C 
BRANCH   3   4
ATOM      4  O   UNL A   1      37.409  22.493  25.144  1.00  0.00    -0.460 OA
BRANCH   4   5
ATOM      5  C   UNL A   1      36.577  22.839  24.123  1.00  0.00     0.342 C 
ATOM      6  O   UNL A   1      36.769  22.553  22.936  1.00  0.00    -0.246 OA
BRANCH   5   7
ATOM      7  C   UNL A   1      35.374  23.484  24.581  1.00  0.00     0.106 A 
ATOM      8  C   UNL A   1      34.016  23.074  24.450  1.00  0.00     0.107 A 
ATOM      9  N   UNL A   1      33.179  24.039  24.883  1.00  0.00    -0.167 NA
ATOM     10  N   UNL A   1      34.007  25.101  25.065  1.00  0.00    -0.239 N 
ATOM     11  C   UNL A   1      35.300  24.681  25.263  1.00  0.00     0.131 A 
BRANCH   8  12
ATOM     12  C   UNL A   1      33.552  21.761  24.008  1.00  0.00     0.007 A 
ATOM     13  C   UNL A   1      33.356  19.368  24.324  1.00  0.00     0.119 A 
ATOM     14  C   UNL A   1      32.421  19.309  23.286  1.00  0.00     0.046 A 
ATOM     15  C   UNL A   1      33.917  20.595  24.692  1.00  0.00     0.056 A 
ATOM     16  C   UNL A   1      32.061  20.462  22.596  1.00  0.00     0.005 A 
ATOM     17  C   UNL A   1      32.649  21.678  22.938  1.00  0.00     0.011 A 
BRANCH  13  18
ATOM     18  O   UNL A   1      33.690  18.154  24.860  1.00  0.00    -0.497 OA
ATOM     19  C   UNL A   1      34.286  17.228  23.961  1.00  0.00     0.278 C 
ENDBRANCH  13  18
ENDBRANCH   8  12
BRANCH  10  20
ATOM     20  C   UNL A   1      33.549  26.442  25.105  1.00  0.00     0.081 A 
ATOM     21  C   UNL A   1      33.209  26.991  26.358  1.00  0.00     0.079 A 
ATOM     22  C   UNL A   1      33.442  27.228  23.913  1.00  0.00     0.069 A 
ATOM     23  C   UNL A   1      32.854  28.323  26.393  1.00  0.00     0.167 A 
ATOM     24  C   UNL A   1      33.217  28.609  24.028  1.00  0.00     0.066 A 
ATOM     25  C   UNL A   1      32.896  29.111  25.267  1.00  0.00     0.166 A 
ATOM     26  O   UNL A   1      32.413  29.022  27.475  1.00  0.00    -0.454 OA
ATOM     27  O   UNL A   1      32.500  30.390  25.506  1.00  0.00    -0.454 OA
ATOM     28  C   UNL A   1      31.958  30.233  26.832  1.00  0.00     0.468 C 
BRANCH  22  29
ATOM     29  C   UNL A   1      33.289  26.603  22.545  1.00  0.00     0.251 C 
ATOM     30  N   UNL A   1      32.149  26.847  21.832  1.00  0.00    -0.366 N 
ATOM     31  O   UNL A   1      34.079  25.807  22.060  1.00  0.00    -0.269 OA
ATOM     32  H   UNL A   1      31.477  27.480  22.176  1.00  0.00     0.159 HD
ATOM     33  H   UNL A   1      31.998  26.390  20.972  1.00  0.00     0.159 HD
ENDBRANCH  22  29
ENDBRANCH  10  20
ENDBRANCH   5   7
ENDBRANCH   4   5
ENDBRANCH   3   4
ENDBRANCH   2   3
ENDBRANCH   1   2
BRANCH   1  34
ATOM     34  C   UNL A   1      40.645  18.984  26.290  1.00  0.00     0.202 C 
BRANCH  34  35
ATOM     35  C   UNL A   1      42.105  18.711  25.957  1.00  0.00     0.261 C 
BRANCH  35  36
ATOM     36  O   UNL A   1      42.637  19.619  25.015  1.00  0.00    -0.460 OA
BRANCH  36  37
ATOM     37  C   UNL A   1      43.510  20.491  25.562  1.00  0.00     0.338 C 
ATOM     38  O   UNL A   1      44.724  20.369  25.662  1.00  0.00    -0.246 OA
BRANCH  37  39
ATOM     39  C   UNL A   1      42.747  21.551  26.214  1.00  0.00     0.060 A 
ATOM     40  C   UNL A   1      42.775  22.799  25.592  1.00  0.00     0.016 A 
ATOM     41  C   UNL A   1      42.393  21.391  27.561  1.00  0.00     0.016 A 
ATOM     42  C   UNL A   1      42.756  23.911  26.398  1.00  0.00     0.010 A 
ATOM     43  C   UNL A   1      42.369  22.501  28.359  1.00  0.00     0.010 A 
ATOM     44  C   UNL A   1      42.678  23.730  27.786  1.00  0.00    -0.014 A 
BRANCH  44  45
ATOM     45  C   UNL A   1      42.719  24.887  28.651  1.00  0.00     0.031 A 
ATOM     46  C   UNL A   1      41.582  25.776  28.325  1.00  0.00     0.074 A 
ATOM     47  C   UNL A   1      43.608  25.025  29.657  1.00  0.00     0.049 A 
ATOM     48  N   UNL A   1      41.631  26.861  27.628  1.00  0.00    -0.248 NA
ATOM     49  C   UNL A   1      40.216  25.251  28.511  1.00  0.00     0.031 C 
ATOM     50  C   UNL A   1      44.605  24.064  30.141  1.00  0.00     0.029 A 
ATOM     51  N   UNL A   1      43.755  26.068  30.527  1.00  0.00    -0.354 N 
ATOM     52  C   UNL A   1      40.313  27.294  27.558  1.00  0.00     0.074 A 
ATOM     53  C   UNL A   1      39.499  26.146  27.830  1.00  0.00     0.031 C 
ATOM     54  C   UNL A   1      45.076  24.464  31.348  1.00  0.00     0.029 A 
ATOM     55  C   UNL A   1      44.527  25.770  31.659  1.00  0.00     0.049 A 
ATOM     56  H   UNL A   1      43.353  26.954  30.371  1.00  0.00     0.167 HD
ATOM     57  C   UNL A   1      40.034  28.619  27.687  1.00  0.00     0.037 A 
ATOM     58  C   UNL A   1      44.634  26.557  32.768  1.00  0.00     0.037 A 
ATOM     59  C   UNL A   1      41.220  29.405  27.432  1.00  0.00     0.049 A 
ATOM     60  C   UNL A   1      44.213  27.926  32.362  1.00  0.00     0.074 A 
ATOM     61  C   UNL A   1      42.069  29.575  26.357  1.00  0.00     0.029 A 
ATOM     62  N   UNL A   1      41.915  29.826  28.539  1.00  0.00    -0.354 N 
ATOM     63  N   UNL A   1      44.885  28.656  31.517  1.00  0.00    -0.248 NA
ATOM     64  C   UNL A   1      42.794  28.231  32.475  1.00  0.00     0.031 C 
ATOM     65  C   UNL A   1      43.374  29.675  26.923  1.00  0.00     0.029 A 
ATOM     66  C   UNL A   1      43.255  29.667  28.313  1.00  0.00     0.049 A 
ATOM     67  H   UNL A   1      41.514  30.185  29.363  1.00  0.00     0.167 HD
ATOM     68  C   UNL A   1      43.919  29.178  30.668  1.00  0.00     0.074 A 
ATOM     69  C   UNL A   1      42.643  28.909  31.335  1.00  0.00     0.031 C 
ATOM     70  C   UNL A   1      44.221  29.490  29.373  1.00  0.00     0.037 A 
BRANCH  57  71
ATOM     71  C   UNL A   1      38.882  29.148  28.517  1.00  0.00     0.057 A 
ATOM     72  C   UNL A   1      38.822  28.787  29.874  1.00  0.00     0.134 A 
ATOM     73  C   UNL A   1      37.695  29.723  28.007  1.00  0.00     0.134 A 
ATOM     74  F   UNL A   1      39.876  28.223  30.482  1.00  0.00    -0.206 F 
ATOM     75  C   UNL A   1      37.651  28.903  30.632  1.00  0.00     0.040 A 
ATOM     76  C   UNL A   1      36.538  29.889  28.769  1.00  0.00     0.040 A 
ATOM     77  F   UNL A   1      37.539  30.075  26.727  1.00  0.00    -0.206 F 
ATOM     78  C   UNL A   1      36.501  29.447  30.077  1.00  0.00     0.006 A 
ENDBRANCH  57  71
BRANCH  58  79
ATOM     79  C   UNL A   1      44.685  26.171  34.203  1.00  0.00     0.057 A 
ATOM     80  C   UNL A   1      43.922  25.101  34.705  1.00  0.00     0.134 A 
ATOM     81  C   UNL A   1      45.717  26.627  35.040  1.00  0.00     0.134 A 
ATOM     82  F   UNL A   1      42.948  24.552  33.964  1.00  0.00    -0.206 F 
ATOM     83  C   UNL A   1      44.184  24.510  35.952  1.00  0.00     0.040 A 
ATOM     84  C   UNL A   1      45.988  26.046  36.286  1.00  0.00     0.040 A 
ATOM     85  F   UNL A   1      46.559  27.587  34.633  1.00  0.00    -0.206 F 
ATOM     86  C   UNL A   1      45.230  24.974  36.742  1.00  0.00     0.006 A 
ENDBRANCH  58  79
BRANCH  70  87
ATOM     87  C   UNL A   1      45.673  29.491  28.972  1.00  0.00     0.057 A 
ATOM     88  C   UNL A   1      46.364  28.385  28.452  1.00  0.00     0.134 A 
ATOM     89  C   UNL A   1      46.353  30.713  28.979  1.00  0.00     0.134 A 
ATOM     90  F   UNL A   1      45.768  27.192  28.324  1.00  0.00    -0.206 F 
ATOM     91  C   UNL A   1      47.683  28.490  27.990  1.00  0.00     0.040 A 
ATOM     92  C   UNL A   1      47.654  30.839  28.492  1.00  0.00     0.040 A 
ATOM     93  F   UNL A   1      45.736  31.823  29.414  1.00  0.00    -0.206 F 
ATOM     94  C   UNL A   1      48.329  29.723  28.004  1.00  0.00     0.006 A 
ENDBRANCH  70  87
ENDBRANCH  44  45
ENDBRANCH  37  39
ENDBRANCH  36  37
ENDBRANCH  35  36
ENDBRANCH  34  35
ENDBRANCH   1  34
TORSDOF 18
ENDMDL
