MODEL 1
REMARK VINA RESULT:     -11.9      0.000      0.000
REMARK SMILES Cc1cc(=O)n2cc(-c3ccccc3)nc2n1[C@H](C)C(=O)OCCOCCOC(=O)c1ccc(-c2c3nc(c(-c4c(F)cccc4F)c4ccc([nH]4)c(-c4c(F)cccc4F)c4nc(c(-c5c(F)cccc5F)c5ccc2[nH]5)C=C4)C=C3)cc1
REMARK SMILES IDX 25 1 24 2 23 3 22 4 20 5 21 6 18 7 19 8 17 9 1 10 2 11 3 12
REMARK SMILES IDX 4 13 16 14 5 15 6 16 15 17 7 18 8 19 9 20 10 21 14 22 11 23
REMARK SMILES IDX 13 24 12 25 26 26 27 27 28 28 29 29 30 30 31 31 32 32 84 33
REMARK SMILES IDX 33 34 83 35 34 36 35 37 36 38 77 39 37 40 82 41 76 42 78 43
REMARK SMILES IDX 38 44 81 45 75 46 74 47 39 49 65 50 48 51 64 52 49 53 52 54
REMARK SMILES IDX 63 55 79 56 50 57 51 58 62 60 80 61 53 62 40 63 41 64 46 65
REMARK SMILES IDX 42 66 43 67 45 68 47 69 44 70 66 71 67 72 72 73 68 74 69 75
REMARK SMILES IDX 71 76 73 77 70 78 54 79 55 80 60 81 56 82 57 83 59 84 61 85
REMARK SMILES IDX 58 86
REMARK H PARENT 78 48 52 59
REMARK Flexibility Score: inf
ROOT
ATOM      1  O   UNL A   1      40.697  20.166  26.642  1.00  0.00    -0.374 OA
ENDROOT
BRANCH   1   2
ATOM      2  C   UNL A   1      39.609  20.595  25.825  1.00  0.00     0.202 C 
BRANCH   2   3
ATOM      3  C   UNL A   1      39.007  21.973  26.091  1.00  0.00     0.261 C 
BRANCH   3   4
ATOM      4  O   UNL A   1      37.893  22.237  25.227  1.00  0.00    -0.462 OA
BRANCH   4   5
ATOM      5  C   UNL A   1      37.119  23.282  25.615  1.00  0.00     0.329 C 
ATOM      6  O   UNL A   1      37.292  23.934  26.643  1.00  0.00    -0.250 OA
BRANCH   5   7
ATOM      7  C   UNL A   1      35.994  23.620  24.632  1.00  0.00     0.197 C 
ATOM      8  C   UNL A   1      36.098  23.114  23.193  1.00  0.00     0.044 C 
BRANCH   7   9
ATOM      9  N   UNL A   1      34.701  23.298  25.284  1.00  0.00    -0.301 N 
ATOM     10  C   UNL A   1      34.909  20.852  24.690  1.00  0.00     0.065 C 
ATOM     11  C   UNL A   1      34.124  22.012  25.255  1.00  0.00     0.024 A 
ATOM     12  C   UNL A   1      32.867  21.797  25.686  1.00  0.00     0.093 A 
ATOM     13  C   UNL A   1      32.055  22.918  26.195  1.00  0.00     0.259 A 
ATOM     14  C   UNL A   1      33.945  24.375  25.666  1.00  0.00     0.218 A 
ATOM     15  O   UNL A   1      30.910  22.802  26.633  1.00  0.00    -0.269 OA
ATOM     16  N   UNL A   1      32.666  24.162  26.138  1.00  0.00    -0.251 N 
ATOM     17  N   UNL A   1      34.232  25.659  25.635  1.00  0.00    -0.212 NA
ATOM     18  C   UNL A   1      32.167  25.390  26.507  1.00  0.00     0.127 A 
ATOM     19  C   UNL A   1      33.155  26.294  26.196  1.00  0.00     0.091 A 
BRANCH  19  20
ATOM     20  C   UNL A   1      33.088  27.721  26.423  1.00  0.00     0.002 A 
ATOM     21  C   UNL A   1      31.861  28.391  26.335  1.00  0.00     0.010 A 
ATOM     22  C   UNL A   1      34.245  28.445  26.732  1.00  0.00     0.010 A 
ATOM     23  C   UNL A   1      31.796  29.773  26.526  1.00  0.00     0.001 A 
ATOM     24  C   UNL A   1      34.181  29.830  26.910  1.00  0.00     0.001 A 
ATOM     25  C   UNL A   1      32.958  30.493  26.802  1.00  0.00     0.000 A 
ENDBRANCH  19  20
ENDBRANCH   7   9
ENDBRANCH   5   7
ENDBRANCH   4   5
ENDBRANCH   3   4
ENDBRANCH   2   3
ENDBRANCH   1   2
BRANCH   1  26
ATOM     26  C   UNL A   1      42.043  20.331  26.208  1.00  0.00     0.202 C 
BRANCH  26  27
ATOM     27  C   UNL A   1      42.787  19.111  25.682  1.00  0.00     0.261 C 
BRANCH  27  28
ATOM     28  O   UNL A   1      44.196  19.306  25.696  1.00  0.00    -0.460 OA
BRANCH  28  29
ATOM     29  C   UNL A   1      44.698  19.739  24.523  1.00  0.00     0.338 C 
ATOM     30  O   UNL A   1      44.976  19.057  23.545  1.00  0.00    -0.246 OA
BRANCH  29  31
ATOM     31  C   UNL A   1      45.026  21.163  24.626  1.00  0.00     0.060 A 
ATOM     32  C   UNL A   1      45.733  21.509  25.774  1.00  0.00     0.016 A 
ATOM     33  C   UNL A   1      44.347  22.115  23.848  1.00  0.00     0.016 A 
ATOM     34  C   UNL A   1      45.493  22.745  26.315  1.00  0.00     0.010 A 
ATOM     35  C   UNL A   1      44.123  23.363  24.386  1.00  0.00     0.010 A 
ATOM     36  C   UNL A   1      44.603  23.613  25.665  1.00  0.00    -0.014 A 
BRANCH  36  37
ATOM     37  C   UNL A   1      44.275  24.829  26.373  1.00  0.00     0.031 A 
ATOM     38  C   UNL A   1      45.370  25.813  26.309  1.00  0.00     0.074 A 
ATOM     39  C   UNL A   1      43.136  25.016  27.063  1.00  0.00     0.049 A 
ATOM     40  N   UNL A   1      46.208  26.102  27.247  1.00  0.00    -0.248 NA
ATOM     41  C   UNL A   1      45.708  26.368  24.992  1.00  0.00     0.031 C 
ATOM     42  C   UNL A   1      41.892  24.247  27.041  1.00  0.00     0.029 A 
ATOM     43  N   UNL A   1      42.859  26.019  27.938  1.00  0.00    -0.354 N 
ATOM     44  C   UNL A   1      47.077  27.031  26.693  1.00  0.00     0.074 A 
ATOM     45  C   UNL A   1      46.835  27.022  25.274  1.00  0.00     0.031 C 
ATOM     46  C   UNL A   1      40.927  24.942  27.693  1.00  0.00     0.029 A 
ATOM     47  C   UNL A   1      41.526  26.116  28.307  1.00  0.00     0.049 A 
ATOM     48  H   UNL A   1      43.552  26.630  28.281  1.00  0.00     0.167 HD
ATOM     49  C   UNL A   1      47.748  27.905  27.488  1.00  0.00     0.037 A 
ATOM     50  C   UNL A   1      40.980  27.134  29.020  1.00  0.00     0.037 A 
ATOM     51  C   UNL A   1      47.825  27.423  28.845  1.00  0.00     0.049 A 
ATOM     52  C   UNL A   1      42.086  27.793  29.762  1.00  0.00     0.074 A 
ATOM     53  C   UNL A   1      48.390  26.318  29.453  1.00  0.00     0.029 A 
ATOM     54  N   UNL A   1      46.933  27.931  29.757  1.00  0.00    -0.354 N 
ATOM     55  N   UNL A   1      42.735  27.232  30.744  1.00  0.00    -0.248 NA
ATOM     56  C   UNL A   1      42.776  28.894  29.106  1.00  0.00     0.031 C 
ATOM     57  C   UNL A   1      47.475  25.950  30.484  1.00  0.00     0.029 A 
ATOM     58  C   UNL A   1      46.434  26.880  30.483  1.00  0.00     0.049 A 
ATOM     59  H   UNL A   1      46.693  28.879  29.870  1.00  0.00     0.167 HD
ATOM     60  C   UNL A   1      44.057  27.608  30.557  1.00  0.00     0.074 A 
ATOM     61  C   UNL A   1      44.009  28.689  29.575  1.00  0.00     0.031 C 
ATOM     62  C   UNL A   1      45.084  26.825  30.996  1.00  0.00     0.037 A 
BRANCH  49  63
ATOM     63  C   UNL A   1      47.954  29.351  27.119  1.00  0.00     0.057 A 
ATOM     64  C   UNL A   1      49.238  29.907  27.242  1.00  0.00     0.134 A 
ATOM     65  C   UNL A   1      46.912  30.286  26.938  1.00  0.00     0.134 A 
ATOM     66  F   UNL A   1      50.313  29.127  27.429  1.00  0.00    -0.206 F 
ATOM     67  C   UNL A   1      49.456  31.289  27.268  1.00  0.00     0.040 A 
ATOM     68  C   UNL A   1      47.126  31.665  26.913  1.00  0.00     0.040 A 
ATOM     69  F   UNL A   1      45.623  29.937  26.879  1.00  0.00    -0.206 F 
ATOM     70  C   UNL A   1      48.396  32.174  27.113  1.00  0.00     0.006 A 
ENDBRANCH  49  63
BRANCH  50  71
ATOM     71  C   UNL A   1      39.688  27.823  28.786  1.00  0.00     0.057 A 
ATOM     72  C   UNL A   1      38.732  27.920  29.809  1.00  0.00     0.134 A 
ATOM     73  C   UNL A   1      39.493  28.668  27.681  1.00  0.00     0.134 A 
ATOM     74  F   UNL A   1      38.851  27.183  30.924  1.00  0.00    -0.206 F 
ATOM     75  C   UNL A   1      37.670  28.833  29.756  1.00  0.00     0.040 A 
ATOM     76  C   UNL A   1      38.435  29.581  27.613  1.00  0.00     0.040 A 
ATOM     77  F   UNL A   1      40.376  28.706  26.673  1.00  0.00    -0.206 F 
ATOM     78  C   UNL A   1      37.529  29.679  28.661  1.00  0.00     0.006 A 
ENDBRANCH  50  71
BRANCH  62  79
ATOM     79  C   UNL A   1      44.753  25.666  31.897  1.00  0.00     0.057 A 
ATOM     80  C   UNL A   1      44.401  24.386  31.438  1.00  0.00     0.134 A 
ATOM     81  C   UNL A   1      44.961  25.807  33.274  1.00  0.00     0.134 A 
ATOM     82  F   UNL A   1      44.265  24.132  30.130  1.00  0.00    -0.206 F 
ATOM     83  C   UNL A   1      44.240  23.308  32.315  1.00  0.00     0.040 A 
ATOM     84  C   UNL A   1      44.835  24.732  34.155  1.00  0.00     0.040 A 
ATOM     85  F   UNL A   1      45.347  26.990  33.779  1.00  0.00    -0.206 F 
ATOM     86  C   UNL A   1      44.468  23.477  33.677  1.00  0.00     0.006 A 
ENDBRANCH  62  79
ENDBRANCH  36  37
ENDBRANCH  29  31
ENDBRANCH  28  29
ENDBRANCH  27  28
ENDBRANCH  26  27
ENDBRANCH   1  26
TORSDOF 16
ENDMDL
MODEL 2
REMARK VINA RESULT:     -11.7      1.230      3.485
REMARK SMILES Cc1cc(=O)n2cc(-c3ccccc3)nc2n1[C@H](C)C(=O)OCCOCCOC(=O)c1ccc(-c2c3nc(c(-c4c(F)cccc4F)c4ccc([nH]4)c(-c4c(F)cccc4F)c4nc(c(-c5c(F)cccc5F)c5ccc2[nH]5)C=C4)C=C3)cc1
REMARK SMILES IDX 25 1 24 2 23 3 22 4 20 5 21 6 18 7 19 8 17 9 1 10 2 11 3 12
REMARK SMILES IDX 4 13 16 14 5 15 6 16 15 17 7 18 8 19 9 20 10 21 14 22 11 23
REMARK SMILES IDX 13 24 12 25 26 26 27 27 28 28 29 29 30 30 31 31 32 32 84 33
REMARK SMILES IDX 33 34 83 35 34 36 35 37 36 38 77 39 37 40 82 41 76 42 78 43
REMARK SMILES IDX 38 44 81 45 75 46 74 47 39 49 65 50 48 51 64 52 49 53 52 54
REMARK SMILES IDX 63 55 79 56 50 57 51 58 62 60 80 61 53 62 40 63 41 64 46 65
REMARK SMILES IDX 42 66 43 67 45 68 47 69 44 70 66 71 67 72 72 73 68 74 69 75
REMARK SMILES IDX 71 76 73 77 70 78 54 79 55 80 60 81 56 82 57 83 59 84 61 85
REMARK SMILES IDX 58 86
REMARK H PARENT 78 48 52 59
REMARK Flexibility Score: inf
ROOT
ATOM      1  O   UNL A   1      40.381  20.299  26.077  1.00  0.00    -0.374 OA
ENDROOT
BRANCH   1   2
ATOM      2  C   UNL A   1      39.607  21.488  26.221  1.00  0.00     0.202 C 
BRANCH   2   3
ATOM      3  C   UNL A   1      38.162  21.472  25.728  1.00  0.00     0.261 C 
BRANCH   3   4
ATOM      4  O   UNL A   1      37.748  22.766  25.267  1.00  0.00    -0.462 OA
BRANCH   4   5
ATOM      5  C   UNL A   1      36.463  23.082  25.568  1.00  0.00     0.329 C 
ATOM      6  O   UNL A   1      35.987  23.064  26.702  1.00  0.00    -0.250 OA
BRANCH   5   7
ATOM      7  C   UNL A   1      35.629  23.508  24.356  1.00  0.00     0.197 C 
ATOM      8  C   UNL A   1      35.869  22.811  23.016  1.00  0.00     0.044 C 
BRANCH   7   9
ATOM      9  N   UNL A   1      34.203  23.533  24.765  1.00  0.00    -0.301 N 
ATOM     10  C   UNL A   1      34.280  26.019  25.204  1.00  0.00     0.065 C 
ATOM     11  C   UNL A   1      33.561  24.690  25.248  1.00  0.00     0.024 A 
ATOM     12  C   UNL A   1      32.329  24.637  25.789  1.00  0.00     0.093 A 
ATOM     13  C   UNL A   1      31.622  23.347  25.895  1.00  0.00     0.259 A 
ATOM     14  C   UNL A   1      33.612  22.308  24.930  1.00  0.00     0.218 A 
ATOM     15  O   UNL A   1      30.484  23.216  26.350  1.00  0.00    -0.269 OA
ATOM     16  N   UNL A   1      32.337  22.243  25.455  1.00  0.00    -0.251 N 
ATOM     17  N   UNL A   1      34.085  21.104  24.686  1.00  0.00    -0.212 NA
ATOM     18  C   UNL A   1      31.968  20.918  25.448  1.00  0.00     0.127 A 
ATOM     19  C   UNL A   1      33.059  20.238  24.960  1.00  0.00     0.091 A 
BRANCH  19  20
ATOM     20  C   UNL A   1      33.134  18.808  24.756  1.00  0.00     0.002 A 
ATOM     21  C   UNL A   1      32.704  17.930  25.759  1.00  0.00     0.010 A 
ATOM     22  C   UNL A   1      33.634  18.289  23.557  1.00  0.00     0.010 A 
ATOM     23  C   UNL A   1      32.800  16.549  25.577  1.00  0.00     0.001 A 
ATOM     24  C   UNL A   1      33.742  16.905  23.381  1.00  0.00     0.001 A 
ATOM     25  C   UNL A   1      33.329  16.038  24.392  1.00  0.00     0.000 A 
ENDBRANCH  19  20
ENDBRANCH   7   9
ENDBRANCH   5   7
ENDBRANCH   4   5
ENDBRANCH   3   4
ENDBRANCH   2   3
ENDBRANCH   1   2
BRANCH   1  26
ATOM     26  C   UNL A   1      41.796  20.327  26.238  1.00  0.00     0.202 C 
BRANCH  26  27
ATOM     27  C   UNL A   1      42.605  19.142  25.729  1.00  0.00     0.261 C 
BRANCH  27  28
ATOM     28  O   UNL A   1      44.004  19.390  25.796  1.00  0.00    -0.460 OA
BRANCH  28  29
ATOM     29  C   UNL A   1      44.542  19.801  24.630  1.00  0.00     0.338 C 
ATOM     30  O   UNL A   1      44.838  19.101  23.671  1.00  0.00    -0.246 OA
BRANCH  29  31
ATOM     31  C   UNL A   1      44.882  21.222  24.721  1.00  0.00     0.060 A 
ATOM     32  C   UNL A   1      45.602  21.570  25.861  1.00  0.00     0.016 A 
ATOM     33  C   UNL A   1      44.202  22.175  23.944  1.00  0.00     0.016 A 
ATOM     34  C   UNL A   1      45.377  22.811  26.396  1.00  0.00     0.010 A 
ATOM     35  C   UNL A   1      43.993  23.427  24.476  1.00  0.00     0.010 A 
ATOM     36  C   UNL A   1      44.487  23.682  25.748  1.00  0.00    -0.014 A 
BRANCH  36  37
ATOM     37  C   UNL A   1      44.174  24.905  26.452  1.00  0.00     0.031 A 
ATOM     38  C   UNL A   1      45.269  25.887  26.355  1.00  0.00     0.074 A 
ATOM     39  C   UNL A   1      43.051  25.100  27.164  1.00  0.00     0.049 A 
ATOM     40  N   UNL A   1      46.127  26.184  27.272  1.00  0.00    -0.248 NA
ATOM     41  C   UNL A   1      45.580  26.429  25.026  1.00  0.00     0.031 C 
ATOM     42  C   UNL A   1      41.806  24.332  27.175  1.00  0.00     0.029 A 
ATOM     43  N   UNL A   1      42.794  26.112  28.034  1.00  0.00    -0.354 N 
ATOM     44  C   UNL A   1      46.985  27.107  26.692  1.00  0.00     0.074 A 
ATOM     45  C   UNL A   1      46.713  27.085  25.278  1.00  0.00     0.031 C 
ATOM     46  C   UNL A   1      40.855  25.034  27.841  1.00  0.00     0.029 A 
ATOM     47  C   UNL A   1      41.468  26.213  28.431  1.00  0.00     0.049 A 
ATOM     48  H   UNL A   1      43.493  26.725  28.357  1.00  0.00     0.167 HD
ATOM     49  C   UNL A   1      47.673  27.987  27.463  1.00  0.00     0.037 A 
ATOM     50  C   UNL A   1      40.938  27.238  29.145  1.00  0.00     0.037 A 
ATOM     51  C   UNL A   1      47.778  27.519  28.824  1.00  0.00     0.049 A 
ATOM     52  C   UNL A   1      42.061  27.903  29.858  1.00  0.00     0.074 A 
ATOM     53  C   UNL A   1      48.355  26.419  29.430  1.00  0.00     0.029 A 
ATOM     54  N   UNL A   1      46.906  28.037  29.749  1.00  0.00    -0.354 N 
ATOM     55  N   UNL A   1      42.729  27.351  30.831  1.00  0.00    -0.248 NA
ATOM     56  C   UNL A   1      42.737  28.998  29.177  1.00  0.00     0.031 C 
ATOM     57  C   UNL A   1      47.462  26.062  30.483  1.00  0.00     0.029 A 
ATOM     58  C   UNL A   1      46.422  26.992  30.495  1.00  0.00     0.049 A 
ATOM     59  H   UNL A   1      46.670  28.986  29.858  1.00  0.00     0.167 HD
ATOM     60  C   UNL A   1      44.047  27.724  30.613  1.00  0.00     0.074 A 
ATOM     61  C   UNL A   1      43.980  28.796  29.622  1.00  0.00     0.031 C 
ATOM     62  C   UNL A   1      45.083  26.944  31.037  1.00  0.00     0.037 A 
BRANCH  49  63
ATOM     63  C   UNL A   1      47.872  29.430  27.076  1.00  0.00     0.057 A 
ATOM     64  C   UNL A   1      49.154  29.993  27.192  1.00  0.00     0.134 A 
ATOM     65  C   UNL A   1      46.826  30.358  26.885  1.00  0.00     0.134 A 
ATOM     66  F   UNL A   1      50.232  29.221  27.388  1.00  0.00    -0.206 F 
ATOM     67  C   UNL A   1      49.366  31.377  27.201  1.00  0.00     0.040 A 
ATOM     68  C   UNL A   1      47.034  31.738  26.842  1.00  0.00     0.040 A 
ATOM     69  F   UNL A   1      45.539  30.002  26.830  1.00  0.00    -0.206 F 
ATOM     70  C   UNL A   1      48.302  32.255  27.035  1.00  0.00     0.006 A 
ENDBRANCH  49  63
BRANCH  50  71
ATOM     71  C   UNL A   1      39.643  27.926  28.932  1.00  0.00     0.057 A 
ATOM     72  C   UNL A   1      38.707  28.031  29.973  1.00  0.00     0.134 A 
ATOM     73  C   UNL A   1      39.426  28.764  27.825  1.00  0.00     0.134 A 
ATOM     74  F   UNL A   1      38.847  27.301  31.090  1.00  0.00    -0.206 F 
ATOM     75  C   UNL A   1      37.644  28.944  29.935  1.00  0.00     0.040 A 
ATOM     76  C   UNL A   1      38.367  29.677  27.772  1.00  0.00     0.040 A 
ATOM     77  F   UNL A   1      40.289  28.794  26.800  1.00  0.00    -0.206 F 
ATOM     78  C   UNL A   1      37.482  29.783  28.837  1.00  0.00     0.006 A 
ENDBRANCH  50  71
BRANCH  62  79
ATOM     79  C   UNL A   1      44.770  25.794  31.957  1.00  0.00     0.057 A 
ATOM     80  C   UNL A   1      44.434  24.503  31.516  1.00  0.00     0.134 A 
ATOM     81  C   UNL A   1      44.981  25.958  33.330  1.00  0.00     0.134 A 
ATOM     82  F   UNL A   1      44.297  24.228  30.213  1.00  0.00    -0.206 F 
ATOM     83  C   UNL A   1      44.289  23.435  32.410  1.00  0.00     0.040 A 
ATOM     84  C   UNL A   1      44.872  24.894  34.227  1.00  0.00     0.040 A 
ATOM     85  F   UNL A   1      45.353  27.153  33.817  1.00  0.00    -0.206 F 
ATOM     86  C   UNL A   1      44.519  23.627  33.769  1.00  0.00     0.006 A 
ENDBRANCH  62  79
ENDBRANCH  36  37
ENDBRANCH  29  31
ENDBRANCH  28  29
ENDBRANCH  27  28
ENDBRANCH  26  27
ENDBRANCH   1  26
TORSDOF 16
ENDMDL
MODEL 3
REMARK VINA RESULT:     -11.6      5.255     10.577
REMARK SMILES Cc1cc(=O)n2cc(-c3ccccc3)nc2n1[C@H](C)C(=O)OCCOCCOC(=O)c1ccc(-c2c3nc(c(-c4c(F)cccc4F)c4ccc([nH]4)c(-c4c(F)cccc4F)c4nc(c(-c5c(F)cccc5F)c5ccc2[nH]5)C=C4)C=C3)cc1
REMARK SMILES IDX 25 1 24 2 23 3 22 4 20 5 21 6 18 7 19 8 17 9 1 10 2 11 3 12
REMARK SMILES IDX 4 13 16 14 5 15 6 16 15 17 7 18 8 19 9 20 10 21 14 22 11 23
REMARK SMILES IDX 13 24 12 25 26 26 27 27 28 28 29 29 30 30 31 31 32 32 84 33
REMARK SMILES IDX 33 34 83 35 34 36 35 37 36 38 77 39 37 40 82 41 76 42 78 43
REMARK SMILES IDX 38 44 81 45 75 46 74 47 39 49 65 50 48 51 64 52 49 53 52 54
REMARK SMILES IDX 63 55 79 56 50 57 51 58 62 60 80 61 53 62 40 63 41 64 46 65
REMARK SMILES IDX 42 66 43 67 45 68 47 69 44 70 66 71 67 72 72 73 68 74 69 75
REMARK SMILES IDX 71 76 73 77 70 78 54 79 55 80 60 81 56 82 57 83 59 84 61 85
REMARK SMILES IDX 58 86
REMARK H PARENT 78 48 52 59
REMARK Flexibility Score: inf
ROOT
ATOM      1  O   UNL A   1      33.613  33.443  29.107  1.00  0.00    -0.374 OA
ENDROOT
BRANCH   1   2
ATOM      2  C   UNL A   1      33.668  32.729  27.873  1.00  0.00     0.202 C 
BRANCH   2   3
ATOM      3  C   UNL A   1      34.209  31.302  27.890  1.00  0.00     0.261 C 
BRANCH   3   4
ATOM      4  O   UNL A   1      33.290  30.383  27.281  1.00  0.00    -0.462 OA
BRANCH   4   5
ATOM      5  C   UNL A   1      33.870  29.267  26.772  1.00  0.00     0.329 C 
ATOM      6  O   UNL A   1      35.052  29.183  26.443  1.00  0.00    -0.250 OA
BRANCH   5   7
ATOM      7  C   UNL A   1      32.921  28.071  26.661  1.00  0.00     0.197 C 
ATOM      8  C   UNL A   1      31.599  28.105  27.428  1.00  0.00     0.044 C 
BRANCH   7   9
ATOM      9  N   UNL A   1      32.764  27.739  25.223  1.00  0.00    -0.301 N 
ATOM     10  C   UNL A   1      31.028  29.545  24.905  1.00  0.00     0.065 C 
ATOM     11  C   UNL A   1      31.818  28.365  24.388  1.00  0.00     0.024 A 
ATOM     12  C   UNL A   1      31.569  27.912  23.145  1.00  0.00     0.093 A 
ATOM     13  C   UNL A   1      32.285  26.730  22.630  1.00  0.00     0.259 A 
ATOM     14  C   UNL A   1      33.381  26.588  24.809  1.00  0.00     0.218 A 
ATOM     15  O   UNL A   1      32.137  26.269  21.497  1.00  0.00    -0.269 OA
ATOM     16  N   UNL A   1      33.157  26.131  23.526  1.00  0.00    -0.251 N 
ATOM     17  N   UNL A   1      34.179  25.776  25.469  1.00  0.00    -0.212 NA
ATOM     18  C   UNL A   1      33.940  25.012  23.358  1.00  0.00     0.127 A 
ATOM     19  C   UNL A   1      34.568  24.821  24.566  1.00  0.00     0.091 A 
BRANCH  19  20
ATOM     20  C   UNL A   1      35.511  23.765  24.863  1.00  0.00     0.002 A 
ATOM     21  C   UNL A   1      36.630  24.025  25.666  1.00  0.00     0.010 A 
ATOM     22  C   UNL A   1      35.316  22.477  24.353  1.00  0.00     0.010 A 
ATOM     23  C   UNL A   1      37.557  23.016  25.931  1.00  0.00     0.001 A 
ATOM     24  C   UNL A   1      36.253  21.471  24.608  1.00  0.00     0.001 A 
ATOM     25  C   UNL A   1      37.374  21.742  25.393  1.00  0.00     0.000 A 
ENDBRANCH  19  20
ENDBRANCH   7   9
ENDBRANCH   5   7
ENDBRANCH   4   5
ENDBRANCH   3   4
ENDBRANCH   2   3
ENDBRANCH   1   2
BRANCH   1  26
ATOM     26  C   UNL A   1      34.046  34.797  29.184  1.00  0.00     0.202 C 
BRANCH  26  27
ATOM     27  C   UNL A   1      33.107  35.822  29.806  1.00  0.00     0.261 C 
BRANCH  27  28
ATOM     28  O   UNL A   1      33.555  36.238  31.091  1.00  0.00    -0.460 OA
BRANCH  28  29
ATOM     29  C   UNL A   1      33.075  35.490  32.104  1.00  0.00     0.338 C 
ATOM     30  O   UNL A   1      31.932  35.489  32.540  1.00  0.00    -0.246 OA
BRANCH  29  31
ATOM     31  C   UNL A   1      34.177  34.766  32.743  1.00  0.00     0.060 A 
ATOM     32  C   UNL A   1      35.422  35.373  32.603  1.00  0.00     0.016 A 
ATOM     33  C   UNL A   1      34.037  33.415  33.100  1.00  0.00     0.016 A 
ATOM     34  C   UNL A   1      36.516  34.554  32.507  1.00  0.00     0.010 A 
ATOM     35  C   UNL A   1      35.142  32.597  33.020  1.00  0.00     0.010 A 
ATOM     36  C   UNL A   1      36.340  33.165  32.608  1.00  0.00    -0.014 A 
BRANCH  36  37
ATOM     37  C   UNL A   1      37.508  32.358  32.336  1.00  0.00     0.031 A 
ATOM     38  C   UNL A   1      38.401  32.275  33.506  1.00  0.00     0.074 A 
ATOM     39  C   UNL A   1      37.780  31.804  31.142  1.00  0.00     0.049 A 
ATOM     40  N   UNL A   1      39.512  32.907  33.679  1.00  0.00    -0.248 NA
ATOM     41  C   UNL A   1      37.891  31.592  34.702  1.00  0.00     0.031 C 
ATOM     42  C   UNL A   1      36.913  31.613  29.980  1.00  0.00     0.029 A 
ATOM     43  N   UNL A   1      38.952  31.242  30.744  1.00  0.00    -0.354 N 
ATOM     44  C   UNL A   1      39.948  32.550  34.946  1.00  0.00     0.074 A 
ATOM     45  C   UNL A   1      38.840  31.892  35.588  1.00  0.00     0.031 C 
ATOM     46  C   UNL A   1      37.524  30.784  29.098  1.00  0.00     0.029 A 
ATOM     47  C   UNL A   1      38.877  30.520  29.562  1.00  0.00     0.049 A 
ATOM     48  H   UNL A   1      39.788  31.338  31.256  1.00  0.00     0.167 HD
ATOM     49  C   UNL A   1      41.267  32.610  35.263  1.00  0.00     0.037 A 
ATOM     50  C   UNL A   1      39.860  29.728  29.061  1.00  0.00     0.037 A 
ATOM     51  C   UNL A   1      41.977  33.500  34.377  1.00  0.00     0.049 A 
ATOM     52  C   UNL A   1      41.139  30.181  29.666  1.00  0.00     0.074 A 
ATOM     53  C   UNL A   1      41.904  34.852  34.095  1.00  0.00     0.029 A 
ATOM     54  N   UNL A   1      42.683  32.944  33.340  1.00  0.00    -0.354 N 
ATOM     55  N   UNL A   1      41.700  31.328  29.401  1.00  0.00    -0.248 NA
ATOM     56  C   UNL A   1      41.554  29.557  30.914  1.00  0.00     0.031 C 
ATOM     57  C   UNL A   1      42.147  34.954  32.693  1.00  0.00     0.029 A 
ATOM     58  C   UNL A   1      42.408  33.671  32.210  1.00  0.00     0.049 A 
ATOM     59  H   UNL A   1      43.280  32.163  33.396  1.00  0.00     0.167 HD
ATOM     60  C   UNL A   1      42.196  31.771  30.619  1.00  0.00     0.074 A 
ATOM     61  C   UNL A   1      42.139  30.605  31.499  1.00  0.00     0.031 C 
ATOM     62  C   UNL A   1      42.339  33.102  30.884  1.00  0.00     0.037 A 
BRANCH  49  63
ATOM     63  C   UNL A   1      41.957  31.558  36.091  1.00  0.00     0.057 A 
ATOM     64  C   UNL A   1      42.765  31.962  37.167  1.00  0.00     0.134 A 
ATOM     65  C   UNL A   1      42.104  30.207  35.707  1.00  0.00     0.134 A 
ATOM     66  F   UNL A   1      42.728  33.222  37.622  1.00  0.00    -0.206 F 
ATOM     67  C   UNL A   1      43.706  31.110  37.758  1.00  0.00     0.040 A 
ATOM     68  C   UNL A   1      43.005  29.337  36.323  1.00  0.00     0.040 A 
ATOM     69  F   UNL A   1      41.470  29.677  34.657  1.00  0.00    -0.206 F 
ATOM     70  C   UNL A   1      43.835  29.795  37.329  1.00  0.00     0.006 A 
ENDBRANCH  49  63
BRANCH  50  71
ATOM     71  C   UNL A   1      39.727  28.384  28.450  1.00  0.00     0.057 A 
ATOM     72  C   UNL A   1      40.322  28.099  27.211  1.00  0.00     0.134 A 
ATOM     73  C   UNL A   1      39.300  27.273  29.196  1.00  0.00     0.134 A 
ATOM     74  F   UNL A   1      40.798  29.089  26.441  1.00  0.00    -0.206 F 
ATOM     75  C   UNL A   1      40.519  26.787  26.760  1.00  0.00     0.040 A 
ATOM     76  C   UNL A   1      39.486  25.959  28.757  1.00  0.00     0.040 A 
ATOM     77  F   UNL A   1      38.774  27.423  30.421  1.00  0.00    -0.206 F 
ATOM     78  C   UNL A   1      40.114  25.710  27.543  1.00  0.00     0.006 A 
ENDBRANCH  50  71
BRANCH  62  79
ATOM     79  C   UNL A   1      42.175  34.070  29.743  1.00  0.00     0.057 A 
ATOM     80  C   UNL A   1      40.957  34.675  29.392  1.00  0.00     0.134 A 
ATOM     81  C   UNL A   1      43.322  34.530  29.086  1.00  0.00     0.134 A 
ATOM     82  F   UNL A   1      39.820  34.362  30.026  1.00  0.00    -0.206 F 
ATOM     83  C   UNL A   1      40.886  35.673  28.414  1.00  0.00     0.040 A 
ATOM     84  C   UNL A   1      43.268  35.548  28.132  1.00  0.00     0.040 A 
ATOM     85  F   UNL A   1      44.527  34.033  29.405  1.00  0.00    -0.206 F 
ATOM     86  C   UNL A   1      42.046  36.120  27.788  1.00  0.00     0.006 A 
ENDBRANCH  62  79
ENDBRANCH  36  37
ENDBRANCH  29  31
ENDBRANCH  28  29
ENDBRANCH  27  28
ENDBRANCH  26  27
ENDBRANCH   1  26
TORSDOF 16
ENDMDL
