MODEL 1
REMARK VINA RESULT:     -12.5      0.000      0.000
REMARK SMILES CS(=O)(=O)c1ccc(-c2cc(Cl)cc3c2O[C@@H](C(F)(F)F)C(C(=O)OCCOCCOC(=O)c2ccc(-c4c5nc(c(-c6c(F)cccc6F)c6ccc([nH]6)c(-c6c(F)cccc6F)c6nc(c(-c7c(F)cccc7F)c7ccc4[nH]7)C=C6)C=C5)cc2)=C3)cc1
REMARK SMILES IDX 28 1 27 2 26 3 25 4 23 5 24 6 22 7 9 8 10 9 15 10 11 11
REMARK SMILES IDX 14 12 16 13 12 14 13 15 88 16 17 17 8 18 5 19 6 20 90 21
REMARK SMILES IDX 7 22 89 23 2 24 1 25 3 26 4 27 18 28 19 29 20 30 21 31 29 32
REMARK SMILES IDX 30 33 31 34 32 35 33 36 34 37 35 38 87 39 36 40 86 41 37 42
REMARK SMILES IDX 38 43 39 44 80 45 40 46 85 47 79 48 81 49 41 50 84 51 78 52
REMARK SMILES IDX 77 53 42 55 68 56 51 57 67 58 52 59 55 60 66 61 82 62 53 63
REMARK SMILES IDX 54 64 65 66 83 67 56 68 43 69 44 70 49 71 45 72 46 73 48 74
REMARK SMILES IDX 50 75 47 76 69 77 70 78 75 79 71 80 72 81 74 82 76 83 73 84
REMARK SMILES IDX 57 85 58 86 63 87 59 88 60 89 62 90 64 91 61 92
REMARK H PARENT 81 54 55 65
REMARK Flexibility Score: inf
ROOT
ATOM      1  O   UNL A   1      37.479  20.455  24.950  1.00  0.00    -0.374 OA
ENDROOT
BRANCH   1   2
ATOM      2  C   UNL A   1      37.966  21.768  25.186  1.00  0.00     0.202 C 
BRANCH   2   3
ATOM      3  C   UNL A   1      37.009  22.952  24.973  1.00  0.00     0.261 C 
BRANCH   3   4
ATOM      4  O   UNL A   1      35.754  22.790  25.650  1.00  0.00    -0.460 OA
BRANCH   4   5
ATOM      5  C   UNL A   1      34.665  23.211  24.980  1.00  0.00     0.338 C 
ATOM      6  O   UNL A   1      34.226  22.709  23.954  1.00  0.00    -0.246 OA
BRANCH   5   7
ATOM      7  C   UNL A   1      33.929  24.267  25.714  1.00  0.00     0.087 C 
ATOM      8  C   UNL A   1      30.904  26.263  23.670  1.00  0.00     0.026 A 
ATOM      9  C   UNL A   1      31.196  26.001  22.313  1.00  0.00     0.033 A 
ATOM     10  C   UNL A   1      31.866  25.777  24.582  1.00  0.00     0.135 A 
ATOM     11  C   UNL A   1      32.498  25.703  21.909  1.00  0.00     0.042 A 
ATOM     12  C   UNL A   1      33.214  25.742  24.190  1.00  0.00     0.019 A 
ATOM     13  O   UNL A   1      31.471  24.785  25.515  1.00  0.00    -0.475 OA
ATOM     14  Cl  UNL A   1      32.842  25.486  20.241  1.00  0.00    -0.084 Cl
ATOM     15  C   UNL A   1      33.530  25.678  22.838  1.00  0.00     0.032 A 
ATOM     16  C   UNL A   1      34.243  25.476  25.218  1.00  0.00     0.027 C 
ATOM     17  C   UNL A   1      32.550  24.171  26.334  1.00  0.00     0.316 C 
BRANCH   8  18
ATOM     18  C   UNL A   1      30.169  27.580  23.849  1.00  0.00    -0.015 A 
ATOM     19  C   UNL A   1      29.047  30.156  23.317  1.00  0.00     0.067 A 
ATOM     20  C   UNL A   1      28.293  28.997  23.114  1.00  0.00     0.021 A 
ATOM     21  C   UNL A   1      30.321  30.055  23.870  1.00  0.00     0.021 A 
ATOM     22  C   UNL A   1      28.842  27.733  23.393  1.00  0.00     0.010 A 
ATOM     23  C   UNL A   1      30.869  28.777  24.135  1.00  0.00     0.010 A 
BRANCH  19  24
ATOM     24  S   UNL A   1      28.329  31.695  22.768  1.00  0.00     0.175 S 
ATOM     25  C   UNL A   1      28.122  31.642  21.014  1.00  0.00     0.163 C 
ATOM     26  O   UNL A   1      29.313  32.725  23.047  1.00  0.00    -0.224 OA
ATOM     27  O   UNL A   1      27.002  31.754  23.354  1.00  0.00    -0.224 OA
ENDBRANCH  19  24
ENDBRANCH   8  18
BRANCH  17  28
ATOM     28  C   UNL A   1      32.223  22.808  26.989  1.00  0.00     0.430 C 
ATOM     29  F   UNL A   1      33.013  22.641  28.087  1.00  0.00    -0.167 F 
ATOM     30  F   UNL A   1      30.945  22.754  27.428  1.00  0.00    -0.167 F 
ATOM     31  F   UNL A   1      32.421  21.732  26.205  1.00  0.00    -0.167 F 
ENDBRANCH  17  28
ENDBRANCH   5   7
ENDBRANCH   4   5
ENDBRANCH   3   4
ENDBRANCH   2   3
ENDBRANCH   1   2
BRANCH   1  32
ATOM     32  C   UNL A   1      38.342  19.356  25.234  1.00  0.00     0.202 C 
BRANCH  32  33
ATOM     33  C   UNL A   1      39.611  19.620  26.051  1.00  0.00     0.261 C 
BRANCH  33  34
ATOM     34  O   UNL A   1      40.810  19.171  25.403  1.00  0.00    -0.460 OA
BRANCH  34  35
ATOM     35  C   UNL A   1      41.923  19.196  26.175  1.00  0.00     0.338 C 
ATOM     36  O   UNL A   1      42.688  18.273  26.419  1.00  0.00    -0.246 OA
BRANCH  35  37
ATOM     37  C   UNL A   1      42.195  20.577  26.592  1.00  0.00     0.060 A 
ATOM     38  C   UNL A   1      42.530  21.520  25.611  1.00  0.00     0.016 A 
ATOM     39  C   UNL A   1      42.189  20.922  27.944  1.00  0.00     0.016 A 
ATOM     40  C   UNL A   1      42.866  22.819  25.983  1.00  0.00     0.010 A 
ATOM     41  C   UNL A   1      42.538  22.221  28.315  1.00  0.00     0.010 A 
ATOM     42  C   UNL A   1      42.891  23.171  27.339  1.00  0.00    -0.014 A 
BRANCH  42  43
ATOM     43  C   UNL A   1      43.363  24.510  27.757  1.00  0.00     0.031 A 
ATOM     44  C   UNL A   1      42.359  25.558  28.137  1.00  0.00     0.074 A 
ATOM     45  C   UNL A   1      44.677  24.791  27.758  1.00  0.00     0.049 A 
ATOM     46  N   UNL A   1      42.545  26.823  28.412  1.00  0.00    -0.248 NA
ATOM     47  C   UNL A   1      40.956  25.123  28.207  1.00  0.00     0.031 C 
ATOM     48  C   UNL A   1      45.742  23.842  27.434  1.00  0.00     0.029 A 
ATOM     49  N   UNL A   1      45.337  25.967  28.014  1.00  0.00    -0.354 N 
ATOM     50  C   UNL A   1      41.283  27.340  28.673  1.00  0.00     0.074 A 
ATOM     51  C   UNL A   1      40.338  26.257  28.501  1.00  0.00     0.031 C 
ATOM     52  C   UNL A   1      46.922  24.482  27.482  1.00  0.00     0.029 A 
ATOM     53  C   UNL A   1      46.689  25.889  27.796  1.00  0.00     0.049 A 
ATOM     54  H   UNL A   1      44.884  26.784  28.323  1.00  0.00     0.167 HD
ATOM     55  C   UNL A   1      40.949  28.605  29.026  1.00  0.00     0.037 A 
ATOM     56  C   UNL A   1      47.628  26.856  27.806  1.00  0.00     0.037 A 
ATOM     57  C   UNL A   1      41.899  29.673  29.187  1.00  0.00     0.049 A 
ATOM     58  C   UNL A   1      47.223  28.270  28.127  1.00  0.00     0.074 A 
ATOM     59  C   UNL A   1      41.668  30.980  29.581  1.00  0.00     0.029 A 
ATOM     60  N   UNL A   1      43.261  29.564  28.946  1.00  0.00    -0.354 N 
ATOM     61  N   UNL A   1      46.035  28.745  28.415  1.00  0.00    -0.248 NA
ATOM     62  C   UNL A   1      48.288  29.282  28.124  1.00  0.00     0.031 C 
ATOM     63  C   UNL A   1      42.880  31.675  29.514  1.00  0.00     0.029 A 
ATOM     64  C   UNL A   1      43.878  30.788  29.141  1.00  0.00     0.049 A 
ATOM     65  H   UNL A   1      43.721  28.735  28.677  1.00  0.00     0.167 HD
ATOM     66  C   UNL A   1      46.211  30.103  28.646  1.00  0.00     0.074 A 
ATOM     67  C   UNL A   1      47.624  30.373  28.480  1.00  0.00     0.031 C 
ATOM     68  C   UNL A   1      45.286  31.042  28.967  1.00  0.00     0.037 A 
BRANCH  55  69
ATOM     69  C   UNL A   1      39.490  28.906  29.220  1.00  0.00     0.057 A 
ATOM     70  C   UNL A   1      38.865  28.795  30.468  1.00  0.00     0.134 A 
ATOM     71  C   UNL A   1      38.703  29.331  28.141  1.00  0.00     0.134 A 
ATOM     72  F   UNL A   1      39.555  28.382  31.542  1.00  0.00    -0.206 F 
ATOM     73  C   UNL A   1      37.504  29.068  30.631  1.00  0.00     0.040 A 
ATOM     74  C   UNL A   1      37.350  29.634  28.296  1.00  0.00     0.040 A 
ATOM     75  F   UNL A   1      39.239  29.464  26.917  1.00  0.00    -0.206 F 
ATOM     76  C   UNL A   1      36.744  29.495  29.544  1.00  0.00     0.006 A 
ENDBRANCH  55  69
BRANCH  56  77
ATOM     77  C   UNL A   1      49.034  26.521  27.467  1.00  0.00     0.057 A 
ATOM     78  C   UNL A   1      49.481  26.519  26.141  1.00  0.00     0.134 A 
ATOM     79  C   UNL A   1      49.966  26.200  28.462  1.00  0.00     0.134 A 
ATOM     80  F   UNL A   1      48.631  26.795  25.142  1.00  0.00    -0.206 F 
ATOM     81  C   UNL A   1      50.800  26.198  25.815  1.00  0.00     0.040 A 
ATOM     82  C   UNL A   1      51.294  25.904  28.154  1.00  0.00     0.040 A 
ATOM     83  F   UNL A   1      49.601  26.186  29.752  1.00  0.00    -0.206 F 
ATOM     84  C   UNL A   1      51.713  25.897  26.825  1.00  0.00     0.006 A 
ENDBRANCH  56  77
BRANCH  68  85
ATOM     85  C   UNL A   1      45.773  32.446  29.181  1.00  0.00     0.057 A 
ATOM     86  C   UNL A   1      45.914  33.350  28.120  1.00  0.00     0.134 A 
ATOM     87  C   UNL A   1      46.049  32.917  30.472  1.00  0.00     0.134 A 
ATOM     88  F   UNL A   1      45.679  32.960  26.859  1.00  0.00    -0.206 F 
ATOM     89  C   UNL A   1      46.327  34.667  28.335  1.00  0.00     0.040 A 
ATOM     90  C   UNL A   1      46.433  34.238  30.702  1.00  0.00     0.040 A 
ATOM     91  F   UNL A   1      45.924  32.106  31.534  1.00  0.00    -0.206 F 
ATOM     92  C   UNL A   1      46.578  35.116  29.630  1.00  0.00     0.006 A 
ENDBRANCH  68  85
ENDBRANCH  42  43
ENDBRANCH  35  37
ENDBRANCH  34  35
ENDBRANCH  33  34
ENDBRANCH  32  33
ENDBRANCH   1  32
TORSDOF 17
ENDMDL
MODEL 2
REMARK VINA RESULT:     -12.5      1.347      2.072
REMARK SMILES CS(=O)(=O)c1ccc(-c2cc(Cl)cc3c2O[C@@H](C(F)(F)F)C(C(=O)OCCOCCOC(=O)c2ccc(-c4c5nc(c(-c6c(F)cccc6F)c6ccc([nH]6)c(-c6c(F)cccc6F)c6nc(c(-c7c(F)cccc7F)c7ccc4[nH]7)C=C6)C=C5)cc2)=C3)cc1
REMARK SMILES IDX 28 1 27 2 26 3 25 4 23 5 24 6 22 7 9 8 10 9 15 10 11 11
REMARK SMILES IDX 14 12 16 13 12 14 13 15 88 16 17 17 8 18 5 19 6 20 90 21
REMARK SMILES IDX 7 22 89 23 2 24 1 25 3 26 4 27 18 28 19 29 20 30 21 31 29 32
REMARK SMILES IDX 30 33 31 34 32 35 33 36 34 37 35 38 87 39 36 40 86 41 37 42
REMARK SMILES IDX 38 43 39 44 80 45 40 46 85 47 79 48 81 49 41 50 84 51 78 52
REMARK SMILES IDX 77 53 42 55 68 56 51 57 67 58 52 59 55 60 66 61 82 62 53 63
REMARK SMILES IDX 54 64 65 66 83 67 56 68 43 69 44 70 49 71 45 72 46 73 48 74
REMARK SMILES IDX 50 75 47 76 69 77 70 78 75 79 71 80 72 81 74 82 76 83 73 84
REMARK SMILES IDX 57 85 58 86 63 87 59 88 60 89 62 90 64 91 61 92
REMARK H PARENT 81 54 55 65
REMARK Flexibility Score: inf
ROOT
ATOM      1  O   UNL A   1      37.159  21.614  25.153  1.00  0.00    -0.374 OA
ENDROOT
BRANCH   1   2
ATOM      2  C   UNL A   1      36.376  22.652  25.726  1.00  0.00     0.202 C 
BRANCH   2   3
ATOM      3  C   UNL A   1      35.108  22.268  26.506  1.00  0.00     0.261 C 
BRANCH   3   4
ATOM      4  O   UNL A   1      34.011  23.165  26.273  1.00  0.00    -0.460 OA
BRANCH   4   5
ATOM      5  C   UNL A   1      32.841  22.824  26.845  1.00  0.00     0.338 C 
ATOM      6  O   UNL A   1      32.702  22.437  27.997  1.00  0.00    -0.246 OA
BRANCH   5   7
ATOM      7  C   UNL A   1      31.682  23.129  25.973  1.00  0.00     0.087 C 
ATOM      8  C   UNL A   1      31.812  26.670  23.792  1.00  0.00     0.026 A 
ATOM      9  C   UNL A   1      32.793  27.434  24.463  1.00  0.00     0.033 A 
ATOM     10  C   UNL A   1      31.497  25.443  24.414  1.00  0.00     0.135 A 
ATOM     11  C   UNL A   1      33.073  27.207  25.811  1.00  0.00     0.042 A 
ATOM     12  C   UNL A   1      31.557  25.358  25.814  1.00  0.00     0.019 A 
ATOM     13  O   UNL A   1      31.769  24.241  23.713  1.00  0.00    -0.475 OA
ATOM     14  Cl  UNL A   1      34.198  28.214  26.627  1.00  0.00    -0.084 Cl
ATOM     15  C   UNL A   1      32.376  26.235  26.516  1.00  0.00     0.032 A 
ATOM     16  C   UNL A   1      30.989  24.165  26.476  1.00  0.00     0.027 C 
ATOM     17  C   UNL A   1      31.592  22.972  24.469  1.00  0.00     0.316 C 
BRANCH   8  18
ATOM     18  C   UNL A   1      30.785  27.548  23.098  1.00  0.00    -0.015 A 
ATOM     19  C   UNL A   1      28.971  29.691  22.552  1.00  0.00     0.067 A 
ATOM     20  C   UNL A   1      30.300  29.756  22.123  1.00  0.00     0.021 A 
ATOM     21  C   UNL A   1      28.510  28.530  23.169  1.00  0.00     0.021 A 
ATOM     22  C   UNL A   1      31.184  28.694  22.378  1.00  0.00     0.010 A 
ATOM     23  C   UNL A   1      29.411  27.472  23.432  1.00  0.00     0.010 A 
BRANCH  19  24
ATOM     24  S   UNL A   1      27.977  31.157  22.339  1.00  0.00     0.175 S 
ATOM     25  C   UNL A   1      28.983  32.582  22.623  1.00  0.00     0.163 C 
ATOM     26  O   UNL A   1      26.978  31.128  23.391  1.00  0.00    -0.224 OA
ATOM     27  O   UNL A   1      27.587  31.182  20.941  1.00  0.00    -0.224 OA
ENDBRANCH  19  24
ENDBRANCH   8  18
BRANCH  17  28
ATOM     28  C   UNL A   1      32.312  21.728  23.899  1.00  0.00     0.430 C 
ATOM     29  F   UNL A   1      31.748  21.395  22.704  1.00  0.00    -0.167 F 
ATOM     30  F   UNL A   1      33.619  21.972  23.649  1.00  0.00    -0.167 F 
ATOM     31  F   UNL A   1      32.255  20.626  24.671  1.00  0.00    -0.167 F 
ENDBRANCH  17  28
ENDBRANCH   5   7
ENDBRANCH   4   5
ENDBRANCH   3   4
ENDBRANCH   2   3
ENDBRANCH   1   2
BRANCH   1  32
ATOM     32  C   UNL A   1      38.469  21.395  25.671  1.00  0.00     0.202 C 
BRANCH  32  33
ATOM     33  C   UNL A   1      39.139  20.044  25.403  1.00  0.00     0.261 C 
BRANCH  33  34
ATOM     34  O   UNL A   1      40.030  19.632  26.451  1.00  0.00    -0.460 OA
BRANCH  34  35
ATOM     35  C   UNL A   1      41.340  19.597  26.108  1.00  0.00     0.338 C 
ATOM     36  O   UNL A   1      41.921  18.743  25.451  1.00  0.00    -0.246 OA
BRANCH  35  37
ATOM     37  C   UNL A   1      41.985  20.849  26.521  1.00  0.00     0.060 A 
ATOM     38  C   UNL A   1      42.126  21.111  27.890  1.00  0.00     0.016 A 
ATOM     39  C   UNL A   1      42.384  21.787  25.567  1.00  0.00     0.016 A 
ATOM     40  C   UNL A   1      42.666  22.324  28.312  1.00  0.00     0.010 A 
ATOM     41  C   UNL A   1      42.913  23.005  25.993  1.00  0.00     0.010 A 
ATOM     42  C   UNL A   1      43.044  23.285  27.366  1.00  0.00    -0.014 A 
BRANCH  42  43
ATOM     43  C   UNL A   1      43.505  24.622  27.800  1.00  0.00     0.031 A 
ATOM     44  C   UNL A   1      42.493  25.663  28.177  1.00  0.00     0.074 A 
ATOM     45  C   UNL A   1      44.817  24.910  27.818  1.00  0.00     0.049 A 
ATOM     46  N   UNL A   1      42.670  26.926  28.465  1.00  0.00    -0.248 NA
ATOM     47  C   UNL A   1      41.090  25.221  28.228  1.00  0.00     0.031 C 
ATOM     48  C   UNL A   1      45.890  23.968  27.498  1.00  0.00     0.029 A 
ATOM     49  N   UNL A   1      45.469  26.086  28.091  1.00  0.00    -0.354 N 
ATOM     50  C   UNL A   1      41.403  27.436  28.716  1.00  0.00     0.074 A 
ATOM     51  C   UNL A   1      40.464  26.351  28.524  1.00  0.00     0.031 C 
ATOM     52  C   UNL A   1      47.066  24.612  27.564  1.00  0.00     0.029 A 
ATOM     53  C   UNL A   1      46.825  26.016  27.887  1.00  0.00     0.049 A 
ATOM     54  H   UNL A   1      45.009  26.899  28.401  1.00  0.00     0.167 HD
ATOM     55  C   UNL A   1      41.059  28.696  29.076  1.00  0.00     0.037 A 
ATOM     56  C   UNL A   1      47.759  26.986  27.916  1.00  0.00     0.037 A 
ATOM     57  C   UNL A   1      42.002  29.768  29.256  1.00  0.00     0.049 A 
ATOM     58  C   UNL A   1      47.344  28.396  28.245  1.00  0.00     0.074 A 
ATOM     59  C   UNL A   1      41.762  31.070  29.658  1.00  0.00     0.029 A 
ATOM     60  N   UNL A   1      43.367  29.666  29.030  1.00  0.00    -0.354 N 
ATOM     61  N   UNL A   1      46.151  28.863  28.523  1.00  0.00    -0.248 NA
ATOM     62  C   UNL A   1      48.405  29.413  28.261  1.00  0.00     0.031 C 
ATOM     63  C   UNL A   1      42.971  31.771  29.611  1.00  0.00     0.029 A 
ATOM     64  C   UNL A   1      43.977  30.891  29.242  1.00  0.00     0.049 A 
ATOM     65  H   UNL A   1      43.834  28.842  28.759  1.00  0.00     0.167 HD
ATOM     66  C   UNL A   1      46.318  30.220  28.767  1.00  0.00     0.074 A 
ATOM     67  C   UNL A   1      47.732  30.498  28.619  1.00  0.00     0.031 C 
ATOM     68  C   UNL A   1      45.386  31.152  29.086  1.00  0.00     0.037 A 
BRANCH  55  69
ATOM     69  C   UNL A   1      39.596  28.990  29.256  1.00  0.00     0.057 A 
ATOM     70  C   UNL A   1      38.784  29.412  28.196  1.00  0.00     0.134 A 
ATOM     71  C   UNL A   1      38.989  28.830  30.509  1.00  0.00     0.134 A 
ATOM     72  F   UNL A   1      39.302  29.598  26.972  1.00  0.00    -0.206 F 
ATOM     73  C   UNL A   1      37.428  29.692  28.381  1.00  0.00     0.040 A 
ATOM     74  C   UNL A   1      37.629  29.078  30.700  1.00  0.00     0.040 A 
ATOM     75  F   UNL A   1      39.707  28.423  31.567  1.00  0.00    -0.206 F 
ATOM     76  C   UNL A   1      36.846  29.520  29.635  1.00  0.00     0.006 A 
ENDBRANCH  55  69
BRANCH  56  77
ATOM     77  C   UNL A   1      49.170  26.660  27.590  1.00  0.00     0.057 A 
ATOM     78  C   UNL A   1      49.632  26.674  26.269  1.00  0.00     0.134 A 
ATOM     79  C   UNL A   1      50.091  26.332  28.593  1.00  0.00     0.134 A 
ATOM     80  F   UNL A   1      48.793  26.958  25.263  1.00  0.00    -0.206 F 
ATOM     81  C   UNL A   1      50.957  26.362  25.956  1.00  0.00     0.040 A 
ATOM     82  C   UNL A   1      51.424  26.044  28.297  1.00  0.00     0.040 A 
ATOM     83  F   UNL A   1      49.711  26.303  29.878  1.00  0.00    -0.206 F 
ATOM     84  C   UNL A   1      51.859  26.054  26.973  1.00  0.00     0.006 A 
ENDBRANCH  56  77
BRANCH  68  85
ATOM     85  C   UNL A   1      45.864  32.557  29.316  1.00  0.00     0.057 A 
ATOM     86  C   UNL A   1      45.858  33.518  28.297  1.00  0.00     0.134 A 
ATOM     87  C   UNL A   1      46.282  32.969  30.589  1.00  0.00     0.134 A 
ATOM     88  F   UNL A   1      45.483  33.187  27.053  1.00  0.00    -0.206 F 
ATOM     89  C   UNL A   1      46.265  34.833  28.532  1.00  0.00     0.040 A 
ATOM     90  C   UNL A   1      46.662  34.286  30.843  1.00  0.00     0.040 A 
ATOM     91  F   UNL A   1      46.302  32.102  31.613  1.00  0.00    -0.206 F 
ATOM     92  C   UNL A   1      46.659  35.222  29.811  1.00  0.00     0.006 A 
ENDBRANCH  68  85
ENDBRANCH  42  43
ENDBRANCH  35  37
ENDBRANCH  34  35
ENDBRANCH  33  34
ENDBRANCH  32  33
ENDBRANCH   1  32
TORSDOF 17
ENDMDL
MODEL 3
REMARK VINA RESULT:     -12.5      3.878      7.395
REMARK SMILES CS(=O)(=O)c1ccc(-c2cc(Cl)cc3c2O[C@@H](C(F)(F)F)C(C(=O)OCCOCCOC(=O)c2ccc(-c4c5nc(c(-c6c(F)cccc6F)c6ccc([nH]6)c(-c6c(F)cccc6F)c6nc(c(-c7c(F)cccc7F)c7ccc4[nH]7)C=C6)C=C5)cc2)=C3)cc1
REMARK SMILES IDX 28 1 27 2 26 3 25 4 23 5 24 6 22 7 9 8 10 9 15 10 11 11
REMARK SMILES IDX 14 12 16 13 12 14 13 15 88 16 17 17 8 18 5 19 6 20 90 21
REMARK SMILES IDX 7 22 89 23 2 24 1 25 3 26 4 27 18 28 19 29 20 30 21 31 29 32
REMARK SMILES IDX 30 33 31 34 32 35 33 36 34 37 35 38 87 39 36 40 86 41 37 42
REMARK SMILES IDX 38 43 39 44 80 45 40 46 85 47 79 48 81 49 41 50 84 51 78 52
REMARK SMILES IDX 77 53 42 55 68 56 51 57 67 58 52 59 55 60 66 61 82 62 53 63
REMARK SMILES IDX 54 64 65 66 83 67 56 68 43 69 44 70 49 71 45 72 46 73 48 74
REMARK SMILES IDX 50 75 47 76 69 77 70 78 75 79 71 80 72 81 74 82 76 83 73 84
REMARK SMILES IDX 57 85 58 86 63 87 59 88 60 89 62 90 64 91 61 92
REMARK H PARENT 81 54 55 65
REMARK Flexibility Score: inf
ROOT
ATOM      1  O   UNL A   1      39.124  20.922  25.536  1.00  0.00    -0.374 OA
ENDROOT
BRANCH   1   2
ATOM      2  C   UNL A   1      38.259  22.028  25.751  1.00  0.00     0.202 C 
BRANCH   2   3
ATOM      3  C   UNL A   1      36.816  21.940  25.228  1.00  0.00     0.261 C 
BRANCH   3   4
ATOM      4  O   UNL A   1      36.280  23.214  24.839  1.00  0.00    -0.460 OA
BRANCH   4   5
ATOM      5  C   UNL A   1      34.967  23.235  24.545  1.00  0.00     0.338 C 
ATOM      6  O   UNL A   1      34.393  22.444  23.810  1.00  0.00    -0.246 OA
BRANCH   5   7
ATOM      7  C   UNL A   1      34.229  24.236  25.351  1.00  0.00     0.087 C 
ATOM      8  C   UNL A   1      31.011  26.153  23.539  1.00  0.00     0.026 A 
ATOM      9  C   UNL A   1      31.237  25.943  22.160  1.00  0.00     0.033 A 
ATOM     10  C   UNL A   1      32.043  25.684  24.381  1.00  0.00     0.135 A 
ATOM     11  C   UNL A   1      32.526  25.716  21.677  1.00  0.00     0.042 A 
ATOM     12  C   UNL A   1      33.367  25.720  23.915  1.00  0.00     0.019 A 
ATOM     13  O   UNL A   1      31.743  24.649  25.303  1.00  0.00    -0.475 OA
ATOM     14  Cl  UNL A   1      32.785  25.561  19.986  1.00  0.00    -0.084 Cl
ATOM     15  C   UNL A   1      33.609  25.710  22.546  1.00  0.00     0.032 A 
ATOM     16  C   UNL A   1      34.462  25.471  24.876  1.00  0.00     0.027 C 
ATOM     17  C   UNL A   1      32.892  24.061  26.042  1.00  0.00     0.316 C 
BRANCH   8  18
ATOM     18  C   UNL A   1      30.231  27.430  23.798  1.00  0.00    -0.015 A 
ATOM     19  C   UNL A   1      29.021  29.995  23.427  1.00  0.00     0.067 A 
ATOM     20  C   UNL A   1      28.308  28.825  23.151  1.00  0.00     0.021 A 
ATOM     21  C   UNL A   1      30.298  29.903  23.975  1.00  0.00     0.021 A 
ATOM     22  C   UNL A   1      28.899  27.566  23.351  1.00  0.00     0.010 A 
ATOM     23  C   UNL A   1      30.889  28.630  24.160  1.00  0.00     0.010 A 
BRANCH  19  24
ATOM     24  S   UNL A   1      28.251  31.540  22.975  1.00  0.00     0.175 S 
ATOM     25  C   UNL A   1      28.102  31.617  21.215  1.00  0.00     0.163 C 
ATOM     26  O   UNL A   1      29.176  32.586  23.367  1.00  0.00    -0.224 OA
ATOM     27  O   UNL A   1      26.904  31.494  23.515  1.00  0.00    -0.224 OA
ENDBRANCH  19  24
ENDBRANCH   8  18
BRANCH  17  28
ATOM     28  C   UNL A   1      32.662  22.667  26.671  1.00  0.00     0.430 C 
ATOM     29  F   UNL A   1      32.158  21.828  25.722  1.00  0.00    -0.167 F 
ATOM     30  F   UNL A   1      33.818  22.109  27.097  1.00  0.00    -0.167 F 
ATOM     31  F   UNL A   1      31.801  22.638  27.706  1.00  0.00    -0.167 F 
ENDBRANCH  17  28
ENDBRANCH   5   7
ENDBRANCH   4   5
ENDBRANCH   3   4
ENDBRANCH   2   3
ENDBRANCH   1   2
BRANCH   1  32
ATOM     32  C   UNL A   1      40.207  20.728  26.443  1.00  0.00     0.202 C 
BRANCH  32  33
ATOM     33  C   UNL A   1      41.611  21.155  26.001  1.00  0.00     0.261 C 
BRANCH  33  34
ATOM     34  O   UNL A   1      41.663  22.494  25.484  1.00  0.00    -0.460 OA
BRANCH  34  35
ATOM     35  C   UNL A   1      42.766  23.199  25.831  1.00  0.00     0.338 C 
ATOM     36  O   UNL A   1      43.910  23.050  25.425  1.00  0.00    -0.246 OA
BRANCH  35  37
ATOM     37  C   UNL A   1      42.375  24.322  26.692  1.00  0.00     0.060 A 
ATOM     38  C   UNL A   1      43.141  25.494  26.656  1.00  0.00     0.016 A 
ATOM     39  C   UNL A   1      41.305  24.193  27.579  1.00  0.00     0.016 A 
ATOM     40  C   UNL A   1      42.839  26.547  27.516  1.00  0.00     0.010 A 
ATOM     41  C   UNL A   1      41.012  25.244  28.447  1.00  0.00     0.010 A 
ATOM     42  C   UNL A   1      41.785  26.420  28.430  1.00  0.00    -0.014 A 
BRANCH  42  43
ATOM     43  C   UNL A   1      41.529  27.480  29.430  1.00  0.00     0.031 A 
ATOM     44  C   UNL A   1      42.329  27.502  30.700  1.00  0.00     0.074 A 
ATOM     45  C   UNL A   1      40.563  28.389  29.217  1.00  0.00     0.049 A 
ATOM     46  N   UNL A   1      42.186  28.259  31.756  1.00  0.00    -0.248 NA
ATOM     47  C   UNL A   1      43.432  26.533  30.793  1.00  0.00     0.031 C 
ATOM     48  C   UNL A   1      39.744  28.480  28.008  1.00  0.00     0.029 A 
ATOM     49  N   UNL A   1      40.089  29.393  30.023  1.00  0.00    -0.354 N 
ATOM     50  C   UNL A   1      43.169  27.850  32.647  1.00  0.00     0.074 A 
ATOM     51  C   UNL A   1      43.887  26.762  32.016  1.00  0.00     0.031 C 
ATOM     52  C   UNL A   1      38.847  29.466  28.165  1.00  0.00     0.029 A 
ATOM     53  C   UNL A   1      39.002  30.044  29.498  1.00  0.00     0.049 A 
ATOM     54  H   UNL A   1      40.490  29.622  30.892  1.00  0.00     0.167 HD
ATOM     55  C   UNL A   1      43.446  28.342  33.879  1.00  0.00     0.037 A 
ATOM     56  C   UNL A   1      38.196  30.973  30.049  1.00  0.00     0.037 A 
ATOM     57  C   UNL A   1      42.720  29.420  34.497  1.00  0.00     0.049 A 
ATOM     58  C   UNL A   1      38.475  31.452  31.448  1.00  0.00     0.074 A 
ATOM     59  C   UNL A   1      42.945  30.019  35.724  1.00  0.00     0.029 A 
ATOM     60  N   UNL A   1      41.615  30.049  33.942  1.00  0.00    -0.354 N 
ATOM     61  N   UNL A   1      39.432  31.092  32.270  1.00  0.00    -0.248 NA
ATOM     62  C   UNL A   1      37.563  32.464  31.998  1.00  0.00     0.031 C 
ATOM     63  C   UNL A   1      41.937  30.965  35.938  1.00  0.00     0.029 A 
ATOM     64  C   UNL A   1      41.121  31.001  34.819  1.00  0.00     0.049 A 
ATOM     65  H   UNL A   1      41.238  29.849  33.054  1.00  0.00     0.167 HD
ATOM     66  C   UNL A   1      39.251  31.845  33.423  1.00  0.00     0.074 A 
ATOM     67  C   UNL A   1      38.101  32.694  33.188  1.00  0.00     0.031 C 
ATOM     68  C   UNL A   1      39.972  31.835  34.572  1.00  0.00     0.037 A 
BRANCH  55  69
ATOM     69  C   UNL A   1      44.555  27.687  34.652  1.00  0.00     0.057 A 
ATOM     70  C   UNL A   1      45.878  28.145  34.591  1.00  0.00     0.134 A 
ATOM     71  C   UNL A   1      44.290  26.592  35.485  1.00  0.00     0.134 A 
ATOM     72  F   UNL A   1      46.205  29.181  33.804  1.00  0.00    -0.206 F 
ATOM     73  C   UNL A   1      46.901  27.519  35.307  1.00  0.00     0.040 A 
ATOM     74  C   UNL A   1      45.298  25.976  36.228  1.00  0.00     0.040 A 
ATOM     75  F   UNL A   1      43.044  26.105  35.595  1.00  0.00    -0.206 F 
ATOM     76  C   UNL A   1      46.611  26.435  36.133  1.00  0.00     0.006 A 
ENDBRANCH  55  69
BRANCH  56  77
ATOM     77  C   UNL A   1      37.028  31.480  29.286  1.00  0.00     0.057 A 
ATOM     78  C   UNL A   1      37.046  32.742  28.682  1.00  0.00     0.134 A 
ATOM     79  C   UNL A   1      35.866  30.711  29.137  1.00  0.00     0.134 A 
ATOM     80  F   UNL A   1      38.119  33.535  28.808  1.00  0.00    -0.206 F 
ATOM     81  C   UNL A   1      35.948  33.227  27.969  1.00  0.00     0.040 A 
ATOM     82  C   UNL A   1      34.772  31.171  28.404  1.00  0.00     0.040 A 
ATOM     83  F   UNL A   1      35.786  29.491  29.689  1.00  0.00    -0.206 F 
ATOM     84  C   UNL A   1      34.809  32.436  27.821  1.00  0.00     0.006 A 
ENDBRANCH  56  77
BRANCH  68  85
ATOM     85  C   UNL A   1      39.553  32.784  35.657  1.00  0.00     0.057 A 
ATOM     86  C   UNL A   1      38.641  32.413  36.654  1.00  0.00     0.134 A 
ATOM     87  C   UNL A   1      40.113  34.066  35.740  1.00  0.00     0.134 A 
ATOM     88  F   UNL A   1      38.059  31.205  36.627  1.00  0.00    -0.206 F 
ATOM     89  C   UNL A   1      38.291  33.289  37.685  1.00  0.00     0.040 A 
ATOM     90  C   UNL A   1      39.793  34.939  36.780  1.00  0.00     0.040 A 
ATOM     91  F   UNL A   1      41.000  34.482  34.823  1.00  0.00    -0.206 F 
ATOM     92  C   UNL A   1      38.875  34.551  37.754  1.00  0.00     0.006 A 
ENDBRANCH  68  85
ENDBRANCH  42  43
ENDBRANCH  35  37
ENDBRANCH  34  35
ENDBRANCH  33  34
ENDBRANCH  32  33
ENDBRANCH   1  32
TORSDOF 17
ENDMDL
