MODEL 1
REMARK VINA RESULT:     -10.8      0.000      0.000
REMARK SMILES O=C(OCCOCCOC(=O)c1ccc([C@H]2CCC[N@@H+](CCN3CCCC3=O)C2)cc1)c1ccc(-c2c3nc(c(-c4c(F)cccc4F)c4ccc([nH]4)c(-c4c(F)cccc4F)c4nc(c(-c5c(F)cccc5F)c5ccc2[nH]5)C=C4)C=C3)cc1
REMARK SMILES IDX 7 1 6 2 5 3 4 4 3 5 2 6 1 7 32 8 33 9 85 10 34 11 84 12
REMARK SMILES IDX 35 13 36 14 37 15 78 16 38 17 83 18 77 19 79 20 39 21 82 22
REMARK SMILES IDX 76 23 75 24 40 26 66 27 49 28 65 29 50 30 53 31 64 32 80 33
REMARK SMILES IDX 51 34 52 35 63 37 81 38 54 39 41 40 42 41 47 42 43 43 44 44
REMARK SMILES IDX 46 45 48 46 45 47 67 48 68 49 73 50 69 51 70 52 72 53 74 54
REMARK SMILES IDX 71 55 55 56 56 57 61 58 57 59 58 60 60 61 62 62 59 63 8 64
REMARK SMILES IDX 9 65 10 66 11 67 12 68 13 69 31 70 14 71 30 72 15 73 16 74
REMARK SMILES IDX 17 75 29 76 18 77 20 78 19 79 21 81 22 82 23 83 24 84 27 85
REMARK SMILES IDX 25 86 26 87 28 88
REMARK H PARENT 79 25 53 36 20 80
REMARK Flexibility Score: inf
ROOT
ATOM      1  C   UNL A   1      34.982  34.055  29.426  1.00  0.00     0.202 C 
ENDROOT
BRANCH   1   2
ATOM      2  O   UNL A   1      35.194  34.404  30.792  1.00  0.00    -0.374 OA
BRANCH   2   3
ATOM      3  C   UNL A   1      34.088  34.251  31.676  1.00  0.00     0.202 C 
BRANCH   3   4
ATOM      4  C   UNL A   1      34.453  33.557  32.988  1.00  0.00     0.261 C 
BRANCH   4   5
ATOM      5  O   UNL A   1      35.235  32.378  32.729  1.00  0.00    -0.460 OA
BRANCH   5   6
ATOM      6  C   UNL A   1      36.466  32.075  33.204  1.00  0.00     0.338 C 
ATOM      7  O   UNL A   1      36.682  32.205  34.407  1.00  0.00    -0.246 OA
BRANCH   6   8
ATOM      8  C   UNL A   1      37.585  31.576  32.347  1.00  0.00     0.060 A 
ATOM      9  C   UNL A   1      38.661  30.824  32.812  1.00  0.00     0.016 A 
ATOM     10  C   UNL A   1      37.497  31.804  30.963  1.00  0.00     0.016 A 
ATOM     11  C   UNL A   1      39.643  30.351  31.966  1.00  0.00     0.010 A 
ATOM     12  C   UNL A   1      38.464  31.294  30.088  1.00  0.00     0.010 A 
ATOM     13  C   UNL A   1      39.544  30.568  30.598  1.00  0.00    -0.014 A 
BRANCH  13  14
ATOM     14  C   UNL A   1      40.670  30.087  29.783  1.00  0.00     0.031 A 
ATOM     15  C   UNL A   1      41.871  30.967  29.645  1.00  0.00     0.074 A 
ATOM     16  C   UNL A   1      40.678  28.801  29.386  1.00  0.00     0.049 A 
ATOM     17  N   UNL A   1      42.992  30.741  29.019  1.00  0.00    -0.248 NA
ATOM     18  C   UNL A   1      41.809  32.272  30.327  1.00  0.00     0.031 C 
ATOM     19  C   UNL A   1      39.597  27.839  29.626  1.00  0.00     0.029 A 
ATOM     20  N   UNL A   1      41.642  28.065  28.753  1.00  0.00    -0.354 N 
ATOM     21  C   UNL A   1      43.764  31.877  29.218  1.00  0.00     0.074 A 
ATOM     22  C   UNL A   1      42.981  32.798  30.010  1.00  0.00     0.031 C 
ATOM     23  C   UNL A   1      39.974  26.632  29.176  1.00  0.00     0.029 A 
ATOM     24  C   UNL A   1      41.282  26.754  28.549  1.00  0.00     0.049 A 
ATOM     25  H   UNL A   1      42.508  28.438  28.472  1.00  0.00     0.167 HD
ATOM     26  C   UNL A   1      45.017  32.117  28.774  1.00  0.00     0.037 A 
ATOM     27  C   UNL A   1      41.934  25.778  27.893  1.00  0.00     0.037 A 
ATOM     28  C   UNL A   1      45.760  31.176  27.981  1.00  0.00     0.049 A 
ATOM     29  C   UNL A   1      43.278  26.114  27.306  1.00  0.00     0.074 A 
ATOM     30  C   UNL A   1      46.989  31.333  27.371  1.00  0.00     0.029 A 
ATOM     31  N   UNL A   1      45.330  29.884  27.698  1.00  0.00    -0.354 N 
ATOM     32  N   UNL A   1      43.965  27.230  27.403  1.00  0.00    -0.248 NA
ATOM     33  C   UNL A   1      43.931  25.071  26.508  1.00  0.00     0.031 C 
ATOM     34  C   UNL A   1      47.285  30.148  26.686  1.00  0.00     0.029 A 
ATOM     35  C   UNL A   1      46.264  29.235  26.913  1.00  0.00     0.049 A 
ATOM     36  H   UNL A   1      44.483  29.491  28.011  1.00  0.00     0.167 HD
ATOM     37  C   UNL A   1      45.134  27.021  26.687  1.00  0.00     0.074 A 
ATOM     38  C   UNL A   1      45.076  25.659  26.192  1.00  0.00     0.031 C 
ATOM     39  C   UNL A   1      46.160  27.874  26.448  1.00  0.00     0.037 A 
BRANCH  26  40
ATOM     40  C   UNL A   1      45.599  33.464  29.079  1.00  0.00     0.057 A 
ATOM     41  C   UNL A   1      46.365  33.702  30.227  1.00  0.00     0.134 A 
ATOM     42  C   UNL A   1      45.346  34.552  28.235  1.00  0.00     0.134 A 
ATOM     43  F   UNL A   1      46.614  32.711  31.097  1.00  0.00    -0.206 F 
ATOM     44  C   UNL A   1      46.836  34.981  30.539  1.00  0.00     0.040 A 
ATOM     45  C   UNL A   1      45.830  35.829  28.523  1.00  0.00     0.040 A 
ATOM     46  F   UNL A   1      44.608  34.396  27.125  1.00  0.00    -0.206 F 
ATOM     47  C   UNL A   1      46.572  36.047  29.682  1.00  0.00     0.006 A 
ENDBRANCH  26  40
BRANCH  27  48
ATOM     48  C   UNL A   1      41.304  24.446  27.687  1.00  0.00     0.057 A 
ATOM     49  C   UNL A   1      41.728  23.309  28.383  1.00  0.00     0.134 A 
ATOM     50  C   UNL A   1      40.277  24.271  26.748  1.00  0.00     0.134 A 
ATOM     51  F   UNL A   1      42.720  23.398  29.283  1.00  0.00    -0.206 F 
ATOM     52  C   UNL A   1      41.176  22.049  28.137  1.00  0.00     0.040 A 
ATOM     53  C   UNL A   1      39.693  23.026  26.515  1.00  0.00     0.040 A 
ATOM     54  F   UNL A   1      39.818  25.315  26.042  1.00  0.00    -0.206 F 
ATOM     55  C   UNL A   1      40.153  21.906  27.202  1.00  0.00     0.006 A 
ENDBRANCH  27  48
BRANCH  39  56
ATOM     56  C   UNL A   1      47.302  27.334  25.640  1.00  0.00     0.057 A 
ATOM     57  C   UNL A   1      48.341  26.606  26.231  1.00  0.00     0.134 A 
ATOM     58  C   UNL A   1      47.341  27.524  24.255  1.00  0.00     0.134 A 
ATOM     59  F   UNL A   1      48.365  26.405  27.557  1.00  0.00    -0.206 F 
ATOM     60  C   UNL A   1      49.399  26.108  25.471  1.00  0.00     0.040 A 
ATOM     61  C   UNL A   1      48.377  27.005  23.480  1.00  0.00     0.040 A 
ATOM     62  F   UNL A   1      46.368  28.205  23.631  1.00  0.00    -0.206 F 
ATOM     63  C   UNL A   1      49.415  26.302  24.090  1.00  0.00     0.006 A 
ENDBRANCH  39  56
ENDBRANCH  13  14
ENDBRANCH   6   8
ENDBRANCH   5   6
ENDBRANCH   4   5
ENDBRANCH   3   4
ENDBRANCH   2   3
ENDBRANCH   1   2
BRANCH   1  64
ATOM     64  C   UNL A   1      34.432  32.629  29.373  1.00  0.00     0.261 C 
BRANCH  64  65
ATOM     65  O   UNL A   1      34.265  32.255  27.999  1.00  0.00    -0.460 OA
BRANCH  65  66
ATOM     66  C   UNL A   1      34.893  31.112  27.607  1.00  0.00     0.338 C 
ATOM     67  O   UNL A   1      36.074  30.829  27.698  1.00  0.00    -0.246 OA
BRANCH  66  68
ATOM     68  C   UNL A   1      33.826  30.175  27.207  1.00  0.00     0.060 A 
ATOM     69  C   UNL A   1      32.601  30.625  26.695  1.00  0.00     0.016 A 
ATOM     70  C   UNL A   1      34.094  28.821  27.266  1.00  0.00     0.016 A 
ATOM     71  C   UNL A   1      31.679  29.710  26.154  1.00  0.00     0.005 A 
ATOM     72  C   UNL A   1      33.161  27.925  26.773  1.00  0.00     0.005 A 
ATOM     73  C   UNL A   1      31.956  28.336  26.159  1.00  0.00    -0.039 A 
BRANCH  73  74
ATOM     74  C   UNL A   1      30.985  27.293  25.572  1.00  0.00     0.074 C 
ATOM     75  C   UNL A   1      31.000  27.191  24.034  1.00  0.00     0.020 C 
ATOM     76  C   UNL A   1      31.321  25.904  26.155  1.00  0.00     0.270 C 
ATOM     77  C   UNL A   1      30.185  25.977  23.563  1.00  0.00     0.062 C 
ATOM     78  N   UNL A   1      30.690  24.710  25.617  1.00  0.00    -0.333 N 
ATOM     79  C   UNL A   1      30.718  24.668  24.160  1.00  0.00     0.262 C 
ATOM     80  H   UNL A   1      29.694  24.724  25.837  1.00  0.00     0.348 HD
BRANCH  78  81
ATOM     81  C   UNL A   1      31.284  23.515  26.270  1.00  0.00     0.284 C 
BRANCH  81  82
ATOM     82  C   UNL A   1      32.324  22.619  25.523  1.00  0.00     0.180 C 
BRANCH  82  83
ATOM     83  N   UNL A   1      33.726  23.039  25.509  1.00  0.00    -0.337 N 
ATOM     84  C   UNL A   1      34.321  23.708  24.379  1.00  0.00     0.120 C 
ATOM     85  C   UNL A   1      34.628  22.815  26.535  1.00  0.00     0.222 C 
ATOM     86  C   UNL A   1      35.815  23.704  24.647  1.00  0.00     0.031 C 
ATOM     87  C   UNL A   1      35.974  23.355  26.118  1.00  0.00     0.102 C 
ATOM     88  O   UNL A   1      34.384  22.309  27.618  1.00  0.00    -0.275 OA
ENDBRANCH  82  83
ENDBRANCH  81  82
ENDBRANCH  78  81
ENDBRANCH  73  74
ENDBRANCH  66  68
ENDBRANCH  65  66
ENDBRANCH  64  65
ENDBRANCH   1  64
TORSDOF 18
ENDMDL
MODEL 2
REMARK VINA RESULT:     -10.8      5.207     10.327
REMARK SMILES O=C(OCCOCCOC(=O)c1ccc([C@H]2CCC[N@@H+](CCN3CCCC3=O)C2)cc1)c1ccc(-c2c3nc(c(-c4c(F)cccc4F)c4ccc([nH]4)c(-c4c(F)cccc4F)c4nc(c(-c5c(F)cccc5F)c5ccc2[nH]5)C=C4)C=C3)cc1
REMARK SMILES IDX 7 1 6 2 5 3 4 4 3 5 2 6 1 7 32 8 33 9 85 10 34 11 84 12
REMARK SMILES IDX 35 13 36 14 37 15 78 16 38 17 83 18 77 19 79 20 39 21 82 22
REMARK SMILES IDX 76 23 75 24 40 26 66 27 49 28 65 29 50 30 53 31 64 32 80 33
REMARK SMILES IDX 51 34 52 35 63 37 81 38 54 39 41 40 42 41 47 42 43 43 44 44
REMARK SMILES IDX 46 45 48 46 45 47 67 48 68 49 73 50 69 51 70 52 72 53 74 54
REMARK SMILES IDX 71 55 55 56 56 57 61 58 57 59 58 60 60 61 62 62 59 63 8 64
REMARK SMILES IDX 9 65 10 66 11 67 12 68 13 69 31 70 14 71 30 72 15 73 16 74
REMARK SMILES IDX 17 75 29 76 18 77 20 78 19 79 21 81 22 82 23 83 24 84 27 85
REMARK SMILES IDX 25 86 26 87 28 88
REMARK H PARENT 79 25 53 36 20 80
REMARK Flexibility Score: inf
ROOT
ATOM      1  C   UNL A   1      42.486  19.853  26.136  1.00  0.00     0.202 C 
ENDROOT
BRANCH   1   2
ATOM      2  O   UNL A   1      42.851  20.893  25.230  1.00  0.00    -0.374 OA
BRANCH   2   3
ATOM      3  C   UNL A   1      43.728  21.900  25.725  1.00  0.00     0.202 C 
BRANCH   3   4
ATOM      4  C   UNL A   1      43.429  23.291  25.165  1.00  0.00     0.261 C 
BRANCH   4   5
ATOM      5  O   UNL A   1      42.693  24.068  26.126  1.00  0.00    -0.460 OA
BRANCH   5   6
ATOM      6  C   UNL A   1      42.193  25.318  25.978  1.00  0.00     0.338 C 
ATOM      7  O   UNL A   1      41.901  25.706  24.848  1.00  0.00    -0.246 OA
BRANCH   6   8
ATOM      8  C   UNL A   1      41.960  26.257  27.117  1.00  0.00     0.060 A 
ATOM      9  C   UNL A   1      42.585  27.494  27.260  1.00  0.00     0.016 A 
ATOM     10  C   UNL A   1      40.976  25.909  28.059  1.00  0.00     0.016 A 
ATOM     11  C   UNL A   1      42.297  28.342  28.311  1.00  0.00     0.010 A 
ATOM     12  C   UNL A   1      40.644  26.778  29.105  1.00  0.00     0.010 A 
ATOM     13  C   UNL A   1      41.315  27.997  29.231  1.00  0.00    -0.014 A 
BRANCH  13  14
ATOM     14  C   UNL A   1      41.124  28.930  30.353  1.00  0.00     0.031 A 
ATOM     15  C   UNL A   1      39.980  29.890  30.288  1.00  0.00     0.074 A 
ATOM     16  C   UNL A   1      41.832  28.738  31.481  1.00  0.00     0.049 A 
ATOM     17  N   UNL A   1      39.590  30.769  31.169  1.00  0.00    -0.248 NA
ATOM     18  C   UNL A   1      39.146  29.834  29.075  1.00  0.00     0.031 C 
ATOM     19  C   UNL A   1      42.864  27.711  31.663  1.00  0.00     0.029 A 
ATOM     20  N   UNL A   1      41.757  29.352  32.701  1.00  0.00    -0.354 N 
ATOM     21  C   UNL A   1      38.475  31.380  30.613  1.00  0.00     0.074 A 
ATOM     22  C   UNL A   1      38.257  30.786  29.314  1.00  0.00     0.031 C 
ATOM     23  C   UNL A   1      43.299  27.745  32.932  1.00  0.00     0.029 A 
ATOM     24  C   UNL A   1      42.637  28.841  33.625  1.00  0.00     0.049 A 
ATOM     25  H   UNL A   1      41.133  30.087  32.898  1.00  0.00     0.167 HD
ATOM     26  C   UNL A   1      37.708  32.354  31.152  1.00  0.00     0.037 A 
ATOM     27  C   UNL A   1      42.897  29.250  34.880  1.00  0.00     0.037 A 
ATOM     28  C   UNL A   1      37.962  32.925  32.445  1.00  0.00     0.049 A 
ATOM     29  C   UNL A   1      42.106  30.416  35.407  1.00  0.00     0.074 A 
ATOM     30  C   UNL A   1      37.337  33.990  33.064  1.00  0.00     0.029 A 
ATOM     31  N   UNL A   1      38.932  32.459  33.326  1.00  0.00    -0.354 N 
ATOM     32  N   UNL A   1      41.118  31.068  34.837  1.00  0.00    -0.248 NA
ATOM     33  C   UNL A   1      42.469  30.914  36.739  1.00  0.00     0.031 C 
ATOM     34  C   UNL A   1      37.955  34.192  34.304  1.00  0.00     0.029 A 
ATOM     35  C   UNL A   1      38.930  33.220  34.479  1.00  0.00     0.049 A 
ATOM     36  H   UNL A   1      39.532  31.697  33.153  1.00  0.00     0.167 HD
ATOM     37  C   UNL A   1      40.735  32.047  35.742  1.00  0.00     0.074 A 
ATOM     38  C   UNL A   1      41.576  31.878  36.912  1.00  0.00     0.031 C 
ATOM     39  C   UNL A   1      39.787  33.008  35.620  1.00  0.00     0.037 A 
BRANCH  26  40
ATOM     40  C   UNL A   1      36.593  32.887  30.303  1.00  0.00     0.057 A 
ATOM     41  C   UNL A   1      35.261  32.499  30.493  1.00  0.00     0.134 A 
ATOM     42  C   UNL A   1      36.865  33.763  29.246  1.00  0.00     0.134 A 
ATOM     43  F   UNL A   1      34.936  31.633  31.465  1.00  0.00    -0.206 F 
ATOM     44  C   UNL A   1      34.242  32.944  29.646  1.00  0.00     0.040 A 
ATOM     45  C   UNL A   1      35.854  34.234  28.407  1.00  0.00     0.040 A 
ATOM     46  F   UNL A   1      38.122  34.165  29.000  1.00  0.00    -0.206 F 
ATOM     47  C   UNL A   1      34.538  33.817  28.601  1.00  0.00     0.006 A 
ENDBRANCH  26  40
BRANCH  27  48
ATOM     48  C   UNL A   1      43.986  28.622  35.675  1.00  0.00     0.057 A 
ATOM     49  C   UNL A   1      43.735  27.609  36.607  1.00  0.00     0.134 A 
ATOM     50  C   UNL A   1      45.314  29.055  35.548  1.00  0.00     0.134 A 
ATOM     51  F   UNL A   1      42.485  27.159  36.796  1.00  0.00    -0.206 F 
ATOM     52  C   UNL A   1      44.753  27.069  37.398  1.00  0.00     0.040 A 
ATOM     53  C   UNL A   1      46.347  28.503  36.307  1.00  0.00     0.040 A 
ATOM     54  F   UNL A   1      45.632  30.023  34.676  1.00  0.00    -0.206 F 
ATOM     55  C   UNL A   1      46.065  27.515  37.246  1.00  0.00     0.006 A 
ENDBRANCH  27  48
BRANCH  39  56
ATOM     56  C   UNL A   1      39.603  33.916  36.798  1.00  0.00     0.057 A 
ATOM     57  C   UNL A   1      40.278  35.139  36.896  1.00  0.00     0.134 A 
ATOM     58  C   UNL A   1      38.719  33.572  37.826  1.00  0.00     0.134 A 
ATOM     59  F   UNL A   1      41.148  35.515  35.948  1.00  0.00    -0.206 F 
ATOM     60  C   UNL A   1      40.100  35.977  37.996  1.00  0.00     0.040 A 
ATOM     61  C   UNL A   1      38.510  34.416  38.916  1.00  0.00     0.040 A 
ATOM     62  F   UNL A   1      38.036  32.418  37.782  1.00  0.00    -0.206 F 
ATOM     63  C   UNL A   1      39.208  35.619  39.007  1.00  0.00     0.006 A 
ENDBRANCH  39  56
ENDBRANCH  13  14
ENDBRANCH   6   8
ENDBRANCH   5   6
ENDBRANCH   4   5
ENDBRANCH   3   4
ENDBRANCH   2   3
ENDBRANCH   1   2
BRANCH   1  64
ATOM     64  C   UNL A   1      40.959  19.793  26.208  1.00  0.00     0.261 C 
BRANCH  64  65
ATOM     65  O   UNL A   1      40.432  21.047  25.755  1.00  0.00    -0.460 OA
BRANCH  65  66
ATOM     66  C   UNL A   1      40.009  21.907  26.724  1.00  0.00     0.338 C 
ATOM     67  O   UNL A   1      40.648  22.377  27.648  1.00  0.00    -0.246 OA
BRANCH  66  68
ATOM     68  C   UNL A   1      38.647  22.322  26.337  1.00  0.00     0.060 A 
ATOM     69  C   UNL A   1      38.186  23.629  26.543  1.00  0.00     0.016 A 
ATOM     70  C   UNL A   1      37.851  21.404  25.678  1.00  0.00     0.016 A 
ATOM     71  C   UNL A   1      36.955  24.041  26.001  1.00  0.00     0.005 A 
ATOM     72  C   UNL A   1      36.622  21.807  25.187  1.00  0.00     0.005 A 
ATOM     73  C   UNL A   1      36.158  23.138  25.284  1.00  0.00    -0.039 A 
BRANCH  73  74
ATOM     74  C   UNL A   1      34.805  23.540  24.663  1.00  0.00     0.074 C 
ATOM     75  C   UNL A   1      34.904  24.546  23.499  1.00  0.00     0.020 C 
ATOM     76  C   UNL A   1      34.087  22.273  24.151  1.00  0.00     0.270 C 
ATOM     77  C   UNL A   1      33.545  24.701  22.799  1.00  0.00     0.062 C 
ATOM     78  N   UNL A   1      32.886  22.388  23.341  1.00  0.00    -0.333 N 
ATOM     79  C   UNL A   1      33.025  23.361  22.264  1.00  0.00     0.262 C 
ATOM     80  H   UNL A   1      32.127  22.766  23.909  1.00  0.00     0.348 HD
BRANCH  78  81
ATOM     81  C   UNL A   1      32.480  21.032  22.885  1.00  0.00     0.284 C 
BRANCH  81  82
ATOM     82  C   UNL A   1      32.179  19.893  23.911  1.00  0.00     0.180 C 
BRANCH  82  83
ATOM     83  N   UNL A   1      32.994  18.677  23.865  1.00  0.00    -0.337 N 
ATOM     84  C   UNL A   1      33.991  18.378  24.863  1.00  0.00     0.120 C 
ATOM     85  C   UNL A   1      32.932  17.722  22.866  1.00  0.00     0.222 C 
ATOM     86  C   UNL A   1      34.787  17.213  24.303  1.00  0.00     0.031 C 
ATOM     87  C   UNL A   1      33.959  16.655  23.156  1.00  0.00     0.102 C 
ATOM     88  O   UNL A   1      32.154  17.704  21.926  1.00  0.00    -0.275 OA
ENDBRANCH  82  83
ENDBRANCH  81  82
ENDBRANCH  78  81
ENDBRANCH  73  74
ENDBRANCH  66  68
ENDBRANCH  65  66
ENDBRANCH  64  65
ENDBRANCH   1  64
TORSDOF 18
ENDMDL
MODEL 3
REMARK VINA RESULT:     -10.7      3.364      9.524
REMARK SMILES O=C(OCCOCCOC(=O)c1ccc([C@H]2CCC[N@@H+](CCN3CCCC3=O)C2)cc1)c1ccc(-c2c3nc(c(-c4c(F)cccc4F)c4ccc([nH]4)c(-c4c(F)cccc4F)c4nc(c(-c5c(F)cccc5F)c5ccc2[nH]5)C=C4)C=C3)cc1
REMARK SMILES IDX 7 1 6 2 5 3 4 4 3 5 2 6 1 7 32 8 33 9 85 10 34 11 84 12
REMARK SMILES IDX 35 13 36 14 37 15 78 16 38 17 83 18 77 19 79 20 39 21 82 22
REMARK SMILES IDX 76 23 75 24 40 26 66 27 49 28 65 29 50 30 53 31 64 32 80 33
REMARK SMILES IDX 51 34 52 35 63 37 81 38 54 39 41 40 42 41 47 42 43 43 44 44
REMARK SMILES IDX 46 45 48 46 45 47 67 48 68 49 73 50 69 51 70 52 72 53 74 54
REMARK SMILES IDX 71 55 55 56 56 57 61 58 57 59 58 60 60 61 62 62 59 63 8 64
REMARK SMILES IDX 9 65 10 66 11 67 12 68 13 69 31 70 14 71 30 72 15 73 16 74
REMARK SMILES IDX 17 75 29 76 18 77 20 78 19 79 21 81 22 82 23 83 24 84 27 85
REMARK SMILES IDX 25 86 26 87 28 88
REMARK H PARENT 79 25 53 36 20 80
REMARK Flexibility Score: inf
ROOT
ATOM      1  C   UNL A   1      41.995  21.185  27.380  1.00  0.00     0.202 C 
ENDROOT
BRANCH   1   2
ATOM      2  O   UNL A   1      41.624  19.808  27.337  1.00  0.00    -0.374 OA
BRANCH   2   3
ATOM      3  C   UNL A   1      42.675  18.862  27.175  1.00  0.00     0.202 C 
BRANCH   3   4
ATOM      4  C   UNL A   1      42.885  18.432  25.723  1.00  0.00     0.261 C 
BRANCH   4   5
ATOM      5  O   UNL A   1      44.205  18.794  25.282  1.00  0.00    -0.460 OA
BRANCH   5   6
ATOM      6  C   UNL A   1      44.553  19.764  24.403  1.00  0.00     0.338 C 
ATOM      7  O   UNL A   1      44.667  19.470  23.215  1.00  0.00    -0.246 OA
BRANCH   6   8
ATOM      8  C   UNL A   1      44.797  21.187  24.793  1.00  0.00     0.060 A 
ATOM      9  C   UNL A   1      44.493  22.287  23.996  1.00  0.00     0.016 A 
ATOM     10  C   UNL A   1      45.280  21.432  26.091  1.00  0.00     0.016 A 
ATOM     11  C   UNL A   1      44.698  23.582  24.427  1.00  0.00     0.010 A 
ATOM     12  C   UNL A   1      45.452  22.742  26.557  1.00  0.00     0.010 A 
ATOM     13  C   UNL A   1      45.164  23.819  25.714  1.00  0.00    -0.014 A 
BRANCH  13  14
ATOM     14  C   UNL A   1      45.416  25.226  26.062  1.00  0.00     0.031 A 
ATOM     15  C   UNL A   1      44.312  26.005  26.703  1.00  0.00     0.074 A 
ATOM     16  C   UNL A   1      46.677  25.692  26.003  1.00  0.00     0.049 A 
ATOM     17  N   UNL A   1      44.313  27.235  27.134  1.00  0.00    -0.248 NA
ATOM     18  C   UNL A   1      43.040  25.290  26.911  1.00  0.00     0.031 C 
ATOM     19  C   UNL A   1      47.835  24.926  25.528  1.00  0.00     0.029 A 
ATOM     20  N   UNL A   1      47.209  26.889  26.395  1.00  0.00    -0.354 N 
ATOM     21  C   UNL A   1      43.042  27.448  27.651  1.00  0.00     0.074 A 
ATOM     22  C   UNL A   1      42.290  26.228  27.468  1.00  0.00     0.031 C 
ATOM     23  C   UNL A   1      48.945  25.663  25.690  1.00  0.00     0.029 A 
ATOM     24  C   UNL A   1      48.567  26.973  26.203  1.00  0.00     0.049 A 
ATOM     25  H   UNL A   1      46.672  27.619  26.778  1.00  0.00     0.167 HD
ATOM     26  C   UNL A   1      42.558  28.571  28.226  1.00  0.00     0.037 A 
ATOM     27  C   UNL A   1      49.398  28.014  26.390  1.00  0.00     0.037 A 
ATOM     28  C   UNL A   1      43.337  29.769  28.383  1.00  0.00     0.049 A 
ATOM     29  C   UNL A   1      48.802  29.289  26.920  1.00  0.00     0.074 A 
ATOM     30  C   UNL A   1      42.941  31.009  28.843  1.00  0.00     0.029 A 
ATOM     31  N   UNL A   1      44.692  29.862  28.083  1.00  0.00    -0.354 N 
ATOM     32  N   UNL A   1      47.570  29.526  27.309  1.00  0.00    -0.248 NA
ATOM     33  C   UNL A   1      49.700  30.445  27.024  1.00  0.00     0.031 C 
ATOM     34  C   UNL A   1      44.048  31.864  28.785  1.00  0.00     0.029 A 
ATOM     35  C   UNL A   1      45.146  31.142  28.337  1.00  0.00     0.049 A 
ATOM     36  H   UNL A   1      45.245  29.124  27.739  1.00  0.00     0.167 HD
ATOM     37  C   UNL A   1      47.545  30.852  27.713  1.00  0.00     0.074 A 
ATOM     38  C   UNL A   1      48.895  31.356  27.552  1.00  0.00     0.031 C 
ATOM     39  C   UNL A   1      46.504  31.594  28.164  1.00  0.00     0.037 A 
BRANCH  26  40
ATOM     40  C   UNL A   1      41.119  28.554  28.642  1.00  0.00     0.057 A 
ATOM     41  C   UNL A   1      40.716  28.134  29.917  1.00  0.00     0.134 A 
ATOM     42  C   UNL A   1      40.115  28.914  27.735  1.00  0.00     0.134 A 
ATOM     43  F   UNL A   1      41.625  27.741  30.822  1.00  0.00    -0.206 F 
ATOM     44  C   UNL A   1      39.365  28.050  30.265  1.00  0.00     0.040 A 
ATOM     45  C   UNL A   1      38.763  28.856  28.078  1.00  0.00     0.040 A 
ATOM     46  F   UNL A   1      40.431  29.312  26.492  1.00  0.00    -0.206 F 
ATOM     47  C   UNL A   1      38.385  28.415  29.344  1.00  0.00     0.006 A 
ENDBRANCH  26  40
BRANCH  27  48
ATOM     48  C   UNL A   1      50.831  27.924  26.002  1.00  0.00     0.057 A 
ATOM     49  C   UNL A   1      51.841  27.699  26.944  1.00  0.00     0.134 A 
ATOM     50  C   UNL A   1      51.232  28.102  24.670  1.00  0.00     0.134 A 
ATOM     51  F   UNL A   1      51.534  27.539  28.240  1.00  0.00    -0.206 F 
ATOM     52  C   UNL A   1      53.191  27.681  26.583  1.00  0.00     0.040 A 
ATOM     53  C   UNL A   1      52.573  28.054  24.289  1.00  0.00     0.040 A 
ATOM     54  F   UNL A   1      50.320  28.322  23.711  1.00  0.00    -0.206 F 
ATOM     55  C   UNL A   1      53.559  27.855  25.250  1.00  0.00     0.006 A 
ENDBRANCH  27  48
BRANCH  39  56
ATOM     56  C   UNL A   1      46.810  33.013  28.538  1.00  0.00     0.057 A 
ATOM     57  C   UNL A   1      47.211  33.363  29.833  1.00  0.00     0.134 A 
ATOM     58  C   UNL A   1      46.728  34.030  27.581  1.00  0.00     0.134 A 
ATOM     59  F   UNL A   1      47.293  32.433  30.795  1.00  0.00    -0.206 F 
ATOM     60  C   UNL A   1      47.493  34.687  30.170  1.00  0.00     0.040 A 
ATOM     61  C   UNL A   1      47.037  35.352  27.899  1.00  0.00     0.040 A 
ATOM     62  F   UNL A   1      46.359  33.755  26.321  1.00  0.00    -0.206 F 
ATOM     63  C   UNL A   1      47.412  35.684  29.199  1.00  0.00     0.006 A 
ENDBRANCH  39  56
ENDBRANCH  13  14
ENDBRANCH   6   8
ENDBRANCH   5   6
ENDBRANCH   4   5
ENDBRANCH   3   4
ENDBRANCH   2   3
ENDBRANCH   1   2
BRANCH   1  64
ATOM     64  C   UNL A   1      41.443  21.870  26.129  1.00  0.00     0.261 C 
BRANCH  64  65
ATOM     65  O   UNL A   1      40.013  21.754  26.139  1.00  0.00    -0.460 OA
BRANCH  65  66
ATOM     66  C   UNL A   1      39.326  22.830  26.614  1.00  0.00     0.338 C 
ATOM     67  O   UNL A   1      39.725  23.717  27.347  1.00  0.00    -0.246 OA
BRANCH  66  68
ATOM     68  C   UNL A   1      38.027  22.827  25.915  1.00  0.00     0.060 A 
ATOM     69  C   UNL A   1      37.080  23.842  26.110  1.00  0.00     0.016 A 
ATOM     70  C   UNL A   1      37.793  21.835  24.982  1.00  0.00     0.016 A 
ATOM     71  C   UNL A   1      35.934  23.909  25.297  1.00  0.00     0.005 A 
ATOM     72  C   UNL A   1      36.641  21.884  24.218  1.00  0.00     0.005 A 
ATOM     73  C   UNL A   1      35.706  22.940  24.311  1.00  0.00    -0.039 A 
BRANCH  73  74
ATOM     74  C   UNL A   1      34.471  22.971  23.388  1.00  0.00     0.074 C 
ATOM     75  C   UNL A   1      33.251  22.194  23.918  1.00  0.00     0.020 C 
ATOM     76  C   UNL A   1      34.050  24.437  23.155  1.00  0.00     0.270 C 
ATOM     77  C   UNL A   1      32.011  22.476  23.056  1.00  0.00     0.062 C 
ATOM     78  N   UNL A   1      32.796  24.743  22.488  1.00  0.00    -0.333 N 
ATOM     79  C   UNL A   1      31.676  23.972  23.015  1.00  0.00     0.262 C 
ATOM     80  H   UNL A   1      32.850  24.450  21.511  1.00  0.00     0.348 HD
BRANCH  78  81
ATOM     81  C   UNL A   1      32.584  26.214  22.509  1.00  0.00     0.284 C 
BRANCH  81  82
ATOM     82  C   UNL A   1      32.026  26.930  23.781  1.00  0.00     0.180 C 
BRANCH  82  83
ATOM     83  N   UNL A   1      31.030  27.990  23.606  1.00  0.00    -0.337 N 
ATOM     84  C   UNL A   1      29.908  27.853  22.712  1.00  0.00     0.120 C 
ATOM     85  C   UNL A   1      31.071  29.223  24.231  1.00  0.00     0.222 C 
ATOM     86  C   UNL A   1      29.304  29.242  22.606  1.00  0.00     0.031 C 
ATOM     87  C   UNL A   1      29.898  30.043  23.754  1.00  0.00     0.102 C 
ATOM     88  O   UNL A   1      31.884  29.588  25.064  1.00  0.00    -0.275 OA
ENDBRANCH  82  83
ENDBRANCH  81  82
ENDBRANCH  78  81
ENDBRANCH  73  74
ENDBRANCH  66  68
ENDBRANCH  65  66
ENDBRANCH  64  65
ENDBRANCH   1  64
TORSDOF 18
ENDMDL
