MODEL 1
REMARK VINA RESULT:     -10.9      0.000      0.000
REMARK SMILES COc1cccc(CSc2nc3ccccc3c(=O)n2CCC(=O)OCCOCCOC(=O)c2ccc(-c3c4nc(c(-c5c(F)cccc5F)c5ccc([nH]5)c(-c5c(F)cccc5F)c5nc(c(-c6c(F)cccc6F)c6ccc3[nH]6)C=C5)C=C4)cc2)c1
REMARK SMILES IDX 26 1 25 2 23 3 24 4 22 5 21 6 20 7 10 8 11 9 12 10 18 11
REMARK SMILES IDX 13 12 17 13 19 14 14 15 16 16 15 17 9 18 8 19 7 20 3 21 4 22
REMARK SMILES IDX 88 23 5 24 6 25 2 26 1 27 27 28 28 29 29 30 30 31 31 32
REMARK SMILES IDX 32 33 33 34 34 35 35 36 87 37 36 38 86 39 37 40 38 41 39 42
REMARK SMILES IDX 80 43 40 44 85 45 79 46 81 47 41 48 84 49 78 50 77 51 42 53
REMARK SMILES IDX 68 54 51 55 67 56 52 57 55 58 66 59 82 60 53 61 54 62 65 64
REMARK SMILES IDX 83 65 56 66 43 67 44 68 49 69 45 70 46 71 48 72 50 73 47 74
REMARK SMILES IDX 69 75 70 76 75 77 71 78 72 79 74 80 76 81 73 82 57 83 58 84
REMARK SMILES IDX 63 85 59 86 60 87 62 88 64 89 61 90
REMARK H PARENT 81 52 55 63
REMARK Flexibility Score: inf
ROOT
ATOM      1  C   UNL A   1      34.047  31.967  28.147  1.00  0.00     0.261 C 
ENDROOT
BRANCH   1   2
ATOM      2  O   UNL A   1      34.192  30.535  27.900  1.00  0.00    -0.463 OA
BRANCH   2   3
ATOM      3  C   UNL A   1      33.571  30.003  26.809  1.00  0.00     0.307 C 
ATOM      4  O   UNL A   1      32.863  30.638  26.036  1.00  0.00    -0.252 OA
BRANCH   3   5
ATOM      5  C   UNL A   1      33.821  28.503  26.649  1.00  0.00     0.144 C 
BRANCH   5   6
ATOM      6  C   UNL A   1      32.650  27.496  26.609  1.00  0.00     0.140 C 
BRANCH   6   7
ATOM      7  N   UNL A   1      32.839  26.302  25.802  1.00  0.00    -0.286 N 
ATOM      8  C   UNL A   1      33.432  26.298  24.584  1.00  0.00     0.171 A 
ATOM      9  N   UNL A   1      34.401  25.481  24.307  1.00  0.00    -0.224 NA
ATOM     10  C   UNL A   1      34.625  24.445  25.235  1.00  0.00     0.079 A 
ATOM     11  C   UNL A   1      32.540  25.055  26.322  1.00  0.00     0.262 A 
ATOM     12  C   UNL A   1      35.816  23.723  25.268  1.00  0.00     0.029 A 
ATOM     13  C   UNL A   1      33.565  24.025  26.040  1.00  0.00     0.066 A 
ATOM     14  O   UNL A   1      31.567  24.812  27.026  1.00  0.00    -0.269 OA
ATOM     15  C   UNL A   1      35.890  22.537  26.007  1.00  0.00     0.002 A 
ATOM     16  C   UNL A   1      33.586  22.795  26.696  1.00  0.00     0.016 A 
ATOM     17  C   UNL A   1      34.758  22.041  26.663  1.00  0.00     0.001 A 
BRANCH   8  18
ATOM     18  S   UNL A   1      32.783  27.227  23.288  1.00  0.00    -0.083 SA
BRANCH  18  19
ATOM     19  C   UNL A   1      31.037  26.993  22.933  1.00  0.00     0.113 C 
BRANCH  19  20
ATOM     20  C   UNL A   1      30.280  28.278  23.044  1.00  0.00    -0.034 A 
ATOM     21  C   UNL A   1      28.872  29.930  21.987  1.00  0.00     0.119 A 
ATOM     22  C   UNL A   1      29.255  30.853  22.960  1.00  0.00     0.046 A 
ATOM     23  C   UNL A   1      29.365  28.634  22.050  1.00  0.00     0.051 A 
ATOM     24  C   UNL A   1      30.053  30.464  24.037  1.00  0.00     0.004 A 
ATOM     25  C   UNL A   1      30.550  29.171  24.088  1.00  0.00     0.005 A 
BRANCH  21  26
ATOM     26  O   UNL A   1      28.061  30.409  20.997  1.00  0.00    -0.497 OA
ATOM     27  C   UNL A   1      28.045  31.824  20.831  1.00  0.00     0.278 C 
ENDBRANCH  21  26
ENDBRANCH  19  20
ENDBRANCH  18  19
ENDBRANCH   8  18
ENDBRANCH   6   7
ENDBRANCH   5   6
ENDBRANCH   3   5
ENDBRANCH   2   3
ENDBRANCH   1   2
BRANCH   1  28
ATOM     28  C   UNL A   1      35.355  32.770  27.952  1.00  0.00     0.202 C 
BRANCH  28  29
ATOM     29  O   UNL A   1      35.736  33.602  29.064  1.00  0.00    -0.374 OA
BRANCH  29  30
ATOM     30  C   UNL A   1      34.666  34.069  29.888  1.00  0.00     0.202 C 
BRANCH  30  31
ATOM     31  C   UNL A   1      34.664  33.559  31.347  1.00  0.00     0.261 C 
BRANCH  31  32
ATOM     32  O   UNL A   1      35.001  32.170  31.439  1.00  0.00    -0.460 OA
BRANCH  32  33
ATOM     33  C   UNL A   1      36.031  31.893  32.251  1.00  0.00     0.338 C 
ATOM     34  O   UNL A   1      36.125  32.171  33.442  1.00  0.00    -0.246 OA
BRANCH  33  35
ATOM     35  C   UNL A   1      36.991  31.007  31.575  1.00  0.00     0.060 A 
ATOM     36  C   UNL A   1      38.011  30.509  32.388  1.00  0.00     0.016 A 
ATOM     37  C   UNL A   1      36.966  30.725  30.205  1.00  0.00     0.016 A 
ATOM     38  C   UNL A   1      39.082  29.842  31.819  1.00  0.00     0.010 A 
ATOM     39  C   UNL A   1      38.043  30.034  29.631  1.00  0.00     0.010 A 
ATOM     40  C   UNL A   1      39.137  29.660  30.431  1.00  0.00    -0.014 A 
BRANCH  40  41
ATOM     41  C   UNL A   1      40.445  29.266  29.858  1.00  0.00     0.031 A 
ATOM     42  C   UNL A   1      40.585  27.893  29.256  1.00  0.00     0.074 A 
ATOM     43  C   UNL A   1      41.417  30.183  29.713  1.00  0.00     0.049 A 
ATOM     44  N   UNL A   1      41.572  27.388  28.560  1.00  0.00    -0.248 NA
ATOM     45  C   UNL A   1      39.456  26.968  29.449  1.00  0.00     0.031 C 
ATOM     46  C   UNL A   1      41.350  31.561  30.198  1.00  0.00     0.029 A 
ATOM     47  N   UNL A   1      42.632  30.107  29.082  1.00  0.00    -0.354 N 
ATOM     48  C   UNL A   1      41.183  26.092  28.238  1.00  0.00     0.074 A 
ATOM     49  C   UNL A   1      39.890  25.874  28.843  1.00  0.00     0.031 C 
ATOM     50  C   UNL A   1      42.468  32.208  29.831  1.00  0.00     0.029 A 
ATOM     51  C   UNL A   1      43.339  31.283  29.111  1.00  0.00     0.049 A 
ATOM     52  H   UNL A   1      42.964  29.287  28.649  1.00  0.00     0.167 HD
ATOM     53  C   UNL A   1      41.840  25.175  27.490  1.00  0.00     0.037 A 
ATOM     54  C   UNL A   1      44.556  31.575  28.615  1.00  0.00     0.037 A 
ATOM     55  C   UNL A   1      43.124  25.411  26.885  1.00  0.00     0.049 A 
ATOM     56  C   UNL A   1      45.296  30.515  27.846  1.00  0.00     0.074 A 
ATOM     57  C   UNL A   1      43.879  24.558  26.102  1.00  0.00     0.029 A 
ATOM     58  N   UNL A   1      43.845  26.591  27.005  1.00  0.00    -0.354 N 
ATOM     59  N   UNL A   1      44.914  29.299  27.536  1.00  0.00    -0.248 NA
ATOM     60  C   UNL A   1      46.635  30.867  27.354  1.00  0.00     0.031 C 
ATOM     61  C   UNL A   1      45.087  25.196  25.804  1.00  0.00     0.029 A 
ATOM     62  C   UNL A   1      45.054  26.475  26.341  1.00  0.00     0.049 A 
ATOM     63  H   UNL A   1      43.542  27.391  27.489  1.00  0.00     0.167 HD
ATOM     64  C   UNL A   1      45.951  28.749  26.795  1.00  0.00     0.074 A 
ATOM     65  C   UNL A   1      46.970  29.773  26.686  1.00  0.00     0.031 C 
ATOM     66  C   UNL A   1      46.055  27.510  26.251  1.00  0.00     0.037 A 
BRANCH  53  67
ATOM     67  C   UNL A   1      41.203  23.823  27.327  1.00  0.00     0.057 A 
ATOM     68  C   UNL A   1      40.089  23.611  26.503  1.00  0.00     0.134 A 
ATOM     69  C   UNL A   1      41.729  22.708  27.994  1.00  0.00     0.134 A 
ATOM     70  F   UNL A   1      39.525  24.635  25.845  1.00  0.00    -0.206 F 
ATOM     71  C   UNL A   1      39.506  22.348  26.371  1.00  0.00     0.040 A 
ATOM     72  C   UNL A   1      41.174  21.436  27.847  1.00  0.00     0.040 A 
ATOM     73  F   UNL A   1      42.796  22.836  28.797  1.00  0.00    -0.206 F 
ATOM     74  C   UNL A   1      40.053  21.254  27.039  1.00  0.00     0.006 A 
ENDBRANCH  53  67
BRANCH  54  75
ATOM     75  C   UNL A   1      45.147  32.917  28.851  1.00  0.00     0.057 A 
ATOM     76  C   UNL A   1      45.971  33.177  29.952  1.00  0.00     0.134 A 
ATOM     77  C   UNL A   1      44.898  33.978  27.970  1.00  0.00     0.134 A 
ATOM     78  F   UNL A   1      46.235  32.211  30.842  1.00  0.00    -0.206 F 
ATOM     79  C   UNL A   1      46.512  34.446  30.176  1.00  0.00     0.040 A 
ATOM     80  C   UNL A   1      45.455  35.242  28.165  1.00  0.00     0.040 A 
ATOM     81  F   UNL A   1      44.121  33.794  26.891  1.00  0.00    -0.206 F 
ATOM     82  C   UNL A   1      46.259  35.480  29.277  1.00  0.00     0.006 A 
ENDBRANCH  54  75
BRANCH  66  83
ATOM     83  C   UNL A   1      47.300  27.207  25.471  1.00  0.00     0.057 A 
ATOM     84  C   UNL A   1      48.395  26.549  26.046  1.00  0.00     0.134 A 
ATOM     85  C   UNL A   1      47.388  27.543  24.113  1.00  0.00     0.134 A 
ATOM     86  F   UNL A   1      48.379  26.209  27.344  1.00  0.00    -0.206 F 
ATOM     87  C   UNL A   1      49.545  26.264  25.307  1.00  0.00     0.040 A 
ATOM     88  C   UNL A   1      48.519  27.234  23.356  1.00  0.00     0.040 A 
ATOM     89  F   UNL A   1      46.371  28.163  23.497  1.00  0.00    -0.206 F 
ATOM     90  C   UNL A   1      49.604  26.600  23.956  1.00  0.00     0.006 A 
ENDBRANCH  66  83
ENDBRANCH  40  41
ENDBRANCH  33  35
ENDBRANCH  32  33
ENDBRANCH  31  32
ENDBRANCH  30  31
ENDBRANCH  29  30
ENDBRANCH  28  29
ENDBRANCH   1  28
TORSDOF 20
ENDMDL
MODEL 2
REMARK VINA RESULT:     -10.9      3.924      7.364
REMARK SMILES COc1cccc(CSc2nc3ccccc3c(=O)n2CCC(=O)OCCOCCOC(=O)c2ccc(-c3c4nc(c(-c5c(F)cccc5F)c5ccc([nH]5)c(-c5c(F)cccc5F)c5nc(c(-c6c(F)cccc6F)c6ccc3[nH]6)C=C5)C=C4)cc2)c1
REMARK SMILES IDX 26 1 25 2 23 3 24 4 22 5 21 6 20 7 10 8 11 9 12 10 18 11
REMARK SMILES IDX 13 12 17 13 19 14 14 15 16 16 15 17 9 18 8 19 7 20 3 21 4 22
REMARK SMILES IDX 88 23 5 24 6 25 2 26 1 27 27 28 28 29 29 30 30 31 31 32
REMARK SMILES IDX 32 33 33 34 34 35 35 36 87 37 36 38 86 39 37 40 38 41 39 42
REMARK SMILES IDX 80 43 40 44 85 45 79 46 81 47 41 48 84 49 78 50 77 51 42 53
REMARK SMILES IDX 68 54 51 55 67 56 52 57 55 58 66 59 82 60 53 61 54 62 65 64
REMARK SMILES IDX 83 65 56 66 43 67 44 68 49 69 45 70 46 71 48 72 50 73 47 74
REMARK SMILES IDX 69 75 70 76 75 77 71 78 72 79 74 80 76 81 73 82 57 83 58 84
REMARK SMILES IDX 63 85 59 86 60 87 62 88 64 89 61 90
REMARK H PARENT 81 52 55 63
REMARK Flexibility Score: inf
ROOT
ATOM      1  C   UNL A   1      30.003  30.276  24.164  1.00  0.00     0.261 C 
ENDROOT
BRANCH   1   2
ATOM      2  O   UNL A   1      29.977  28.858  23.819  1.00  0.00    -0.463 OA
BRANCH   2   3
ATOM      3  C   UNL A   1      30.126  28.510  22.508  1.00  0.00     0.307 C 
ATOM      4  O   UNL A   1      29.824  29.228  21.562  1.00  0.00    -0.252 OA
BRANCH   3   5
ATOM      5  C   UNL A   1      30.691  27.101  22.323  1.00  0.00     0.144 C 
BRANCH   5   6
ATOM      6  C   UNL A   1      30.532  26.026  23.420  1.00  0.00     0.140 C 
BRANCH   6   7
ATOM      7  N   UNL A   1      31.578  25.956  24.427  1.00  0.00    -0.286 N 
ATOM      8  C   UNL A   1      32.872  25.663  24.155  1.00  0.00     0.171 A 
ATOM      9  N   UNL A   1      33.839  26.419  24.575  1.00  0.00    -0.224 NA
ATOM     10  C   UNL A   1      33.494  27.398  25.527  1.00  0.00     0.079 A 
ATOM     11  C   UNL A   1      31.316  26.341  25.731  1.00  0.00     0.262 A 
ATOM     12  C   UNL A   1      34.316  28.489  25.801  1.00  0.00     0.029 A 
ATOM     13  C   UNL A   1      32.373  27.187  26.331  1.00  0.00     0.066 A 
ATOM     14  O   UNL A   1      30.279  26.092  26.333  1.00  0.00    -0.269 OA
ATOM     15  C   UNL A   1      34.075  29.276  26.933  1.00  0.00     0.002 A 
ATOM     16  C   UNL A   1      32.179  27.892  27.517  1.00  0.00     0.016 A 
ATOM     17  C   UNL A   1      33.050  28.936  27.824  1.00  0.00     0.001 A 
BRANCH   8  18
ATOM     18  S   UNL A   1      33.298  24.163  23.427  1.00  0.00    -0.083 SA
BRANCH  18  19
ATOM     19  C   UNL A   1      32.252  22.756  23.823  1.00  0.00     0.113 C 
BRANCH  19  20
ATOM     20  C   UNL A   1      33.056  21.505  23.982  1.00  0.00    -0.034 A 
ATOM     21  C   UNL A   1      33.097  19.097  24.148  1.00  0.00     0.119 A 
ATOM     22  C   UNL A   1      34.352  19.178  24.753  1.00  0.00     0.046 A 
ATOM     23  C   UNL A   1      32.466  20.263  23.737  1.00  0.00     0.051 A 
ATOM     24  C   UNL A   1      35.010  20.403  24.867  1.00  0.00     0.004 A 
ATOM     25  C   UNL A   1      34.369  21.565  24.465  1.00  0.00     0.005 A 
BRANCH  21  26
ATOM     26  O   UNL A   1      32.559  17.844  24.056  1.00  0.00    -0.497 OA
ATOM     27  C   UNL A   1      32.392  17.143  25.285  1.00  0.00     0.278 C 
ENDBRANCH  21  26
ENDBRANCH  19  20
ENDBRANCH  18  19
ENDBRANCH   8  18
ENDBRANCH   6   7
ENDBRANCH   5   6
ENDBRANCH   3   5
ENDBRANCH   2   3
ENDBRANCH   1   2
BRANCH   1  28
ATOM     28  C   UNL A   1      31.006  30.628  25.288  1.00  0.00     0.202 C 
BRANCH  28  29
ATOM     29  O   UNL A   1      30.911  31.972  25.798  1.00  0.00    -0.374 OA
BRANCH  29  30
ATOM     30  C   UNL A   1      31.717  32.263  26.941  1.00  0.00     0.202 C 
BRANCH  30  31
ATOM     31  C   UNL A   1      32.082  33.750  27.150  1.00  0.00     0.261 C 
BRANCH  31  32
ATOM     32  O   UNL A   1      32.388  34.049  28.517  1.00  0.00    -0.460 OA
BRANCH  32  33
ATOM     33  C   UNL A   1      33.513  34.756  28.700  1.00  0.00     0.338 C 
ATOM     34  O   UNL A   1      33.603  35.970  28.853  1.00  0.00    -0.246 OA
BRANCH  33  35
ATOM     35  C   UNL A   1      34.655  33.853  28.907  1.00  0.00     0.060 A 
ATOM     36  C   UNL A   1      34.335  32.604  29.444  1.00  0.00     0.016 A 
ATOM     37  C   UNL A   1      35.988  34.210  28.672  1.00  0.00     0.016 A 
ATOM     38  C   UNL A   1      35.343  31.760  29.874  1.00  0.00     0.010 A 
ATOM     39  C   UNL A   1      37.009  33.347  29.093  1.00  0.00     0.010 A 
ATOM     40  C   UNL A   1      36.683  32.155  29.763  1.00  0.00    -0.014 A 
BRANCH  40  41
ATOM     41  C   UNL A   1      37.676  31.385  30.547  1.00  0.00     0.031 A 
ATOM     42  C   UNL A   1      38.532  30.373  29.832  1.00  0.00     0.074 A 
ATOM     43  C   UNL A   1      37.930  31.721  31.824  1.00  0.00     0.049 A 
ATOM     44  N   UNL A   1      39.566  29.702  30.271  1.00  0.00    -0.248 NA
ATOM     45  C   UNL A   1      38.189  30.089  28.430  1.00  0.00     0.031 C 
ATOM     46  C   UNL A   1      37.204  32.738  32.583  1.00  0.00     0.029 A 
ATOM     47  N   UNL A   1      38.892  31.275  32.692  1.00  0.00    -0.354 N 
ATOM     48  C   UNL A   1      39.991  28.920  29.203  1.00  0.00     0.074 A 
ATOM     49  C   UNL A   1      39.084  29.168  28.107  1.00  0.00     0.031 C 
ATOM     50  C   UNL A   1      37.758  32.852  33.801  1.00  0.00     0.029 A 
ATOM     51  C   UNL A   1      38.857  31.898  33.915  1.00  0.00     0.049 A 
ATOM     52  H   UNL A   1      39.545  30.575  32.461  1.00  0.00     0.167 HD
ATOM     53  C   UNL A   1      41.052  28.082  29.139  1.00  0.00     0.037 A 
ATOM     54  C   UNL A   1      39.626  31.712  35.004  1.00  0.00     0.037 A 
ATOM     55  C   UNL A   1      41.954  27.851  30.237  1.00  0.00     0.049 A 
ATOM     56  C   UNL A   1      40.758  30.723  34.930  1.00  0.00     0.074 A 
ATOM     57  C   UNL A   1      43.066  27.031  30.284  1.00  0.00     0.029 A 
ATOM     58  N   UNL A   1      41.837  28.443  31.488  1.00  0.00    -0.354 N 
ATOM     59  N   UNL A   1      41.159  30.000  33.911  1.00  0.00    -0.248 NA
ATOM     60  C   UNL A   1      41.548  30.528  36.153  1.00  0.00     0.031 C 
ATOM     61  C   UNL A   1      43.583  27.073  31.583  1.00  0.00     0.029 A 
ATOM     62  C   UNL A   1      42.836  27.976  32.325  1.00  0.00     0.049 A 
ATOM     63  H   UNL A   1      41.148  29.097  31.741  1.00  0.00     0.167 HD
ATOM     64  C   UNL A   1      42.259  29.281  34.361  1.00  0.00     0.074 A 
ATOM     65  C   UNL A   1      42.473  29.673  35.739  1.00  0.00     0.031 C 
ATOM     66  C   UNL A   1      43.025  28.379  33.697  1.00  0.00     0.037 A 
BRANCH  53  67
ATOM     67  C   UNL A   1      41.265  27.322  27.860  1.00  0.00     0.057 A 
ATOM     68  C   UNL A   1      40.733  26.043  27.648  1.00  0.00     0.134 A 
ATOM     69  C   UNL A   1      42.002  27.892  26.813  1.00  0.00     0.134 A 
ATOM     70  F   UNL A   1      40.030  25.431  28.612  1.00  0.00    -0.206 F 
ATOM     71  C   UNL A   1      40.949  25.349  26.455  1.00  0.00     0.040 A 
ATOM     72  C   UNL A   1      42.199  27.222  25.604  1.00  0.00     0.040 A 
ATOM     73  F   UNL A   1      42.538  29.115  26.944  1.00  0.00    -0.206 F 
ATOM     74  C   UNL A   1      41.679  25.941  25.425  1.00  0.00     0.006 A 
ENDBRANCH  53  67
BRANCH  54  75
ATOM     75  C   UNL A   1      39.334  32.462  36.252  1.00  0.00     0.057 A 
ATOM     76  C   UNL A   1      39.966  33.675  36.549  1.00  0.00     0.134 A 
ATOM     77  C   UNL A   1      38.407  31.976  37.183  1.00  0.00     0.134 A 
ATOM     78  F   UNL A   1      40.876  34.187  35.709  1.00  0.00    -0.206 F 
ATOM     79  C   UNL A   1      39.698  34.368  37.732  1.00  0.00     0.040 A 
ATOM     80  C   UNL A   1      38.108  32.672  38.355  1.00  0.00     0.040 A 
ATOM     81  F   UNL A   1      37.761  30.821  36.957  1.00  0.00    -0.206 F 
ATOM     82  C   UNL A   1      38.761  33.869  38.636  1.00  0.00     0.006 A 
ENDBRANCH  54  75
BRANCH  66  83
ATOM     83  C   UNL A   1      44.178  27.778  34.446  1.00  0.00     0.057 A 
ATOM     84  C   UNL A   1      45.417  28.425  34.546  1.00  0.00     0.134 A 
ATOM     85  C   UNL A   1      44.032  26.553  35.111  1.00  0.00     0.134 A 
ATOM     86  F   UNL A   1      45.625  29.595  33.924  1.00  0.00    -0.206 F 
ATOM     87  C   UNL A   1      46.478  27.860  35.254  1.00  0.00     0.040 A 
ATOM     88  C   UNL A   1      45.076  25.995  35.850  1.00  0.00     0.040 A 
ATOM     89  F   UNL A   1      42.869  25.888  35.068  1.00  0.00    -0.206 F 
ATOM     90  C   UNL A   1      46.306  26.645  35.915  1.00  0.00     0.006 A 
ENDBRANCH  66  83
ENDBRANCH  40  41
ENDBRANCH  33  35
ENDBRANCH  32  33
ENDBRANCH  31  32
ENDBRANCH  30  31
ENDBRANCH  29  30
ENDBRANCH  28  29
ENDBRANCH   1  28
TORSDOF 20
ENDMDL
MODEL 3
REMARK VINA RESULT:     -10.9      4.917     10.177
REMARK SMILES COc1cccc(CSc2nc3ccccc3c(=O)n2CCC(=O)OCCOCCOC(=O)c2ccc(-c3c4nc(c(-c5c(F)cccc5F)c5ccc([nH]5)c(-c5c(F)cccc5F)c5nc(c(-c6c(F)cccc6F)c6ccc3[nH]6)C=C5)C=C4)cc2)c1
REMARK SMILES IDX 26 1 25 2 23 3 24 4 22 5 21 6 20 7 10 8 11 9 12 10 18 11
REMARK SMILES IDX 13 12 17 13 19 14 14 15 16 16 15 17 9 18 8 19 7 20 3 21 4 22
REMARK SMILES IDX 88 23 5 24 6 25 2 26 1 27 27 28 28 29 29 30 30 31 31 32
REMARK SMILES IDX 32 33 33 34 34 35 35 36 87 37 36 38 86 39 37 40 38 41 39 42
REMARK SMILES IDX 80 43 40 44 85 45 79 46 81 47 41 48 84 49 78 50 77 51 42 53
REMARK SMILES IDX 68 54 51 55 67 56 52 57 55 58 66 59 82 60 53 61 54 62 65 64
REMARK SMILES IDX 83 65 56 66 43 67 44 68 49 69 45 70 46 71 48 72 50 73 47 74
REMARK SMILES IDX 69 75 70 76 75 77 71 78 72 79 74 80 76 81 73 82 57 83 58 84
REMARK SMILES IDX 63 85 59 86 60 87 62 88 64 89 61 90
REMARK H PARENT 81 52 55 63
REMARK Flexibility Score: inf
ROOT
ATOM      1  C   UNL A   1      35.843  21.804  25.848  1.00  0.00     0.261 C 
ENDROOT
BRANCH   1   2
ATOM      2  O   UNL A   1      35.647  23.237  25.651  1.00  0.00    -0.463 OA
BRANCH   2   3
ATOM      3  C   UNL A   1      35.241  23.669  24.423  1.00  0.00     0.307 C 
ATOM      4  O   UNL A   1      35.432  23.062  23.376  1.00  0.00    -0.252 OA
BRANCH   3   5
ATOM      5  C   UNL A   1      34.534  25.025  24.469  1.00  0.00     0.144 C 
BRANCH   5   6
ATOM      6  C   UNL A   1      33.191  25.251  23.740  1.00  0.00     0.140 C 
BRANCH   6   7
ATOM      7  N   UNL A   1      32.150  25.942  24.484  1.00  0.00    -0.286 N 
ATOM      8  C   UNL A   1      31.693  25.542  25.694  1.00  0.00     0.171 A 
ATOM      9  N   UNL A   1      31.625  26.363  26.696  1.00  0.00    -0.224 NA
ATOM     10  C   UNL A   1      31.806  27.727  26.395  1.00  0.00     0.079 A 
ATOM     11  C   UNL A   1      31.666  27.159  24.037  1.00  0.00     0.262 A 
ATOM     12  C   UNL A   1      32.112  28.669  27.375  1.00  0.00     0.029 A 
ATOM     13  C   UNL A   1      31.515  28.174  25.105  1.00  0.00     0.066 A 
ATOM     14  O   UNL A   1      31.451  27.431  22.862  1.00  0.00    -0.269 OA
ATOM     15  C   UNL A   1      32.009  30.035  27.084  1.00  0.00     0.002 A 
ATOM     16  C   UNL A   1      31.306  29.523  24.826  1.00  0.00     0.016 A 
ATOM     17  C   UNL A   1      31.543  30.457  25.834  1.00  0.00     0.001 A 
BRANCH   8  18
ATOM     18  S   UNL A   1      30.981  23.987  25.894  1.00  0.00    -0.083 SA
BRANCH  18  19
ATOM     19  C   UNL A   1      32.115  22.615  26.143  1.00  0.00     0.113 C 
BRANCH  19  20
ATOM     20  C   UNL A   1      32.042  21.635  25.015  1.00  0.00    -0.034 A 
ATOM     21  C   UNL A   1      32.492  19.409  24.197  1.00  0.00     0.119 A 
ATOM     22  C   UNL A   1      32.415  19.893  22.890  1.00  0.00     0.046 A 
ATOM     23  C   UNL A   1      32.276  20.279  25.256  1.00  0.00     0.051 A 
ATOM     24  C   UNL A   1      32.038  21.213  22.641  1.00  0.00     0.004 A 
ATOM     25  C   UNL A   1      31.833  22.079  23.704  1.00  0.00     0.005 A 
BRANCH  21  26
ATOM     26  O   UNL A   1      32.835  18.092  24.326  1.00  0.00    -0.497 OA
ATOM     27  C   UNL A   1      33.295  17.447  23.142  1.00  0.00     0.278 C 
ENDBRANCH  21  26
ENDBRANCH  19  20
ENDBRANCH  18  19
ENDBRANCH   8  18
ENDBRANCH   6   7
ENDBRANCH   5   6
ENDBRANCH   3   5
ENDBRANCH   2   3
ENDBRANCH   1   2
BRANCH   1  28
ATOM     28  C   UNL A   1      37.238  21.297  25.412  1.00  0.00     0.202 C 
BRANCH  28  29
ATOM     29  O   UNL A   1      38.354  22.031  25.950  1.00  0.00    -0.374 OA
BRANCH  29  30
ATOM     30  C   UNL A   1      39.606  21.342  25.961  1.00  0.00     0.202 C 
BRANCH  30  31
ATOM     31  C   UNL A   1      40.663  21.877  26.954  1.00  0.00     0.261 C 
BRANCH  31  32
ATOM     32  O   UNL A   1      40.293  23.141  27.516  1.00  0.00    -0.460 OA
BRANCH  32  33
ATOM     33  C   UNL A   1      41.061  24.172  27.136  1.00  0.00     0.338 C 
ATOM     34  O   UNL A   1      41.903  24.174  26.243  1.00  0.00    -0.246 OA
BRANCH  33  35
ATOM     35  C   UNL A   1      40.625  25.408  27.803  1.00  0.00     0.060 A 
ATOM     36  C   UNL A   1      41.480  26.501  27.646  1.00  0.00     0.016 A 
ATOM     37  C   UNL A   1      39.486  25.502  28.612  1.00  0.00     0.016 A 
ATOM     38  C   UNL A   1      41.281  27.645  28.397  1.00  0.00     0.010 A 
ATOM     39  C   UNL A   1      39.276  26.668  29.360  1.00  0.00     0.010 A 
ATOM     40  C   UNL A   1      40.217  27.711  29.307  1.00  0.00    -0.014 A 
BRANCH  40  41
ATOM     41  C   UNL A   1      40.264  28.794  30.316  1.00  0.00     0.031 A 
ATOM     42  C   UNL A   1      39.232  29.888  30.249  1.00  0.00     0.074 A 
ATOM     43  C   UNL A   1      41.092  28.693  31.371  1.00  0.00     0.049 A 
ATOM     44  N   UNL A   1      38.977  30.843  31.106  1.00  0.00    -0.248 NA
ATOM     45  C   UNL A   1      38.358  29.900  29.065  1.00  0.00     0.031 C 
ATOM     46  C   UNL A   1      42.079  27.632  31.564  1.00  0.00     0.029 A 
ATOM     47  N   UNL A   1      41.206  29.469  32.496  1.00  0.00    -0.354 N 
ATOM     48  C   UNL A   1      37.919  31.566  30.564  1.00  0.00     0.074 A 
ATOM     49  C   UNL A   1      37.604  30.965  29.289  1.00  0.00     0.031 C 
ATOM     50  C   UNL A   1      42.687  27.812  32.747  1.00  0.00     0.029 A 
ATOM     51  C   UNL A   1      42.153  29.015  33.379  1.00  0.00     0.049 A 
ATOM     52  H   UNL A   1      40.660  30.273  32.654  1.00  0.00     0.167 HD
ATOM     53  C   UNL A   1      37.262  32.625  31.092  1.00  0.00     0.037 A 
ATOM     54  C   UNL A   1      42.544  29.520  34.564  1.00  0.00     0.037 A 
ATOM     55  C   UNL A   1      37.581  33.206  32.369  1.00  0.00     0.049 A 
ATOM     56  C   UNL A   1      41.843  30.740  35.098  1.00  0.00     0.074 A 
ATOM     57  C   UNL A   1      36.979  34.275  33.006  1.00  0.00     0.029 A 
ATOM     58  N   UNL A   1      38.602  32.766  33.200  1.00  0.00    -0.354 N 
ATOM     59  N   UNL A   1      40.836  31.406  34.584  1.00  0.00    -0.248 NA
ATOM     60  C   UNL A   1      42.328  31.275  36.376  1.00  0.00     0.031 C 
ATOM     61  C   UNL A   1      37.678  34.525  34.192  1.00  0.00     0.029 A 
ATOM     62  C   UNL A   1      38.670  33.566  34.328  1.00  0.00     0.049 A 
ATOM     63  H   UNL A   1      39.190  31.999  33.016  1.00  0.00     0.167 HD
ATOM     64  C   UNL A   1      40.552  32.424  35.484  1.00  0.00     0.074 A 
ATOM     65  C   UNL A   1      41.481  32.273  36.586  1.00  0.00     0.031 C 
ATOM     66  C   UNL A   1      39.609  33.397  35.410  1.00  0.00     0.037 A 
BRANCH  53  67
ATOM     67  C   UNL A   1      36.168  33.247  30.269  1.00  0.00     0.057 A 
ATOM     68  C   UNL A   1      34.810  33.066  30.565  1.00  0.00     0.134 A 
ATOM     69  C   UNL A   1      36.483  34.059  29.172  1.00  0.00     0.134 A 
ATOM     70  F   UNL A   1      34.435  32.289  31.593  1.00  0.00    -0.206 F 
ATOM     71  C   UNL A   1      33.808  33.646  29.783  1.00  0.00     0.040 A 
ATOM     72  C   UNL A   1      35.492  34.668  28.401  1.00  0.00     0.040 A 
ATOM     73  F   UNL A   1      37.762  34.279  28.833  1.00  0.00    -0.206 F 
ATOM     74  C   UNL A   1      34.147  34.456  28.701  1.00  0.00     0.006 A 
ENDBRANCH  53  67
BRANCH  54  75
ATOM     75  C   UNL A   1      43.662  28.883  35.306  1.00  0.00     0.057 A 
ATOM     76  C   UNL A   1      45.000  29.200  35.040  1.00  0.00     0.134 A 
ATOM     77  C   UNL A   1      43.414  27.933  36.306  1.00  0.00     0.134 A 
ATOM     78  F   UNL A   1      45.307  30.088  34.084  1.00  0.00    -0.206 F 
ATOM     79  C   UNL A   1      46.048  28.586  35.731  1.00  0.00     0.040 A 
ATOM     80  C   UNL A   1      44.450  27.334  37.023  1.00  0.00     0.040 A 
ATOM     81  F   UNL A   1      42.155  27.588  36.614  1.00  0.00    -0.206 F 
ATOM     82  C   UNL A   1      45.772  27.654  36.730  1.00  0.00     0.006 A 
ENDBRANCH  54  75
BRANCH  66  83
ATOM     83  C   UNL A   1      39.521  34.353  36.563  1.00  0.00     0.057 A 
ATOM     84  C   UNL A   1      38.837  34.031  37.744  1.00  0.00     0.134 A 
ATOM     85  C   UNL A   1      40.162  35.597  36.506  1.00  0.00     0.134 A 
ATOM     86  F   UNL A   1      38.193  32.860  37.859  1.00  0.00    -0.206 F 
ATOM     87  C   UNL A   1      38.771  34.925  38.814  1.00  0.00     0.040 A 
ATOM     88  C   UNL A   1      40.130  36.486  37.582  1.00  0.00     0.040 A 
ATOM     89  F   UNL A   1      40.844  35.963  35.411  1.00  0.00    -0.206 F 
ATOM     90  C   UNL A   1      39.426  36.153  38.736  1.00  0.00     0.006 A 
ENDBRANCH  66  83
ENDBRANCH  40  41
ENDBRANCH  33  35
ENDBRANCH  32  33
ENDBRANCH  31  32
ENDBRANCH  30  31
ENDBRANCH  29  30
ENDBRANCH  28  29
ENDBRANCH   1  28
TORSDOF 20
ENDMDL
