MODEL 1
REMARK VINA RESULT:     -11.2      0.000      0.000
REMARK SMILES CC(C)CN(C)c1cc2c(cc1Cl)C=C(C(=O)OCCOCCOC(=O)c1ccc(-c3c4nc(c(-c5c(F)cccc5F)c5ccc([nH]5)c(-c5c(F)cccc5F)c5nc(c(-c6c(F)cccc6F)c6ccc3[nH]6)C=C5)C=C4)cc1)[C@@H](C(F)(F)F)O2
REMARK SMILES IDX 20 1 19 2 18 3 16 4 17 5 15 6 7 7 8 8 12 9 9 10 11 11 13 12
REMARK SMILES IDX 10 13 86 14 14 15 81 16 5 17 6 18 4 19 2 20 1 21 3 22 82 23
REMARK SMILES IDX 83 24 84 25 85 26 21 27 22 28 23 29 24 30 25 31 26 32 27 33
REMARK SMILES IDX 28 34 80 35 29 36 79 37 30 38 31 39 32 40 73 41 33 42 78 43
REMARK SMILES IDX 72 44 74 45 34 46 77 47 71 48 70 49 35 51 61 52 44 53 60 54
REMARK SMILES IDX 45 55 48 56 59 57 75 58 46 59 47 60 58 62 76 63 49 64 36 65
REMARK SMILES IDX 37 66 42 67 38 68 39 69 41 70 43 71 40 72 62 73 63 74 68 75
REMARK SMILES IDX 64 76 65 77 67 78 69 79 66 80 50 81 51 82 56 83 52 84 53 85
REMARK SMILES IDX 55 86 57 87 54 88
REMARK H PARENT 74 50 48 61
REMARK Flexibility Score: inf
ROOT
ATOM      1  C   UNL A   1      33.386  29.339  25.742  1.00  0.00     0.202 C 
ENDROOT
BRANCH   1   2
ATOM      2  C   UNL A   1      32.733  28.115  25.093  1.00  0.00     0.261 C 
BRANCH   2   3
ATOM      3  O   UNL A   1      33.102  26.884  25.731  1.00  0.00    -0.460 OA
BRANCH   3   4
ATOM      4  C   UNL A   1      32.098  26.336  26.455  1.00  0.00     0.338 C 
ATOM      5  O   UNL A   1      31.349  26.928  27.218  1.00  0.00    -0.246 OA
BRANCH   4   6
ATOM      6  C   UNL A   1      31.927  24.910  26.131  1.00  0.00     0.087 C 
ATOM      7  C   UNL A   1      33.094  20.185  24.892  1.00  0.00     0.059 A 
ATOM      8  C   UNL A   1      31.881  20.909  24.932  1.00  0.00     0.074 A 
ATOM      9  C   UNL A   1      34.271  20.867  25.268  1.00  0.00     0.065 A 
ATOM     10  C   UNL A   1      31.847  22.236  25.382  1.00  0.00     0.130 A 
ATOM     11  C   UNL A   1      34.216  22.136  25.833  1.00  0.00     0.034 A 
ATOM     12  Cl  UNL A   1      35.853  20.219  24.998  1.00  0.00    -0.082 Cl
ATOM     13  C   UNL A   1      33.004  22.812  25.900  1.00  0.00     0.019 A 
ATOM     14  O   UNL A   1      30.661  22.923  25.312  1.00  0.00    -0.475 OA
ATOM     15  C   UNL A   1      32.982  24.151  26.439  1.00  0.00     0.027 C 
ATOM     16  C   UNL A   1      30.729  24.389  25.389  1.00  0.00     0.316 C 
BRANCH   7  17
ATOM     17  N   UNL A   1      33.125  18.839  24.511  1.00  0.00    -0.373 N 
ATOM     18  C   UNL A   1      32.565  18.528  23.202  1.00  0.00     0.143 C 
BRANCH  17  19
ATOM     19  C   UNL A   1      33.038  17.809  25.569  1.00  0.00     0.119 C 
BRANCH  19  20
ATOM     20  C   UNL A   1      33.407  16.392  25.071  1.00  0.00     0.002 C 
ATOM     21  C   UNL A   1      34.863  16.024  25.374  1.00  0.00     0.009 C 
ATOM     22  C   UNL A   1      32.503  15.319  25.684  1.00  0.00     0.009 C 
ENDBRANCH  19  20
ENDBRANCH  17  19
ENDBRANCH   7  17
BRANCH  16  23
ATOM     23  C   UNL A   1      30.630  25.014  23.990  1.00  0.00     0.430 C 
ATOM     24  F   UNL A   1      30.050  26.236  24.028  1.00  0.00    -0.167 F 
ATOM     25  F   UNL A   1      31.860  25.186  23.444  1.00  0.00    -0.167 F 
ATOM     26  F   UNL A   1      29.915  24.249  23.135  1.00  0.00    -0.167 F 
ENDBRANCH  16  23
ENDBRANCH   4   6
ENDBRANCH   3   4
ENDBRANCH   2   3
ENDBRANCH   1   2
BRANCH   1  27
ATOM     27  O   UNL A   1      32.545  30.386  26.211  1.00  0.00    -0.374 OA
BRANCH  27  28
ATOM     28  C   UNL A   1      33.070  31.334  27.139  1.00  0.00     0.202 C 
BRANCH  28  29
ATOM     29  C   UNL A   1      32.302  32.641  27.381  1.00  0.00     0.261 C 
BRANCH  29  30
ATOM     30  O   UNL A   1      33.122  33.814  27.257  1.00  0.00    -0.460 OA
BRANCH  30  31
ATOM     31  C   UNL A   1      33.270  34.531  28.399  1.00  0.00     0.338 C 
ATOM     32  O   UNL A   1      32.531  35.405  28.828  1.00  0.00    -0.246 OA
BRANCH  31  33
ATOM     33  C   UNL A   1      34.376  33.963  29.187  1.00  0.00     0.060 A 
ATOM     34  C   UNL A   1      34.126  33.227  30.344  1.00  0.00     0.016 A 
ATOM     35  C   UNL A   1      35.686  34.140  28.721  1.00  0.00     0.016 A 
ATOM     36  C   UNL A   1      35.197  32.645  31.026  1.00  0.00     0.010 A 
ATOM     37  C   UNL A   1      36.754  33.560  29.404  1.00  0.00     0.010 A 
ATOM     38  C   UNL A   1      36.514  32.791  30.551  1.00  0.00    -0.014 A 
BRANCH  38  39
ATOM     39  C   UNL A   1      37.618  32.035  31.192  1.00  0.00     0.031 A 
ATOM     40  C   UNL A   1      38.328  30.927  30.477  1.00  0.00     0.074 A 
ATOM     41  C   UNL A   1      37.966  32.359  32.452  1.00  0.00     0.049 A 
ATOM     42  N   UNL A   1      39.364  30.228  30.867  1.00  0.00    -0.248 NA
ATOM     43  C   UNL A   1      37.803  30.547  29.159  1.00  0.00     0.031 C 
ATOM     44  C   UNL A   1      37.314  33.385  33.266  1.00  0.00     0.029 A 
ATOM     45  N   UNL A   1      38.955  31.866  33.262  1.00  0.00    -0.354 N 
ATOM     46  C   UNL A   1      39.633  29.339  29.834  1.00  0.00     0.074 A 
ATOM     47  C   UNL A   1      38.613  29.550  28.826  1.00  0.00     0.031 C 
ATOM     48  C   UNL A   1      37.939  33.466  34.451  1.00  0.00     0.029 A 
ATOM     49  C   UNL A   1      39.014  32.480  34.489  1.00  0.00     0.049 A 
ATOM     50  H   UNL A   1      39.565  31.141  32.991  1.00  0.00     0.167 HD
ATOM     51  C   UNL A   1      40.648  28.447  29.730  1.00  0.00     0.037 A 
ATOM     52  C   UNL A   1      39.843  32.271  35.529  1.00  0.00     0.037 A 
ATOM     53  C   UNL A   1      41.639  28.217  30.753  1.00  0.00     0.049 A 
ATOM     54  C   UNL A   1      40.925  31.235  35.408  1.00  0.00     0.074 A 
ATOM     55  C   UNL A   1      42.726  27.359  30.729  1.00  0.00     0.029 A 
ATOM     56  N   UNL A   1      41.649  28.831  31.998  1.00  0.00    -0.354 N 
ATOM     57  N   UNL A   1      41.228  30.468  34.388  1.00  0.00    -0.248 NA
ATOM     58  C   UNL A   1      41.784  31.040  36.583  1.00  0.00     0.031 C 
ATOM     59  C   UNL A   1      43.355  27.409  31.977  1.00  0.00     0.029 A 
ATOM     60  C   UNL A   1      42.700  28.345  32.762  1.00  0.00     0.049 A 
ATOM     61  H   UNL A   1      41.003  29.512  32.296  1.00  0.00     0.167 HD
ATOM     62  C   UNL A   1      42.327  29.719  34.790  1.00  0.00     0.074 A 
ATOM     63  C   UNL A   1      42.650  30.143  36.137  1.00  0.00     0.031 C 
ATOM     64  C   UNL A   1      43.007  28.766  34.106  1.00  0.00     0.037 A 
BRANCH  51  65
ATOM     65  C   UNL A   1      40.728  27.643  28.463  1.00  0.00     0.057 A 
ATOM     66  C   UNL A   1      41.486  28.088  27.372  1.00  0.00     0.134 A 
ATOM     67  C   UNL A   1      40.035  26.432  28.313  1.00  0.00     0.134 A 
ATOM     68  F   UNL A   1      42.165  29.242  27.440  1.00  0.00    -0.206 F 
ATOM     69  C   UNL A   1      41.558  27.357  26.185  1.00  0.00     0.040 A 
ATOM     70  C   UNL A   1      40.123  25.678  27.142  1.00  0.00     0.040 A 
ATOM     71  F   UNL A   1      39.294  25.944  29.319  1.00  0.00    -0.206 F 
ATOM     72  C   UNL A   1      40.885  26.143  26.071  1.00  0.00     0.006 A 
ENDBRANCH  51  65
BRANCH  52  73
ATOM     73  C   UNL A   1      39.691  33.065  36.774  1.00  0.00     0.057 A 
ATOM     74  C   UNL A   1      38.737  32.724  37.742  1.00  0.00     0.134 A 
ATOM     75  C   UNL A   1      40.514  34.165  37.039  1.00  0.00     0.134 A 
ATOM     76  F   UNL A   1      37.912  31.686  37.544  1.00  0.00    -0.206 F 
ATOM     77  C   UNL A   1      38.609  33.447  38.928  1.00  0.00     0.040 A 
ATOM     78  C   UNL A   1      40.417  34.879  38.233  1.00  0.00     0.040 A 
ATOM     79  F   UNL A   1      41.457  34.529  36.157  1.00  0.00    -0.206 F 
ATOM     80  C   UNL A   1      39.459  34.522  39.181  1.00  0.00     0.006 A 
ENDBRANCH  52  73
BRANCH  64  81
ATOM     81  C   UNL A   1      44.183  28.138  34.802  1.00  0.00     0.057 A 
ATOM     82  C   UNL A   1      44.025  26.971  35.560  1.00  0.00     0.134 A 
ATOM     83  C   UNL A   1      45.471  28.687  34.725  1.00  0.00     0.134 A 
ATOM     84  F   UNL A   1      42.820  26.396  35.683  1.00  0.00    -0.206 F 
ATOM     85  C   UNL A   1      45.103  26.371  36.213  1.00  0.00     0.040 A 
ATOM     86  C   UNL A   1      46.563  28.077  35.347  1.00  0.00     0.040 A 
ATOM     87  F   UNL A   1      45.697  29.795  34.003  1.00  0.00    -0.206 F 
ATOM     88  C   UNL A   1      46.379  26.918  36.098  1.00  0.00     0.006 A 
ENDBRANCH  64  81
ENDBRANCH  38  39
ENDBRANCH  31  33
ENDBRANCH  30  31
ENDBRANCH  29  30
ENDBRANCH  28  29
ENDBRANCH  27  28
ENDBRANCH   1  27
TORSDOF 18
ENDMDL
MODEL 2
REMARK VINA RESULT:     -11.1      1.065      6.007
REMARK SMILES CC(C)CN(C)c1cc2c(cc1Cl)C=C(C(=O)OCCOCCOC(=O)c1ccc(-c3c4nc(c(-c5c(F)cccc5F)c5ccc([nH]5)c(-c5c(F)cccc5F)c5nc(c(-c6c(F)cccc6F)c6ccc3[nH]6)C=C5)C=C4)cc1)[C@@H](C(F)(F)F)O2
REMARK SMILES IDX 20 1 19 2 18 3 16 4 17 5 15 6 7 7 8 8 12 9 9 10 11 11 13 12
REMARK SMILES IDX 10 13 86 14 14 15 81 16 5 17 6 18 4 19 2 20 1 21 3 22 82 23
REMARK SMILES IDX 83 24 84 25 85 26 21 27 22 28 23 29 24 30 25 31 26 32 27 33
REMARK SMILES IDX 28 34 80 35 29 36 79 37 30 38 31 39 32 40 73 41 33 42 78 43
REMARK SMILES IDX 72 44 74 45 34 46 77 47 71 48 70 49 35 51 61 52 44 53 60 54
REMARK SMILES IDX 45 55 48 56 59 57 75 58 46 59 47 60 58 62 76 63 49 64 36 65
REMARK SMILES IDX 37 66 42 67 38 68 39 69 41 70 43 71 40 72 62 73 63 74 68 75
REMARK SMILES IDX 64 76 65 77 67 78 69 79 66 80 50 81 51 82 56 83 52 84 53 85
REMARK SMILES IDX 55 86 57 87 54 88
REMARK H PARENT 74 50 48 61
REMARK Flexibility Score: inf
ROOT
ATOM      1  C   UNL A   1      33.089  29.466  25.688  1.00  0.00     0.202 C 
ENDROOT
BRANCH   1   2
ATOM      2  C   UNL A   1      32.434  28.238  25.049  1.00  0.00     0.261 C 
BRANCH   2   3
ATOM      3  O   UNL A   1      32.920  27.002  25.593  1.00  0.00    -0.460 OA
BRANCH   3   4
ATOM      4  C   UNL A   1      32.033  26.396  26.416  1.00  0.00     0.338 C 
ATOM      5  O   UNL A   1      31.348  26.940  27.270  1.00  0.00    -0.246 OA
BRANCH   4   6
ATOM      6  C   UNL A   1      31.895  24.967  26.087  1.00  0.00     0.087 C 
ATOM      7  C   UNL A   1      33.169  20.277  24.823  1.00  0.00     0.059 A 
ATOM      8  C   UNL A   1      31.939  20.972  24.873  1.00  0.00     0.074 A 
ATOM      9  C   UNL A   1      34.332  20.986  25.194  1.00  0.00     0.065 A 
ATOM     10  C   UNL A   1      31.876  22.295  25.328  1.00  0.00     0.130 A 
ATOM     11  C   UNL A   1      34.249  22.251  25.766  1.00  0.00     0.034 A 
ATOM     12  Cl  UNL A   1      35.927  20.378  24.913  1.00  0.00    -0.082 Cl
ATOM     13  C   UNL A   1      33.022  22.897  25.842  1.00  0.00     0.019 A 
ATOM     14  O   UNL A   1      30.673  22.953  25.268  1.00  0.00    -0.475 OA
ATOM     15  C   UNL A   1      32.970  24.233  26.387  1.00  0.00     0.027 C 
ATOM     16  C   UNL A   1      30.706  24.420  25.351  1.00  0.00     0.316 C 
BRANCH   7  17
ATOM     17  N   UNL A   1      33.231  18.934  24.437  1.00  0.00    -0.373 N 
ATOM     18  C   UNL A   1      32.555  18.591  23.192  1.00  0.00     0.143 C 
BRANCH  17  19
ATOM     19  C   UNL A   1      33.309  17.903  25.494  1.00  0.00     0.119 C 
BRANCH  19  20
ATOM     20  C   UNL A   1      33.565  16.482  24.942  1.00  0.00     0.002 C 
ATOM     21  C   UNL A   1      34.986  15.986  25.234  1.00  0.00     0.009 C 
ATOM     22  C   UNL A   1      32.575  15.461  25.509  1.00  0.00     0.009 C 
ENDBRANCH  19  20
ENDBRANCH  17  19
ENDBRANCH   7  17
BRANCH  16  23
ATOM     23  C   UNL A   1      30.583  25.048  23.955  1.00  0.00     0.430 C 
ATOM     24  F   UNL A   1      29.957  26.247  23.999  1.00  0.00    -0.167 F 
ATOM     25  F   UNL A   1      31.805  25.269  23.410  1.00  0.00    -0.167 F 
ATOM     26  F   UNL A   1      29.897  24.261  23.096  1.00  0.00    -0.167 F 
ENDBRANCH  16  23
ENDBRANCH   4   6
ENDBRANCH   3   4
ENDBRANCH   2   3
ENDBRANCH   1   2
BRANCH   1  27
ATOM     27  O   UNL A   1      32.263  30.383  26.396  1.00  0.00    -0.374 OA
BRANCH  27  28
ATOM     28  C   UNL A   1      32.875  31.362  27.234  1.00  0.00     0.202 C 
BRANCH  28  29
ATOM     29  C   UNL A   1      32.231  32.752  27.344  1.00  0.00     0.261 C 
BRANCH  29  30
ATOM     30  O   UNL A   1      33.191  33.819  27.407  1.00  0.00    -0.460 OA
BRANCH  30  31
ATOM     31  C   UNL A   1      33.323  34.397  28.627  1.00  0.00     0.338 C 
ATOM     32  O   UNL A   1      32.495  35.070  29.224  1.00  0.00    -0.246 OA
BRANCH  31  33
ATOM     33  C   UNL A   1      34.570  33.928  29.253  1.00  0.00     0.060 A 
ATOM     34  C   UNL A   1      34.543  33.143  30.403  1.00  0.00     0.016 A 
ATOM     35  C   UNL A   1      35.787  34.252  28.636  1.00  0.00     0.016 A 
ATOM     36  C   UNL A   1      35.743  32.659  30.927  1.00  0.00     0.010 A 
ATOM     37  C   UNL A   1      36.985  33.769  29.162  1.00  0.00     0.010 A 
ATOM     38  C   UNL A   1      36.969  32.952  30.300  1.00  0.00    -0.014 A 
BRANCH  38  39
ATOM     39  C   UNL A   1      38.215  32.300  30.772  1.00  0.00     0.031 A 
ATOM     40  C   UNL A   1      38.988  32.836  31.939  1.00  0.00     0.074 A 
ATOM     41  C   UNL A   1      38.654  31.210  30.114  1.00  0.00     0.049 A 
ATOM     42  N   UNL A   1      40.046  32.334  32.523  1.00  0.00    -0.248 NA
ATOM     43  C   UNL A   1      38.518  34.100  32.518  1.00  0.00     0.031 C 
ATOM     44  C   UNL A   1      38.015  30.628  28.933  1.00  0.00     0.029 A 
ATOM     45  N   UNL A   1      39.732  30.397  30.347  1.00  0.00    -0.354 N 
ATOM     46  C   UNL A   1      40.359  33.208  33.556  1.00  0.00     0.074 A 
ATOM     47  C   UNL A   1      39.410  34.301  33.479  1.00  0.00     0.031 C 
ATOM     48  C   UNL A   1      38.695  29.532  28.563  1.00  0.00     0.029 A 
ATOM     49  C   UNL A   1      39.833  29.354  29.460  1.00  0.00     0.049 A 
ATOM     50  H   UNL A   1      40.373  30.546  31.080  1.00  0.00     0.167 HD
ATOM     51  C   UNL A   1      41.333  33.096  34.493  1.00  0.00     0.037 A 
ATOM     52  C   UNL A   1      40.742  28.364  29.377  1.00  0.00     0.037 A 
ATOM     53  C   UNL A   1      42.296  32.024  34.541  1.00  0.00     0.049 A 
ATOM     54  C   UNL A   1      41.846  28.297  30.395  1.00  0.00     0.074 A 
ATOM     55  C   UNL A   1      43.300  31.803  35.469  1.00  0.00     0.029 A 
ATOM     56  N   UNL A   1      42.393  31.002  33.606  1.00  0.00    -0.354 N 
ATOM     57  N   UNL A   1      42.073  29.076  31.425  1.00  0.00    -0.248 NA
ATOM     58  C   UNL A   1      42.817  27.206  30.241  1.00  0.00     0.031 C 
ATOM     59  C   UNL A   1      44.040  30.687  35.062  1.00  0.00     0.029 A 
ATOM     60  C   UNL A   1      43.459  30.171  33.915  1.00  0.00     0.049 A 
ATOM     61  H   UNL A   1      41.791  30.885  32.836  1.00  0.00     0.167 HD
ATOM     62  C   UNL A   1      43.197  28.555  32.054  1.00  0.00     0.074 A 
ATOM     63  C   UNL A   1      43.587  27.379  31.304  1.00  0.00     0.031 C 
ATOM     64  C   UNL A   1      43.847  29.009  33.154  1.00  0.00     0.037 A 
BRANCH  51  65
ATOM     65  C   UNL A   1      41.409  34.175  35.536  1.00  0.00     0.057 A 
ATOM     66  C   UNL A   1      42.210  35.308  35.344  1.00  0.00     0.134 A 
ATOM     67  C   UNL A   1      40.704  34.083  36.745  1.00  0.00     0.134 A 
ATOM     68  F   UNL A   1      42.922  35.457  34.217  1.00  0.00    -0.206 F 
ATOM     69  C   UNL A   1      42.301  36.312  36.311  1.00  0.00     0.040 A 
ATOM     70  C   UNL A   1      40.763  35.094  37.705  1.00  0.00     0.040 A 
ATOM     71  F   UNL A   1      39.914  33.028  36.992  1.00  0.00    -0.206 F 
ATOM     72  C   UNL A   1      41.566  36.212  37.490  1.00  0.00     0.006 A 
ENDBRANCH  51  65
BRANCH  52  73
ATOM     73  C   UNL A   1      40.643  27.350  28.299  1.00  0.00     0.057 A 
ATOM     74  C   UNL A   1      39.824  26.222  28.433  1.00  0.00     0.134 A 
ATOM     75  C   UNL A   1      41.344  27.499  27.096  1.00  0.00     0.134 A 
ATOM     76  F   UNL A   1      39.134  26.017  29.565  1.00  0.00    -0.206 F 
ATOM     77  C   UNL A   1      39.704  25.280  27.412  1.00  0.00     0.040 A 
ATOM     78  C   UNL A   1      41.210  26.580  26.055  1.00  0.00     0.040 A 
ATOM     79  F   UNL A   1      42.131  28.567  26.902  1.00  0.00    -0.206 F 
ATOM     80  C   UNL A   1      40.390  25.464  26.213  1.00  0.00     0.006 A 
ENDBRANCH  52  73
BRANCH  64  81
ATOM     81  C   UNL A   1      45.034  28.212  33.621  1.00  0.00     0.057 A 
ATOM     82  C   UNL A   1      46.324  28.524  33.175  1.00  0.00     0.134 A 
ATOM     83  C   UNL A   1      44.902  27.134  34.507  1.00  0.00     0.134 A 
ATOM     84  F   UNL A   1      46.523  29.538  32.319  1.00  0.00    -0.206 F 
ATOM     85  C   UNL A   1      47.440  27.798  33.595  1.00  0.00     0.040 A 
ATOM     86  C   UNL A   1      46.015  26.422  34.961  1.00  0.00     0.040 A 
ATOM     87  F   UNL A   1      43.697  26.790  34.987  1.00  0.00    -0.206 F 
ATOM     88  C   UNL A   1      47.288  26.751  34.500  1.00  0.00     0.006 A 
ENDBRANCH  64  81
ENDBRANCH  38  39
ENDBRANCH  31  33
ENDBRANCH  30  31
ENDBRANCH  29  30
ENDBRANCH  28  29
ENDBRANCH  27  28
ENDBRANCH   1  27
TORSDOF 18
ENDMDL
MODEL 3
REMARK VINA RESULT:     -11.0      1.399      6.279
REMARK SMILES CC(C)CN(C)c1cc2c(cc1Cl)C=C(C(=O)OCCOCCOC(=O)c1ccc(-c3c4nc(c(-c5c(F)cccc5F)c5ccc([nH]5)c(-c5c(F)cccc5F)c5nc(c(-c6c(F)cccc6F)c6ccc3[nH]6)C=C5)C=C4)cc1)[C@@H](C(F)(F)F)O2
REMARK SMILES IDX 20 1 19 2 18 3 16 4 17 5 15 6 7 7 8 8 12 9 9 10 11 11 13 12
REMARK SMILES IDX 10 13 86 14 14 15 81 16 5 17 6 18 4 19 2 20 1 21 3 22 82 23
REMARK SMILES IDX 83 24 84 25 85 26 21 27 22 28 23 29 24 30 25 31 26 32 27 33
REMARK SMILES IDX 28 34 80 35 29 36 79 37 30 38 31 39 32 40 73 41 33 42 78 43
REMARK SMILES IDX 72 44 74 45 34 46 77 47 71 48 70 49 35 51 61 52 44 53 60 54
REMARK SMILES IDX 45 55 48 56 59 57 75 58 46 59 47 60 58 62 76 63 49 64 36 65
REMARK SMILES IDX 37 66 42 67 38 68 39 69 41 70 43 71 40 72 62 73 63 74 68 75
REMARK SMILES IDX 64 76 65 77 67 78 69 79 66 80 50 81 51 82 56 83 52 84 53 85
REMARK SMILES IDX 55 86 57 87 54 88
REMARK H PARENT 74 50 48 61
REMARK Flexibility Score: inf
ROOT
ATOM      1  C   UNL A   1      31.731  30.563  26.217  1.00  0.00     0.202 C 
ENDROOT
BRANCH   1   2
ATOM      2  C   UNL A   1      31.660  29.646  24.992  1.00  0.00     0.261 C 
BRANCH   2   3
ATOM      3  O   UNL A   1      31.158  28.339  25.304  1.00  0.00    -0.460 OA
BRANCH   3   4
ATOM      4  C   UNL A   1      30.603  27.712  24.241  1.00  0.00     0.338 C 
ATOM      5  O   UNL A   1      29.858  28.215  23.412  1.00  0.00    -0.246 OA
BRANCH   4   6
ATOM      6  C   UNL A   1      31.097  26.331  24.122  1.00  0.00     0.087 C 
ATOM      7  C   UNL A   1      33.150  21.932  25.408  1.00  0.00     0.059 A 
ATOM      8  C   UNL A   1      32.831  22.531  24.169  1.00  0.00     0.074 A 
ATOM      9  C   UNL A   1      32.858  22.664  26.579  1.00  0.00     0.065 A 
ATOM     10  C   UNL A   1      32.198  23.780  24.114  1.00  0.00     0.130 A 
ATOM     11  C   UNL A   1      32.117  23.839  26.525  1.00  0.00     0.034 A 
ATOM     12  Cl  UNL A   1      33.446  22.203  28.141  1.00  0.00    -0.082 Cl
ATOM     13  C   UNL A   1      31.778  24.387  25.294  1.00  0.00     0.019 A 
ATOM     14  O   UNL A   1      31.995  24.359  22.885  1.00  0.00    -0.475 OA
ATOM     15  C   UNL A   1      31.057  25.637  25.263  1.00  0.00     0.027 C 
ATOM     16  C   UNL A   1      31.721  25.803  22.862  1.00  0.00     0.316 C 
BRANCH   7  17
ATOM     17  N   UNL A   1      33.718  20.655  25.474  1.00  0.00    -0.373 N 
ATOM     18  C   UNL A   1      35.093  20.538  25.002  1.00  0.00     0.143 C 
BRANCH  17  19
ATOM     19  C   UNL A   1      32.828  19.483  25.326  1.00  0.00     0.119 C 
BRANCH  19  20
ATOM     20  C   UNL A   1      33.125  18.649  24.058  1.00  0.00     0.002 C 
ATOM     21  C   UNL A   1      33.050  17.140  24.317  1.00  0.00     0.009 C 
ATOM     22  C   UNL A   1      32.164  18.987  22.915  1.00  0.00     0.009 C 
ENDBRANCH  19  20
ENDBRANCH  17  19
ENDBRANCH   7  17
BRANCH  16  23
ATOM     23  C   UNL A   1      32.988  26.592  22.499  1.00  0.00     0.430 C 
ATOM     24  F   UNL A   1      33.838  26.684  23.548  1.00  0.00    -0.167 F 
ATOM     25  F   UNL A   1      33.672  25.984  21.498  1.00  0.00    -0.167 F 
ATOM     26  F   UNL A   1      32.709  27.850  22.088  1.00  0.00    -0.167 F 
ENDBRANCH  16  23
ENDBRANCH   4   6
ENDBRANCH   3   4
ENDBRANCH   2   3
ENDBRANCH   1   2
BRANCH   1  27
ATOM     27  O   UNL A   1      32.915  30.547  27.007  1.00  0.00    -0.374 OA
BRANCH  27  28
ATOM     28  C   UNL A   1      33.358  31.760  27.615  1.00  0.00     0.202 C 
BRANCH  28  29
ATOM     29  C   UNL A   1      32.654  33.074  27.250  1.00  0.00     0.261 C 
BRANCH  29  30
ATOM     30  O   UNL A   1      32.163  33.792  28.394  1.00  0.00    -0.460 OA
BRANCH  30  31
ATOM     31  C   UNL A   1      32.911  34.862  28.761  1.00  0.00     0.338 C 
ATOM     32  O   UNL A   1      32.600  36.043  28.697  1.00  0.00    -0.246 OA
BRANCH  31  33
ATOM     33  C   UNL A   1      34.120  34.393  29.457  1.00  0.00     0.060 A 
ATOM     34  C   UNL A   1      34.034  33.769  30.700  1.00  0.00     0.016 A 
ATOM     35  C   UNL A   1      35.359  34.546  28.818  1.00  0.00     0.016 A 
ATOM     36  C   UNL A   1      35.196  33.275  31.297  1.00  0.00     0.010 A 
ATOM     37  C   UNL A   1      36.518  34.054  29.416  1.00  0.00     0.010 A 
ATOM     38  C   UNL A   1      36.441  33.396  30.651  1.00  0.00    -0.014 A 
BRANCH  38  39
ATOM     39  C   UNL A   1      37.636  32.726  31.219  1.00  0.00     0.031 A 
ATOM     40  C   UNL A   1      38.275  33.203  32.487  1.00  0.00     0.074 A 
ATOM     41  C   UNL A   1      38.153  31.673  30.556  1.00  0.00     0.049 A 
ATOM     42  N   UNL A   1      39.271  32.676  33.155  1.00  0.00    -0.248 NA
ATOM     43  C   UNL A   1      37.735  34.434  33.078  1.00  0.00     0.031 C 
ATOM     44  C   UNL A   1      37.648  31.150  29.286  1.00  0.00     0.029 A 
ATOM     45  N   UNL A   1      39.207  30.853  30.861  1.00  0.00    -0.354 N 
ATOM     46  C   UNL A   1      39.464  33.497  34.259  1.00  0.00     0.074 A 
ATOM     47  C   UNL A   1      38.518  34.588  34.137  1.00  0.00     0.031 C 
ATOM     48  C   UNL A   1      38.374  30.078  28.935  1.00  0.00     0.029 A 
ATOM     49  C   UNL A   1      39.412  29.859  29.937  1.00  0.00     0.049 A 
ATOM     50  H   UNL A   1      39.766  30.967  31.665  1.00  0.00     0.167 HD
ATOM     51  C   UNL A   1      40.334  33.340  35.286  1.00  0.00     0.037 A 
ATOM     52  C   UNL A   1      40.334  28.878  29.901  1.00  0.00     0.037 A 
ATOM     53  C   UNL A   1      41.297  32.270  35.382  1.00  0.00     0.049 A 
ATOM     54  C   UNL A   1      41.324  28.762  31.026  1.00  0.00     0.074 A 
ATOM     55  C   UNL A   1      42.199  32.007  36.399  1.00  0.00     0.029 A 
ATOM     56  N   UNL A   1      41.502  31.300  34.411  1.00  0.00    -0.354 N 
ATOM     57  N   UNL A   1      41.434  29.488  32.113  1.00  0.00    -0.248 NA
ATOM     58  C   UNL A   1      42.317  27.685  30.920  1.00  0.00     0.031 C 
ATOM     59  C   UNL A   1      42.988  30.916  36.016  1.00  0.00     0.029 A 
ATOM     60  C   UNL A   1      42.537  30.458  34.789  1.00  0.00     0.049 A 
ATOM     61  H   UNL A   1      40.986  31.220  33.576  1.00  0.00     0.167 HD
ATOM     62  C   UNL A   1      42.489  28.939  32.830  1.00  0.00     0.074 A 
ATOM     63  C   UNL A   1      42.968  27.806  32.066  1.00  0.00     0.031 C 
ATOM     64  C   UNL A   1      43.015  29.338  34.015  1.00  0.00     0.037 A 
BRANCH  51  65
ATOM     65  C   UNL A   1      40.289  34.364  36.385  1.00  0.00     0.057 A 
ATOM     66  C   UNL A   1      39.408  34.223  37.466  1.00  0.00     0.134 A 
ATOM     67  C   UNL A   1      41.105  35.504  36.366  1.00  0.00     0.134 A 
ATOM     68  F   UNL A   1      38.590  33.164  37.544  1.00  0.00    -0.206 F 
ATOM     69  C   UNL A   1      39.347  35.173  38.487  1.00  0.00     0.040 A 
ATOM     70  C   UNL A   1      41.074  36.445  37.396  1.00  0.00     0.040 A 
ATOM     71  F   UNL A   1      41.976  35.700  35.364  1.00  0.00    -0.206 F 
ATOM     72  C   UNL A   1      40.190  36.282  38.460  1.00  0.00     0.006 A 
ENDBRANCH  51  65
BRANCH  52  73
ATOM     73  C   UNL A   1      40.360  27.921  28.768  1.00  0.00     0.057 A 
ATOM     74  C   UNL A   1      41.146  28.159  27.633  1.00  0.00     0.134 A 
ATOM     75  C   UNL A   1      39.622  26.732  28.804  1.00  0.00     0.134 A 
ATOM     76  F   UNL A   1      41.870  29.284  27.533  1.00  0.00    -0.206 F 
ATOM     77  C   UNL A   1      41.199  27.249  26.577  1.00  0.00     0.040 A 
ATOM     78  C   UNL A   1      39.689  25.800  27.768  1.00  0.00     0.040 A 
ATOM     79  F   UNL A   1      38.864  26.442  29.871  1.00  0.00    -0.206 F 
ATOM     80  C   UNL A   1      40.477  26.059  26.649  1.00  0.00     0.006 A 
ENDBRANCH  52  73
BRANCH  64  81
ATOM     81  C   UNL A   1      44.153  28.523  34.564  1.00  0.00     0.057 A 
ATOM     82  C   UNL A   1      43.907  27.400  35.364  1.00  0.00     0.134 A 
ATOM     83  C   UNL A   1      45.492  28.847  34.304  1.00  0.00     0.134 A 
ATOM     84  F   UNL A   1      42.650  27.036  35.660  1.00  0.00    -0.206 F 
ATOM     85  C   UNL A   1      44.948  26.628  35.883  1.00  0.00     0.040 A 
ATOM     86  C   UNL A   1      46.541  28.063  34.790  1.00  0.00     0.040 A 
ATOM     87  F   UNL A   1      45.800  29.900  33.532  1.00  0.00    -0.206 F 
ATOM     88  C   UNL A   1      46.269  26.952  35.587  1.00  0.00     0.006 A 
ENDBRANCH  64  81
ENDBRANCH  38  39
ENDBRANCH  31  33
ENDBRANCH  30  31
ENDBRANCH  29  30
ENDBRANCH  28  29
ENDBRANCH  27  28
ENDBRANCH   1  27
TORSDOF 18
ENDMDL
