MODEL 1
REMARK VINA RESULT:     -11.6      0.000      0.000
REMARK SMILES Cc1ccc(Cn2c(C)c(C[NH2+]Cc3ccco3)c(C(=O)OCCOCCOC(=O)c3ccc(-c4c5nc(c(-c6c(F)cccc6F)c6ccc([nH]6)c(-c6c(F)cccc6F)c6nc(c(-c7c(F)cccc7F)c7ccc4[nH]7)C=C6)C=C5)cc3)c2C)cc1
REMARK SMILES IDX 24 1 23 2 22 3 20 4 21 5 19 6 7 7 8 8 85 9 9 10 10 11 86 12
REMARK SMILES IDX 6 13 5 14 1 15 2 16 3 17 88 18 4 19 87 20 11 21 12 22 13 25
REMARK SMILES IDX 14 26 15 27 18 28 16 29 17 30 25 31 26 32 27 33 28 34 29 35
REMARK SMILES IDX 30 36 31 37 32 38 84 39 33 40 83 41 34 42 35 43 36 44 77 45
REMARK SMILES IDX 37 46 82 47 76 48 78 49 38 50 81 51 75 52 74 53 39 55 65 56
REMARK SMILES IDX 48 57 64 58 49 59 52 60 63 61 79 62 50 63 51 64 62 66 80 67
REMARK SMILES IDX 53 68 40 69 41 70 46 71 42 72 43 73 45 74 47 75 44 76 66 77
REMARK SMILES IDX 67 78 72 79 68 80 69 81 71 82 73 83 70 84 54 85 55 86 60 87
REMARK SMILES IDX 56 88 57 89 59 90 61 91 58 92
REMARK H PARENT 12 23 12 24 78 54 52 65
REMARK Flexibility Score: inf
ROOT
ATOM      1  C   UNL A   1      31.499  28.194  27.090  1.00  0.00     0.202 C 
ENDROOT
BRANCH   1   2
ATOM      2  C   UNL A   1      31.899  26.788  26.850  1.00  0.00     0.261 C 
BRANCH   2   3
ATOM      3  O   UNL A   1      30.754  25.945  26.640  1.00  0.00    -0.460 OA
BRANCH   3   4
ATOM      4  C   UNL A   1      30.721  24.593  26.515  1.00  0.00     0.340 C 
ATOM      5  O   UNL A   1      30.069  23.804  27.191  1.00  0.00    -0.246 OA
BRANCH   4   6
ATOM      6  C   UNL A   1      31.651  24.211  25.471  1.00  0.00     0.089 A 
ATOM      7  N   UNL A   1      33.364  23.123  24.541  1.00  0.00    -0.343 N 
ATOM      8  C   UNL A   1      32.753  23.866  23.531  1.00  0.00     0.025 A 
ATOM      9  C   UNL A   1      32.875  23.602  25.732  1.00  0.00     0.030 A 
ATOM     10  C   UNL A   1      33.285  24.008  22.148  1.00  0.00     0.065 C 
ATOM     11  C   UNL A   1      31.624  24.497  24.074  1.00  0.00     0.042 A 
ATOM     12  C   UNL A   1      33.569  23.461  27.044  1.00  0.00     0.065 C 
BRANCH   7  13
ATOM     13  C   UNL A   1      34.506  22.197  24.454  1.00  0.00     0.157 C 
BRANCH  13  14
ATOM     14  C   UNL A   1      34.157  20.711  24.445  1.00  0.00    -0.028 A 
ATOM     15  C   UNL A   1      33.104  16.487  24.340  1.00  0.00     0.044 C 
ATOM     16  C   UNL A   1      33.466  17.942  24.324  1.00  0.00    -0.051 A 
ATOM     17  C   UNL A   1      34.768  18.337  24.612  1.00  0.00     0.004 A 
ATOM     18  C   UNL A   1      32.513  18.935  24.081  1.00  0.00     0.004 A 
ATOM     19  C   UNL A   1      35.108  19.696  24.642  1.00  0.00     0.006 A 
ATOM     20  C   UNL A   1      32.851  20.298  24.149  1.00  0.00     0.006 A 
ENDBRANCH  13  14
ENDBRANCH   7  13
BRANCH  11  21
ATOM     21  C   UNL A   1      30.603  25.393  23.394  1.00  0.00     0.300 C 
BRANCH  21  22
ATOM     22  N   UNL A   1      31.010  26.788  23.598  1.00  0.00    -0.336 N 
ATOM     23  H   UNL A   1      31.988  26.801  23.888  1.00  0.00     0.346 HD
ATOM     24  H   UNL A   1      30.393  27.182  24.308  1.00  0.00     0.346 HD
BRANCH  22  25
ATOM     25  C   UNL A   1      30.871  27.617  22.395  1.00  0.00     0.337 C 
BRANCH  25  26
ATOM     26  C   UNL A   1      29.731  28.583  22.449  1.00  0.00     0.157 A 
ATOM     27  C   UNL A   1      28.519  28.599  23.111  1.00  0.00     0.052 A 
ATOM     28  O   UNL A   1      29.819  29.675  21.627  1.00  0.00    -0.463 OA
ATOM     29  C   UNL A   1      27.831  29.757  22.669  1.00  0.00     0.042 A 
ATOM     30  C   UNL A   1      28.663  30.372  21.765  1.00  0.00     0.195 A 
ENDBRANCH  25  26
ENDBRANCH  22  25
ENDBRANCH  21  22
ENDBRANCH  11  21
ENDBRANCH   4   6
ENDBRANCH   3   4
ENDBRANCH   2   3
ENDBRANCH   1   2
BRANCH   1  31
ATOM     31  O   UNL A   1      31.897  28.836  25.901  1.00  0.00    -0.374 OA
BRANCH  31  32
ATOM     32  C   UNL A   1      33.073  29.596  25.980  1.00  0.00     0.202 C 
BRANCH  32  33
ATOM     33  C   UNL A   1      33.018  30.501  27.209  1.00  0.00     0.261 C 
BRANCH  33  34
ATOM     34  O   UNL A   1      34.212  31.326  27.262  1.00  0.00    -0.460 OA
BRANCH  34  35
ATOM     35  C   UNL A   1      34.881  31.370  28.454  1.00  0.00     0.338 C 
ATOM     36  O   UNL A   1      34.883  32.317  29.224  1.00  0.00    -0.246 OA
BRANCH  35  37
ATOM     37  C   UNL A   1      35.840  30.222  28.562  1.00  0.00     0.060 A 
ATOM     38  C   UNL A   1      36.155  29.655  29.816  1.00  0.00     0.016 A 
ATOM     39  C   UNL A   1      36.675  29.985  27.478  1.00  0.00     0.016 A 
ATOM     40  C   UNL A   1      37.386  28.999  30.013  1.00  0.00     0.010 A 
ATOM     41  C   UNL A   1      37.931  29.470  27.712  1.00  0.00     0.010 A 
ATOM     42  C   UNL A   1      38.313  28.991  28.973  1.00  0.00    -0.014 A 
BRANCH  42  43
ATOM     43  C   UNL A   1      39.726  28.610  29.067  1.00  0.00     0.031 A 
ATOM     44  C   UNL A   1      40.095  27.253  28.633  1.00  0.00     0.074 A 
ATOM     45  C   UNL A   1      40.694  29.528  29.306  1.00  0.00     0.049 A 
ATOM     46  N   UNL A   1      41.129  26.624  29.067  1.00  0.00    -0.248 NA
ATOM     47  C   UNL A   1      39.282  26.441  27.727  1.00  0.00     0.031 C 
ATOM     48  C   UNL A   1      42.109  29.511  28.938  1.00  0.00     0.029 A 
ATOM     49  N   UNL A   1      40.554  30.772  29.911  1.00  0.00    -0.354 N 
ATOM     50  C   UNL A   1      41.316  25.549  28.229  1.00  0.00     0.074 A 
ATOM     51  C   UNL A   1      40.055  25.369  27.559  1.00  0.00     0.031 C 
ATOM     52  C   UNL A   1      42.742  30.554  29.518  1.00  0.00     0.029 A 
ATOM     53  C   UNL A   1      41.783  31.244  30.369  1.00  0.00     0.049 A 
ATOM     54  H   UNL A   1      39.701  31.255  30.004  1.00  0.00     0.167 HD
ATOM     55  C   UNL A   1      42.580  25.085  28.020  1.00  0.00     0.037 A 
ATOM     56  C   UNL A   1      41.917  31.646  31.658  1.00  0.00     0.037 A 
ATOM     57  C   UNL A   1      43.555  25.947  28.721  1.00  0.00     0.049 A 
ATOM     58  C   UNL A   1      42.783  30.605  32.294  1.00  0.00     0.074 A 
ATOM     59  C   UNL A   1      44.452  26.902  28.265  1.00  0.00     0.029 A 
ATOM     60  N   UNL A   1      43.439  26.170  30.098  1.00  0.00    -0.354 N 
ATOM     61  N   UNL A   1      42.804  29.365  31.874  1.00  0.00    -0.248 NA
ATOM     62  C   UNL A   1      43.821  30.900  33.274  1.00  0.00     0.031 C 
ATOM     63  C   UNL A   1      44.867  27.695  29.372  1.00  0.00     0.029 A 
ATOM     64  C   UNL A   1      44.220  27.235  30.511  1.00  0.00     0.049 A 
ATOM     65  H   UNL A   1      42.873  25.634  30.699  1.00  0.00     0.167 HD
ATOM     66  C   UNL A   1      43.922  28.766  32.361  1.00  0.00     0.074 A 
ATOM     67  C   UNL A   1      44.489  29.734  33.288  1.00  0.00     0.031 C 
ATOM     68  C   UNL A   1      44.374  27.559  31.925  1.00  0.00     0.037 A 
BRANCH  55  69
ATOM     69  C   UNL A   1      42.939  24.099  26.917  1.00  0.00     0.057 A 
ATOM     70  C   UNL A   1      42.998  22.714  27.169  1.00  0.00     0.134 A 
ATOM     71  C   UNL A   1      43.234  24.437  25.580  1.00  0.00     0.134 A 
ATOM     72  F   UNL A   1      42.629  22.196  28.346  1.00  0.00    -0.206 F 
ATOM     73  C   UNL A   1      43.415  21.773  26.214  1.00  0.00     0.040 A 
ATOM     74  C   UNL A   1      43.708  23.517  24.629  1.00  0.00     0.040 A 
ATOM     75  F   UNL A   1      43.001  25.660  25.090  1.00  0.00    -0.206 F 
ATOM     76  C   UNL A   1      43.804  22.174  24.947  1.00  0.00     0.006 A 
ENDBRANCH  55  69
BRANCH  56  77
ATOM     77  C   UNL A   1      40.712  32.350  32.203  1.00  0.00     0.057 A 
ATOM     78  C   UNL A   1      39.842  31.623  33.042  1.00  0.00     0.134 A 
ATOM     79  C   UNL A   1      40.623  33.745  32.298  1.00  0.00     0.134 A 
ATOM     80  F   UNL A   1      39.877  30.284  33.047  1.00  0.00    -0.206 F 
ATOM     81  C   UNL A   1      39.000  32.236  33.986  1.00  0.00     0.040 A 
ATOM     82  C   UNL A   1      39.811  34.371  33.263  1.00  0.00     0.040 A 
ATOM     83  F   UNL A   1      41.414  34.528  31.553  1.00  0.00    -0.206 F 
ATOM     84  C   UNL A   1      39.016  33.619  34.128  1.00  0.00     0.006 A 
ENDBRANCH  56  77
BRANCH  68  85
ATOM     85  C   UNL A   1      45.096  26.607  32.830  1.00  0.00     0.057 A 
ATOM     86  C   UNL A   1      44.440  25.804  33.776  1.00  0.00     0.134 A 
ATOM     87  C   UNL A   1      46.459  26.311  32.627  1.00  0.00     0.134 A 
ATOM     88  F   UNL A   1      43.118  25.885  33.988  1.00  0.00    -0.206 F 
ATOM     89  C   UNL A   1      45.104  24.825  34.514  1.00  0.00     0.040 A 
ATOM     90  C   UNL A   1      47.114  25.288  33.306  1.00  0.00     0.040 A 
ATOM     91  F   UNL A   1      47.209  26.968  31.731  1.00  0.00    -0.206 F 
ATOM     92  C   UNL A   1      46.442  24.553  34.269  1.00  0.00     0.006 A 
ENDBRANCH  68  85
ENDBRANCH  42  43
ENDBRANCH  35  37
ENDBRANCH  34  35
ENDBRANCH  33  34
ENDBRANCH  32  33
ENDBRANCH  31  32
ENDBRANCH   1  31
TORSDOF 20
ENDMDL
MODEL 2
REMARK VINA RESULT:     -11.6      1.745      2.712
REMARK SMILES Cc1ccc(Cn2c(C)c(C[NH2+]Cc3ccco3)c(C(=O)OCCOCCOC(=O)c3ccc(-c4c5nc(c(-c6c(F)cccc6F)c6ccc([nH]6)c(-c6c(F)cccc6F)c6nc(c(-c7c(F)cccc7F)c7ccc4[nH]7)C=C6)C=C5)cc3)c2C)cc1
REMARK SMILES IDX 24 1 23 2 22 3 20 4 21 5 19 6 7 7 8 8 85 9 9 10 10 11 86 12
REMARK SMILES IDX 6 13 5 14 1 15 2 16 3 17 88 18 4 19 87 20 11 21 12 22 13 25
REMARK SMILES IDX 14 26 15 27 18 28 16 29 17 30 25 31 26 32 27 33 28 34 29 35
REMARK SMILES IDX 30 36 31 37 32 38 84 39 33 40 83 41 34 42 35 43 36 44 77 45
REMARK SMILES IDX 37 46 82 47 76 48 78 49 38 50 81 51 75 52 74 53 39 55 65 56
REMARK SMILES IDX 48 57 64 58 49 59 52 60 63 61 79 62 50 63 51 64 62 66 80 67
REMARK SMILES IDX 53 68 40 69 41 70 46 71 42 72 43 73 45 74 47 75 44 76 66 77
REMARK SMILES IDX 67 78 72 79 68 80 69 81 71 82 73 83 70 84 54 85 55 86 60 87
REMARK SMILES IDX 56 88 57 89 59 90 61 91 58 92
REMARK H PARENT 12 23 12 24 78 54 52 65
REMARK Flexibility Score: inf
ROOT
ATOM      1  C   UNL A   1      31.755  30.775  26.212  1.00  0.00     0.202 C 
ENDROOT
BRANCH   1   2
ATOM      2  C   UNL A   1      32.234  29.373  26.188  1.00  0.00     0.261 C 
BRANCH   2   3
ATOM      3  O   UNL A   1      31.219  28.482  25.697  1.00  0.00    -0.460 OA
BRANCH   3   4
ATOM      4  C   UNL A   1      31.164  27.129  25.816  1.00  0.00     0.340 C 
ATOM      5  O   UNL A   1      30.792  26.488  26.793  1.00  0.00    -0.246 OA
BRANCH   4   6
ATOM      6  C   UNL A   1      31.687  26.545  24.596  1.00  0.00     0.089 A 
ATOM      7  N   UNL A   1      32.959  25.212  23.337  1.00  0.00    -0.343 N 
ATOM      8  C   UNL A   1      32.082  25.873  22.478  1.00  0.00     0.025 A 
ATOM      9  C   UNL A   1      32.904  25.873  24.540  1.00  0.00     0.030 A 
ATOM     10  C   UNL A   1      32.138  25.798  20.992  1.00  0.00     0.065 C 
ATOM     11  C   UNL A   1      31.216  26.658  23.255  1.00  0.00     0.042 A 
ATOM     12  C   UNL A   1      33.982  25.838  25.569  1.00  0.00     0.065 C 
BRANCH   7  13
ATOM     13  C   UNL A   1      33.973  24.190  23.025  1.00  0.00     0.157 C 
BRANCH  13  14
ATOM     14  C   UNL A   1      33.658  22.774  23.503  1.00  0.00    -0.028 A 
ATOM     15  C   UNL A   1      32.737  18.713  24.774  1.00  0.00     0.044 C 
ATOM     16  C   UNL A   1      33.072  20.092  24.291  1.00  0.00    -0.051 A 
ATOM     17  C   UNL A   1      34.182  20.756  24.801  1.00  0.00     0.004 A 
ATOM     18  C   UNL A   1      32.264  20.767  23.372  1.00  0.00     0.004 A 
ATOM     19  C   UNL A   1      34.482  22.061  24.391  1.00  0.00     0.006 A 
ATOM     20  C   UNL A   1      32.548  22.091  22.991  1.00  0.00     0.006 A 
ENDBRANCH  13  14
ENDBRANCH   7  13
BRANCH  11  21
ATOM     21  C   UNL A   1      30.066  27.545  22.813  1.00  0.00     0.300 C 
BRANCH  21  22
ATOM     22  N   UNL A   1      30.543  28.933  22.781  1.00  0.00    -0.336 N 
ATOM     23  H   UNL A   1      30.707  29.196  21.809  1.00  0.00     0.346 HD
ATOM     24  H   UNL A   1      31.395  28.972  23.340  1.00  0.00     0.346 HD
BRANCH  22  25
ATOM     25  C   UNL A   1      29.595  29.888  23.367  1.00  0.00     0.337 C 
BRANCH  25  26
ATOM     26  C   UNL A   1      29.003  30.843  22.380  1.00  0.00     0.157 A 
ATOM     27  C   UNL A   1      28.707  32.191  22.411  1.00  0.00     0.052 A 
ATOM     28  O   UNL A   1      28.573  30.306  21.197  1.00  0.00    -0.463 OA
ATOM     29  C   UNL A   1      28.063  32.493  21.185  1.00  0.00     0.042 A 
ATOM     30  C   UNL A   1      28.003  31.311  20.486  1.00  0.00     0.195 A 
ENDBRANCH  25  26
ENDBRANCH  22  25
ENDBRANCH  21  22
ENDBRANCH  11  21
ENDBRANCH   4   6
ENDBRANCH   3   4
ENDBRANCH   2   3
ENDBRANCH   1   2
BRANCH   1  31
ATOM     31  O   UNL A   1      32.534  31.350  27.235  1.00  0.00    -0.374 OA
BRANCH  31  32
ATOM     32  C   UNL A   1      33.816  30.808  27.406  1.00  0.00     0.202 C 
BRANCH  32  33
ATOM     33  C   UNL A   1      34.631  31.704  28.338  1.00  0.00     0.261 C 
BRANCH  33  34
ATOM     34  O   UNL A   1      35.572  30.896  29.093  1.00  0.00    -0.460 OA
BRANCH  34  35
ATOM     35  C   UNL A   1      36.900  31.183  28.934  1.00  0.00     0.338 C 
ATOM     36  O   UNL A   1      37.354  32.284  28.667  1.00  0.00    -0.246 OA
BRANCH  35  37
ATOM     37  C   UNL A   1      37.705  29.920  28.849  1.00  0.00     0.060 A 
ATOM     38  C   UNL A   1      37.657  28.960  29.881  1.00  0.00     0.016 A 
ATOM     39  C   UNL A   1      38.754  29.893  27.940  1.00  0.00     0.016 A 
ATOM     40  C   UNL A   1      38.744  28.089  30.096  1.00  0.00     0.010 A 
ATOM     41  C   UNL A   1      39.867  29.140  28.240  1.00  0.00     0.010 A 
ATOM     42  C   UNL A   1      39.891  28.250  29.321  1.00  0.00    -0.014 A 
BRANCH  42  43
ATOM     43  C   UNL A   1      41.202  27.640  29.568  1.00  0.00     0.031 A 
ATOM     44  C   UNL A   1      41.541  26.424  28.811  1.00  0.00     0.074 A 
ATOM     45  C   UNL A   1      42.165  28.286  30.270  1.00  0.00     0.049 A 
ATOM     46  N   UNL A   1      42.383  25.542  29.220  1.00  0.00    -0.248 NA
ATOM     47  C   UNL A   1      40.895  26.045  27.554  1.00  0.00     0.031 C 
ATOM     48  C   UNL A   1      43.619  28.153  30.203  1.00  0.00     0.029 A 
ATOM     49  N   UNL A   1      41.997  29.311  31.195  1.00  0.00    -0.354 N 
ATOM     50  C   UNL A   1      42.665  24.737  28.141  1.00  0.00     0.074 A 
ATOM     51  C   UNL A   1      41.587  24.958  27.214  1.00  0.00     0.031 C 
ATOM     52  C   UNL A   1      44.188  28.873  31.193  1.00  0.00     0.029 A 
ATOM     53  C   UNL A   1      43.120  29.432  32.011  1.00  0.00     0.049 A 
ATOM     54  H   UNL A   1      41.193  29.875  31.265  1.00  0.00     0.167 HD
ATOM     55  C   UNL A   1      43.896  24.160  28.051  1.00  0.00     0.037 A 
ATOM     56  C   UNL A   1      42.982  29.421  33.362  1.00  0.00     0.037 A 
ATOM     57  C   UNL A   1      44.751  24.620  29.165  1.00  0.00     0.049 A 
ATOM     58  C   UNL A   1      43.577  28.119  33.796  1.00  0.00     0.074 A 
ATOM     59  C   UNL A   1      45.812  25.513  29.219  1.00  0.00     0.029 A 
ATOM     60  N   UNL A   1      44.333  24.454  30.491  1.00  0.00    -0.354 N 
ATOM     61  N   UNL A   1      43.585  27.065  33.019  1.00  0.00    -0.248 NA
ATOM     62  C   UNL A   1      44.376  27.954  35.003  1.00  0.00     0.031 C 
ATOM     63  C   UNL A   1      46.023  25.879  30.578  1.00  0.00     0.029 A 
ATOM     64  C   UNL A   1      45.087  25.220  31.363  1.00  0.00     0.049 A 
ATOM     65  H   UNL A   1      43.596  23.864  30.768  1.00  0.00     0.167 HD
ATOM     66  C   UNL A   1      44.498  26.183  33.504  1.00  0.00     0.074 A 
ATOM     67  C   UNL A   1      44.915  26.743  34.781  1.00  0.00     0.031 C 
ATOM     68  C   UNL A   1      44.931  25.096  32.809  1.00  0.00     0.037 A 
BRANCH  55  69
ATOM     69  C   UNL A   1      44.416  23.488  26.787  1.00  0.00     0.057 A 
ATOM     70  C   UNL A   1      43.984  22.199  26.418  1.00  0.00     0.134 A 
ATOM     71  C   UNL A   1      45.340  24.049  25.881  1.00  0.00     0.134 A 
ATOM     72  F   UNL A   1      43.017  21.561  27.088  1.00  0.00    -0.206 F 
ATOM     73  C   UNL A   1      44.501  21.497  25.317  1.00  0.00     0.040 A 
ATOM     74  C   UNL A   1      45.909  23.341  24.810  1.00  0.00     0.040 A 
ATOM     75  F   UNL A   1      45.681  25.342  25.927  1.00  0.00    -0.206 F 
ATOM     76  C   UNL A   1      45.493  22.053  24.526  1.00  0.00     0.006 A 
ENDBRANCH  55  69
BRANCH  56  77
ATOM     77  C   UNL A   1      41.751  30.120  33.851  1.00  0.00     0.057 A 
ATOM     78  C   UNL A   1      41.784  31.527  33.953  1.00  0.00     0.134 A 
ATOM     79  C   UNL A   1      40.474  29.546  33.794  1.00  0.00     0.134 A 
ATOM     80  F   UNL A   1      42.958  32.171  33.981  1.00  0.00    -0.206 F 
ATOM     81  C   UNL A   1      40.627  32.325  33.909  1.00  0.00     0.040 A 
ATOM     82  C   UNL A   1      39.310  30.333  33.713  1.00  0.00     0.040 A 
ATOM     83  F   UNL A   1      40.332  28.219  33.683  1.00  0.00    -0.206 F 
ATOM     84  C   UNL A   1      39.383  31.726  33.745  1.00  0.00     0.006 A 
ENDBRANCH  56  77
BRANCH  68  85
ATOM     85  C   UNL A   1      45.330  23.824  33.493  1.00  0.00     0.057 A 
ATOM     86  C   UNL A   1      46.603  23.621  34.051  1.00  0.00     0.134 A 
ATOM     87  C   UNL A   1      44.371  22.838  33.802  1.00  0.00     0.134 A 
ATOM     88  F   UNL A   1      47.581  24.532  33.947  1.00  0.00    -0.206 F 
ATOM     89  C   UNL A   1      46.918  22.490  34.802  1.00  0.00     0.040 A 
ATOM     90  C   UNL A   1      44.655  21.742  34.611  1.00  0.00     0.040 A 
ATOM     91  F   UNL A   1      43.103  22.913  33.371  1.00  0.00    -0.206 F 
ATOM     92  C   UNL A   1      45.938  21.554  35.099  1.00  0.00     0.006 A 
ENDBRANCH  68  85
ENDBRANCH  42  43
ENDBRANCH  35  37
ENDBRANCH  34  35
ENDBRANCH  33  34
ENDBRANCH  32  33
ENDBRANCH  31  32
ENDBRANCH   1  31
TORSDOF 20
ENDMDL
MODEL 3
REMARK VINA RESULT:     -11.1      1.521      2.217
REMARK SMILES Cc1ccc(Cn2c(C)c(C[NH2+]Cc3ccco3)c(C(=O)OCCOCCOC(=O)c3ccc(-c4c5nc(c(-c6c(F)cccc6F)c6ccc([nH]6)c(-c6c(F)cccc6F)c6nc(c(-c7c(F)cccc7F)c7ccc4[nH]7)C=C6)C=C5)cc3)c2C)cc1
REMARK SMILES IDX 24 1 23 2 22 3 20 4 21 5 19 6 7 7 8 8 85 9 9 10 10 11 86 12
REMARK SMILES IDX 6 13 5 14 1 15 2 16 3 17 88 18 4 19 87 20 11 21 12 22 13 25
REMARK SMILES IDX 14 26 15 27 18 28 16 29 17 30 25 31 26 32 27 33 28 34 29 35
REMARK SMILES IDX 30 36 31 37 32 38 84 39 33 40 83 41 34 42 35 43 36 44 77 45
REMARK SMILES IDX 37 46 82 47 76 48 78 49 38 50 81 51 75 52 74 53 39 55 65 56
REMARK SMILES IDX 48 57 64 58 49 59 52 60 63 61 79 62 50 63 51 64 62 66 80 67
REMARK SMILES IDX 53 68 40 69 41 70 46 71 42 72 43 73 45 74 47 75 44 76 66 77
REMARK SMILES IDX 67 78 72 79 68 80 69 81 71 82 73 83 70 84 54 85 55 86 60 87
REMARK SMILES IDX 56 88 57 89 59 90 61 91 58 92
REMARK H PARENT 12 23 12 24 78 54 52 65
REMARK Flexibility Score: inf
ROOT
ATOM      1  C   UNL A   1      31.903  28.636  27.261  1.00  0.00     0.202 C 
ENDROOT
BRANCH   1   2
ATOM      2  C   UNL A   1      31.951  27.211  26.860  1.00  0.00     0.261 C 
BRANCH   2   3
ATOM      3  O   UNL A   1      30.864  26.876  25.982  1.00  0.00    -0.460 OA
BRANCH   3   4
ATOM      4  C   UNL A   1      30.361  25.644  25.703  1.00  0.00     0.340 C 
ATOM      5  O   UNL A   1      29.245  25.221  25.985  1.00  0.00    -0.246 OA
BRANCH   4   6
ATOM      6  C   UNL A   1      31.400  24.865  25.060  1.00  0.00     0.089 A 
ATOM      7  N   UNL A   1      32.785  23.142  24.753  1.00  0.00    -0.343 N 
ATOM      8  C   UNL A   1      32.942  23.994  23.660  1.00  0.00     0.025 A 
ATOM      9  C   UNL A   1      32.098  23.851  25.708  1.00  0.00     0.030 A 
ATOM     10  C   UNL A   1      33.975  23.827  22.601  1.00  0.00     0.065 C 
ATOM     11  C   UNL A   1      32.023  25.045  23.789  1.00  0.00     0.042 A 
ATOM     12  C   UNL A   1      32.125  23.542  27.166  1.00  0.00     0.065 C 
BRANCH   7  13
ATOM     13  C   UNL A   1      33.429  21.844  25.021  1.00  0.00     0.157 C 
BRANCH  13  14
ATOM     14  C   UNL A   1      34.932  21.890  25.283  1.00  0.00    -0.028 A 
ATOM     15  C   UNL A   1      39.236  21.982  25.939  1.00  0.00     0.044 C 
ATOM     16  C   UNL A   1      37.762  21.960  25.662  1.00  0.00    -0.051 A 
ATOM     17  C   UNL A   1      36.968  23.035  26.045  1.00  0.00     0.004 A 
ATOM     18  C   UNL A   1      37.141  20.856  25.074  1.00  0.00     0.004 A 
ATOM     19  C   UNL A   1      35.584  23.008  25.831  1.00  0.00     0.006 A 
ATOM     20  C   UNL A   1      35.746  20.818  24.895  1.00  0.00     0.006 A 
ENDBRANCH  13  14
ENDBRANCH   7  13
BRANCH  11  21
ATOM     21  C   UNL A   1      31.766  26.217  22.859  1.00  0.00     0.300 C 
BRANCH  21  22
ATOM     22  N   UNL A   1      32.445  27.397  23.408  1.00  0.00    -0.336 N 
ATOM     23  H   UNL A   1      33.442  27.192  23.477  1.00  0.00     0.346 HD
ATOM     24  H   UNL A   1      32.027  27.590  24.318  1.00  0.00     0.346 HD
BRANCH  22  25
ATOM     25  C   UNL A   1      32.274  28.602  22.588  1.00  0.00     0.337 C 
BRANCH  25  26
ATOM     26  C   UNL A   1      30.937  29.255  22.735  1.00  0.00     0.157 A 
ATOM     27  C   UNL A   1      30.151  29.596  23.819  1.00  0.00     0.052 A 
ATOM     28  O   UNL A   1      30.263  29.531  21.576  1.00  0.00    -0.463 OA
ATOM     29  C   UNL A   1      28.936  30.103  23.294  1.00  0.00     0.042 A 
ATOM     30  C   UNL A   1      29.054  30.038  21.927  1.00  0.00     0.195 A 
ENDBRANCH  25  26
ENDBRANCH  22  25
ENDBRANCH  21  22
ENDBRANCH  11  21
ENDBRANCH   4   6
ENDBRANCH   3   4
ENDBRANCH   2   3
ENDBRANCH   1   2
BRANCH   1  31
ATOM     31  O   UNL A   1      33.264  28.955  27.434  1.00  0.00    -0.374 OA
BRANCH  31  32
ATOM     32  C   UNL A   1      33.735  30.051  26.698  1.00  0.00     0.202 C 
BRANCH  32  33
ATOM     33  C   UNL A   1      33.897  31.257  27.621  1.00  0.00     0.261 C 
BRANCH  33  34
ATOM     34  O   UNL A   1      35.298  31.631  27.696  1.00  0.00    -0.460 OA
BRANCH  34  35
ATOM     35  C   UNL A   1      35.928  31.433  28.894  1.00  0.00     0.338 C 
ATOM     36  O   UNL A   1      36.013  32.260  29.788  1.00  0.00    -0.246 OA
BRANCH  35  37
ATOM     37  C   UNL A   1      36.745  30.177  28.857  1.00  0.00     0.060 A 
ATOM     38  C   UNL A   1      36.798  29.313  29.972  1.00  0.00     0.016 A 
ATOM     39  C   UNL A   1      37.718  30.077  27.871  1.00  0.00     0.016 A 
ATOM     40  C   UNL A   1      37.914  28.477  30.174  1.00  0.00     0.010 A 
ATOM     41  C   UNL A   1      38.865  29.367  28.145  1.00  0.00     0.010 A 
ATOM     42  C   UNL A   1      38.992  28.579  29.297  1.00  0.00    -0.014 A 
BRANCH  42  43
ATOM     43  C   UNL A   1      40.329  28.008  29.488  1.00  0.00     0.031 A 
ATOM     44  C   UNL A   1      40.623  26.725  28.830  1.00  0.00     0.074 A 
ATOM     45  C   UNL A   1      41.337  28.729  30.037  1.00  0.00     0.049 A 
ATOM     46  N   UNL A   1      41.512  25.896  29.250  1.00  0.00    -0.248 NA
ATOM     47  C   UNL A   1      39.880  26.216  27.677  1.00  0.00     0.031 C 
ATOM     48  C   UNL A   1      42.783  28.602  29.859  1.00  0.00     0.029 A 
ATOM     49  N   UNL A   1      41.231  29.840  30.868  1.00  0.00    -0.354 N 
ATOM     50  C   UNL A   1      41.715  24.989  28.236  1.00  0.00     0.074 A 
ATOM     51  C   UNL A   1      40.559  25.106  27.388  1.00  0.00     0.031 C 
ATOM     52  C   UNL A   1      43.421  29.423  30.721  1.00  0.00     0.029 A 
ATOM     53  C   UNL A   1      42.417  30.052  31.568  1.00  0.00     0.049 A 
ATOM     54  H   UNL A   1      40.427  30.401  30.950  1.00  0.00     0.167 HD
ATOM     55  C   UNL A   1      42.944  24.416  28.098  1.00  0.00     0.037 A 
ATOM     56  C   UNL A   1      42.394  30.175  32.920  1.00  0.00     0.037 A 
ATOM     57  C   UNL A   1      43.882  24.993  29.084  1.00  0.00     0.049 A 
ATOM     58  C   UNL A   1      43.045  28.928  33.428  1.00  0.00     0.074 A 
ATOM     59  C   UNL A   1      44.929  25.895  28.957  1.00  0.00     0.029 A 
ATOM     60  N   UNL A   1      43.581  24.957  30.450  1.00  0.00    -0.354 N 
ATOM     61  N   UNL A   1      43.006  27.802  32.762  1.00  0.00    -0.248 NA
ATOM     62  C   UNL A   1      43.946  28.891  34.573  1.00  0.00     0.031 C 
ATOM     63  C   UNL A   1      45.247  26.398  30.250  1.00  0.00     0.029 A 
ATOM     64  C   UNL A   1      44.392  25.812  31.174  1.00  0.00     0.049 A 
ATOM     65  H   UNL A   1      42.880  24.392  30.847  1.00  0.00     0.167 HD
ATOM     66  C   UNL A   1      43.971  26.980  33.252  1.00  0.00     0.074 A 
ATOM     67  C   UNL A   1      44.485  27.669  34.426  1.00  0.00     0.031 C 
ATOM     68  C   UNL A   1      44.362  25.833  32.633  1.00  0.00     0.037 A 
BRANCH  55  69
ATOM     69  C   UNL A   1      43.365  23.625  26.867  1.00  0.00     0.057 A 
ATOM     70  C   UNL A   1      43.145  22.236  26.783  1.00  0.00     0.134 A 
ATOM     71  C   UNL A   1      43.990  24.162  25.722  1.00  0.00     0.134 A 
ATOM     72  F   UNL A   1      42.455  21.575  27.720  1.00  0.00    -0.206 F 
ATOM     73  C   UNL A   1      43.599  21.446  25.716  1.00  0.00     0.040 A 
ATOM     74  C   UNL A   1      44.500  23.379  24.673  1.00  0.00     0.040 A 
ATOM     75  F   UNL A   1      44.067  25.481  25.510  1.00  0.00    -0.206 F 
ATOM     76  C   UNL A   1      44.309  22.009  24.669  1.00  0.00     0.006 A 
ENDBRANCH  55  69
BRANCH  56  77
ATOM     77  C   UNL A   1      41.197  30.910  33.441  1.00  0.00     0.057 A 
ATOM     78  C   UNL A   1      40.120  30.149  33.944  1.00  0.00     0.134 A 
ATOM     79  C   UNL A   1      41.245  32.245  33.861  1.00  0.00     0.134 A 
ATOM     80  F   UNL A   1      40.007  28.853  33.625  1.00  0.00    -0.206 F 
ATOM     81  C   UNL A   1      39.198  30.653  34.878  1.00  0.00     0.040 A 
ATOM     82  C   UNL A   1      40.351  32.752  34.823  1.00  0.00     0.040 A 
ATOM     83  F   UNL A   1      42.235  33.050  33.452  1.00  0.00    -0.206 F 
ATOM     84  C   UNL A   1      39.339  31.951  35.354  1.00  0.00     0.006 A 
ENDBRANCH  56  77
BRANCH  68  85
ATOM     85  C   UNL A   1      44.839  24.639  33.403  1.00  0.00     0.057 A 
ATOM     86  C   UNL A   1      46.198  24.319  33.555  1.00  0.00     0.134 A 
ATOM     87  C   UNL A   1      43.949  23.890  34.200  1.00  0.00     0.134 A 
ATOM     88  F   UNL A   1      47.169  25.025  32.957  1.00  0.00    -0.206 F 
ATOM     89  C   UNL A   1      46.635  23.288  34.384  1.00  0.00     0.040 A 
ATOM     90  C   UNL A   1      44.381  22.907  35.086  1.00  0.00     0.040 A 
ATOM     91  F   UNL A   1      42.626  24.105  34.191  1.00  0.00    -0.206 F 
ATOM     92  C   UNL A   1      45.727  22.589  35.167  1.00  0.00     0.006 A 
ENDBRANCH  68  85
ENDBRANCH  42  43
ENDBRANCH  35  37
ENDBRANCH  34  35
ENDBRANCH  33  34
ENDBRANCH  32  33
ENDBRANCH  31  32
ENDBRANCH   1  31
TORSDOF 20
ENDMDL
