MODEL 1
REMARK VINA RESULT:     -11.5      0.000      0.000
REMARK SMILES COc1cccc(-c2c(C(=O)OCCOCCOC(=O)c3ccc(-c4c5nc(c(-c6c(F)cccc6F)c6ccc([nH]6)c(-c6c(F)cccc6F)c6nc(c(-c7c(F)cccc7F)c7ccc4[nH]7)C=C6)C=C5)cc3)nnn2-c2ccc(OC(F)(F)F)cc2)c1
REMARK SMILES IDX 14 1 13 2 12 3 10 4 11 5 9 6 8 7 77 8 75 9 76 10 7 11 3 12
REMARK SMILES IDX 4 13 89 14 5 15 6 16 2 17 1 18 78 19 79 20 88 21 80 22 87 23
REMARK SMILES IDX 81 24 82 25 83 26 84 27 85 28 86 29 15 30 16 31 17 32 18 33
REMARK SMILES IDX 19 34 20 35 21 36 22 37 74 38 23 39 73 40 24 41 25 42 26 43
REMARK SMILES IDX 67 44 27 45 72 46 66 47 68 48 28 49 71 50 65 51 64 52 29 54
REMARK SMILES IDX 55 55 38 56 54 57 39 58 42 59 53 60 69 61 40 62 41 63 52 65
REMARK SMILES IDX 70 66 43 67 30 68 31 69 36 70 32 71 33 72 35 73 37 74 34 75
REMARK SMILES IDX 56 76 57 77 62 78 58 79 59 80 61 81 63 82 60 83 44 84 45 85
REMARK SMILES IDX 50 86 46 87 47 88 49 89 51 90 48 91
REMARK H PARENT 68 53 42 64
REMARK Flexibility Score: inf
ROOT
ATOM      1  C   UNL A   1      34.975  21.504  26.327  1.00  0.00     0.202 C 
ENDROOT
BRANCH   1   2
ATOM      2  C   UNL A   1      33.729  22.186  25.757  1.00  0.00     0.261 C 
BRANCH   2   3
ATOM      3  O   UNL A   1      33.824  23.620  25.790  1.00  0.00    -0.458 OA
BRANCH   3   4
ATOM      4  C   UNL A   1      33.910  24.221  24.561  1.00  0.00     0.361 C 
ATOM      5  O   UNL A   1      34.896  24.202  23.852  1.00  0.00    -0.244 OA
BRANCH   4   6
ATOM      6  C   UNL A   1      32.648  24.805  24.135  1.00  0.00     0.198 A 
ATOM      7  C   UNL A   1      32.007  25.965  24.545  1.00  0.00     0.109 A 
ATOM      8  N   UNL A   1      30.969  26.066  23.621  1.00  0.00    -0.212 N 
ATOM      9  N   UNL A   1      31.852  24.153  23.216  1.00  0.00    -0.122 NA
ATOM     10  N   UNL A   1      30.760  24.877  23.022  1.00  0.00    -0.061 NA
BRANCH   7  11
ATOM     11  C   UNL A   1      32.261  26.957  25.593  1.00  0.00     0.007 A 
ATOM     12  C   UNL A   1      33.848  28.406  26.753  1.00  0.00     0.119 A 
ATOM     13  C   UNL A   1      32.878  28.665  27.721  1.00  0.00     0.046 A 
ATOM     14  C   UNL A   1      33.532  27.565  25.685  1.00  0.00     0.056 A 
ATOM     15  C   UNL A   1      31.603  28.110  27.615  1.00  0.00     0.005 A 
ATOM     16  C   UNL A   1      31.293  27.257  26.554  1.00  0.00     0.011 A 
BRANCH  12  17
ATOM     17  O   UNL A   1      35.071  28.964  26.997  1.00  0.00    -0.497 OA
ATOM     18  C   UNL A   1      35.084  30.318  27.428  1.00  0.00     0.278 C 
ENDBRANCH  12  17
ENDBRANCH   7  11
BRANCH   8  19
ATOM     19  C   UNL A   1      30.275  27.224  23.206  1.00  0.00     0.067 A 
ATOM     20  C   UNL A   1      28.902  27.343  23.419  1.00  0.00     0.032 A 
ATOM     21  C   UNL A   1      30.983  28.247  22.562  1.00  0.00     0.032 A 
ATOM     22  C   UNL A   1      28.263  28.534  23.060  1.00  0.00     0.049 A 
ATOM     23  C   UNL A   1      30.325  29.410  22.164  1.00  0.00     0.049 A 
ATOM     24  C   UNL A   1      28.968  29.574  22.440  1.00  0.00     0.129 A 
BRANCH  24  25
ATOM     25  O   UNL A   1      28.225  30.686  22.158  1.00  0.00    -0.406 OA
BRANCH  25  26
ATOM     26  C   UNL A   1      28.211  31.725  23.124  1.00  0.00     0.573 C 
ATOM     27  F   UNL A   1      26.978  31.891  23.652  1.00  0.00    -0.132 F 
ATOM     28  F   UNL A   1      29.094  31.475  24.115  1.00  0.00    -0.132 F 
ATOM     29  F   UNL A   1      28.566  32.882  22.525  1.00  0.00    -0.132 F 
ENDBRANCH  25  26
ENDBRANCH  24  25
ENDBRANCH   8  19
ENDBRANCH   4   6
ENDBRANCH   3   4
ENDBRANCH   2   3
ENDBRANCH   1   2
BRANCH   1  30
ATOM     30  O   UNL A   1      35.757  20.697  25.449  1.00  0.00    -0.374 OA
BRANCH  30  31
ATOM     31  C   UNL A   1      36.855  21.264  24.745  1.00  0.00     0.202 C 
BRANCH  31  32
ATOM     32  C   UNL A   1      38.232  21.209  25.386  1.00  0.00     0.261 C 
BRANCH  32  33
ATOM     33  O   UNL A   1      38.720  22.486  25.776  1.00  0.00    -0.460 OA
BRANCH  33  34
ATOM     34  C   UNL A   1      39.964  22.446  26.307  1.00  0.00     0.338 C 
ATOM     35  O   UNL A   1      40.824  21.602  26.114  1.00  0.00    -0.246 OA
BRANCH  34  36
ATOM     36  C   UNL A   1      40.069  23.483  27.336  1.00  0.00     0.060 A 
ATOM     37  C   UNL A   1      39.078  24.467  27.332  1.00  0.00     0.016 A 
ATOM     38  C   UNL A   1      41.262  23.630  28.057  1.00  0.00     0.016 A 
ATOM     39  C   UNL A   1      39.368  25.687  27.898  1.00  0.00     0.010 A 
ATOM     40  C   UNL A   1      41.559  24.856  28.600  1.00  0.00     0.010 A 
ATOM     41  C   UNL A   1      40.639  25.889  28.450  1.00  0.00    -0.014 A 
BRANCH  41  42
ATOM     42  C   UNL A   1      40.929  27.176  29.035  1.00  0.00     0.031 A 
ATOM     43  C   UNL A   1      42.101  27.817  28.399  1.00  0.00     0.074 A 
ATOM     44  C   UNL A   1      40.146  27.757  29.963  1.00  0.00     0.049 A 
ATOM     45  N   UNL A   1      43.246  28.048  28.945  1.00  0.00    -0.248 NA
ATOM     46  C   UNL A   1      42.071  28.040  26.942  1.00  0.00     0.031 C 
ATOM     47  C   UNL A   1      38.845  27.310  30.463  1.00  0.00     0.029 A 
ATOM     48  N   UNL A   1      40.317  28.953  30.589  1.00  0.00    -0.354 N 
ATOM     49  C   UNL A   1      44.001  28.672  27.961  1.00  0.00     0.074 A 
ATOM     50  C   UNL A   1      43.318  28.451  26.715  1.00  0.00     0.031 C 
ATOM     51  C   UNL A   1      38.248  28.329  31.123  1.00  0.00     0.029 A 
ATOM     52  C   UNL A   1      39.166  29.452  31.193  1.00  0.00     0.049 A 
ATOM     53  H   UNL A   1      41.180  29.425  30.612  1.00  0.00     0.167 HD
ATOM     54  C   UNL A   1      44.953  29.578  28.306  1.00  0.00     0.037 A 
ATOM     55  C   UNL A   1      38.988  30.730  31.619  1.00  0.00     0.037 A 
ATOM     56  C   UNL A   1      45.376  29.397  29.673  1.00  0.00     0.049 A 
ATOM     57  C   UNL A   1      40.342  31.327  31.799  1.00  0.00     0.074 A 
ATOM     58  C   UNL A   1      45.862  28.319  30.393  1.00  0.00     0.029 A 
ATOM     59  N   UNL A   1      44.937  30.299  30.613  1.00  0.00    -0.354 N 
ATOM     60  N   UNL A   1      41.172  30.956  32.734  1.00  0.00    -0.248 NA
ATOM     61  C   UNL A   1      40.952  31.961  30.637  1.00  0.00     0.031 C 
ATOM     62  C   UNL A   1      45.220  28.405  31.662  1.00  0.00     0.029 A 
ATOM     63  C   UNL A   1      44.461  29.575  31.676  1.00  0.00     0.049 A 
ATOM     64  H   UNL A   1      44.960  31.280  30.537  1.00  0.00     0.167 HD
ATOM     65  C   UNL A   1      42.404  30.886  32.101  1.00  0.00     0.074 A 
ATOM     66  C   UNL A   1      42.219  31.576  30.824  1.00  0.00     0.031 C 
ATOM     67  C   UNL A   1      43.372  30.018  32.515  1.00  0.00     0.037 A 
BRANCH  54  68
ATOM     68  C   UNL A   1      45.154  30.864  27.548  1.00  0.00     0.057 A 
ATOM     69  C   UNL A   1      46.431  31.172  27.057  1.00  0.00     0.134 A 
ATOM     70  C   UNL A   1      44.232  31.936  27.545  1.00  0.00     0.134 A 
ATOM     71  F   UNL A   1      47.401  30.246  27.037  1.00  0.00    -0.206 F 
ATOM     72  C   UNL A   1      46.785  32.466  26.656  1.00  0.00     0.040 A 
ATOM     73  C   UNL A   1      44.559  33.215  27.096  1.00  0.00     0.040 A 
ATOM     74  F   UNL A   1      43.006  31.839  28.072  1.00  0.00    -0.206 F 
ATOM     75  C   UNL A   1      45.849  33.493  26.680  1.00  0.00     0.006 A 
ENDBRANCH  54  68
BRANCH  55  76
ATOM     76  C   UNL A   1      37.760  31.564  31.545  1.00  0.00     0.057 A 
ATOM     77  C   UNL A   1      37.232  31.971  30.309  1.00  0.00     0.134 A 
ATOM     78  C   UNL A   1      36.919  31.756  32.656  1.00  0.00     0.134 A 
ATOM     79  F   UNL A   1      37.931  31.794  29.178  1.00  0.00    -0.206 F 
ATOM     80  C   UNL A   1      35.942  32.506  30.183  1.00  0.00     0.040 A 
ATOM     81  C   UNL A   1      35.633  32.299  32.547  1.00  0.00     0.040 A 
ATOM     82  F   UNL A   1      37.274  31.343  33.881  1.00  0.00    -0.206 F 
ATOM     83  C   UNL A   1      35.133  32.661  31.303  1.00  0.00     0.006 A 
ENDBRANCH  55  76
BRANCH  67  84
ATOM     84  C   UNL A   1      43.185  29.294  33.822  1.00  0.00     0.057 A 
ATOM     85  C   UNL A   1      42.444  28.111  33.978  1.00  0.00     0.134 A 
ATOM     86  C   UNL A   1      43.925  29.723  34.930  1.00  0.00     0.134 A 
ATOM     87  F   UNL A   1      41.791  27.558  32.947  1.00  0.00    -0.206 F 
ATOM     88  C   UNL A   1      42.407  27.418  35.193  1.00  0.00     0.040 A 
ATOM     89  C   UNL A   1      43.926  29.020  36.137  1.00  0.00     0.040 A 
ATOM     90  F   UNL A   1      44.703  30.813  34.842  1.00  0.00    -0.206 F 
ATOM     91  C   UNL A   1      43.156  27.869  36.275  1.00  0.00     0.006 A 
ENDBRANCH  67  84
ENDBRANCH  41  42
ENDBRANCH  34  36
ENDBRANCH  33  34
ENDBRANCH  32  33
ENDBRANCH  31  32
ENDBRANCH  30  31
ENDBRANCH   1  30
TORSDOF 19
ENDMDL
MODEL 2
REMARK VINA RESULT:     -11.5      3.739      8.421
REMARK SMILES COc1cccc(-c2c(C(=O)OCCOCCOC(=O)c3ccc(-c4c5nc(c(-c6c(F)cccc6F)c6ccc([nH]6)c(-c6c(F)cccc6F)c6nc(c(-c7c(F)cccc7F)c7ccc4[nH]7)C=C6)C=C5)cc3)nnn2-c2ccc(OC(F)(F)F)cc2)c1
REMARK SMILES IDX 14 1 13 2 12 3 10 4 11 5 9 6 8 7 77 8 75 9 76 10 7 11 3 12
REMARK SMILES IDX 4 13 89 14 5 15 6 16 2 17 1 18 78 19 79 20 88 21 80 22 87 23
REMARK SMILES IDX 81 24 82 25 83 26 84 27 85 28 86 29 15 30 16 31 17 32 18 33
REMARK SMILES IDX 19 34 20 35 21 36 22 37 74 38 23 39 73 40 24 41 25 42 26 43
REMARK SMILES IDX 67 44 27 45 72 46 66 47 68 48 28 49 71 50 65 51 64 52 29 54
REMARK SMILES IDX 55 55 38 56 54 57 39 58 42 59 53 60 69 61 40 62 41 63 52 65
REMARK SMILES IDX 70 66 43 67 30 68 31 69 36 70 32 71 33 72 35 73 37 74 34 75
REMARK SMILES IDX 56 76 57 77 62 78 58 79 59 80 61 81 63 82 60 83 44 84 45 85
REMARK SMILES IDX 50 86 46 87 47 88 49 89 51 90 48 91
REMARK H PARENT 68 53 42 64
REMARK Flexibility Score: inf
ROOT
ATOM      1  C   UNL A   1      32.882  29.350  24.442  1.00  0.00     0.202 C 
ENDROOT
BRANCH   1   2
ATOM      2  C   UNL A   1      33.703  28.111  24.807  1.00  0.00     0.261 C 
BRANCH   2   3
ATOM      3  O   UNL A   1      33.193  26.913  24.198  1.00  0.00    -0.458 OA
BRANCH   3   4
ATOM      4  C   UNL A   1      32.467  26.105  25.034  1.00  0.00     0.361 C 
ATOM      5  O   UNL A   1      32.038  26.443  26.119  1.00  0.00    -0.244 OA
BRANCH   4   6
ATOM      6  C   UNL A   1      32.164  24.813  24.438  1.00  0.00     0.198 A 
ATOM      7  C   UNL A   1      32.987  23.732  24.163  1.00  0.00     0.109 A 
ATOM      8  N   UNL A   1      32.066  22.749  23.800  1.00  0.00    -0.212 N 
ATOM      9  N   UNL A   1      30.890  24.534  23.987  1.00  0.00    -0.122 NA
ATOM     10  N   UNL A   1      30.888  23.315  23.471  1.00  0.00    -0.061 NA
BRANCH   7  11
ATOM     11  C   UNL A   1      34.431  23.500  24.246  1.00  0.00     0.007 A 
ATOM     12  C   UNL A   1      36.510  23.720  25.507  1.00  0.00     0.119 A 
ATOM     13  C   UNL A   1      37.219  23.316  24.376  1.00  0.00     0.046 A 
ATOM     14  C   UNL A   1      35.119  23.797  25.443  1.00  0.00     0.056 A 
ATOM     15  C   UNL A   1      36.549  22.970  23.203  1.00  0.00     0.005 A 
ATOM     16  C   UNL A   1      35.157  23.063  23.135  1.00  0.00     0.011 A 
BRANCH  12  17
ATOM     17  O   UNL A   1      37.283  24.082  26.575  1.00  0.00    -0.497 OA
ATOM     18  C   UNL A   1      38.665  23.761  26.503  1.00  0.00     0.278 C 
ENDBRANCH  12  17
ENDBRANCH   7  11
BRANCH   8  19
ATOM     19  C   UNL A   1      32.210  21.347  23.868  1.00  0.00     0.067 A 
ATOM     20  C   UNL A   1      32.132  20.570  22.713  1.00  0.00     0.032 A 
ATOM     21  C   UNL A   1      32.416  20.743  25.115  1.00  0.00     0.032 A 
ATOM     22  C   UNL A   1      32.351  19.192  22.810  1.00  0.00     0.049 A 
ATOM     23  C   UNL A   1      32.584  19.363  25.205  1.00  0.00     0.049 A 
ATOM     24  C   UNL A   1      32.585  18.581  24.050  1.00  0.00     0.129 A 
BRANCH  24  25
ATOM     25  O   UNL A   1      32.798  17.233  23.998  1.00  0.00    -0.406 OA
BRANCH  25  26
ATOM     26  C   UNL A   1      34.142  16.781  24.064  1.00  0.00     0.573 C 
ATOM     27  F   UNL A   1      35.013  17.812  23.986  1.00  0.00    -0.132 F 
ATOM     28  F   UNL A   1      34.364  16.091  25.203  1.00  0.00    -0.132 F 
ATOM     29  F   UNL A   1      34.376  15.959  23.019  1.00  0.00    -0.132 F 
ENDBRANCH  25  26
ENDBRANCH  24  25
ENDBRANCH   8  19
ENDBRANCH   4   6
ENDBRANCH   3   4
ENDBRANCH   2   3
ENDBRANCH   1   2
BRANCH   1  30
ATOM     30  O   UNL A   1      32.290  30.097  25.502  1.00  0.00    -0.374 OA
BRANCH  30  31
ATOM     31  C   UNL A   1      32.922  30.156  26.775  1.00  0.00     0.202 C 
BRANCH  31  32
ATOM     32  C   UNL A   1      33.308  31.518  27.330  1.00  0.00     0.261 C 
BRANCH  32  33
ATOM     33  O   UNL A   1      34.184  31.440  28.446  1.00  0.00    -0.460 OA
BRANCH  33  34
ATOM     34  C   UNL A   1      35.374  32.050  28.238  1.00  0.00     0.338 C 
ATOM     35  O   UNL A   1      35.604  32.990  27.495  1.00  0.00    -0.246 OA
BRANCH  34  36
ATOM     36  C   UNL A   1      36.423  31.270  28.900  1.00  0.00     0.060 A 
ATOM     37  C   UNL A   1      37.544  31.979  29.338  1.00  0.00     0.016 A 
ATOM     38  C   UNL A   1      36.417  29.872  28.803  1.00  0.00     0.016 A 
ATOM     39  C   UNL A   1      38.728  31.295  29.494  1.00  0.00     0.010 A 
ATOM     40  C   UNL A   1      37.605  29.195  28.936  1.00  0.00     0.010 A 
ATOM     41  C   UNL A   1      38.757  29.926  29.208  1.00  0.00    -0.014 A 
BRANCH  41  42
ATOM     42  C   UNL A   1      40.008  29.223  29.372  1.00  0.00     0.031 A 
ATOM     43  C   UNL A   1      40.391  29.108  30.796  1.00  0.00     0.074 A 
ATOM     44  C   UNL A   1      40.669  28.647  28.351  1.00  0.00     0.049 A 
ATOM     45  N   UNL A   1      41.394  29.676  31.375  1.00  0.00    -0.248 NA
ATOM     46  C   UNL A   1      39.446  28.460  31.724  1.00  0.00     0.031 C 
ATOM     47  C   UNL A   1      40.240  28.499  26.960  1.00  0.00     0.029 A 
ATOM     48  N   UNL A   1      41.848  27.970  28.378  1.00  0.00    -0.354 N 
ATOM     49  C   UNL A   1      41.340  29.255  32.696  1.00  0.00     0.074 A 
ATOM     50  C   UNL A   1      40.030  28.696  32.899  1.00  0.00     0.031 C 
ATOM     51  C   UNL A   1      41.025  27.583  26.347  1.00  0.00     0.029 A 
ATOM     52  C   UNL A   1      42.076  27.171  27.261  1.00  0.00     0.049 A 
ATOM     53  H   UNL A   1      42.487  28.038  29.124  1.00  0.00     0.167 HD
ATOM     54  C   UNL A   1      42.485  29.119  33.415  1.00  0.00     0.037 A 
ATOM     55  C   UNL A   1      43.009  26.187  27.168  1.00  0.00     0.037 A 
ATOM     56  C   UNL A   1      43.553  29.906  32.847  1.00  0.00     0.049 A 
ATOM     57  C   UNL A   1      44.035  26.455  28.217  1.00  0.00     0.074 A 
ATOM     58  C   UNL A   1      43.688  31.242  32.513  1.00  0.00     0.029 A 
ATOM     59  N   UNL A   1      44.543  29.252  32.154  1.00  0.00    -0.354 N 
ATOM     60  N   UNL A   1      44.857  27.466  28.176  1.00  0.00    -0.248 NA
ATOM     61  C   UNL A   1      43.797  25.895  29.542  1.00  0.00     0.031 C 
ATOM     62  C   UNL A   1      44.384  31.241  31.269  1.00  0.00     0.029 A 
ATOM     63  C   UNL A   1      44.716  29.921  30.969  1.00  0.00     0.049 A 
ATOM     64  H   UNL A   1      45.035  28.452  32.451  1.00  0.00     0.167 HD
ATOM     65  C   UNL A   1      44.878  27.953  29.475  1.00  0.00     0.074 A 
ATOM     66  C   UNL A   1      44.254  26.908  30.286  1.00  0.00     0.031 C 
ATOM     67  C   UNL A   1      45.108  29.272  29.740  1.00  0.00     0.037 A 
BRANCH  54  68
ATOM     68  C   UNL A   1      42.726  27.954  34.338  1.00  0.00     0.057 A 
ATOM     69  C   UNL A   1      42.720  28.172  35.724  1.00  0.00     0.134 A 
ATOM     70  C   UNL A   1      43.254  26.710  33.926  1.00  0.00     0.134 A 
ATOM     71  F   UNL A   1      42.270  29.327  36.236  1.00  0.00    -0.206 F 
ATOM     72  C   UNL A   1      43.263  27.249  36.627  1.00  0.00     0.040 A 
ATOM     73  C   UNL A   1      43.746  25.761  34.821  1.00  0.00     0.040 A 
ATOM     74  F   UNL A   1      43.426  26.386  32.639  1.00  0.00    -0.206 F 
ATOM     75  C   UNL A   1      43.782  26.043  36.175  1.00  0.00     0.006 A 
ENDBRANCH  54  68
BRANCH  55  76
ATOM     76  C   UNL A   1      42.897  24.870  26.490  1.00  0.00     0.057 A 
ATOM     77  C   UNL A   1      43.638  24.583  25.332  1.00  0.00     0.134 A 
ATOM     78  C   UNL A   1      42.275  23.766  27.102  1.00  0.00     0.134 A 
ATOM     79  F   UNL A   1      44.307  25.554  24.693  1.00  0.00    -0.206 F 
ATOM     80  C   UNL A   1      43.778  23.280  24.833  1.00  0.00     0.040 A 
ATOM     81  C   UNL A   1      42.397  22.462  26.609  1.00  0.00     0.040 A 
ATOM     82  F   UNL A   1      41.600  23.892  28.252  1.00  0.00    -0.206 F 
ATOM     83  C   UNL A   1      43.164  22.212  25.479  1.00  0.00     0.006 A 
ENDBRANCH  55  76
BRANCH  67  84
ATOM     84  C   UNL A   1      45.579  30.164  28.623  1.00  0.00     0.057 A 
ATOM     85  C   UNL A   1      44.731  30.815  27.712  1.00  0.00     0.134 A 
ATOM     86  C   UNL A   1      46.935  30.509  28.575  1.00  0.00     0.134 A 
ATOM     87  F   UNL A   1      43.404  30.637  27.748  1.00  0.00    -0.206 F 
ATOM     88  C   UNL A   1      45.219  31.728  26.771  1.00  0.00     0.040 A 
ATOM     89  C   UNL A   1      47.430  31.446  27.665  1.00  0.00     0.040 A 
ATOM     90  F   UNL A   1      47.800  29.973  29.451  1.00  0.00    -0.206 F 
ATOM     91  C   UNL A   1      46.572  32.051  26.751  1.00  0.00     0.006 A 
ENDBRANCH  67  84
ENDBRANCH  41  42
ENDBRANCH  34  36
ENDBRANCH  33  34
ENDBRANCH  32  33
ENDBRANCH  31  32
ENDBRANCH  30  31
ENDBRANCH   1  30
TORSDOF 19
ENDMDL
MODEL 3
REMARK VINA RESULT:     -11.3      4.171      7.996
REMARK SMILES COc1cccc(-c2c(C(=O)OCCOCCOC(=O)c3ccc(-c4c5nc(c(-c6c(F)cccc6F)c6ccc([nH]6)c(-c6c(F)cccc6F)c6nc(c(-c7c(F)cccc7F)c7ccc4[nH]7)C=C6)C=C5)cc3)nnn2-c2ccc(OC(F)(F)F)cc2)c1
REMARK SMILES IDX 14 1 13 2 12 3 10 4 11 5 9 6 8 7 77 8 75 9 76 10 7 11 3 12
REMARK SMILES IDX 4 13 89 14 5 15 6 16 2 17 1 18 78 19 79 20 88 21 80 22 87 23
REMARK SMILES IDX 81 24 82 25 83 26 84 27 85 28 86 29 15 30 16 31 17 32 18 33
REMARK SMILES IDX 19 34 20 35 21 36 22 37 74 38 23 39 73 40 24 41 25 42 26 43
REMARK SMILES IDX 67 44 27 45 72 46 66 47 68 48 28 49 71 50 65 51 64 52 29 54
REMARK SMILES IDX 55 55 38 56 54 57 39 58 42 59 53 60 69 61 40 62 41 63 52 65
REMARK SMILES IDX 70 66 43 67 30 68 31 69 36 70 32 71 33 72 35 73 37 74 34 75
REMARK SMILES IDX 56 76 57 77 62 78 58 79 59 80 61 81 63 82 60 83 44 84 45 85
REMARK SMILES IDX 50 86 46 87 47 88 49 89 51 90 48 91
REMARK H PARENT 68 53 42 64
REMARK Flexibility Score: inf
ROOT
ATOM      1  C   UNL A   1      31.924  29.110  25.668  1.00  0.00     0.202 C 
ENDROOT
BRANCH   1   2
ATOM      2  C   UNL A   1      31.918  27.685  26.226  1.00  0.00     0.261 C 
BRANCH   2   3
ATOM      3  O   UNL A   1      31.523  26.712  25.244  1.00  0.00    -0.458 OA
BRANCH   3   4
ATOM      4  C   UNL A   1      32.555  26.167  24.525  1.00  0.00     0.361 C 
ATOM      5  O   UNL A   1      33.637  26.695  24.364  1.00  0.00    -0.244 OA
BRANCH   4   6
ATOM      6  C   UNL A   1      32.259  24.822  24.055  1.00  0.00     0.198 A 
ATOM      7  C   UNL A   1      33.078  23.710  23.931  1.00  0.00     0.109 A 
ATOM      8  N   UNL A   1      32.160  22.703  23.636  1.00  0.00    -0.212 N 
ATOM      9  N   UNL A   1      31.001  24.509  23.583  1.00  0.00    -0.122 NA
ATOM     10  N   UNL A   1      31.004  23.242  23.199  1.00  0.00    -0.061 NA
BRANCH   7  11
ATOM     11  C   UNL A   1      34.515  23.475  24.100  1.00  0.00     0.007 A 
ATOM     12  C   UNL A   1      36.508  23.653  25.499  1.00  0.00     0.119 A 
ATOM     13  C   UNL A   1      37.289  23.286  24.404  1.00  0.00     0.046 A 
ATOM     14  C   UNL A   1      35.123  23.733  25.348  1.00  0.00     0.056 A 
ATOM     15  C   UNL A   1      36.696  22.980  23.179  1.00  0.00     0.005 A 
ATOM     16  C   UNL A   1      35.312  23.075  23.025  1.00  0.00     0.011 A 
BRANCH  12  17
ATOM     17  O   UNL A   1      37.209  23.979  26.626  1.00  0.00    -0.497 OA
ATOM     18  C   UNL A   1      38.624  24.029  26.508  1.00  0.00     0.278 C 
ENDBRANCH  12  17
ENDBRANCH   7  11
BRANCH   8  19
ATOM     19  C   UNL A   1      32.281  21.315  23.857  1.00  0.00     0.067 A 
ATOM     20  C   UNL A   1      32.197  20.417  22.794  1.00  0.00     0.032 A 
ATOM     21  C   UNL A   1      32.473  20.848  25.164  1.00  0.00     0.032 A 
ATOM     22  C   UNL A   1      32.394  19.055  23.042  1.00  0.00     0.049 A 
ATOM     23  C   UNL A   1      32.619  19.483  25.405  1.00  0.00     0.049 A 
ATOM     24  C   UNL A   1      32.613  18.581  24.342  1.00  0.00     0.129 A 
BRANCH  24  25
ATOM     25  O   UNL A   1      32.806  17.231  24.439  1.00  0.00    -0.406 OA
BRANCH  25  26
ATOM     26  C   UNL A   1      34.104  16.735  24.154  1.00  0.00     0.573 C 
ATOM     27  F   UNL A   1      34.461  15.761  25.020  1.00  0.00    -0.132 F 
ATOM     28  F   UNL A   1      34.174  16.261  22.891  1.00  0.00    -0.132 F 
ATOM     29  F   UNL A   1      34.993  17.745  24.275  1.00  0.00    -0.132 F 
ENDBRANCH  25  26
ENDBRANCH  24  25
ENDBRANCH   8  19
ENDBRANCH   4   6
ENDBRANCH   3   4
ENDBRANCH   2   3
ENDBRANCH   1   2
BRANCH   1  30
ATOM     30  O   UNL A   1      33.007  29.965  26.027  1.00  0.00    -0.374 OA
BRANCH  30  31
ATOM     31  C   UNL A   1      33.599  29.865  27.316  1.00  0.00     0.202 C 
BRANCH  31  32
ATOM     32  C   UNL A   1      34.802  30.741  27.630  1.00  0.00     0.261 C 
BRANCH  32  33
ATOM     33  O   UNL A   1      36.043  30.074  27.448  1.00  0.00    -0.460 OA
BRANCH  33  34
ATOM     34  C   UNL A   1      36.669  29.778  28.611  1.00  0.00     0.338 C 
ATOM     35  O   UNL A   1      36.401  30.199  29.724  1.00  0.00    -0.246 OA
BRANCH  34  36
ATOM     36  C   UNL A   1      37.882  29.012  28.310  1.00  0.00     0.060 A 
ATOM     37  C   UNL A   1      38.349  28.164  29.316  1.00  0.00     0.016 A 
ATOM     38  C   UNL A   1      38.670  29.363  27.206  1.00  0.00     0.016 A 
ATOM     39  C   UNL A   1      39.681  27.821  29.314  1.00  0.00     0.010 A 
ATOM     40  C   UNL A   1      40.005  29.039  27.218  1.00  0.00     0.010 A 
ATOM     41  C   UNL A   1      40.507  28.336  28.308  1.00  0.00    -0.014 A 
BRANCH  41  42
ATOM     42  C   UNL A   1      41.904  27.970  28.322  1.00  0.00     0.031 A 
ATOM     43  C   UNL A   1      42.144  26.690  27.622  1.00  0.00     0.074 A 
ATOM     44  C   UNL A   1      42.869  28.770  28.813  1.00  0.00     0.049 A 
ATOM     45  N   UNL A   1      42.529  25.580  28.153  1.00  0.00    -0.248 NA
ATOM     46  C   UNL A   1      41.716  26.571  26.217  1.00  0.00     0.031 C 
ATOM     47  C   UNL A   1      42.751  30.147  29.293  1.00  0.00     0.029 A 
ATOM     48  N   UNL A   1      44.207  28.537  28.888  1.00  0.00    -0.354 N 
ATOM     49  C   UNL A   1      42.625  24.683  27.098  1.00  0.00     0.074 A 
ATOM     50  C   UNL A   1      41.922  25.273  25.990  1.00  0.00     0.031 C 
ATOM     51  C   UNL A   1      43.985  30.696  29.381  1.00  0.00     0.029 A 
ATOM     52  C   UNL A   1      44.978  29.680  29.078  1.00  0.00     0.049 A 
ATOM     53  H   UNL A   1      44.598  27.636  28.813  1.00  0.00     0.167 HD
ATOM     54  C   UNL A   1      43.540  23.680  27.137  1.00  0.00     0.037 A 
ATOM     55  C   UNL A   1      46.322  29.767  28.896  1.00  0.00     0.037 A 
ATOM     56  C   UNL A   1      43.947  23.398  28.492  1.00  0.00     0.049 A 
ATOM     57  C   UNL A   1      46.866  28.382  28.968  1.00  0.00     0.074 A 
ATOM     58  C   UNL A   1      43.263  23.086  29.655  1.00  0.00     0.029 A 
ATOM     59  N   UNL A   1      45.188  23.825  28.899  1.00  0.00    -0.354 N 
ATOM     60  N   UNL A   1      46.894  27.677  30.066  1.00  0.00    -0.248 NA
ATOM     61  C   UNL A   1      46.902  27.612  27.731  1.00  0.00     0.031 C 
ATOM     62  C   UNL A   1      43.923  23.825  30.679  1.00  0.00     0.029 A 
ATOM     63  C   UNL A   1      45.022  24.462  30.103  1.00  0.00     0.049 A 
ATOM     64  H   UNL A   1      46.037  23.699  28.417  1.00  0.00     0.167 HD
ATOM     65  C   UNL A   1      46.493  26.408  29.677  1.00  0.00     0.074 A 
ATOM     66  C   UNL A   1      46.571  26.411  28.216  1.00  0.00     0.031 C 
ATOM     67  C   UNL A   1      45.840  25.571  30.535  1.00  0.00     0.037 A 
BRANCH  54  68
ATOM     68  C   UNL A   1      44.359  23.287  25.936  1.00  0.00     0.057 A 
ATOM     69  C   UNL A   1      44.471  21.929  25.604  1.00  0.00     0.134 A 
ATOM     70  C   UNL A   1      45.274  24.145  25.284  1.00  0.00     0.134 A 
ATOM     71  F   UNL A   1      43.678  21.014  26.179  1.00  0.00    -0.206 F 
ATOM     72  C   UNL A   1      45.464  21.451  24.739  1.00  0.00     0.040 A 
ATOM     73  C   UNL A   1      46.231  23.685  24.379  1.00  0.00     0.040 A 
ATOM     74  F   UNL A   1      45.370  25.450  25.563  1.00  0.00    -0.206 F 
ATOM     75  C   UNL A   1      46.350  22.330  24.129  1.00  0.00     0.006 A 
ENDBRANCH  54  68
BRANCH  55  76
ATOM     76  C   UNL A   1      47.104  30.895  28.326  1.00  0.00     0.057 A 
ATOM     77  C   UNL A   1      46.774  31.452  27.080  1.00  0.00     0.134 A 
ATOM     78  C   UNL A   1      48.019  31.635  29.098  1.00  0.00     0.134 A 
ATOM     79  F   UNL A   1      45.879  30.852  26.281  1.00  0.00    -0.206 F 
ATOM     80  C   UNL A   1      47.295  32.679  26.644  1.00  0.00     0.040 A 
ATOM     81  C   UNL A   1      48.555  32.856  28.671  1.00  0.00     0.040 A 
ATOM     82  F   UNL A   1      48.360  31.252  30.336  1.00  0.00    -0.206 F 
ATOM     83  C   UNL A   1      48.180  33.391  27.445  1.00  0.00     0.006 A 
ENDBRANCH  55  76
BRANCH  67  84
ATOM     84  C   UNL A   1      45.764  25.941  31.992  1.00  0.00     0.057 A 
ATOM     85  C   UNL A   1      46.791  25.722  32.924  1.00  0.00     0.134 A 
ATOM     86  C   UNL A   1      44.672  26.701  32.428  1.00  0.00     0.134 A 
ATOM     87  F   UNL A   1      47.926  25.101  32.576  1.00  0.00    -0.206 F 
ATOM     88  C   UNL A   1      46.710  26.198  34.238  1.00  0.00     0.040 A 
ATOM     89  C   UNL A   1      44.596  27.213  33.725  1.00  0.00     0.040 A 
ATOM     90  F   UNL A   1      43.676  27.003  31.579  1.00  0.00    -0.206 F 
ATOM     91  C   UNL A   1      45.612  26.953  34.638  1.00  0.00     0.006 A 
ENDBRANCH  67  84
ENDBRANCH  41  42
ENDBRANCH  34  36
ENDBRANCH  33  34
ENDBRANCH  32  33
ENDBRANCH  31  32
ENDBRANCH  30  31
ENDBRANCH   1  30
TORSDOF 19
ENDMDL
