MODEL 1
REMARK VINA RESULT:     -10.6      0.000      0.000
REMARK SMILES CN1CC[N@H+](CC(=O)OCCOCCOC(=O)c2ccc(-c3c4nc(c(-c5c(F)cccc5F)c5ccc([nH]5)c(-c5c(F)cccc5F)c5nc(c(-c6c(F)cccc6F)c6ccc3[nH]6)C=C5)C=C4)cc2)C(C)(C)C1=O
REMARK SMILES IDX 13 1 12 2 11 3 10 4 9 5 7 6 8 7 6 8 5 9 1 10 2 11 3 12 75 13
REMARK SMILES IDX 4 14 72 15 76 16 73 17 74 18 14 20 15 21 16 22 17 23 18 24
REMARK SMILES IDX 19 25 71 26 20 27 70 28 21 29 22 30 23 31 64 32 24 33 69 34
REMARK SMILES IDX 63 35 65 36 25 37 68 38 62 39 61 40 26 42 52 43 35 44 51 45
REMARK SMILES IDX 36 46 39 47 50 48 66 49 37 50 38 51 49 53 67 54 40 55 27 56
REMARK SMILES IDX 28 57 33 58 29 59 30 60 32 61 34 62 31 63 53 64 54 65 59 66
REMARK SMILES IDX 55 67 56 68 58 69 60 70 57 71 41 72 42 73 47 74 43 75 44 76
REMARK SMILES IDX 46 77 48 78 45 79
REMARK H PARENT 5 19 65 41 39 52
REMARK Flexibility Score: inf
ROOT
ATOM      1  C   UNL A   1      35.654  21.537  24.644  1.00  0.00     0.202 C 
ENDROOT
BRANCH   1   2
ATOM      2  O   UNL A   1      34.476  20.760  24.432  1.00  0.00    -0.374 OA
BRANCH   2   3
ATOM      3  C   UNL A   1      33.673  20.513  25.583  1.00  0.00     0.202 C 
BRANCH   3   4
ATOM      4  C   UNL A   1      32.518  21.492  25.807  1.00  0.00     0.261 C 
BRANCH   4   5
ATOM      5  O   UNL A   1      32.645  22.332  26.973  1.00  0.00    -0.459 OA
BRANCH   5   6
ATOM      6  C   UNL A   1      32.215  23.613  26.819  1.00  0.00     0.361 C 
ATOM      7  O   UNL A   1      31.158  24.042  27.273  1.00  0.00    -0.245 OA
BRANCH   6   8
ATOM      8  C   UNL A   1      33.068  24.435  25.860  1.00  0.00     0.387 C 
BRANCH   8   9
ATOM      9  N   UNL A   1      32.438  25.476  25.045  1.00  0.00    -0.312 N 
ATOM     10  C   UNL A   1      34.116  28.610  22.605  1.00  0.00     0.147 C 
ATOM     11  N   UNL A   1      33.602  27.515  23.402  1.00  0.00    -0.335 N 
ATOM     12  C   UNL A   1      33.563  27.697  24.844  1.00  0.00     0.180 C 
ATOM     13  C   UNL A   1      33.376  26.259  22.836  1.00  0.00     0.283 C 
ATOM     14  C   UNL A   1      32.522  26.839  25.554  1.00  0.00     0.285 C 
ATOM     15  C   UNL A   1      32.340  25.358  23.574  1.00  0.00     0.172 C 
ATOM     16  O   UNL A   1      33.797  25.962  21.717  1.00  0.00    -0.268 OA
ATOM     17  C   UNL A   1      30.965  25.924  23.126  1.00  0.00     0.090 C 
ATOM     18  C   UNL A   1      32.382  23.907  23.054  1.00  0.00     0.090 C 
ATOM     19  H   UNL A   1      31.492  25.150  25.246  1.00  0.00     0.349 HD
ENDBRANCH   8   9
ENDBRANCH   6   8
ENDBRANCH   5   6
ENDBRANCH   4   5
ENDBRANCH   3   4
ENDBRANCH   2   3
ENDBRANCH   1   2
BRANCH   1  20
ATOM     20  C   UNL A   1      36.864  20.731  25.123  1.00  0.00     0.261 C 
BRANCH  20  21
ATOM     21  O   UNL A   1      38.079  21.477  24.931  1.00  0.00    -0.460 OA
BRANCH  21  22
ATOM     22  C   UNL A   1      39.064  21.169  25.805  1.00  0.00     0.338 C 
ATOM     23  O   UNL A   1      39.649  20.105  25.906  1.00  0.00    -0.246 OA
BRANCH  22  24
ATOM     24  C   UNL A   1      39.462  22.363  26.572  1.00  0.00     0.060 A 
ATOM     25  C   UNL A   1      38.860  23.583  26.252  1.00  0.00     0.016 A 
ATOM     26  C   UNL A   1      40.501  22.315  27.499  1.00  0.00     0.016 A 
ATOM     27  C   UNL A   1      39.356  24.764  26.803  1.00  0.00     0.010 A 
ATOM     28  C   UNL A   1      40.976  23.493  28.080  1.00  0.00     0.010 A 
ATOM     29  C   UNL A   1      40.449  24.728  27.682  1.00  0.00    -0.014 A 
BRANCH  29  30
ATOM     30  C   UNL A   1      41.137  25.989  28.050  1.00  0.00     0.031 A 
ATOM     31  C   UNL A   1      42.543  26.227  27.564  1.00  0.00     0.074 A 
ATOM     32  C   UNL A   1      40.506  26.921  28.784  1.00  0.00     0.049 A 
ATOM     33  N   UNL A   1      43.282  27.304  27.656  1.00  0.00    -0.248 NA
ATOM     34  C   UNL A   1      43.214  25.099  26.898  1.00  0.00     0.031 C 
ATOM     35  C   UNL A   1      39.169  26.779  29.357  1.00  0.00     0.029 A 
ATOM     36  N   UNL A   1      40.909  28.173  29.168  1.00  0.00    -0.354 N 
ATOM     37  C   UNL A   1      44.493  26.984  27.055  1.00  0.00     0.074 A 
ATOM     38  C   UNL A   1      44.415  25.598  26.653  1.00  0.00     0.031 C 
ATOM     39  C   UNL A   1      38.855  27.909  30.014  1.00  0.00     0.029 A 
ATOM     40  C   UNL A   1      39.967  28.851  29.903  1.00  0.00     0.049 A 
ATOM     41  H   UNL A   1      41.789  28.551  28.941  1.00  0.00     0.167 HD
ATOM     42  C   UNL A   1      45.565  27.782  26.833  1.00  0.00     0.037 A 
ATOM     43  C   UNL A   1      39.996  30.097  30.409  1.00  0.00     0.037 A 
ATOM     44  C   UNL A   1      45.632  29.163  27.229  1.00  0.00     0.049 A 
ATOM     45  C   UNL A   1      41.185  30.976  30.132  1.00  0.00     0.074 A 
ATOM     46  C   UNL A   1      46.641  30.082  26.995  1.00  0.00     0.029 A 
ATOM     47  N   UNL A   1      44.649  29.820  27.953  1.00  0.00    -0.354 N 
ATOM     48  N   UNL A   1      42.280  30.699  29.465  1.00  0.00    -0.248 NA
ATOM     49  C   UNL A   1      41.131  32.349  30.654  1.00  0.00     0.031 C 
ATOM     50  C   UNL A   1      46.284  31.286  27.615  1.00  0.00     0.029 A 
ATOM     51  C   UNL A   1      45.036  31.126  28.197  1.00  0.00     0.049 A 
ATOM     52  H   UNL A   1      43.802  29.417  28.251  1.00  0.00     0.167 HD
ATOM     53  C   UNL A   1      43.034  31.865  29.465  1.00  0.00     0.074 A 
ATOM     54  C   UNL A   1      42.263  32.858  30.187  1.00  0.00     0.031 C 
ATOM     55  C   UNL A   1      44.252  32.096  28.918  1.00  0.00     0.037 A 
BRANCH  42  56
ATOM     56  C   UNL A   1      46.743  27.180  26.122  1.00  0.00     0.057 A 
ATOM     57  C   UNL A   1      46.903  27.292  24.733  1.00  0.00     0.134 A 
ATOM     58  C   UNL A   1      47.744  26.509  26.833  1.00  0.00     0.134 A 
ATOM     59  F   UNL A   1      45.974  27.913  23.990  1.00  0.00    -0.206 F 
ATOM     60  C   UNL A   1      48.002  26.735  24.076  1.00  0.00     0.040 A 
ATOM     61  C   UNL A   1      48.862  25.970  26.191  1.00  0.00     0.040 A 
ATOM     62  F   UNL A   1      47.659  26.369  28.165  1.00  0.00    -0.206 F 
ATOM     63  C   UNL A   1      48.989  26.078  24.807  1.00  0.00     0.006 A 
ENDBRANCH  42  56
BRANCH  43  64
ATOM     64  C   UNL A   1      38.835  30.603  31.182  1.00  0.00     0.057 A 
ATOM     65  C   UNL A   1      38.744  30.409  32.565  1.00  0.00     0.134 A 
ATOM     66  C   UNL A   1      37.799  31.309  30.560  1.00  0.00     0.134 A 
ATOM     67  F   UNL A   1      39.698  29.727  33.215  1.00  0.00    -0.206 F 
ATOM     68  C   UNL A   1      37.659  30.888  33.300  1.00  0.00     0.040 A 
ATOM     69  C   UNL A   1      36.718  31.812  31.286  1.00  0.00     0.040 A 
ATOM     70  F   UNL A   1      37.831  31.534  29.238  1.00  0.00    -0.206 F 
ATOM     71  C   UNL A   1      36.644  31.598  32.661  1.00  0.00     0.006 A 
ENDBRANCH  43  64
BRANCH  55  72
ATOM     72  C   UNL A   1      44.814  33.479  29.062  1.00  0.00     0.057 A 
ATOM     73  C   UNL A   1      45.651  33.828  30.129  1.00  0.00     0.134 A 
ATOM     74  C   UNL A   1      44.542  34.463  28.102  1.00  0.00     0.134 A 
ATOM     75  F   UNL A   1      45.941  32.933  31.085  1.00  0.00    -0.206 F 
ATOM     76  C   UNL A   1      46.178  35.114  30.250  1.00  0.00     0.040 A 
ATOM     77  C   UNL A   1      45.083  35.745  28.199  1.00  0.00     0.040 A 
ATOM     78  F   UNL A   1      43.755  34.191  27.050  1.00  0.00    -0.206 F 
ATOM     79  C   UNL A   1      45.899  36.075  29.279  1.00  0.00     0.006 A 
ENDBRANCH  55  72
ENDBRANCH  29  30
ENDBRANCH  22  24
ENDBRANCH  21  22
ENDBRANCH  20  21
ENDBRANCH   1  20
TORSDOF 15
ENDMDL
MODEL 2
REMARK VINA RESULT:     -10.4      0.733      1.632
REMARK SMILES CN1CC[N@H+](CC(=O)OCCOCCOC(=O)c2ccc(-c3c4nc(c(-c5c(F)cccc5F)c5ccc([nH]5)c(-c5c(F)cccc5F)c5nc(c(-c6c(F)cccc6F)c6ccc3[nH]6)C=C5)C=C4)cc2)C(C)(C)C1=O
REMARK SMILES IDX 13 1 12 2 11 3 10 4 9 5 7 6 8 7 6 8 5 9 1 10 2 11 3 12 75 13
REMARK SMILES IDX 4 14 72 15 76 16 73 17 74 18 14 20 15 21 16 22 17 23 18 24
REMARK SMILES IDX 19 25 71 26 20 27 70 28 21 29 22 30 23 31 64 32 24 33 69 34
REMARK SMILES IDX 63 35 65 36 25 37 68 38 62 39 61 40 26 42 52 43 35 44 51 45
REMARK SMILES IDX 36 46 39 47 50 48 66 49 37 50 38 51 49 53 67 54 40 55 27 56
REMARK SMILES IDX 28 57 33 58 29 59 30 60 32 61 34 62 31 63 53 64 54 65 59 66
REMARK SMILES IDX 55 67 56 68 58 69 60 70 57 71 41 72 42 73 47 74 43 75 44 76
REMARK SMILES IDX 46 77 48 78 45 79
REMARK H PARENT 5 19 65 41 39 52
REMARK Flexibility Score: inf
ROOT
ATOM      1  C   UNL A   1      35.742  21.238  25.430  1.00  0.00     0.202 C 
ENDROOT
BRANCH   1   2
ATOM      2  O   UNL A   1      34.588  20.847  24.687  1.00  0.00    -0.374 OA
BRANCH   2   3
ATOM      3  C   UNL A   1      33.528  21.797  24.628  1.00  0.00     0.202 C 
BRANCH   3   4
ATOM      4  C   UNL A   1      32.491  21.701  25.750  1.00  0.00     0.261 C 
BRANCH   4   5
ATOM      5  O   UNL A   1      32.644  22.668  26.810  1.00  0.00    -0.459 OA
BRANCH   5   6
ATOM      6  C   UNL A   1      31.588  23.505  26.995  1.00  0.00     0.361 C 
ATOM      7  O   UNL A   1      30.489  23.142  27.405  1.00  0.00    -0.245 OA
BRANCH   6   8
ATOM      8  C   UNL A   1      31.821  24.912  26.461  1.00  0.00     0.387 C 
BRANCH   8   9
ATOM      9  N   UNL A   1      31.763  25.156  25.018  1.00  0.00    -0.312 N 
ATOM     10  C   UNL A   1      31.268  28.786  22.744  1.00  0.00     0.147 C 
ATOM     11  N   UNL A   1      31.475  27.601  23.552  1.00  0.00    -0.335 N 
ATOM     12  C   UNL A   1      30.303  26.994  24.162  1.00  0.00     0.180 C 
ATOM     13  C   UNL A   1      32.761  27.199  23.920  1.00  0.00     0.283 C 
ATOM     14  C   UNL A   1      30.460  25.509  24.470  1.00  0.00     0.285 C 
ATOM     15  C   UNL A   1      32.924  25.690  24.274  1.00  0.00     0.172 C 
ATOM     16  O   UNL A   1      33.741  27.930  23.771  1.00  0.00    -0.268 OA
ATOM     17  C   UNL A   1      32.987  24.986  22.891  1.00  0.00     0.090 C 
ATOM     18  C   UNL A   1      34.285  25.412  24.944  1.00  0.00     0.090 C 
ATOM     19  H   UNL A   1      31.921  24.176  24.782  1.00  0.00     0.349 HD
ENDBRANCH   8   9
ENDBRANCH   6   8
ENDBRANCH   5   6
ENDBRANCH   4   5
ENDBRANCH   3   4
ENDBRANCH   2   3
ENDBRANCH   1   2
BRANCH   1  20
ATOM     20  C   UNL A   1      37.025  20.504  25.035  1.00  0.00     0.261 C 
BRANCH  20  21
ATOM     21  O   UNL A   1      38.138  21.414  24.992  1.00  0.00    -0.460 OA
BRANCH  21  22
ATOM     22  C   UNL A   1      39.133  21.117  25.860  1.00  0.00     0.338 C 
ATOM     23  O   UNL A   1      39.728  20.059  25.959  1.00  0.00    -0.246 OA
BRANCH  22  24
ATOM     24  C   UNL A   1      39.525  22.317  26.621  1.00  0.00     0.060 A 
ATOM     25  C   UNL A   1      38.895  23.526  26.316  1.00  0.00     0.016 A 
ATOM     26  C   UNL A   1      40.584  22.286  27.526  1.00  0.00     0.016 A 
ATOM     27  C   UNL A   1      39.381  24.715  26.860  1.00  0.00     0.010 A 
ATOM     28  C   UNL A   1      41.050  23.471  28.100  1.00  0.00     0.010 A 
ATOM     29  C   UNL A   1      40.493  24.697  27.716  1.00  0.00    -0.014 A 
BRANCH  29  30
ATOM     30  C   UNL A   1      41.166  25.969  28.072  1.00  0.00     0.031 A 
ATOM     31  C   UNL A   1      42.572  26.217  27.590  1.00  0.00     0.074 A 
ATOM     32  C   UNL A   1      40.521  26.904  28.791  1.00  0.00     0.049 A 
ATOM     33  N   UNL A   1      43.299  27.302  27.673  1.00  0.00    -0.248 NA
ATOM     34  C   UNL A   1      43.258  25.087  26.941  1.00  0.00     0.031 C 
ATOM     35  C   UNL A   1      39.183  26.754  29.359  1.00  0.00     0.029 A 
ATOM     36  N   UNL A   1      40.909  28.164  29.163  1.00  0.00    -0.354 N 
ATOM     37  C   UNL A   1      44.517  26.988  27.082  1.00  0.00     0.074 A 
ATOM     38  C   UNL A   1      44.455  25.596  26.696  1.00  0.00     0.031 C 
ATOM     39  C   UNL A   1      38.854  27.889  30.001  1.00  0.00     0.029 A 
ATOM     40  C   UNL A   1      39.957  28.841  29.884  1.00  0.00     0.049 A 
ATOM     41  H   UNL A   1      41.787  28.549  28.935  1.00  0.00     0.167 HD
ATOM     42  C   UNL A   1      45.581  27.794  26.856  1.00  0.00     0.037 A 
ATOM     43  C   UNL A   1      39.970  30.094  30.376  1.00  0.00     0.037 A 
ATOM     44  C   UNL A   1      45.632  29.180  27.236  1.00  0.00     0.049 A 
ATOM     45  C   UNL A   1      41.152  30.981  30.094  1.00  0.00     0.074 A 
ATOM     46  C   UNL A   1      46.632  30.107  26.996  1.00  0.00     0.029 A 
ATOM     47  N   UNL A   1      44.639  29.836  27.947  1.00  0.00    -0.354 N 
ATOM     48  N   UNL A   1      42.253  30.707  29.436  1.00  0.00    -0.248 NA
ATOM     49  C   UNL A   1      41.081  32.359  30.600  1.00  0.00     0.031 C 
ATOM     50  C   UNL A   1      46.261  31.314  27.600  1.00  0.00     0.029 A 
ATOM     51  C   UNL A   1      45.011  31.149  28.177  1.00  0.00     0.049 A 
ATOM     52  H   UNL A   1      43.794  29.427  28.246  1.00  0.00     0.167 HD
ATOM     53  C   UNL A   1      42.994  31.881  29.426  1.00  0.00     0.074 A 
ATOM     54  C   UNL A   1      42.210  32.874  30.132  1.00  0.00     0.031 C 
ATOM     55  C   UNL A   1      44.213  32.119  28.882  1.00  0.00     0.037 A 
BRANCH  42  56
ATOM     56  C   UNL A   1      46.769  27.196  26.158  1.00  0.00     0.057 A 
ATOM     57  C   UNL A   1      47.769  26.509  26.862  1.00  0.00     0.134 A 
ATOM     58  C   UNL A   1      46.903  27.279  24.767  1.00  0.00     0.134 A 
ATOM     59  F   UNL A   1      47.709  26.403  28.198  1.00  0.00    -0.206 F 
ATOM     60  C   UNL A   1      48.871  25.951  26.210  1.00  0.00     0.040 A 
ATOM     61  C   UNL A   1      47.986  26.702  24.101  1.00  0.00     0.040 A 
ATOM     62  F   UNL A   1      45.980  27.916  24.030  1.00  0.00    -0.206 F 
ATOM     63  C   UNL A   1      48.977  26.041  24.824  1.00  0.00     0.006 A 
ENDBRANCH  42  56
BRANCH  43  64
ATOM     64  C   UNL A   1      38.800  30.597  31.137  1.00  0.00     0.057 A 
ATOM     65  C   UNL A   1      37.752  31.265  30.495  1.00  0.00     0.134 A 
ATOM     66  C   UNL A   1      38.693  30.404  32.519  1.00  0.00     0.134 A 
ATOM     67  F   UNL A   1      37.804  31.494  29.176  1.00  0.00    -0.206 F 
ATOM     68  C   UNL A   1      36.644  31.735  31.203  1.00  0.00     0.040 A 
ATOM     69  C   UNL A   1      37.581  30.850  33.235  1.00  0.00     0.040 A 
ATOM     70  F   UNL A   1      39.662  29.763  33.190  1.00  0.00    -0.206 F 
ATOM     71  C   UNL A   1      36.554  31.522  32.577  1.00  0.00     0.006 A 
ENDBRANCH  43  64
BRANCH  55  72
ATOM     72  C   UNL A   1      44.760  33.509  29.013  1.00  0.00     0.057 A 
ATOM     73  C   UNL A   1      45.583  33.881  30.083  1.00  0.00     0.134 A 
ATOM     74  C   UNL A   1      44.488  34.477  28.037  1.00  0.00     0.134 A 
ATOM     75  F   UNL A   1      45.872  33.003  31.055  1.00  0.00    -0.206 F 
ATOM     76  C   UNL A   1      46.096  35.173  30.191  1.00  0.00     0.040 A 
ATOM     77  C   UNL A   1      45.016  35.765  28.121  1.00  0.00     0.040 A 
ATOM     78  F   UNL A   1      43.715  34.182  26.981  1.00  0.00    -0.206 F 
ATOM     79  C   UNL A   1      45.817  36.119  29.205  1.00  0.00     0.006 A 
ENDBRANCH  55  72
ENDBRANCH  29  30
ENDBRANCH  22  24
ENDBRANCH  21  22
ENDBRANCH  20  21
ENDBRANCH   1  20
TORSDOF 15
ENDMDL
MODEL 3
REMARK VINA RESULT:     -10.4      3.974      8.773
REMARK SMILES CN1CC[N@H+](CC(=O)OCCOCCOC(=O)c2ccc(-c3c4nc(c(-c5c(F)cccc5F)c5ccc([nH]5)c(-c5c(F)cccc5F)c5nc(c(-c6c(F)cccc6F)c6ccc3[nH]6)C=C5)C=C4)cc2)C(C)(C)C1=O
REMARK SMILES IDX 13 1 12 2 11 3 10 4 9 5 7 6 8 7 6 8 5 9 1 10 2 11 3 12 75 13
REMARK SMILES IDX 4 14 72 15 76 16 73 17 74 18 14 20 15 21 16 22 17 23 18 24
REMARK SMILES IDX 19 25 71 26 20 27 70 28 21 29 22 30 23 31 64 32 24 33 69 34
REMARK SMILES IDX 63 35 65 36 25 37 68 38 62 39 61 40 26 42 52 43 35 44 51 45
REMARK SMILES IDX 36 46 39 47 50 48 66 49 37 50 38 51 49 53 67 54 40 55 27 56
REMARK SMILES IDX 28 57 33 58 29 59 30 60 32 61 34 62 31 63 53 64 54 65 59 66
REMARK SMILES IDX 55 67 56 68 58 69 60 70 57 71 41 72 42 73 47 74 43 75 44 76
REMARK SMILES IDX 46 77 48 78 45 79
REMARK H PARENT 5 19 65 41 39 52
REMARK Flexibility Score: inf
ROOT
ATOM      1  C   UNL A   1      31.713  28.675  27.240  1.00  0.00     0.202 C 
ENDROOT
BRANCH   1   2
ATOM      2  O   UNL A   1      32.103  27.819  26.167  1.00  0.00    -0.374 OA
BRANCH   2   3
ATOM      3  C   UNL A   1      31.046  27.171  25.465  1.00  0.00     0.202 C 
BRANCH   3   4
ATOM      4  C   UNL A   1      30.499  25.900  26.118  1.00  0.00     0.261 C 
BRANCH   4   5
ATOM      5  O   UNL A   1      31.483  25.075  26.774  1.00  0.00    -0.459 OA
BRANCH   5   6
ATOM      6  C   UNL A   1      31.215  23.742  26.787  1.00  0.00     0.361 C 
ATOM      7  O   UNL A   1      30.200  23.250  27.273  1.00  0.00    -0.245 OA
BRANCH   6   8
ATOM      8  C   UNL A   1      32.378  22.878  26.317  1.00  0.00     0.387 C 
BRANCH   8   9
ATOM      9  N   UNL A   1      32.793  22.925  24.914  1.00  0.00    -0.312 N 
ATOM     10  C   UNL A   1      31.911  25.732  21.761  1.00  0.00     0.147 C 
ATOM     11  N   UNL A   1      32.212  24.842  22.864  1.00  0.00    -0.335 N 
ATOM     12  C   UNL A   1      31.208  23.853  23.218  1.00  0.00     0.180 C 
ATOM     13  C   UNL A   1      33.309  25.077  23.697  1.00  0.00     0.283 C 
ATOM     14  C   UNL A   1      31.768  22.621  23.923  1.00  0.00     0.285 C 
ATOM     15  C   UNL A   1      33.866  23.832  24.451  1.00  0.00     0.172 C 
ATOM     16  O   UNL A   1      33.929  26.141  23.676  1.00  0.00    -0.268 OA
ATOM     17  C   UNL A   1      34.707  23.089  23.377  1.00  0.00     0.090 C 
ATOM     18  C   UNL A   1      34.865  24.240  25.552  1.00  0.00     0.090 C 
ATOM     19  H   UNL A   1      33.377  22.093  24.992  1.00  0.00     0.349 HD
ENDBRANCH   8   9
ENDBRANCH   6   8
ENDBRANCH   5   6
ENDBRANCH   4   5
ENDBRANCH   3   4
ENDBRANCH   2   3
ENDBRANCH   1   2
BRANCH   1  20
ATOM     20  C   UNL A   1      31.786  30.169  26.914  1.00  0.00     0.261 C 
BRANCH  20  21
ATOM     21  O   UNL A   1      33.130  30.546  26.567  1.00  0.00    -0.460 OA
BRANCH  21  22
ATOM     22  C   UNL A   1      33.664  31.499  27.366  1.00  0.00     0.338 C 
ATOM     23  O   UNL A   1      33.094  32.469  27.830  1.00  0.00    -0.246 OA
BRANCH  22  24
ATOM     24  C   UNL A   1      35.045  31.142  27.737  1.00  0.00     0.060 A 
ATOM     25  C   UNL A   1      35.352  29.791  27.912  1.00  0.00     0.016 A 
ATOM     26  C   UNL A   1      35.990  32.122  28.037  1.00  0.00     0.016 A 
ATOM     27  C   UNL A   1      36.580  29.428  28.464  1.00  0.00     0.010 A 
ATOM     28  C   UNL A   1      37.234  31.759  28.556  1.00  0.00     0.010 A 
ATOM     29  C   UNL A   1      37.508  30.414  28.836  1.00  0.00    -0.014 A 
BRANCH  29  30
ATOM     30  C   UNL A   1      38.683  30.044  29.660  1.00  0.00     0.031 A 
ATOM     31  C   UNL A   1      38.794  30.581  31.063  1.00  0.00     0.074 A 
ATOM     32  C   UNL A   1      39.624  29.217  29.173  1.00  0.00     0.049 A 
ATOM     33  N   UNL A   1      39.663  30.288  31.998  1.00  0.00    -0.248 NA
ATOM     34  C   UNL A   1      37.805  31.595  31.464  1.00  0.00     0.031 C 
ATOM     35  C   UNL A   1      39.653  28.681  27.814  1.00  0.00     0.029 A 
ATOM     36  N   UNL A   1      40.735  28.684  29.773  1.00  0.00    -0.354 N 
ATOM     37  C   UNL A   1      39.319  31.072  33.093  1.00  0.00     0.074 A 
ATOM     38  C   UNL A   1      38.201  31.896  32.691  1.00  0.00     0.031 C 
ATOM     39  C   UNL A   1      40.726  27.881  27.685  1.00  0.00     0.029 A 
ATOM     40  C   UNL A   1      41.454  27.850  28.952  1.00  0.00     0.049 A 
ATOM     41  H   UNL A   1      40.994  28.879  30.702  1.00  0.00     0.167 HD
ATOM     42  C   UNL A   1      39.867  31.084  34.331  1.00  0.00     0.037 A 
ATOM     43  C   UNL A   1      42.562  27.129  29.205  1.00  0.00     0.037 A 
ATOM     44  C   UNL A   1      40.975  30.255  34.725  1.00  0.00     0.049 A 
ATOM     45  C   UNL A   1      43.143  27.138  30.593  1.00  0.00     0.074 A 
ATOM     46  C   UNL A   1      41.567  30.137  35.971  1.00  0.00     0.029 A 
ATOM     47  N   UNL A   1      41.664  29.407  33.871  1.00  0.00    -0.354 N 
ATOM     48  N   UNL A   1      42.742  27.799  31.653  1.00  0.00    -0.248 NA
ATOM     49  C   UNL A   1      44.314  26.281  30.827  1.00  0.00     0.031 C 
ATOM     50  C   UNL A   1      42.642  29.247  35.859  1.00  0.00     0.029 A 
ATOM     51  C   UNL A   1      42.690  28.780  34.555  1.00  0.00     0.049 A 
ATOM     52  H   UNL A   1      41.454  29.273  32.918  1.00  0.00     0.167 HD
ATOM     53  C   UNL A   1      43.592  27.420  32.684  1.00  0.00     0.074 A 
ATOM     54  C   UNL A   1      44.522  26.460  32.124  1.00  0.00     0.031 C 
ATOM     55  C   UNL A   1      43.603  27.828  33.976  1.00  0.00     0.037 A 
BRANCH  42  56
ATOM     56  C   UNL A   1      39.271  32.016  35.346  1.00  0.00     0.057 A 
ATOM     57  C   UNL A   1      38.332  31.575  36.290  1.00  0.00     0.134 A 
ATOM     58  C   UNL A   1      39.658  33.360  35.402  1.00  0.00     0.134 A 
ATOM     59  F   UNL A   1      37.908  30.302  36.284  1.00  0.00    -0.206 F 
ATOM     60  C   UNL A   1      37.782  32.443  37.235  1.00  0.00     0.040 A 
ATOM     61  C   UNL A   1      39.135  34.232  36.360  1.00  0.00     0.040 A 
ATOM     62  F   UNL A   1      40.556  33.848  34.534  1.00  0.00    -0.206 F 
ATOM     63  C   UNL A   1      38.189  33.775  37.276  1.00  0.00     0.006 A 
ENDBRANCH  42  56
BRANCH  43  64
ATOM     64  C   UNL A   1      43.158  26.297  28.132  1.00  0.00     0.057 A 
ATOM     65  C   UNL A   1      44.153  26.805  27.289  1.00  0.00     0.134 A 
ATOM     66  C   UNL A   1      42.761  24.969  27.936  1.00  0.00     0.134 A 
ATOM     67  F   UNL A   1      44.563  28.074  27.417  1.00  0.00    -0.206 F 
ATOM     68  C   UNL A   1      44.724  26.026  26.281  1.00  0.00     0.040 A 
ATOM     69  C   UNL A   1      43.339  24.173  26.946  1.00  0.00     0.040 A 
ATOM     70  F   UNL A   1      41.817  24.422  28.716  1.00  0.00    -0.206 F 
ATOM     71  C   UNL A   1      44.321  24.703  26.111  1.00  0.00     0.006 A 
ENDBRANCH  43  64
BRANCH  55  72
ATOM     72  C   UNL A   1      44.640  27.221  34.874  1.00  0.00     0.057 A 
ATOM     73  C   UNL A   1      44.410  26.024  35.563  1.00  0.00     0.134 A 
ATOM     74  C   UNL A   1      45.896  27.824  35.022  1.00  0.00     0.134 A 
ATOM     75  F   UNL A   1      43.224  25.404  35.470  1.00  0.00    -0.206 F 
ATOM     76  C   UNL A   1      45.384  25.460  36.387  1.00  0.00     0.040 A 
ATOM     77  C   UNL A   1      46.887  27.256  35.824  1.00  0.00     0.040 A 
ATOM     78  F   UNL A   1      46.185  28.966  34.382  1.00  0.00    -0.206 F 
ATOM     79  C   UNL A   1      46.629  26.074  36.515  1.00  0.00     0.006 A 
ENDBRANCH  55  72
ENDBRANCH  29  30
ENDBRANCH  22  24
ENDBRANCH  21  22
ENDBRANCH  20  21
ENDBRANCH   1  20
TORSDOF 15
ENDMDL
