MODEL 1
REMARK VINA RESULT:     -10.6      0.000      0.000
REMARK SMILES C[C@@H](C(=O)OCCOCCOC(=O)c1ccc(-c2c3nc(c(-c4c(F)cccc4F)c4ccc([nH]4)c(-c4c(F)cccc4F)c4nc(c(-c5c(F)cccc5F)c5ccc2[nH]5)C=C4)C=C3)cc1)c1ccc(C[C@H]2CCC[C@@H]2O)cc1
REMARK SMILES IDX 7 1 6 2 5 3 3 4 4 5 2 6 1 7 68 8 69 9 80 10 70 11 79 12
REMARK SMILES IDX 71 13 72 14 73 15 74 16 77 17 75 18 76 19 78 20 8 22 9 23
REMARK SMILES IDX 10 24 11 25 12 26 13 27 14 28 15 29 67 30 16 31 66 32 17 33
REMARK SMILES IDX 18 34 19 35 60 36 20 37 65 38 59 39 61 40 21 41 64 42 58 43
REMARK SMILES IDX 57 44 22 46 48 47 31 48 47 49 32 50 35 51 46 52 62 53 33 54
REMARK SMILES IDX 34 55 45 57 63 58 36 59 23 60 24 61 29 62 25 63 26 64 28 65
REMARK SMILES IDX 30 66 27 67 49 68 50 69 55 70 51 71 52 72 54 73 56 74 53 75
REMARK SMILES IDX 37 76 38 77 43 78 39 79 40 80 42 81 44 82 41 83
REMARK H PARENT 78 21 61 45 35 56
REMARK Flexibility Score: inf
ROOT
ATOM      1  C   UNL A   1      45.248  20.295  24.800  1.00  0.00     0.202 C 
ENDROOT
BRANCH   1   2
ATOM      2  C   UNL A   1      43.921  19.669  25.236  1.00  0.00     0.261 C 
BRANCH   2   3
ATOM      3  O   UNL A   1      42.873  20.652  25.204  1.00  0.00    -0.463 OA
BRANCH   3   4
ATOM      4  C   UNL A   1      41.960  20.574  26.209  1.00  0.00     0.313 C 
ATOM      5  O   UNL A   1      41.534  19.521  26.671  1.00  0.00    -0.252 OA
BRANCH   4   6
ATOM      6  C   UNL A   1      41.564  21.949  26.752  1.00  0.00     0.126 C 
ATOM      7  C   UNL A   1      41.788  22.148  28.256  1.00  0.00     0.025 C 
BRANCH   6   8
ATOM      8  C   UNL A   1      40.137  22.344  26.383  1.00  0.00    -0.034 A 
ATOM      9  C   UNL A   1      39.703  23.653  26.628  1.00  0.00     0.005 A 
ATOM     10  C   UNL A   1      39.217  21.435  25.839  1.00  0.00     0.005 A 
ATOM     11  C   UNL A   1      38.390  24.039  26.344  1.00  0.00     0.004 A 
ATOM     12  C   UNL A   1      37.895  21.814  25.585  1.00  0.00     0.004 A 
ATOM     13  C   UNL A   1      37.460  23.117  25.852  1.00  0.00    -0.048 A 
BRANCH  13  14
ATOM     14  C   UNL A   1      36.025  23.509  25.586  1.00  0.00     0.041 C 
BRANCH  14  15
ATOM     15  C   UNL A   1      35.257  22.684  24.538  1.00  0.00     0.022 C 
ATOM     16  C   UNL A   1      34.565  21.415  25.062  1.00  0.00     0.007 C 
ATOM     17  C   UNL A   1      34.168  23.431  23.762  1.00  0.00     0.117 C 
ATOM     18  C   UNL A   1      33.238  21.310  24.303  1.00  0.00     0.003 C 
ATOM     19  C   UNL A   1      33.345  22.303  23.159  1.00  0.00     0.032 C 
BRANCH  17  20
ATOM     20  O   UNL A   1      34.709  24.251  22.742  1.00  0.00    -0.393 OA
ATOM     21  H   UNL A   1      35.574  23.905  22.474  1.00  0.00     0.210 HD
ENDBRANCH  17  20
ENDBRANCH  14  15
ENDBRANCH  13  14
ENDBRANCH   6   8
ENDBRANCH   4   6
ENDBRANCH   3   4
ENDBRANCH   2   3
ENDBRANCH   1   2
BRANCH   1  22
ATOM     22  O   UNL A   1      45.883  21.143  25.760  1.00  0.00    -0.374 OA
BRANCH  22  23
ATOM     23  C   UNL A   1      45.919  22.542  25.471  1.00  0.00     0.202 C 
BRANCH  23  24
ATOM     24  C   UNL A   1      45.155  23.010  24.228  1.00  0.00     0.261 C 
BRANCH  24  25
ATOM     25  O   UNL A   1      44.257  24.092  24.527  1.00  0.00    -0.460 OA
BRANCH  25  26
ATOM     26  C   UNL A   1      44.856  25.209  25.000  1.00  0.00     0.338 C 
ATOM     27  O   UNL A   1      45.919  25.693  24.635  1.00  0.00    -0.246 OA
BRANCH  26  28
ATOM     28  C   UNL A   1      43.953  25.911  25.927  1.00  0.00     0.060 A 
ATOM     29  C   UNL A   1      44.064  27.306  25.998  1.00  0.00     0.016 A 
ATOM     30  C   UNL A   1      43.067  25.224  26.761  1.00  0.00     0.016 A 
ATOM     31  C   UNL A   1      43.334  28.017  26.944  1.00  0.00     0.010 A 
ATOM     32  C   UNL A   1      42.340  25.939  27.719  1.00  0.00     0.010 A 
ATOM     33  C   UNL A   1      42.502  27.331  27.840  1.00  0.00    -0.014 A 
BRANCH  33  34
ATOM     34  C   UNL A   1      41.940  28.058  29.002  1.00  0.00     0.031 A 
ATOM     35  C   UNL A   1      42.673  28.003  30.314  1.00  0.00     0.074 A 
ATOM     36  C   UNL A   1      40.822  28.794  28.879  1.00  0.00     0.049 A 
ATOM     37  N   UNL A   1      42.366  28.553  31.460  1.00  0.00    -0.248 NA
ATOM     38  C   UNL A   1      43.921  27.222  30.335  1.00  0.00     0.031 C 
ATOM     39  C   UNL A   1      40.051  28.959  27.649  1.00  0.00     0.029 A 
ATOM     40  N   UNL A   1      40.143  29.539  29.808  1.00  0.00    -0.354 N 
ATOM     41  C   UNL A   1      43.376  28.181  32.339  1.00  0.00     0.074 A 
ATOM     42  C   UNL A   1      44.291  27.336  31.602  1.00  0.00     0.031 C 
ATOM     43  C   UNL A   1      38.996  29.755  27.901  1.00  0.00     0.029 A 
ATOM     44  C   UNL A   1      39.006  30.129  29.314  1.00  0.00     0.049 A 
ATOM     45  H   UNL A   1      40.442  29.642  30.740  1.00  0.00     0.167 HD
ATOM     46  C   UNL A   1      43.532  28.520  33.640  1.00  0.00     0.037 A 
ATOM     47  C   UNL A   1      38.072  30.873  29.939  1.00  0.00     0.037 A 
ATOM     48  C   UNL A   1      42.624  29.365  34.370  1.00  0.00     0.049 A 
ATOM     49  C   UNL A   1      38.232  31.179  31.404  1.00  0.00     0.074 A 
ATOM     50  C   UNL A   1      42.706  29.788  35.684  1.00  0.00     0.029 A 
ATOM     51  N   UNL A   1      41.462  29.910  33.845  1.00  0.00    -0.354 N 
ATOM     52  N   UNL A   1      39.203  30.844  32.219  1.00  0.00    -0.248 NA
ATOM     53  C   UNL A   1      37.164  31.967  32.036  1.00  0.00     0.031 C 
ATOM     54  C   UNL A   1      41.569  30.550  35.969  1.00  0.00     0.029 A 
ATOM     55  C   UNL A   1      40.803  30.642  34.817  1.00  0.00     0.049 A 
ATOM     56  H   UNL A   1      41.151  29.793  32.918  1.00  0.00     0.167 HD
ATOM     57  C   UNL A   1      38.879  31.403  33.449  1.00  0.00     0.074 A 
ATOM     58  C   UNL A   1      37.626  32.107  33.271  1.00  0.00     0.031 C 
ATOM     59  C   UNL A   1      39.560  31.342  34.620  1.00  0.00     0.037 A 
BRANCH  46  60
ATOM     60  C   UNL A   1      44.717  27.952  34.365  1.00  0.00     0.057 A 
ATOM     61  C   UNL A   1      44.690  26.676  34.942  1.00  0.00     0.134 A 
ATOM     62  C   UNL A   1      45.907  28.683  34.465  1.00  0.00     0.134 A 
ATOM     63  F   UNL A   1      43.574  25.931  34.895  1.00  0.00    -0.206 F 
ATOM     64  C   UNL A   1      45.799  26.155  35.612  1.00  0.00     0.040 A 
ATOM     65  C   UNL A   1      47.030  28.163  35.111  1.00  0.00     0.040 A 
ATOM     66  F   UNL A   1      45.999  29.910  33.932  1.00  0.00    -0.206 F 
ATOM     67  C   UNL A   1      46.975  26.898  35.691  1.00  0.00     0.006 A 
ENDBRANCH  46  60
BRANCH  47  68
ATOM     68  C   UNL A   1      36.896  31.373  29.185  1.00  0.00     0.057 A 
ATOM     69  C   UNL A   1      35.810  30.539  28.899  1.00  0.00     0.134 A 
ATOM     70  C   UNL A   1      36.837  32.692  28.719  1.00  0.00     0.134 A 
ATOM     71  F   UNL A   1      35.818  29.258  29.299  1.00  0.00    -0.206 F 
ATOM     72  C   UNL A   1      34.713  30.992  28.163  1.00  0.00     0.040 A 
ATOM     73  C   UNL A   1      35.738  33.166  28.002  1.00  0.00     0.040 A 
ATOM     74  F   UNL A   1      37.846  33.541  28.960  1.00  0.00    -0.206 F 
ATOM     75  C   UNL A   1      34.673  32.313  27.717  1.00  0.00     0.006 A 
ENDBRANCH  47  68
BRANCH  59  76
ATOM     76  C   UNL A   1      38.982  32.083  35.791  1.00  0.00     0.057 A 
ATOM     77  C   UNL A   1      38.147  31.456  36.724  1.00  0.00     0.134 A 
ATOM     78  C   UNL A   1      39.300  33.430  36.007  1.00  0.00     0.134 A 
ATOM     79  F   UNL A   1      37.795  30.171  36.566  1.00  0.00    -0.206 F 
ATOM     80  C   UNL A   1      37.632  32.148  37.821  1.00  0.00     0.040 A 
ATOM     81  C   UNL A   1      38.812  34.125  37.114  1.00  0.00     0.040 A 
ATOM     82  F   UNL A   1      40.102  34.087  35.157  1.00  0.00    -0.206 F 
ATOM     83  C   UNL A   1      37.970  33.486  38.022  1.00  0.00     0.006 A 
ENDBRANCH  59  76
ENDBRANCH  33  34
ENDBRANCH  26  28
ENDBRANCH  25  26
ENDBRANCH  24  25
ENDBRANCH  23  24
ENDBRANCH  22  23
ENDBRANCH   1  22
TORSDOF 18
ENDMDL
MODEL 2
REMARK VINA RESULT:     -10.6      4.015      9.506
REMARK SMILES C[C@@H](C(=O)OCCOCCOC(=O)c1ccc(-c2c3nc(c(-c4c(F)cccc4F)c4ccc([nH]4)c(-c4c(F)cccc4F)c4nc(c(-c5c(F)cccc5F)c5ccc2[nH]5)C=C4)C=C3)cc1)c1ccc(C[C@H]2CCC[C@@H]2O)cc1
REMARK SMILES IDX 7 1 6 2 5 3 3 4 4 5 2 6 1 7 68 8 69 9 80 10 70 11 79 12
REMARK SMILES IDX 71 13 72 14 73 15 74 16 77 17 75 18 76 19 78 20 8 22 9 23
REMARK SMILES IDX 10 24 11 25 12 26 13 27 14 28 15 29 67 30 16 31 66 32 17 33
REMARK SMILES IDX 18 34 19 35 60 36 20 37 65 38 59 39 61 40 21 41 64 42 58 43
REMARK SMILES IDX 57 44 22 46 48 47 31 48 47 49 32 50 35 51 46 52 62 53 33 54
REMARK SMILES IDX 34 55 45 57 63 58 36 59 23 60 24 61 29 62 25 63 26 64 28 65
REMARK SMILES IDX 30 66 27 67 49 68 50 69 55 70 51 71 52 72 54 73 56 74 53 75
REMARK SMILES IDX 37 76 38 77 43 78 39 79 40 80 42 81 44 82 41 83
REMARK H PARENT 78 21 61 45 35 56
REMARK Flexibility Score: inf
ROOT
ATOM      1  C   UNL A   1      33.306  29.367  26.173  1.00  0.00     0.202 C 
ENDROOT
BRANCH   1   2
ATOM      2  C   UNL A   1      32.463  28.301  26.877  1.00  0.00     0.261 C 
BRANCH   2   3
ATOM      3  O   UNL A   1      32.964  26.989  26.572  1.00  0.00    -0.463 OA
BRANCH   3   4
ATOM      4  C   UNL A   1      32.037  26.083  26.161  1.00  0.00     0.313 C 
ATOM      5  O   UNL A   1      31.291  25.471  26.918  1.00  0.00    -0.252 OA
BRANCH   4   6
ATOM      6  C   UNL A   1      31.975  25.954  24.638  1.00  0.00     0.126 C 
ATOM      7  C   UNL A   1      33.321  26.089  23.914  1.00  0.00     0.025 C 
BRANCH   6   8
ATOM      8  C   UNL A   1      30.949  26.890  24.004  1.00  0.00    -0.034 A 
ATOM      9  C   UNL A   1      29.585  26.599  24.131  1.00  0.00     0.005 A 
ATOM     10  C   UNL A   1      31.316  28.020  23.259  1.00  0.00     0.005 A 
ATOM     11  C   UNL A   1      28.619  27.408  23.527  1.00  0.00     0.004 A 
ATOM     12  C   UNL A   1      30.350  28.812  22.629  1.00  0.00     0.004 A 
ATOM     13  C   UNL A   1      28.989  28.505  22.741  1.00  0.00    -0.048 A 
BRANCH  13  14
ATOM     14  C   UNL A   1      27.957  29.360  22.043  1.00  0.00     0.041 C 
BRANCH  14  15
ATOM     15  C   UNL A   1      27.875  30.838  22.462  1.00  0.00     0.022 C 
ATOM     16  C   UNL A   1      28.446  31.174  23.850  1.00  0.00     0.007 C 
ATOM     17  C   UNL A   1      28.538  31.842  21.514  1.00  0.00     0.117 C 
ATOM     18  C   UNL A   1      29.130  32.537  23.710  1.00  0.00     0.003 C 
ATOM     19  C   UNL A   1      28.665  33.090  22.374  1.00  0.00     0.032 C 
BRANCH  17  20
ATOM     20  O   UNL A   1      27.740  32.105  20.374  1.00  0.00    -0.393 OA
ATOM     21  H   UNL A   1      26.806  32.132  20.633  1.00  0.00     0.210 HD
ENDBRANCH  17  20
ENDBRANCH  14  15
ENDBRANCH  13  14
ENDBRANCH   6   8
ENDBRANCH   4   6
ENDBRANCH   3   4
ENDBRANCH   2   3
ENDBRANCH   1   2
BRANCH   1  22
ATOM     22  O   UNL A   1      32.599  30.521  25.714  1.00  0.00    -0.374 OA
BRANCH  22  23
ATOM     23  C   UNL A   1      31.510  30.980  26.518  1.00  0.00     0.202 C 
BRANCH  23  24
ATOM     24  C   UNL A   1      31.491  32.471  26.869  1.00  0.00     0.261 C 
BRANCH  24  25
ATOM     25  O   UNL A   1      32.787  33.074  26.715  1.00  0.00    -0.460 OA
BRANCH  25  26
ATOM     26  C   UNL A   1      33.312  33.582  27.854  1.00  0.00     0.338 C 
ATOM     27  O   UNL A   1      32.787  34.376  28.624  1.00  0.00    -0.246 OA
BRANCH  26  28
ATOM     28  C   UNL A   1      34.577  32.900  28.174  1.00  0.00     0.060 A 
ATOM     29  C   UNL A   1      34.504  31.547  28.530  1.00  0.00     0.016 A 
ATOM     30  C   UNL A   1      35.798  33.578  28.198  1.00  0.00     0.016 A 
ATOM     31  C   UNL A   1      35.642  30.879  28.970  1.00  0.00     0.010 A 
ATOM     32  C   UNL A   1      36.941  32.908  28.650  1.00  0.00     0.010 A 
ATOM     33  C   UNL A   1      36.857  31.569  29.075  1.00  0.00    -0.014 A 
BRANCH  33  34
ATOM     34  C   UNL A   1      37.989  30.931  29.785  1.00  0.00     0.031 A 
ATOM     35  C   UNL A   1      38.211  31.260  31.236  1.00  0.00     0.074 A 
ATOM     36  C   UNL A   1      38.778  30.038  29.164  1.00  0.00     0.049 A 
ATOM     37  N   UNL A   1      39.137  30.830  32.053  1.00  0.00    -0.248 NA
ATOM     38  C   UNL A   1      37.259  32.203  31.847  1.00  0.00     0.031 C 
ATOM     39  C   UNL A   1      38.633  29.606  27.776  1.00  0.00     0.029 A 
ATOM     40  N   UNL A   1      39.861  29.335  29.627  1.00  0.00    -0.354 N 
ATOM     41  C   UNL A   1      38.884  31.451  33.270  1.00  0.00     0.074 A 
ATOM     42  C   UNL A   1      37.736  32.310  33.078  1.00  0.00     0.031 C 
ATOM     43  C   UNL A   1      39.599  28.712  27.496  1.00  0.00     0.029 A 
ATOM     44  C   UNL A   1      40.442  28.534  28.676  1.00  0.00     0.049 A 
ATOM     45  H   UNL A   1      40.190  29.399  30.553  1.00  0.00     0.167 HD
ATOM     46  C   UNL A   1      39.544  31.312  34.444  1.00  0.00     0.037 A 
ATOM     47  C   UNL A   1      41.540  27.756  28.750  1.00  0.00     0.037 A 
ATOM     48  C   UNL A   1      40.683  30.453  34.634  1.00  0.00     0.049 A 
ATOM     49  C   UNL A   1      42.298  27.672  30.047  1.00  0.00     0.074 A 
ATOM     50  C   UNL A   1      41.407  30.224  35.790  1.00  0.00     0.029 A 
ATOM     51  N   UNL A   1      41.267  29.688  33.636  1.00  0.00    -0.354 N 
ATOM     52  N   UNL A   1      42.037  28.244  31.199  1.00  0.00    -0.248 NA
ATOM     53  C   UNL A   1      43.506  26.834  30.056  1.00  0.00     0.031 C 
ATOM     54  C   UNL A   1      42.459  29.356  35.480  1.00  0.00     0.029 A 
ATOM     55  C   UNL A   1      42.360  29.007  34.142  1.00  0.00     0.049 A 
ATOM     56  H   UNL A   1      40.951  29.637  32.704  1.00  0.00     0.167 HD
ATOM     57  C   UNL A   1      43.026  27.812  32.073  1.00  0.00     0.074 A 
ATOM     58  C   UNL A   1      43.889  26.924  31.322  1.00  0.00     0.031 C 
ATOM     59  C   UNL A   1      43.204  28.121  33.381  1.00  0.00     0.037 A 
BRANCH  46  60
ATOM     60  C   UNL A   1      39.065  32.130  35.607  1.00  0.00     0.057 A 
ATOM     61  C   UNL A   1      38.228  31.595  36.594  1.00  0.00     0.134 A 
ATOM     62  C   UNL A   1      39.467  33.464  35.752  1.00  0.00     0.134 A 
ATOM     63  F   UNL A   1      37.794  30.328  36.506  1.00  0.00    -0.206 F 
ATOM     64  C   UNL A   1      37.791  32.365  37.675  1.00  0.00     0.040 A 
ATOM     65  C   UNL A   1      39.056  34.236  36.839  1.00  0.00     0.040 A 
ATOM     66  F   UNL A   1      40.269  34.036  34.842  1.00  0.00    -0.206 F 
ATOM     67  C   UNL A   1      38.210  33.687  37.802  1.00  0.00     0.006 A 
ENDBRANCH  46  60
BRANCH  47  68
ATOM     68  C   UNL A   1      41.997  27.002  27.557  1.00  0.00     0.057 A 
ATOM     69  C   UNL A   1      42.936  27.545  26.672  1.00  0.00     0.134 A 
ATOM     70  C   UNL A   1      41.495  25.729  27.263  1.00  0.00     0.134 A 
ATOM     71  F   UNL A   1      43.436  28.771  26.887  1.00  0.00    -0.206 F 
ATOM     72  C   UNL A   1      43.347  26.856  25.529  1.00  0.00     0.040 A 
ATOM     73  C   UNL A   1      41.913  25.019  26.137  1.00  0.00     0.040 A 
ATOM     74  F   UNL A   1      40.592  25.154  28.072  1.00  0.00    -0.206 F 
ATOM     75  C   UNL A   1      42.839  25.585  25.263  1.00  0.00     0.006 A 
ENDBRANCH  47  68
BRANCH  59  76
ATOM     76  C   UNL A   1      44.353  27.469  34.092  1.00  0.00     0.057 A 
ATOM     77  C   UNL A   1      44.234  26.209  34.690  1.00  0.00     0.134 A 
ATOM     78  C   UNL A   1      45.606  28.094  34.142  1.00  0.00     0.134 A 
ATOM     79  F   UNL A   1      43.057  25.563  34.687  1.00  0.00    -0.206 F 
ATOM     80  C   UNL A   1      45.316  25.600  35.330  1.00  0.00     0.040 A 
ATOM     81  C   UNL A   1      46.700  27.485  34.757  1.00  0.00     0.040 A 
ATOM     82  F   UNL A   1      45.790  29.298  33.581  1.00  0.00    -0.206 F 
ATOM     83  C   UNL A   1      46.555  26.237  35.359  1.00  0.00     0.006 A 
ENDBRANCH  59  76
ENDBRANCH  33  34
ENDBRANCH  26  28
ENDBRANCH  25  26
ENDBRANCH  24  25
ENDBRANCH  23  24
ENDBRANCH  22  23
ENDBRANCH   1  22
TORSDOF 18
ENDMDL
MODEL 3
REMARK VINA RESULT:     -10.6      4.003      9.510
REMARK SMILES C[C@@H](C(=O)OCCOCCOC(=O)c1ccc(-c2c3nc(c(-c4c(F)cccc4F)c4ccc([nH]4)c(-c4c(F)cccc4F)c4nc(c(-c5c(F)cccc5F)c5ccc2[nH]5)C=C4)C=C3)cc1)c1ccc(C[C@H]2CCC[C@@H]2O)cc1
REMARK SMILES IDX 7 1 6 2 5 3 3 4 4 5 2 6 1 7 68 8 69 9 80 10 70 11 79 12
REMARK SMILES IDX 71 13 72 14 73 15 74 16 77 17 75 18 76 19 78 20 8 22 9 23
REMARK SMILES IDX 10 24 11 25 12 26 13 27 14 28 15 29 67 30 16 31 66 32 17 33
REMARK SMILES IDX 18 34 19 35 60 36 20 37 65 38 59 39 61 40 21 41 64 42 58 43
REMARK SMILES IDX 57 44 22 46 48 47 31 48 47 49 32 50 35 51 46 52 62 53 33 54
REMARK SMILES IDX 34 55 45 57 63 58 36 59 23 60 24 61 29 62 25 63 26 64 28 65
REMARK SMILES IDX 30 66 27 67 49 68 50 69 55 70 51 71 52 72 54 73 56 74 53 75
REMARK SMILES IDX 37 76 38 77 43 78 39 79 40 80 42 81 44 82 41 83
REMARK H PARENT 78 21 61 45 35 56
REMARK Flexibility Score: inf
ROOT
ATOM      1  C   UNL A   1      33.345  29.291  26.258  1.00  0.00     0.202 C 
ENDROOT
BRANCH   1   2
ATOM      2  C   UNL A   1      32.437  28.202  26.835  1.00  0.00     0.261 C 
BRANCH   2   3
ATOM      3  O   UNL A   1      32.949  26.901  26.503  1.00  0.00    -0.463 OA
BRANCH   3   4
ATOM      4  C   UNL A   1      32.029  25.996  26.072  1.00  0.00     0.313 C 
ATOM      5  O   UNL A   1      31.291  25.360  26.815  1.00  0.00    -0.252 OA
BRANCH   4   6
ATOM      6  C   UNL A   1      31.966  25.903  24.546  1.00  0.00     0.126 C 
ATOM      7  C   UNL A   1      33.312  26.049  23.825  1.00  0.00     0.025 C 
BRANCH   6   8
ATOM      8  C   UNL A   1      30.944  26.858  23.935  1.00  0.00    -0.034 A 
ATOM      9  C   UNL A   1      29.578  26.600  24.104  1.00  0.00     0.005 A 
ATOM     10  C   UNL A   1      31.315  27.973  23.170  1.00  0.00     0.005 A 
ATOM     11  C   UNL A   1      28.614  27.428  23.523  1.00  0.00     0.004 A 
ATOM     12  C   UNL A   1      30.349  28.783  22.563  1.00  0.00     0.004 A 
ATOM     13  C   UNL A   1      28.986  28.509  22.716  1.00  0.00    -0.048 A 
BRANCH  13  14
ATOM     14  C   UNL A   1      27.954  29.383  22.042  1.00  0.00     0.041 C 
BRANCH  14  15
ATOM     15  C   UNL A   1      27.891  30.856  22.481  1.00  0.00     0.022 C 
ATOM     16  C   UNL A   1      28.469  31.167  23.872  1.00  0.00     0.007 C 
ATOM     17  C   UNL A   1      28.563  31.865  21.545  1.00  0.00     0.117 C 
ATOM     18  C   UNL A   1      29.170  32.523  23.748  1.00  0.00     0.003 C 
ATOM     19  C   UNL A   1      28.708  33.099  22.421  1.00  0.00     0.032 C 
BRANCH  17  20
ATOM     20  O   UNL A   1      27.765  32.152  20.410  1.00  0.00    -0.393 OA
ATOM     21  H   UNL A   1      27.520  31.323  19.970  1.00  0.00     0.210 HD
ENDBRANCH  17  20
ENDBRANCH  14  15
ENDBRANCH  13  14
ENDBRANCH   6   8
ENDBRANCH   4   6
ENDBRANCH   3   4
ENDBRANCH   2   3
ENDBRANCH   1   2
BRANCH   1  22
ATOM     22  O   UNL A   1      32.685  30.464  25.776  1.00  0.00    -0.374 OA
BRANCH  22  23
ATOM     23  C   UNL A   1      31.554  30.926  26.517  1.00  0.00     0.202 C 
BRANCH  23  24
ATOM     24  C   UNL A   1      31.495  32.426  26.822  1.00  0.00     0.261 C 
BRANCH  24  25
ATOM     25  O   UNL A   1      32.779  33.055  26.674  1.00  0.00    -0.460 OA
BRANCH  25  26
ATOM     26  C   UNL A   1      33.255  33.638  27.798  1.00  0.00     0.338 C 
ATOM     27  O   UNL A   1      32.699  34.482  28.490  1.00  0.00    -0.246 OA
BRANCH  26  28
ATOM     28  C   UNL A   1      34.503  32.980  28.218  1.00  0.00     0.060 A 
ATOM     29  C   UNL A   1      34.407  31.666  28.693  1.00  0.00     0.016 A 
ATOM     30  C   UNL A   1      35.729  33.650  28.219  1.00  0.00     0.016 A 
ATOM     31  C   UNL A   1      35.526  31.034  29.226  1.00  0.00     0.010 A 
ATOM     32  C   UNL A   1      36.851  33.017  28.764  1.00  0.00     0.010 A 
ATOM     33  C   UNL A   1      36.743  31.723  29.306  1.00  0.00    -0.014 A 
BRANCH  33  34
ATOM     34  C   UNL A   1      37.847  31.146  30.107  1.00  0.00     0.031 A 
ATOM     35  C   UNL A   1      38.772  30.154  29.455  1.00  0.00     0.074 A 
ATOM     36  C   UNL A   1      38.052  31.532  31.377  1.00  0.00     0.049 A 
ATOM     37  N   UNL A   1      39.796  29.517  29.961  1.00  0.00    -0.248 NA
ATOM     38  C   UNL A   1      38.504  29.839  28.042  1.00  0.00     0.031 C 
ATOM     39  C   UNL A   1      37.251  32.517  32.100  1.00  0.00     0.029 A 
ATOM     40  N   UNL A   1      39.003  31.137  32.283  1.00  0.00    -0.354 N 
ATOM     41  C   UNL A   1      40.290  28.724  28.933  1.00  0.00     0.074 A 
ATOM     42  C   UNL A   1      39.438  28.936  27.784  1.00  0.00     0.031 C 
ATOM     43  C   UNL A   1      37.742  32.647  33.346  1.00  0.00     0.029 A 
ATOM     44  C   UNL A   1      38.871  31.733  33.513  1.00  0.00     0.049 A 
ATOM     45  H   UNL A   1      39.712  30.488  32.073  1.00  0.00     0.167 HD
ATOM     46  C   UNL A   1      41.364  27.898  28.945  1.00  0.00     0.037 A 
ATOM     47  C   UNL A   1      39.575  31.550  34.646  1.00  0.00     0.037 A 
ATOM     48  C   UNL A   1      42.213  27.692  30.087  1.00  0.00     0.049 A 
ATOM     49  C   UNL A   1      40.721  30.574  34.653  1.00  0.00     0.074 A 
ATOM     50  C   UNL A   1      43.339  26.896  30.193  1.00  0.00     0.029 A 
ATOM     51  N   UNL A   1      42.023  28.285  31.326  1.00  0.00    -0.354 N 
ATOM     52  N   UNL A   1      41.196  29.847  33.670  1.00  0.00    -0.248 NA
ATOM     53  C   UNL A   1      41.429  30.392  35.929  1.00  0.00     0.031 C 
ATOM     54  C   UNL A   1      43.803  26.969  31.510  1.00  0.00     0.029 A 
ATOM     55  C   UNL A   1      42.994  27.849  32.212  1.00  0.00     0.049 A 
ATOM     56  H   UNL A   1      41.303  28.920  31.545  1.00  0.00     0.167 HD
ATOM     57  C   UNL A   1      42.273  29.148  34.199  1.00  0.00     0.074 A 
ATOM     58  C   UNL A   1      42.388  29.543  35.587  1.00  0.00     0.031 C 
ATOM     59  C   UNL A   1      43.097  28.259  33.589  1.00  0.00     0.037 A 
BRANCH  46  60
ATOM     60  C   UNL A   1      41.661  27.135  27.687  1.00  0.00     0.057 A 
ATOM     61  C   UNL A   1      41.160  25.845  27.468  1.00  0.00     0.134 A 
ATOM     62  C   UNL A   1      42.439  27.709  26.674  1.00  0.00     0.134 A 
ATOM     63  F   UNL A   1      40.422  25.233  28.406  1.00  0.00    -0.206 F 
ATOM     64  C   UNL A   1      41.440  25.145  26.292  1.00  0.00     0.040 A 
ATOM     65  C   UNL A   1      42.706  27.028  25.485  1.00  0.00     0.040 A 
ATOM     66  F   UNL A   1      42.947  28.941  26.821  1.00  0.00    -0.206 F 
ATOM     67  C   UNL A   1      42.210  25.740  25.295  1.00  0.00     0.006 A 
ENDBRANCH  46  60
BRANCH  47  68
ATOM     68  C   UNL A   1      39.211  32.297  35.876  1.00  0.00     0.057 A 
ATOM     69  C   UNL A   1      38.323  31.760  36.814  1.00  0.00     0.134 A 
ATOM     70  C   UNL A   1      39.728  33.573  36.133  1.00  0.00     0.134 A 
ATOM     71  F   UNL A   1      37.775  30.552  36.612  1.00  0.00    -0.206 F 
ATOM     72  C   UNL A   1      37.950  32.470  37.957  1.00  0.00     0.040 A 
ATOM     73  C   UNL A   1      39.383  34.284  37.282  1.00  0.00     0.040 A 
ATOM     74  F   UNL A   1      40.584  34.142  35.272  1.00  0.00    -0.206 F 
ATOM     75  C   UNL A   1      38.486  33.735  38.196  1.00  0.00     0.006 A 
ENDBRANCH  47  68
BRANCH  59  76
ATOM     76  C   UNL A   1      44.213  27.680  34.409  1.00  0.00     0.057 A 
ATOM     77  C   UNL A   1      44.077  26.465  35.090  1.00  0.00     0.134 A 
ATOM     78  C   UNL A   1      45.452  28.329  34.482  1.00  0.00     0.134 A 
ATOM     79  F   UNL A   1      42.911  25.800  35.069  1.00  0.00    -0.206 F 
ATOM     80  C   UNL A   1      45.128  25.924  35.832  1.00  0.00     0.040 A 
ATOM     81  C   UNL A   1      46.518  27.786  35.200  1.00  0.00     0.040 A 
ATOM     82  F   UNL A   1      45.651  29.492  33.845  1.00  0.00    -0.206 F 
ATOM     83  C   UNL A   1      46.356  26.582  35.882  1.00  0.00     0.006 A 
ENDBRANCH  59  76
ENDBRANCH  33  34
ENDBRANCH  26  28
ENDBRANCH  25  26
ENDBRANCH  24  25
ENDBRANCH  23  24
ENDBRANCH  22  23
ENDBRANCH   1  22
TORSDOF 18
ENDMDL
