MODEL 1
REMARK VINA RESULT:     -10.9      0.000      0.000
REMARK SMILES Cc1ccc(C(=O)[C@@H](C)[C@H](C)C(=O)OCCOCCOC(=O)c2ccc(-c3c4nc(c(-c5c(F)cccc5F)c5ccc([nH]5)c(-c5c(F)cccc5F)c5nc(c(-c6c(F)cccc6F)c6ccc3[nH]6)C=C5)C=C4)cc2)cc1
REMARK SMILES IDX 16 1 15 2 14 3 12 4 13 5 10 6 11 7 8 8 9 9 6 10 7 11 5 12
REMARK SMILES IDX 1 13 2 14 3 15 78 16 4 17 77 18 17 19 18 20 19 21 20 22
REMARK SMILES IDX 21 23 22 24 23 25 24 26 76 27 25 28 75 29 26 30 27 31 28 32
REMARK SMILES IDX 69 33 29 34 74 35 68 36 70 37 30 38 73 39 67 40 66 41 31 43
REMARK SMILES IDX 57 44 40 45 56 46 41 47 44 48 55 49 71 50 42 51 43 52 54 54
REMARK SMILES IDX 72 55 45 56 32 57 33 58 38 59 34 60 35 61 37 62 39 63 36 64
REMARK SMILES IDX 58 65 59 66 64 67 60 68 61 69 63 70 65 71 62 72 46 73 47 74
REMARK SMILES IDX 52 75 48 76 49 77 51 78 53 79 50 80
REMARK H PARENT 70 42 44 53
REMARK Flexibility Score: inf
ROOT
ATOM      1  C   UNL A   1      40.924  19.931  26.329  1.00  0.00     0.202 C 
ENDROOT
BRANCH   1   2
ATOM      2  C   UNL A   1      39.579  20.063  25.653  1.00  0.00     0.261 C 
BRANCH   2   3
ATOM      3  O   UNL A   1      38.867  21.231  26.059  1.00  0.00    -0.463 OA
BRANCH   3   4
ATOM      4  C   UNL A   1      37.789  21.573  25.304  1.00  0.00     0.309 C 
ATOM      5  O   UNL A   1      37.412  21.012  24.305  1.00  0.00    -0.252 OA
BRANCH   4   6
ATOM      6  C   UNL A   1      37.030  22.689  26.007  1.00  0.00     0.106 C 
ATOM      7  C   UNL A   1      37.812  24.000  25.969  1.00  0.00     0.021 C 
BRANCH   6   8
ATOM      8  C   UNL A   1      35.528  22.776  25.675  1.00  0.00     0.072 C 
ATOM      9  C   UNL A   1      34.822  21.439  25.940  1.00  0.00     0.017 C 
BRANCH   8  10
ATOM     10  C   UNL A   1      34.857  23.464  24.454  1.00  0.00     0.166 C 
ATOM     11  O   UNL A   1      34.866  22.825  23.390  1.00  0.00    -0.294 OA
BRANCH  10  12
ATOM     12  C   UNL A   1      34.299  24.862  24.353  1.00  0.00     0.018 A 
ATOM     13  C   UNL A   1      32.685  28.909  24.359  1.00  0.00     0.044 C 
ATOM     14  C   UNL A   1      33.242  27.516  24.369  1.00  0.00    -0.051 A 
ATOM     15  C   UNL A   1      33.757  26.948  25.534  1.00  0.00     0.004 A 
ATOM     16  C   UNL A   1      33.323  26.781  23.191  1.00  0.00     0.004 A 
ATOM     17  C   UNL A   1      34.258  25.636  25.527  1.00  0.00     0.012 A 
ATOM     18  C   UNL A   1      33.884  25.495  23.190  1.00  0.00     0.012 A 
ENDBRANCH  10  12
ENDBRANCH   8  10
ENDBRANCH   6   8
ENDBRANCH   4   6
ENDBRANCH   3   4
ENDBRANCH   2   3
ENDBRANCH   1   2
BRANCH   1  19
ATOM     19  O   UNL A   1      41.811  19.294  25.424  1.00  0.00    -0.374 OA
BRANCH  19  20
ATOM     20  C   UNL A   1      42.870  18.564  26.029  1.00  0.00     0.202 C 
BRANCH  20  21
ATOM     21  C   UNL A   1      44.193  18.609  25.248  1.00  0.00     0.261 C 
BRANCH  21  22
ATOM     22  O   UNL A   1      44.224  19.795  24.427  1.00  0.00    -0.460 OA
BRANCH  22  23
ATOM     23  C   UNL A   1      45.028  20.804  24.864  1.00  0.00     0.338 C 
ATOM     24  O   UNL A   1      46.202  20.689  25.176  1.00  0.00    -0.246 OA
BRANCH  23  25
ATOM     25  C   UNL A   1      44.190  21.986  25.232  1.00  0.00     0.060 A 
ATOM     26  C   UNL A   1      44.110  23.087  24.358  1.00  0.00     0.016 A 
ATOM     27  C   UNL A   1      43.793  22.134  26.558  1.00  0.00     0.016 A 
ATOM     28  C   UNL A   1      43.781  24.364  24.848  1.00  0.00     0.010 A 
ATOM     29  C   UNL A   1      43.565  23.406  27.048  1.00  0.00     0.010 A 
ATOM     30  C   UNL A   1      43.582  24.542  26.216  1.00  0.00    -0.014 A 
BRANCH  30  31
ATOM     31  C   UNL A   1      43.537  25.830  26.933  1.00  0.00     0.031 A 
ATOM     32  C   UNL A   1      42.243  26.553  27.076  1.00  0.00     0.074 A 
ATOM     33  C   UNL A   1      44.550  26.230  27.744  1.00  0.00     0.049 A 
ATOM     34  N   UNL A   1      42.137  27.754  27.541  1.00  0.00    -0.248 NA
ATOM     35  C   UNL A   1      40.952  25.971  26.720  1.00  0.00     0.031 C 
ATOM     36  C   UNL A   1      44.434  27.078  28.933  1.00  0.00     0.029 A 
ATOM     37  N   UNL A   1      45.933  26.019  27.643  1.00  0.00    -0.354 N 
ATOM     38  C   UNL A   1      40.820  27.951  27.876  1.00  0.00     0.074 A 
ATOM     39  C   UNL A   1      40.112  26.834  27.294  1.00  0.00     0.031 C 
ATOM     40  C   UNL A   1      45.642  27.555  29.258  1.00  0.00     0.029 A 
ATOM     41  C   UNL A   1      46.558  27.150  28.215  1.00  0.00     0.049 A 
ATOM     42  H   UNL A   1      46.381  25.236  27.248  1.00  0.00     0.167 HD
ATOM     43  C   UNL A   1      40.474  28.958  28.727  1.00  0.00     0.037 A 
ATOM     44  C   UNL A   1      47.440  27.930  27.534  1.00  0.00     0.037 A 
ATOM     45  C   UNL A   1      41.638  29.700  29.220  1.00  0.00     0.049 A 
ATOM     46  C   UNL A   1      47.013  29.370  27.519  1.00  0.00     0.074 A 
ATOM     47  C   UNL A   1      42.319  29.745  30.427  1.00  0.00     0.029 A 
ATOM     48  N   UNL A   1      42.454  30.361  28.315  1.00  0.00    -0.354 N 
ATOM     49  N   UNL A   1      45.896  29.769  28.056  1.00  0.00    -0.248 NA
ATOM     50  C   UNL A   1      47.720  30.455  26.850  1.00  0.00     0.031 C 
ATOM     51  C   UNL A   1      43.516  30.496  30.243  1.00  0.00     0.029 A 
ATOM     52  C   UNL A   1      43.567  30.908  28.924  1.00  0.00     0.049 A 
ATOM     53  H   UNL A   1      42.262  30.434  27.352  1.00  0.00     0.167 HD
ATOM     54  C   UNL A   1      45.672  31.074  27.760  1.00  0.00     0.074 A 
ATOM     55  C   UNL A   1      46.846  31.469  26.999  1.00  0.00     0.031 C 
ATOM     56  C   UNL A   1      44.513  31.685  28.131  1.00  0.00     0.037 A 
BRANCH  43  57
ATOM     57  C   UNL A   1      39.076  29.107  29.281  1.00  0.00     0.057 A 
ATOM     58  C   UNL A   1      38.015  29.593  28.495  1.00  0.00     0.134 A 
ATOM     59  C   UNL A   1      38.712  28.780  30.601  1.00  0.00     0.134 A 
ATOM     60  F   UNL A   1      38.160  29.841  27.188  1.00  0.00    -0.206 F 
ATOM     61  C   UNL A   1      36.737  29.847  29.012  1.00  0.00     0.040 A 
ATOM     62  C   UNL A   1      37.460  29.089  31.150  1.00  0.00     0.040 A 
ATOM     63  F   UNL A   1      39.542  28.099  31.406  1.00  0.00    -0.206 F 
ATOM     64  C   UNL A   1      36.466  29.636  30.355  1.00  0.00     0.006 A 
ENDBRANCH  43  57
BRANCH  44  65
ATOM     65  C   UNL A   1      48.116  27.170  26.450  1.00  0.00     0.057 A 
ATOM     66  C   UNL A   1      47.618  27.332  25.141  1.00  0.00     0.134 A 
ATOM     67  C   UNL A   1      49.454  26.786  26.582  1.00  0.00     0.134 A 
ATOM     68  F   UNL A   1      46.343  27.702  24.947  1.00  0.00    -0.206 F 
ATOM     69  C   UNL A   1      48.461  27.295  24.029  1.00  0.00     0.040 A 
ATOM     70  C   UNL A   1      50.300  26.728  25.469  1.00  0.00     0.040 A 
ATOM     71  F   UNL A   1      49.994  26.612  27.797  1.00  0.00    -0.206 F 
ATOM     72  C   UNL A   1      49.817  27.038  24.197  1.00  0.00     0.006 A 
ENDBRANCH  44  65
BRANCH  56  73
ATOM     73  C   UNL A   1      44.177  33.076  27.709  1.00  0.00     0.057 A 
ATOM     74  C   UNL A   1      44.155  34.153  28.600  1.00  0.00     0.134 A 
ATOM     75  C   UNL A   1      43.830  33.370  26.376  1.00  0.00     0.134 A 
ATOM     76  F   UNL A   1      44.354  33.966  29.915  1.00  0.00    -0.206 F 
ATOM     77  C   UNL A   1      43.924  35.462  28.172  1.00  0.00     0.040 A 
ATOM     78  C   UNL A   1      43.542  34.664  25.947  1.00  0.00     0.040 A 
ATOM     79  F   UNL A   1      43.790  32.424  25.427  1.00  0.00    -0.206 F 
ATOM     80  C   UNL A   1      43.623  35.721  26.839  1.00  0.00     0.006 A 
ENDBRANCH  56  73
ENDBRANCH  30  31
ENDBRANCH  23  25
ENDBRANCH  22  23
ENDBRANCH  21  22
ENDBRANCH  20  21
ENDBRANCH  19  20
ENDBRANCH   1  19
TORSDOF 17
ENDMDL
MODEL 2
REMARK VINA RESULT:     -10.5      1.545      2.973
REMARK SMILES Cc1ccc(C(=O)[C@@H](C)[C@H](C)C(=O)OCCOCCOC(=O)c2ccc(-c3c4nc(c(-c5c(F)cccc5F)c5ccc([nH]5)c(-c5c(F)cccc5F)c5nc(c(-c6c(F)cccc6F)c6ccc3[nH]6)C=C5)C=C4)cc2)cc1
REMARK SMILES IDX 16 1 15 2 14 3 12 4 13 5 10 6 11 7 8 8 9 9 6 10 7 11 5 12
REMARK SMILES IDX 1 13 2 14 3 15 78 16 4 17 77 18 17 19 18 20 19 21 20 22
REMARK SMILES IDX 21 23 22 24 23 25 24 26 76 27 25 28 75 29 26 30 27 31 28 32
REMARK SMILES IDX 69 33 29 34 74 35 68 36 70 37 30 38 73 39 67 40 66 41 31 43
REMARK SMILES IDX 57 44 40 45 56 46 41 47 44 48 55 49 71 50 42 51 43 52 54 54
REMARK SMILES IDX 72 55 45 56 32 57 33 58 38 59 34 60 35 61 37 62 39 63 36 64
REMARK SMILES IDX 58 65 59 66 64 67 60 68 61 69 63 70 65 71 62 72 46 73 47 74
REMARK SMILES IDX 52 75 48 76 49 77 51 78 53 79 50 80
REMARK H PARENT 70 42 44 53
REMARK Flexibility Score: inf
ROOT
ATOM      1  C   UNL A   1      40.588  19.842  26.241  1.00  0.00     0.202 C 
ENDROOT
BRANCH   1   2
ATOM      2  C   UNL A   1      39.328  19.879  25.409  1.00  0.00     0.261 C 
BRANCH   2   3
ATOM      3  O   UNL A   1      38.278  20.624  26.028  1.00  0.00    -0.463 OA
BRANCH   3   4
ATOM      4  C   UNL A   1      37.489  21.357  25.198  1.00  0.00     0.309 C 
ATOM      5  O   UNL A   1      37.405  21.235  24.000  1.00  0.00    -0.252 OA
BRANCH   4   6
ATOM      6  C   UNL A   1      36.600  22.263  26.037  1.00  0.00     0.106 C 
ATOM      7  C   UNL A   1      37.109  23.703  26.026  1.00  0.00     0.021 C 
BRANCH   6   8
ATOM      8  C   UNL A   1      35.085  22.069  25.837  1.00  0.00     0.072 C 
ATOM      9  C   UNL A   1      34.352  21.988  27.183  1.00  0.00     0.017 C 
BRANCH   8  10
ATOM     10  C   UNL A   1      34.366  21.142  24.818  1.00  0.00     0.166 C 
ATOM     11  O   UNL A   1      33.818  21.704  23.856  1.00  0.00    -0.294 OA
BRANCH  10  12
ATOM     12  C   UNL A   1      34.137  19.653  24.900  1.00  0.00     0.018 A 
ATOM     13  C   UNL A   1      33.212  15.412  25.267  1.00  0.00     0.044 C 
ATOM     14  C   UNL A   1      33.519  16.875  25.145  1.00  0.00    -0.051 A 
ATOM     15  C   UNL A   1      32.535  17.843  25.341  1.00  0.00     0.004 A 
ATOM     16  C   UNL A   1      34.787  17.298  24.760  1.00  0.00     0.004 A 
ATOM     17  C   UNL A   1      32.847  19.209  25.239  1.00  0.00     0.012 A 
ATOM     18  C   UNL A   1      35.064  18.665  24.602  1.00  0.00     0.012 A 
ENDBRANCH  10  12
ENDBRANCH   8  10
ENDBRANCH   6   8
ENDBRANCH   4   6
ENDBRANCH   3   4
ENDBRANCH   2   3
ENDBRANCH   1   2
BRANCH   1  19
ATOM     19  O   UNL A   1      41.630  19.312  25.438  1.00  0.00    -0.374 OA
BRANCH  19  20
ATOM     20  C   UNL A   1      42.655  18.632  26.150  1.00  0.00     0.202 C 
BRANCH  20  21
ATOM     21  C   UNL A   1      43.959  18.451  25.357  1.00  0.00     0.261 C 
BRANCH  21  22
ATOM     22  O   UNL A   1      44.121  19.554  24.442  1.00  0.00    -0.460 OA
BRANCH  22  23
ATOM     23  C   UNL A   1      45.013  20.514  24.812  1.00  0.00     0.338 C 
ATOM     24  O   UNL A   1      46.147  20.308  25.215  1.00  0.00    -0.246 OA
BRANCH  23  25
ATOM     25  C   UNL A   1      44.303  21.818  24.981  1.00  0.00     0.060 A 
ATOM     26  C   UNL A   1      44.670  22.922  24.189  1.00  0.00     0.016 A 
ATOM     27  C   UNL A   1      43.550  22.022  26.134  1.00  0.00     0.016 A 
ATOM     28  C   UNL A   1      44.416  24.233  24.633  1.00  0.00     0.010 A 
ATOM     29  C   UNL A   1      43.390  23.311  26.608  1.00  0.00     0.010 A 
ATOM     30  C   UNL A   1      43.841  24.433  25.886  1.00  0.00    -0.014 A 
BRANCH  30  31
ATOM     31  C   UNL A   1      43.786  25.704  26.631  1.00  0.00     0.031 A 
ATOM     32  C   UNL A   1      42.502  26.452  26.726  1.00  0.00     0.074 A 
ATOM     33  C   UNL A   1      44.764  26.063  27.502  1.00  0.00     0.049 A 
ATOM     34  N   UNL A   1      42.396  27.644  27.213  1.00  0.00    -0.248 NA
ATOM     35  C   UNL A   1      41.218  25.907  26.290  1.00  0.00     0.031 C 
ATOM     36  C   UNL A   1      44.604  26.886  28.704  1.00  0.00     0.029 A 
ATOM     37  N   UNL A   1      46.146  25.824  27.466  1.00  0.00    -0.354 N 
ATOM     38  C   UNL A   1      41.069  27.862  27.485  1.00  0.00     0.074 A 
ATOM     39  C   UNL A   1      40.368  26.775  26.841  1.00  0.00     0.031 C 
ATOM     40  C   UNL A   1      45.803  27.329  29.102  1.00  0.00     0.029 A 
ATOM     41  C   UNL A   1      46.763  26.928  28.096  1.00  0.00     0.049 A 
ATOM     42  H   UNL A   1      46.597  25.041  27.076  1.00  0.00     0.167 HD
ATOM     43  C   UNL A   1      40.700  28.857  28.342  1.00  0.00     0.037 A 
ATOM     44  C   UNL A   1      47.695  27.704  27.481  1.00  0.00     0.037 A 
ATOM     45  C   UNL A   1      41.853  29.562  28.912  1.00  0.00     0.049 A 
ATOM     46  C   UNL A   1      47.299  29.153  27.479  1.00  0.00     0.074 A 
ATOM     47  C   UNL A   1      42.472  29.563  30.152  1.00  0.00     0.029 A 
ATOM     48  N   UNL A   1      42.728  30.226  28.066  1.00  0.00    -0.354 N 
ATOM     49  N   UNL A   1      46.165  29.564  27.968  1.00  0.00    -0.248 NA
ATOM     50  C   UNL A   1      48.063  30.237  26.873  1.00  0.00     0.031 C 
ATOM     51  C   UNL A   1      43.692  30.292  30.047  1.00  0.00     0.029 A 
ATOM     52  C   UNL A   1      43.819  30.734  28.743  1.00  0.00     0.049 A 
ATOM     53  H   UNL A   1      42.587  30.325  27.096  1.00  0.00     0.167 HD
ATOM     54  C   UNL A   1      45.984  30.880  27.692  1.00  0.00     0.074 A 
ATOM     55  C   UNL A   1      47.203  31.266  27.002  1.00  0.00     0.031 C 
ATOM     56  C   UNL A   1      44.820  31.508  28.019  1.00  0.00     0.037 A 
BRANCH  43  57
ATOM     57  C   UNL A   1      39.279  29.024  28.827  1.00  0.00     0.057 A 
ATOM     58  C   UNL A   1      38.264  29.521  27.991  1.00  0.00     0.134 A 
ATOM     59  C   UNL A   1      38.848  28.704  30.129  1.00  0.00     0.134 A 
ATOM     60  F   UNL A   1      38.474  29.764  26.691  1.00  0.00    -0.206 F 
ATOM     61  C   UNL A   1      36.965  29.791  28.445  1.00  0.00     0.040 A 
ATOM     62  C   UNL A   1      37.575  29.030  30.617  1.00  0.00     0.040 A 
ATOM     63  F   UNL A   1      39.629  28.016  30.974  1.00  0.00    -0.206 F 
ATOM     64  C   UNL A   1      36.627  29.587  29.773  1.00  0.00     0.006 A 
ENDBRANCH  43  57
BRANCH  44  65
ATOM     65  C   UNL A   1      48.411  26.954  26.414  1.00  0.00     0.057 A 
ATOM     66  C   UNL A   1      47.952  27.120  25.091  1.00  0.00     0.134 A 
ATOM     67  C   UNL A   1      49.746  26.579  26.586  1.00  0.00     0.134 A 
ATOM     68  F   UNL A   1      46.681  27.481  24.860  1.00  0.00    -0.206 F 
ATOM     69  C   UNL A   1      48.829  27.095  24.006  1.00  0.00     0.040 A 
ATOM     70  C   UNL A   1      50.627  26.533  25.499  1.00  0.00     0.040 A 
ATOM     71  F   UNL A   1      50.250  26.403  27.816  1.00  0.00    -0.206 F 
ATOM     72  C   UNL A   1      50.182  26.846  24.215  1.00  0.00     0.006 A 
ENDBRANCH  44  65
BRANCH  56  73
ATOM     73  C   UNL A   1      44.536  32.915  27.614  1.00  0.00     0.057 A 
ATOM     74  C   UNL A   1      44.066  33.256  26.342  1.00  0.00     0.134 A 
ATOM     75  C   UNL A   1      44.761  33.988  28.497  1.00  0.00     0.134 A 
ATOM     76  F   UNL A   1      43.928  32.325  25.384  1.00  0.00    -0.206 F 
ATOM     77  C   UNL A   1      43.722  34.568  26.008  1.00  0.00     0.040 A 
ATOM     78  C   UNL A   1      44.475  35.309  28.157  1.00  0.00     0.040 A 
ATOM     79  F   UNL A   1      45.232  33.800  29.737  1.00  0.00    -0.206 F 
ATOM     80  C   UNL A   1      43.920  35.598  26.920  1.00  0.00     0.006 A 
ENDBRANCH  56  73
ENDBRANCH  30  31
ENDBRANCH  23  25
ENDBRANCH  22  23
ENDBRANCH  21  22
ENDBRANCH  20  21
ENDBRANCH  19  20
ENDBRANCH   1  19
TORSDOF 17
ENDMDL
MODEL 3
REMARK VINA RESULT:     -10.2      2.258      4.354
REMARK SMILES Cc1ccc(C(=O)[C@@H](C)[C@H](C)C(=O)OCCOCCOC(=O)c2ccc(-c3c4nc(c(-c5c(F)cccc5F)c5ccc([nH]5)c(-c5c(F)cccc5F)c5nc(c(-c6c(F)cccc6F)c6ccc3[nH]6)C=C5)C=C4)cc2)cc1
REMARK SMILES IDX 16 1 15 2 14 3 12 4 13 5 10 6 11 7 8 8 9 9 6 10 7 11 5 12
REMARK SMILES IDX 1 13 2 14 3 15 78 16 4 17 77 18 17 19 18 20 19 21 20 22
REMARK SMILES IDX 21 23 22 24 23 25 24 26 76 27 25 28 75 29 26 30 27 31 28 32
REMARK SMILES IDX 69 33 29 34 74 35 68 36 70 37 30 38 73 39 67 40 66 41 31 43
REMARK SMILES IDX 57 44 40 45 56 46 41 47 44 48 55 49 71 50 42 51 43 52 54 54
REMARK SMILES IDX 72 55 45 56 32 57 33 58 38 59 34 60 35 61 37 62 39 63 36 64
REMARK SMILES IDX 58 65 59 66 64 67 60 68 61 69 63 70 65 71 62 72 46 73 47 74
REMARK SMILES IDX 52 75 48 76 49 77 51 78 53 79 50 80
REMARK H PARENT 70 42 44 53
REMARK Flexibility Score: inf
ROOT
ATOM      1  C   UNL A   1      35.162  23.119  25.362  1.00  0.00     0.202 C 
ENDROOT
BRANCH   1   2
ATOM      2  C   UNL A   1      34.947  24.413  24.613  1.00  0.00     0.261 C 
BRANCH   2   3
ATOM      3  O   UNL A   1      33.632  24.527  24.068  1.00  0.00    -0.463 OA
BRANCH   3   4
ATOM      4  C   UNL A   1      33.348  25.686  23.417  1.00  0.00     0.309 C 
ATOM      5  O   UNL A   1      32.939  25.787  22.287  1.00  0.00    -0.252 OA
BRANCH   4   6
ATOM      6  C   UNL A   1      33.475  26.844  24.396  1.00  0.00     0.106 C 
ATOM      7  C   UNL A   1      33.631  28.174  23.663  1.00  0.00     0.021 C 
BRANCH   6   8
ATOM      8  C   UNL A   1      32.483  26.823  25.575  1.00  0.00     0.072 C 
ATOM      9  C   UNL A   1      31.045  26.598  25.088  1.00  0.00     0.017 C 
BRANCH   8  10
ATOM     10  C   UNL A   1      32.452  27.757  26.816  1.00  0.00     0.166 C 
ATOM     11  O   UNL A   1      31.522  27.576  27.617  1.00  0.00    -0.294 OA
BRANCH  10  12
ATOM     12  C   UNL A   1      33.334  28.943  27.121  1.00  0.00     0.018 A 
ATOM     13  C   UNL A   1      35.646  32.542  27.948  1.00  0.00     0.044 C 
ATOM     14  C   UNL A   1      34.840  31.310  27.662  1.00  0.00    -0.051 A 
ATOM     15  C   UNL A   1      33.450  31.359  27.560  1.00  0.00     0.004 A 
ATOM     16  C   UNL A   1      35.461  30.069  27.563  1.00  0.00     0.004 A 
ATOM     17  C   UNL A   1      32.715  30.196  27.275  1.00  0.00     0.012 A 
ATOM     18  C   UNL A   1      34.704  28.909  27.339  1.00  0.00     0.012 A 
ENDBRANCH  10  12
ENDBRANCH   8  10
ENDBRANCH   6   8
ENDBRANCH   4   6
ENDBRANCH   3   4
ENDBRANCH   2   3
ENDBRANCH   1   2
BRANCH   1  19
ATOM     19  O   UNL A   1      36.015  22.296  24.583  1.00  0.00    -0.374 OA
BRANCH  19  20
ATOM     20  C   UNL A   1      36.179  20.969  25.066  1.00  0.00     0.202 C 
BRANCH  20  21
ATOM     21  C   UNL A   1      37.624  20.448  24.998  1.00  0.00     0.261 C 
BRANCH  21  22
ATOM     22  O   UNL A   1      38.539  21.557  25.109  1.00  0.00    -0.460 OA
BRANCH  22  23
ATOM     23  C   UNL A   1      39.587  21.384  25.961  1.00  0.00     0.338 C 
ATOM     24  O   UNL A   1      40.193  20.339  26.135  1.00  0.00    -0.246 OA
BRANCH  23  25
ATOM     25  C   UNL A   1      39.671  22.550  26.894  1.00  0.00     0.060 A 
ATOM     26  C   UNL A   1      38.981  23.739  26.592  1.00  0.00     0.016 A 
ATOM     27  C   UNL A   1      40.687  22.570  27.844  1.00  0.00     0.016 A 
ATOM     28  C   UNL A   1      39.411  24.967  27.126  1.00  0.00     0.010 A 
ATOM     29  C   UNL A   1      41.162  23.790  28.288  1.00  0.00     0.010 A 
ATOM     30  C   UNL A   1      40.556  25.006  27.919  1.00  0.00    -0.014 A 
BRANCH  30  31
ATOM     31  C   UNL A   1      41.316  26.211  28.301  1.00  0.00     0.031 A 
ATOM     32  C   UNL A   1      40.590  27.465  28.645  1.00  0.00     0.074 A 
ATOM     33  C   UNL A   1      42.622  26.145  28.665  1.00  0.00     0.049 A 
ATOM     34  N   UNL A   1      41.170  28.605  28.831  1.00  0.00    -0.248 NA
ATOM     35  C   UNL A   1      39.143  27.535  28.826  1.00  0.00     0.031 C 
ATOM     36  C   UNL A   1      43.312  27.030  29.608  1.00  0.00     0.029 A 
ATOM     37  N   UNL A   1      43.650  25.302  28.216  1.00  0.00    -0.354 N 
ATOM     38  C   UNL A   1      40.278  29.421  29.480  1.00  0.00     0.074 A 
ATOM     39  C   UNL A   1      39.011  28.729  29.404  1.00  0.00     0.031 C 
ATOM     40  C   UNL A   1      44.635  26.905  29.447  1.00  0.00     0.029 A 
ATOM     41  C   UNL A   1      44.849  26.045  28.304  1.00  0.00     0.049 A 
ATOM     42  H   UNL A   1      43.554  24.375  27.900  1.00  0.00     0.167 HD
ATOM     43  C   UNL A   1      40.718  30.530  30.139  1.00  0.00     0.037 A 
ATOM     44  C   UNL A   1      45.659  26.269  27.235  1.00  0.00     0.037 A 
ATOM     45  C   UNL A   1      42.177  30.671  30.086  1.00  0.00     0.049 A 
ATOM     46  C   UNL A   1      45.896  27.735  27.014  1.00  0.00     0.074 A 
ATOM     47  C   UNL A   1      43.203  30.475  30.997  1.00  0.00     0.029 A 
ATOM     48  N   UNL A   1      42.801  30.805  28.855  1.00  0.00    -0.354 N 
ATOM     49  N   UNL A   1      45.328  28.649  27.747  1.00  0.00    -0.248 NA
ATOM     50  C   UNL A   1      46.691  28.310  25.936  1.00  0.00     0.031 C 
ATOM     51  C   UNL A   1      44.445  30.561  30.303  1.00  0.00     0.029 A 
ATOM     52  C   UNL A   1      44.178  30.807  28.969  1.00  0.00     0.049 A 
ATOM     53  H   UNL A   1      42.319  30.892  28.001  1.00  0.00     0.167 HD
ATOM     54  C   UNL A   1      45.575  29.881  27.236  1.00  0.00     0.074 A 
ATOM     55  C   UNL A   1      46.438  29.623  26.096  1.00  0.00     0.031 C 
ATOM     56  C   UNL A   1      44.998  30.990  27.778  1.00  0.00     0.037 A 
BRANCH  43  57
ATOM     57  C   UNL A   1      39.817  31.357  31.027  1.00  0.00     0.057 A 
ATOM     58  C   UNL A   1      38.823  32.197  30.496  1.00  0.00     0.134 A 
ATOM     59  C   UNL A   1      39.886  31.362  32.434  1.00  0.00     0.134 A 
ATOM     60  F   UNL A   1      38.545  32.225  29.187  1.00  0.00    -0.206 F 
ATOM     61  C   UNL A   1      38.050  33.059  31.288  1.00  0.00     0.040 A 
ATOM     62  C   UNL A   1      39.169  32.263  33.233  1.00  0.00     0.040 A 
ATOM     63  F   UNL A   1      40.618  30.457  33.100  1.00  0.00    -0.206 F 
ATOM     64  C   UNL A   1      38.251  33.126  32.658  1.00  0.00     0.006 A 
ENDBRANCH  43  57
BRANCH  44  65
ATOM     65  C   UNL A   1      45.511  25.205  26.207  1.00  0.00     0.057 A 
ATOM     66  C   UNL A   1      46.133  23.967  26.465  1.00  0.00     0.134 A 
ATOM     67  C   UNL A   1      44.409  25.200  25.347  1.00  0.00     0.134 A 
ATOM     68  F   UNL A   1      47.194  23.904  27.284  1.00  0.00    -0.206 F 
ATOM     69  C   UNL A   1      45.570  22.763  26.037  1.00  0.00     0.040 A 
ATOM     70  C   UNL A   1      43.851  23.998  24.897  1.00  0.00     0.040 A 
ATOM     71  F   UNL A   1      43.769  26.342  25.055  1.00  0.00    -0.206 F 
ATOM     72  C   UNL A   1      44.398  22.775  25.288  1.00  0.00     0.006 A 
ENDBRANCH  44  65
BRANCH  56  73
ATOM     73  C   UNL A   1      45.142  32.342  27.163  1.00  0.00     0.057 A 
ATOM     74  C   UNL A   1      46.039  33.300  27.645  1.00  0.00     0.134 A 
ATOM     75  C   UNL A   1      44.347  32.735  26.070  1.00  0.00     0.134 A 
ATOM     76  F   UNL A   1      46.761  33.075  28.754  1.00  0.00    -0.206 F 
ATOM     77  C   UNL A   1      46.222  34.528  27.005  1.00  0.00     0.040 A 
ATOM     78  C   UNL A   1      44.480  33.978  25.456  1.00  0.00     0.040 A 
ATOM     79  F   UNL A   1      43.432  31.918  25.528  1.00  0.00    -0.206 F 
ATOM     80  C   UNL A   1      45.446  34.867  25.902  1.00  0.00     0.006 A 
ENDBRANCH  56  73
ENDBRANCH  30  31
ENDBRANCH  23  25
ENDBRANCH  22  23
ENDBRANCH  21  22
ENDBRANCH  20  21
ENDBRANCH  19  20
ENDBRANCH   1  19
TORSDOF 17
ENDMDL
