MODEL 1
REMARK VINA RESULT:     -13.1      0.000      0.000
REMARK SMILES CS(=O)(=O)c1ccc(C2=NN(c3ccc(C(=O)OCCOCCOC(=O)c4ccc(-c5c6nc(c(-c7c(F)cccc7F)c7ccc([nH]7)c(-c7c(F)cccc7F)c7nc(c(-c8c(F)cccc8F)c8ccc5[nH]8)C=C7)C=C6)cc4)cc3)[C@H](c3ccc(F)cc3)C2)cc1
REMARK SMILES IDX 20 1 19 2 18 3 16 4 17 5 15 6 12 7 13 8 82 9 14 10 81 11
REMARK SMILES IDX 11 12 9 13 10 14 91 15 83 16 8 17 5 18 6 19 93 20 7 21 92 22
REMARK SMILES IDX 2 23 1 24 3 25 4 26 84 27 85 28 90 29 86 30 89 31 87 32
REMARK SMILES IDX 88 33 21 34 22 35 23 36 24 37 25 38 26 39 27 40 28 41 80 42
REMARK SMILES IDX 29 43 79 44 30 45 31 46 32 47 73 48 33 49 78 50 72 51 74 52
REMARK SMILES IDX 34 53 77 54 71 55 70 56 35 58 61 59 44 60 60 61 45 62 48 63
REMARK SMILES IDX 59 64 75 65 46 66 47 67 58 69 76 70 49 71 36 72 37 73 42 74
REMARK SMILES IDX 38 75 39 76 41 77 43 78 40 79 62 80 63 81 68 82 64 83 65 84
REMARK SMILES IDX 67 85 69 86 66 87 50 88 51 89 56 90 52 91 53 92 55 93 57 94
REMARK SMILES IDX 54 95
REMARK H PARENT 74 57 48 68
REMARK Flexibility Score: inf
ROOT
ATOM      1  C   UNL A   1      41.937  21.934  27.174  1.00  0.00     0.202 C 
ENDROOT
BRANCH   1   2
ATOM      2  C   UNL A   1      40.464  21.767  27.556  1.00  0.00     0.261 C 
BRANCH   2   3
ATOM      3  O   UNL A   1      39.616  22.357  26.557  1.00  0.00    -0.460 OA
BRANCH   3   4
ATOM      4  C   UNL A   1      38.919  21.482  25.795  1.00  0.00     0.338 C 
ATOM      5  O   UNL A   1      39.191  20.305  25.605  1.00  0.00    -0.246 OA
BRANCH   4   6
ATOM      6  C   UNL A   1      37.681  22.115  25.275  1.00  0.00     0.060 A 
ATOM      7  C   UNL A   1      35.210  23.173  24.465  1.00  0.00     0.060 A 
ATOM      8  C   UNL A   1      35.658  23.355  25.777  1.00  0.00     0.029 A 
ATOM      9  C   UNL A   1      36.062  22.558  23.538  1.00  0.00     0.029 A 
ATOM     10  C   UNL A   1      36.882  22.822  26.183  1.00  0.00     0.018 A 
ATOM     11  C   UNL A   1      37.290  22.023  23.935  1.00  0.00     0.018 A 
BRANCH   7  12
ATOM     12  N   UNL A   1      33.879  23.434  24.112  1.00  0.00    -0.257 N 
ATOM     13  C   UNL A   1      32.283  24.854  24.127  1.00  0.00     0.071 C 
ATOM     14  N   UNL A   1      33.517  24.698  23.763  1.00  0.00    -0.176 NA
ATOM     15  C   UNL A   1      31.679  23.716  24.903  1.00  0.00     0.091 C 
ATOM     16  C   UNL A   1      32.836  22.711  24.861  1.00  0.00     0.144 C 
BRANCH  13  17
ATOM     17  C   UNL A   1      31.500  26.062  23.798  1.00  0.00    -0.002 A 
ATOM     18  C   UNL A   1      30.089  28.362  23.102  1.00  0.00     0.067 A 
ATOM     19  C   UNL A   1      31.404  28.201  22.659  1.00  0.00     0.021 A 
ATOM     20  C   UNL A   1      29.481  27.389  23.903  1.00  0.00     0.021 A 
ATOM     21  C   UNL A   1      32.109  27.049  23.011  1.00  0.00     0.011 A 
ATOM     22  C   UNL A   1      30.186  26.231  24.247  1.00  0.00     0.011 A 
BRANCH  18  23
ATOM     23  S   UNL A   1      29.193  29.836  22.663  1.00  0.00     0.175 S 
ATOM     24  C   UNL A   1      27.484  29.375  22.775  1.00  0.00     0.163 C 
ATOM     25  O   UNL A   1      29.505  30.115  21.277  1.00  0.00    -0.224 OA
ATOM     26  O   UNL A   1      29.442  30.819  23.703  1.00  0.00    -0.224 OA
ENDBRANCH  18  23
ENDBRANCH  13  17
BRANCH  16  27
ATOM     27  C   UNL A   1      32.589  21.349  24.225  1.00  0.00    -0.023 A 
ATOM     28  C   UNL A   1      32.213  21.174  22.885  1.00  0.00     0.009 A 
ATOM     29  C   UNL A   1      32.849  20.194  24.997  1.00  0.00     0.009 A 
ATOM     30  C   UNL A   1      32.102  19.891  22.338  1.00  0.00     0.039 A 
ATOM     31  C   UNL A   1      32.774  18.917  24.441  1.00  0.00     0.039 A 
ATOM     32  C   UNL A   1      32.398  18.778  23.115  1.00  0.00     0.123 A 
ATOM     33  F   UNL A   1      32.333  17.555  22.573  1.00  0.00    -0.207 F 
ENDBRANCH  16  27
ENDBRANCH   7  12
ENDBRANCH   4   6
ENDBRANCH   3   4
ENDBRANCH   2   3
ENDBRANCH   1   2
BRANCH   1  34
ATOM     34  O   UNL A   1      42.319  21.387  25.911  1.00  0.00    -0.374 OA
BRANCH  34  35
ATOM     35  C   UNL A   1      43.716  21.289  25.635  1.00  0.00     0.202 C 
BRANCH  35  36
ATOM     36  C   UNL A   1      44.269  22.263  24.589  1.00  0.00     0.261 C 
BRANCH  36  37
ATOM     37  O   UNL A   1      43.540  23.503  24.568  1.00  0.00    -0.460 OA
BRANCH  37  38
ATOM     38  C   UNL A   1      44.245  24.576  24.991  1.00  0.00     0.338 C 
ATOM     39  O   UNL A   1      45.368  24.913  24.637  1.00  0.00    -0.246 OA
BRANCH  38  40
ATOM     40  C   UNL A   1      43.412  25.429  25.857  1.00  0.00     0.060 A 
ATOM     41  C   UNL A   1      43.869  26.729  26.110  1.00  0.00     0.016 A 
ATOM     42  C   UNL A   1      42.261  24.948  26.486  1.00  0.00     0.016 A 
ATOM     43  C   UNL A   1      43.216  27.530  27.042  1.00  0.00     0.010 A 
ATOM     44  C   UNL A   1      41.608  25.753  27.428  1.00  0.00     0.010 A 
ATOM     45  C   UNL A   1      42.110  27.029  27.740  1.00  0.00    -0.014 A 
BRANCH  45  46
ATOM     46  C   UNL A   1      41.596  27.779  28.912  1.00  0.00     0.031 A 
ATOM     47  C   UNL A   1      42.316  27.658  30.228  1.00  0.00     0.074 A 
ATOM     48  C   UNL A   1      40.538  28.600  28.797  1.00  0.00     0.049 A 
ATOM     49  N   UNL A   1      42.051  28.224  31.377  1.00  0.00    -0.248 NA
ATOM     50  C   UNL A   1      43.498  26.779  30.249  1.00  0.00     0.031 C 
ATOM     51  C   UNL A   1      39.780  28.835  27.570  1.00  0.00     0.029 A 
ATOM     52  N   UNL A   1      39.920  29.391  29.733  1.00  0.00    -0.354 N 
ATOM     53  C   UNL A   1      43.029  27.774  32.255  1.00  0.00     0.074 A 
ATOM     54  C   UNL A   1      43.872  26.858  31.517  1.00  0.00     0.031 C 
ATOM     55  C   UNL A   1      38.794  29.712  27.829  1.00  0.00     0.029 A 
ATOM     56  C   UNL A   1      38.838  30.079  29.242  1.00  0.00     0.049 A 
ATOM     57  H   UNL A   1      40.224  29.459  30.666  1.00  0.00     0.167 HD
ATOM     58  C   UNL A   1      43.216  28.102  33.555  1.00  0.00     0.037 A 
ATOM     59  C   UNL A   1      37.976  30.903  29.869  1.00  0.00     0.037 A 
ATOM     60  C   UNL A   1      42.379  29.011  34.292  1.00  0.00     0.049 A 
ATOM     61  C   UNL A   1      38.166  31.200  31.333  1.00  0.00     0.074 A 
ATOM     62  C   UNL A   1      42.490  29.410  35.612  1.00  0.00     0.029 A 
ATOM     63  N   UNL A   1      41.274  29.664  33.768  1.00  0.00    -0.354 N 
ATOM     64  N   UNL A   1      39.103  30.781  32.149  1.00  0.00    -0.248 NA
ATOM     65  C   UNL A   1      37.178  32.090  31.962  1.00  0.00     0.031 C 
ATOM     66  C   UNL A   1      41.426  30.273  35.899  1.00  0.00     0.029 A 
ATOM     67  C   UNL A   1      40.682  30.447  34.744  1.00  0.00     0.049 A 
ATOM     68  H   UNL A   1      40.956  29.581  32.840  1.00  0.00     0.167 HD
ATOM     69  C   UNL A   1      38.839  31.382  33.374  1.00  0.00     0.074 A 
ATOM     70  C   UNL A   1      37.659  32.201  33.192  1.00  0.00     0.031 C 
ATOM     71  C   UNL A   1      39.516  31.268  34.544  1.00  0.00     0.037 A 
BRANCH  58  72
ATOM     72  C   UNL A   1      44.367  27.455  34.270  1.00  0.00     0.057 A 
ATOM     73  C   UNL A   1      44.203  26.284  35.024  1.00  0.00     0.134 A 
ATOM     74  C   UNL A   1      45.655  27.994  34.183  1.00  0.00     0.134 A 
ATOM     75  F   UNL A   1      42.991  25.727  35.158  1.00  0.00    -0.206 F 
ATOM     76  C   UNL A   1      45.279  25.687  35.683  1.00  0.00     0.040 A 
ATOM     77  C   UNL A   1      46.743  27.391  34.818  1.00  0.00     0.040 A 
ATOM     78  F   UNL A   1      45.881  29.111  33.475  1.00  0.00    -0.206 F 
ATOM     79  C   UNL A   1      46.554  26.237  35.575  1.00  0.00     0.006 A 
ENDBRANCH  58  72
BRANCH  59  80
ATOM     80  C   UNL A   1      36.847  31.510  29.120  1.00  0.00     0.057 A 
ATOM     81  C   UNL A   1      36.888  32.844  28.701  1.00  0.00     0.134 A 
ATOM     82  C   UNL A   1      35.689  30.778  28.831  1.00  0.00     0.134 A 
ATOM     83  F   UNL A   1      37.962  33.603  28.970  1.00  0.00    -0.206 F 
ATOM     84  C   UNL A   1      35.813  33.436  28.039  1.00  0.00     0.040 A 
ATOM     85  C   UNL A   1      34.616  31.350  28.148  1.00  0.00     0.040 A 
ATOM     86  F   UNL A   1      35.588  29.495  29.206  1.00  0.00    -0.206 F 
ATOM     87  C   UNL A   1      34.672  32.686  27.758  1.00  0.00     0.006 A 
ENDBRANCH  59  80
BRANCH  71  88
ATOM     88  C   UNL A   1      39.024  32.084  35.704  1.00  0.00     0.057 A 
ATOM     89  C   UNL A   1      38.219  31.535  36.709  1.00  0.00     0.134 A 
ATOM     90  C   UNL A   1      39.392  33.430  35.833  1.00  0.00     0.134 A 
ATOM     91  F   UNL A   1      37.820  30.255  36.638  1.00  0.00    -0.206 F 
ATOM     92  C   UNL A   1      37.775  32.301  37.788  1.00  0.00     0.040 A 
ATOM     93  C   UNL A   1      38.977  34.199  36.920  1.00  0.00     0.040 A 
ATOM     94  F   UNL A   1      40.170  34.015  34.911  1.00  0.00    -0.206 F 
ATOM     95  C   UNL A   1      38.159  33.637  37.899  1.00  0.00     0.006 A 
ENDBRANCH  71  88
ENDBRANCH  45  46
ENDBRANCH  38  40
ENDBRANCH  37  38
ENDBRANCH  36  37
ENDBRANCH  35  36
ENDBRANCH  34  35
ENDBRANCH   1  34
TORSDOF 18
ENDMDL
MODEL 2
REMARK VINA RESULT:     -12.9      0.516      5.848
REMARK SMILES CS(=O)(=O)c1ccc(C2=NN(c3ccc(C(=O)OCCOCCOC(=O)c4ccc(-c5c6nc(c(-c7c(F)cccc7F)c7ccc([nH]7)c(-c7c(F)cccc7F)c7nc(c(-c8c(F)cccc8F)c8ccc5[nH]8)C=C7)C=C6)cc4)cc3)[C@H](c3ccc(F)cc3)C2)cc1
REMARK SMILES IDX 20 1 19 2 18 3 16 4 17 5 15 6 12 7 13 8 82 9 14 10 81 11
REMARK SMILES IDX 11 12 9 13 10 14 91 15 83 16 8 17 5 18 6 19 93 20 7 21 92 22
REMARK SMILES IDX 2 23 1 24 3 25 4 26 84 27 85 28 90 29 86 30 89 31 87 32
REMARK SMILES IDX 88 33 21 34 22 35 23 36 24 37 25 38 26 39 27 40 28 41 80 42
REMARK SMILES IDX 29 43 79 44 30 45 31 46 32 47 73 48 33 49 78 50 72 51 74 52
REMARK SMILES IDX 34 53 77 54 71 55 70 56 35 58 61 59 44 60 60 61 45 62 48 63
REMARK SMILES IDX 59 64 75 65 46 66 47 67 58 69 76 70 49 71 36 72 37 73 42 74
REMARK SMILES IDX 38 75 39 76 41 77 43 78 40 79 62 80 63 81 68 82 64 83 65 84
REMARK SMILES IDX 67 85 69 86 66 87 50 88 51 89 56 90 52 91 53 92 55 93 57 94
REMARK SMILES IDX 54 95
REMARK H PARENT 74 57 48 68
REMARK Flexibility Score: inf
ROOT
ATOM      1  C   UNL A   1      41.687  21.518  26.930  1.00  0.00     0.202 C 
ENDROOT
BRANCH   1   2
ATOM      2  C   UNL A   1      40.405  22.230  27.372  1.00  0.00     0.261 C 
BRANCH   2   3
ATOM      3  O   UNL A   1      39.631  22.628  26.228  1.00  0.00    -0.460 OA
BRANCH   3   4
ATOM      4  C   UNL A   1      38.791  21.687  25.738  1.00  0.00     0.338 C 
ATOM      5  O   UNL A   1      38.939  20.474  25.801  1.00  0.00    -0.246 OA
BRANCH   4   6
ATOM      6  C   UNL A   1      37.569  22.319  25.181  1.00  0.00     0.060 A 
ATOM      7  C   UNL A   1      35.125  23.391  24.309  1.00  0.00     0.060 A 
ATOM      8  C   UNL A   1      35.582  23.643  25.606  1.00  0.00     0.029 A 
ATOM      9  C   UNL A   1      35.958  22.696  23.421  1.00  0.00     0.029 A 
ATOM     10  C   UNL A   1      36.792  23.103  26.044  1.00  0.00     0.018 A 
ATOM     11  C   UNL A   1      37.172  22.154  23.850  1.00  0.00     0.018 A 
BRANCH   7  12
ATOM     12  N   UNL A   1      33.801  23.666  23.941  1.00  0.00    -0.257 N 
ATOM     13  C   UNL A   1      32.221  25.104  23.933  1.00  0.00     0.071 C 
ATOM     14  N   UNL A   1      33.457  24.931  23.582  1.00  0.00    -0.176 NA
ATOM     15  C   UNL A   1      31.597  23.977  24.710  1.00  0.00     0.091 C 
ATOM     16  C   UNL A   1      32.742  22.959  24.684  1.00  0.00     0.144 C 
BRANCH  13  17
ATOM     17  C   UNL A   1      31.455  26.319  23.589  1.00  0.00    -0.002 A 
ATOM     18  C   UNL A   1      29.938  28.581  23.003  1.00  0.00     0.067 A 
ATOM     19  C   UNL A   1      29.329  27.486  23.619  1.00  0.00     0.021 A 
ATOM     20  C   UNL A   1      31.295  28.548  22.664  1.00  0.00     0.021 A 
ATOM     21  C   UNL A   1      30.092  26.352  23.909  1.00  0.00     0.011 A 
ATOM     22  C   UNL A   1      32.059  27.415  22.964  1.00  0.00     0.011 A 
BRANCH  18  23
ATOM     23  S   UNL A   1      28.964  30.022  22.623  1.00  0.00     0.175 S 
ATOM     24  C   UNL A   1      27.283  29.505  22.856  1.00  0.00     0.163 C 
ATOM     25  O   UNL A   1      29.168  30.302  21.217  1.00  0.00    -0.224 OA
ATOM     26  O   UNL A   1      29.252  31.019  23.638  1.00  0.00    -0.224 OA
ENDBRANCH  18  23
ENDBRANCH  13  17
BRANCH  16  27
ATOM     27  C   UNL A   1      32.486  21.596  24.054  1.00  0.00    -0.023 A 
ATOM     28  C   UNL A   1      32.188  21.412  22.695  1.00  0.00     0.009 A 
ATOM     29  C   UNL A   1      32.653  20.445  24.857  1.00  0.00     0.009 A 
ATOM     30  C   UNL A   1      32.064  20.125  22.160  1.00  0.00     0.039 A 
ATOM     31  C   UNL A   1      32.567  19.163  24.316  1.00  0.00     0.039 A 
ATOM     32  C   UNL A   1      32.269  19.015  22.971  1.00  0.00     0.123 A 
ATOM     33  F   UNL A   1      32.194  17.787  22.443  1.00  0.00    -0.207 F 
ENDBRANCH  16  27
ENDBRANCH   7  12
ENDBRANCH   4   6
ENDBRANCH   3   4
ENDBRANCH   2   3
ENDBRANCH   1   2
BRANCH   1  34
ATOM     34  O   UNL A   1      42.159  21.841  25.621  1.00  0.00    -0.374 OA
BRANCH  34  35
ATOM     35  C   UNL A   1      43.572  21.896  25.431  1.00  0.00     0.202 C 
BRANCH  35  36
ATOM     36  C   UNL A   1      44.070  22.834  24.325  1.00  0.00     0.261 C 
BRANCH  36  37
ATOM     37  O   UNL A   1      43.536  24.162  24.462  1.00  0.00    -0.460 OA
BRANCH  37  38
ATOM     38  C   UNL A   1      44.319  25.014  25.162  1.00  0.00     0.338 C 
ATOM     39  O   UNL A   1      45.505  25.253  24.976  1.00  0.00    -0.246 OA
BRANCH  38  40
ATOM     40  C   UNL A   1      43.511  25.777  26.129  1.00  0.00     0.060 A 
ATOM     41  C   UNL A   1      43.743  27.156  26.212  1.00  0.00     0.016 A 
ATOM     42  C   UNL A   1      42.613  25.156  27.002  1.00  0.00     0.016 A 
ATOM     43  C   UNL A   1      43.130  27.908  27.210  1.00  0.00     0.010 A 
ATOM     44  C   UNL A   1      42.002  25.912  28.008  1.00  0.00     0.010 A 
ATOM     45  C   UNL A   1      42.294  27.281  28.143  1.00  0.00    -0.014 A 
BRANCH  45  46
ATOM     46  C   UNL A   1      41.869  28.031  29.350  1.00  0.00     0.031 A 
ATOM     47  C   UNL A   1      40.627  28.880  29.281  1.00  0.00     0.074 A 
ATOM     48  C   UNL A   1      42.543  27.918  30.508  1.00  0.00     0.049 A 
ATOM     49  N   UNL A   1      40.067  29.612  30.208  1.00  0.00    -0.248 NA
ATOM     50  C   UNL A   1      39.921  28.902  27.989  1.00  0.00     0.031 C 
ATOM     51  C   UNL A   1      43.734  27.098  30.715  1.00  0.00     0.029 A 
ATOM     52  N   UNL A   1      42.314  28.498  31.730  1.00  0.00    -0.354 N 
ATOM     53  C   UNL A   1      38.947  30.181  29.616  1.00  0.00     0.074 A 
ATOM     54  C   UNL A   1      38.925  29.739  28.238  1.00  0.00     0.031 C 
ATOM     55  C   UNL A   1      44.136  27.230  31.991  1.00  0.00     0.029 A 
ATOM     56  C   UNL A   1      43.244  28.159  32.681  1.00  0.00     0.049 A 
ATOM     57  H   UNL A   1      41.555  29.099  31.909  1.00  0.00     0.167 HD
ATOM     58  C   UNL A   1      38.012  30.989  30.171  1.00  0.00     0.037 A 
ATOM     59  C   UNL A   1      43.367  28.565  33.960  1.00  0.00     0.037 A 
ATOM     60  C   UNL A   1      38.031  31.431  31.540  1.00  0.00     0.049 A 
ATOM     61  C   UNL A   1      42.351  29.517  34.535  1.00  0.00     0.074 A 
ATOM     62  C   UNL A   1      37.128  32.247  32.197  1.00  0.00     0.029 A 
ATOM     63  N   UNL A   1      39.008  31.091  32.464  1.00  0.00    -0.354 N 
ATOM     64  N   UNL A   1      41.287  30.035  33.971  1.00  0.00    -0.248 NA
ATOM     65  C   UNL A   1      42.553  29.936  35.931  1.00  0.00     0.031 C 
ATOM     66  C   UNL A   1      37.580  32.436  33.508  1.00  0.00     0.029 A 
ATOM     67  C   UNL A   1      38.740  31.697  33.679  1.00  0.00     0.049 A 
ATOM     68  H   UNL A   1      39.779  30.507  32.281  1.00  0.00     0.167 HD
ATOM     69  C   UNL A   1      40.676  30.810  34.949  1.00  0.00     0.074 A 
ATOM     70  C   UNL A   1      41.483  30.689  36.144  1.00  0.00     0.031 C 
ATOM     71  C   UNL A   1      39.545  31.555  34.865  1.00  0.00     0.037 A 
BRANCH  58  72
ATOM     72  C   UNL A   1      36.896  31.461  29.286  1.00  0.00     0.057 A 
ATOM     73  C   UNL A   1      35.811  30.635  28.962  1.00  0.00     0.134 A 
ATOM     74  C   UNL A   1      36.894  32.762  28.772  1.00  0.00     0.134 A 
ATOM     75  F   UNL A   1      35.762  29.371  29.410  1.00  0.00    -0.206 F 
ATOM     76  C   UNL A   1      34.775  31.081  28.139  1.00  0.00     0.040 A 
ATOM     77  C   UNL A   1      35.851  33.229  27.969  1.00  0.00     0.040 A 
ATOM     78  F   UNL A   1      37.901  33.606  29.046  1.00  0.00    -0.206 F 
ATOM     79  C   UNL A   1      34.791  32.384  27.646  1.00  0.00     0.006 A 
ENDBRANCH  58  72
BRANCH  59  80
ATOM     80  C   UNL A   1      44.495  28.077  34.792  1.00  0.00     0.057 A 
ATOM     81  C   UNL A   1      44.412  26.866  35.488  1.00  0.00     0.134 A 
ATOM     82  C   UNL A   1      45.670  28.824  34.933  1.00  0.00     0.134 A 
ATOM     83  F   UNL A   1      43.301  26.118  35.411  1.00  0.00    -0.206 F 
ATOM     84  C   UNL A   1      45.449  26.423  36.310  1.00  0.00     0.040 A 
ATOM     85  C   UNL A   1      46.724  28.382  35.733  1.00  0.00     0.040 A 
ATOM     86  F   UNL A   1      45.811  29.993  34.292  1.00  0.00    -0.206 F 
ATOM     87  C   UNL A   1      46.612  27.182  36.431  1.00  0.00     0.006 A 
ENDBRANCH  59  80
BRANCH  71  88
ATOM     88  C   UNL A   1      39.090  32.256  36.111  1.00  0.00     0.057 A 
ATOM     89  C   UNL A   1      39.499  33.559  36.421  1.00  0.00     0.134 A 
ATOM     90  C   UNL A   1      38.202  31.629  36.995  1.00  0.00     0.134 A 
ATOM     91  F   UNL A   1      40.358  34.210  35.623  1.00  0.00    -0.206 F 
ATOM     92  C   UNL A   1      39.061  34.204  37.580  1.00  0.00     0.040 A 
ATOM     93  C   UNL A   1      37.737  32.273  38.142  1.00  0.00     0.040 A 
ATOM     94  F   UNL A   1      37.763  30.385  36.751  1.00  0.00    -0.206 F 
ATOM     95  C   UNL A   1      38.172  33.562  38.441  1.00  0.00     0.006 A 
ENDBRANCH  71  88
ENDBRANCH  45  46
ENDBRANCH  38  40
ENDBRANCH  37  38
ENDBRANCH  36  37
ENDBRANCH  35  36
ENDBRANCH  34  35
ENDBRANCH   1  34
TORSDOF 18
ENDMDL
MODEL 3
REMARK VINA RESULT:     -12.8      4.527     10.126
REMARK SMILES CS(=O)(=O)c1ccc(C2=NN(c3ccc(C(=O)OCCOCCOC(=O)c4ccc(-c5c6nc(c(-c7c(F)cccc7F)c7ccc([nH]7)c(-c7c(F)cccc7F)c7nc(c(-c8c(F)cccc8F)c8ccc5[nH]8)C=C7)C=C6)cc4)cc3)[C@H](c3ccc(F)cc3)C2)cc1
REMARK SMILES IDX 20 1 19 2 18 3 16 4 17 5 15 6 12 7 13 8 82 9 14 10 81 11
REMARK SMILES IDX 11 12 9 13 10 14 91 15 83 16 8 17 5 18 6 19 93 20 7 21 92 22
REMARK SMILES IDX 2 23 1 24 3 25 4 26 84 27 85 28 90 29 86 30 89 31 87 32
REMARK SMILES IDX 88 33 21 34 22 35 23 36 24 37 25 38 26 39 27 40 28 41 80 42
REMARK SMILES IDX 29 43 79 44 30 45 31 46 32 47 73 48 33 49 78 50 72 51 74 52
REMARK SMILES IDX 34 53 77 54 71 55 70 56 35 58 61 59 44 60 60 61 45 62 48 63
REMARK SMILES IDX 59 64 75 65 46 66 47 67 58 69 76 70 49 71 36 72 37 73 42 74
REMARK SMILES IDX 38 75 39 76 41 77 43 78 40 79 62 80 63 81 68 82 64 83 65 84
REMARK SMILES IDX 67 85 69 86 66 87 50 88 51 89 56 90 52 91 53 92 55 93 57 94
REMARK SMILES IDX 54 95
REMARK H PARENT 74 57 48 68
REMARK Flexibility Score: inf
ROOT
ATOM      1  C   UNL A   1      35.669  33.475  29.465  1.00  0.00     0.202 C 
ENDROOT
BRANCH   1   2
ATOM      2  C   UNL A   1      35.508  33.052  28.002  1.00  0.00     0.261 C 
BRANCH   2   3
ATOM      3  O   UNL A   1      34.920  31.743  27.919  1.00  0.00    -0.460 OA
BRANCH   3   4
ATOM      4  C   UNL A   1      33.610  31.714  27.579  1.00  0.00     0.338 C 
ATOM      5  O   UNL A   1      32.841  32.665  27.562  1.00  0.00    -0.246 OA
BRANCH   4   6
ATOM      6  C   UNL A   1      33.223  30.358  27.114  1.00  0.00     0.060 A 
ATOM      7  C   UNL A   1      32.560  27.868  26.000  1.00  0.00     0.060 A 
ATOM      8  C   UNL A   1      33.873  28.344  25.932  1.00  0.00     0.029 A 
ATOM      9  C   UNL A   1      31.613  28.598  26.732  1.00  0.00     0.029 A 
ATOM     10  C   UNL A   1      34.201  29.585  26.477  1.00  0.00     0.018 A 
ATOM     11  C   UNL A   1      31.934  29.841  27.283  1.00  0.00     0.018 A 
BRANCH   7  12
ATOM     12  N   UNL A   1      32.140  26.783  25.219  1.00  0.00    -0.257 N 
ATOM     13  C   UNL A   1      32.585  24.807  24.538  1.00  0.00     0.071 C 
ATOM     14  N   UNL A   1      32.448  25.519  25.614  1.00  0.00    -0.176 NA
ATOM     15  C   UNL A   1      32.504  25.561  23.239  1.00  0.00     0.091 C 
ATOM     16  C   UNL A   1      32.168  26.964  23.756  1.00  0.00     0.144 C 
BRANCH  13  17
ATOM     17  C   UNL A   1      32.795  23.346  24.569  1.00  0.00    -0.002 A 
ATOM     18  C   UNL A   1      33.092  20.576  24.630  1.00  0.00     0.067 A 
ATOM     19  C   UNL A   1      31.868  21.144  24.989  1.00  0.00     0.021 A 
ATOM     20  C   UNL A   1      34.172  21.383  24.255  1.00  0.00     0.021 A 
ATOM     21  C   UNL A   1      31.723  22.533  24.961  1.00  0.00     0.011 A 
ATOM     22  C   UNL A   1      34.022  22.773  24.219  1.00  0.00     0.011 A 
BRANCH  18  23
ATOM     23  S   UNL A   1      33.281  18.807  24.677  1.00  0.00     0.175 S 
ATOM     24  C   UNL A   1      32.518  18.231  23.183  1.00  0.00     0.163 C 
ATOM     25  O   UNL A   1      32.502  18.335  25.803  1.00  0.00    -0.224 OA
ATOM     26  O   UNL A   1      34.701  18.520  24.572  1.00  0.00    -0.224 OA
ENDBRANCH  18  23
ENDBRANCH  13  17
BRANCH  16  27
ATOM     27  C   UNL A   1      30.874  27.618  23.289  1.00  0.00    -0.023 A 
ATOM     28  C   UNL A   1      29.598  27.155  23.643  1.00  0.00     0.009 A 
ATOM     29  C   UNL A   1      30.962  28.814  22.541  1.00  0.00     0.009 A 
ATOM     30  C   UNL A   1      28.453  27.864  23.262  1.00  0.00     0.039 A 
ATOM     31  C   UNL A   1      29.823  29.539  22.194  1.00  0.00     0.039 A 
ATOM     32  C   UNL A   1      28.576  29.054  22.556  1.00  0.00     0.123 A 
ATOM     33  F   UNL A   1      27.478  29.750  22.234  1.00  0.00    -0.207 F 
ENDBRANCH  16  27
ENDBRANCH   7  12
ENDBRANCH   4   6
ENDBRANCH   3   4
ENDBRANCH   2   3
ENDBRANCH   1   2
BRANCH   1  34
ATOM     34  O   UNL A   1      34.459  33.609  30.211  1.00  0.00    -0.374 OA
BRANCH  34  35
ATOM     35  C   UNL A   1      34.497  34.428  31.379  1.00  0.00     0.202 C 
BRANCH  35  36
ATOM     36  C   UNL A   1      34.575  33.691  32.720  1.00  0.00     0.261 C 
BRANCH  36  37
ATOM     37  O   UNL A   1      35.081  32.352  32.572  1.00  0.00    -0.460 OA
BRANCH  37  38
ATOM     38  C   UNL A   1      36.242  32.115  33.223  1.00  0.00     0.338 C 
ATOM     39  O   UNL A   1      36.512  32.391  34.385  1.00  0.00    -0.246 OA
BRANCH  38  40
ATOM     40  C   UNL A   1      37.145  31.307  32.384  1.00  0.00     0.060 A 
ATOM     41  C   UNL A   1      38.234  30.694  33.017  1.00  0.00     0.016 A 
ATOM     42  C   UNL A   1      36.992  31.222  30.997  1.00  0.00     0.016 A 
ATOM     43  C   UNL A   1      39.210  30.051  32.262  1.00  0.00     0.010 A 
ATOM     44  C   UNL A   1      37.978  30.579  30.238  1.00  0.00     0.010 A 
ATOM     45  C   UNL A   1      39.111  30.031  30.865  1.00  0.00    -0.014 A 
BRANCH  45  46
ATOM     46  C   UNL A   1      40.279  29.588  30.065  1.00  0.00     0.031 A 
ATOM     47  C   UNL A   1      41.406  30.556  29.825  1.00  0.00     0.074 A 
ATOM     48  C   UNL A   1      40.365  28.328  29.605  1.00  0.00     0.049 A 
ATOM     49  N   UNL A   1      42.523  30.386  29.164  1.00  0.00    -0.248 NA
ATOM     50  C   UNL A   1      41.253  31.898  30.411  1.00  0.00     0.031 C 
ATOM     51  C   UNL A   1      39.361  27.285  29.806  1.00  0.00     0.029 A 
ATOM     52  N   UNL A   1      41.350  27.713  28.874  1.00  0.00    -0.354 N 
ATOM     53  C   UNL A   1      43.203  31.593  29.255  1.00  0.00     0.074 A 
ATOM     54  C   UNL A   1      42.360  32.501  30.003  1.00  0.00     0.031 C 
ATOM     55  C   UNL A   1      39.781  26.157  29.208  1.00  0.00     0.029 A 
ATOM     56  C   UNL A   1      41.069  26.405  28.565  1.00  0.00     0.049 A 
ATOM     57  H   UNL A   1      42.179  28.166  28.599  1.00  0.00     0.167 HD
ATOM     58  C   UNL A   1      44.426  31.916  28.771  1.00  0.00     0.037 A 
ATOM     59  C   UNL A   1      41.769  25.516  27.835  1.00  0.00     0.037 A 
ATOM     60  C   UNL A   1      45.267  31.016  28.026  1.00  0.00     0.049 A 
ATOM     61  C   UNL A   1      43.097  25.919  27.250  1.00  0.00     0.074 A 
ATOM     62  C   UNL A   1      46.524  31.249  27.496  1.00  0.00     0.029 A 
ATOM     63  N   UNL A   1      44.933  29.709  27.706  1.00  0.00    -0.354 N 
ATOM     64  N   UNL A   1      43.739  27.058  27.356  1.00  0.00    -0.248 NA
ATOM     65  C   UNL A   1      43.802  24.908  26.447  1.00  0.00     0.031 C 
ATOM     66  C   UNL A   1      46.934  30.094  26.819  1.00  0.00     0.029 A 
ATOM     67  C   UNL A   1      45.952  29.129  26.969  1.00  0.00     0.049 A 
ATOM     68  H   UNL A   1      44.095  29.262  27.963  1.00  0.00     0.167 HD
ATOM     69  C   UNL A   1      44.932  26.889  26.666  1.00  0.00     0.074 A 
ATOM     70  C   UNL A   1      44.930  25.536  26.151  1.00  0.00     0.031 C 
ATOM     71  C   UNL A   1      45.941  27.776  26.477  1.00  0.00     0.037 A 
BRANCH  58  72
ATOM     72  C   UNL A   1      44.920  33.311  29.019  1.00  0.00     0.057 A 
ATOM     73  C   UNL A   1      44.624  34.366  28.145  1.00  0.00     0.134 A 
ATOM     74  C   UNL A   1      45.678  33.608  30.157  1.00  0.00     0.134 A 
ATOM     75  F   UNL A   1      43.914  34.143  27.028  1.00  0.00    -0.206 F 
ATOM     76  C   UNL A   1      45.084  35.662  28.383  1.00  0.00     0.040 A 
ATOM     77  C   UNL A   1      46.123  34.906  30.420  1.00  0.00     0.040 A 
ATOM     78  F   UNL A   1      45.995  32.646  31.036  1.00  0.00    -0.206 F 
ATOM     79  C   UNL A   1      45.830  35.935  29.527  1.00  0.00     0.006 A 
ENDBRANCH  58  72
BRANCH  59  80
ATOM     80  C   UNL A   1      41.233  24.150  27.609  1.00  0.00     0.057 A 
ATOM     81  C   UNL A   1      41.750  23.045  28.294  1.00  0.00     0.134 A 
ATOM     82  C   UNL A   1      40.211  23.915  26.682  1.00  0.00     0.134 A 
ATOM     83  F   UNL A   1      42.746  23.205  29.178  1.00  0.00    -0.206 F 
ATOM     84  C   UNL A   1      41.284  21.752  28.053  1.00  0.00     0.040 A 
ATOM     85  C   UNL A   1      39.719  22.631  26.448  1.00  0.00     0.040 A 
ATOM     86  F   UNL A   1      39.674  24.932  25.992  1.00  0.00    -0.206 F 
ATOM     87  C   UNL A   1      40.262  21.543  27.128  1.00  0.00     0.006 A 
ENDBRANCH  59  80
BRANCH  71  88
ATOM     88  C   UNL A   1      47.146  27.295  25.722  1.00  0.00     0.057 A 
ATOM     89  C   UNL A   1      48.196  26.617  26.354  1.00  0.00     0.134 A 
ATOM     90  C   UNL A   1      47.241  27.485  24.337  1.00  0.00     0.134 A 
ATOM     91  F   UNL A   1      48.174  26.414  27.681  1.00  0.00    -0.206 F 
ATOM     92  C   UNL A   1      49.308  26.167  25.640  1.00  0.00     0.040 A 
ATOM     93  C   UNL A   1      48.334  27.017  23.609  1.00  0.00     0.040 A 
ATOM     94  F   UNL A   1      46.265  28.118  23.669  1.00  0.00    -0.206 F 
ATOM     95  C   UNL A   1      49.376  26.361  24.261  1.00  0.00     0.006 A 
ENDBRANCH  71  88
ENDBRANCH  45  46
ENDBRANCH  38  40
ENDBRANCH  37  38
ENDBRANCH  36  37
ENDBRANCH  35  36
ENDBRANCH  34  35
ENDBRANCH   1  34
TORSDOF 18
ENDMDL
