MODEL 1
REMARK VINA RESULT:     -11.1      0.000      0.000
REMARK SMILES COC(=O)c1c(SCC(=O)Nc2cc(C)ccc2C)[nH]c2cc(C(=O)OCCOCCOC(=O)c3ccc(-c4c5nc(c(-c6c(F)cccc6F)c6ccc([nH]6)c(-c6c(F)cccc6F)c6nc(c(-c7c(F)cccc7F)c7ccc4[nH]7)C=C6)C=C5)cc3)ccc2c1=O
REMARK SMILES IDX 28 1 27 2 26 3 24 4 25 5 23 6 5 7 6 8 92 9 20 10 91 11 93 12
REMARK SMILES IDX 21 13 90 15 22 16 89 17 3 18 4 19 2 20 1 21 7 22 8 23 9 24
REMARK SMILES IDX 10 25 11 26 12 28 13 29 18 30 14 31 17 32 19 33 15 34 16 35
REMARK SMILES IDX 29 36 30 37 31 38 32 39 33 40 34 41 35 42 36 43 88 44 37 45
REMARK SMILES IDX 87 46 38 47 39 48 40 49 81 50 41 51 86 52 80 53 82 54 42 55
REMARK SMILES IDX 85 56 79 57 78 58 43 60 69 61 52 62 68 63 53 64 56 65 67 66
REMARK SMILES IDX 83 67 54 68 55 69 66 71 84 72 57 73 44 74 45 75 50 76 46 77
REMARK SMILES IDX 47 78 49 79 51 80 48 81 70 82 71 83 76 84 72 85 73 86 75 87
REMARK SMILES IDX 77 88 74 89 58 90 59 91 64 92 60 93 61 94 63 95 65 96 62 97
REMARK H PARENT 20 14 11 27 82 59 56 70
REMARK Flexibility Score: inf
ROOT
ATOM      1  C   UNL A   1      35.560  31.537  27.852  1.00  0.00     0.202 C 
ENDROOT
BRANCH   1   2
ATOM      2  C   UNL A   1      34.200  30.850  27.999  1.00  0.00     0.261 C 
BRANCH   2   3
ATOM      3  O   UNL A   1      33.707  30.468  26.704  1.00  0.00    -0.460 OA
BRANCH   3   4
ATOM      4  C   UNL A   1      32.379  30.542  26.482  1.00  0.00     0.338 C 
ATOM      5  O   UNL A   1      31.552  31.337  26.884  1.00  0.00    -0.246 OA
BRANCH   4   6
ATOM      6  C   UNL A   1      31.931  29.428  25.672  1.00  0.00     0.062 A 
ATOM      7  C   UNL A   1      31.081  24.694  24.223  1.00  0.00     0.138 A 
ATOM      8  C   UNL A   1      30.877  24.729  25.558  1.00  0.00     0.092 A 
ATOM      9  C   UNL A   1      31.326  25.952  23.480  1.00  0.00     0.205 A 
ATOM     10  N   UNL A   1      30.890  25.942  26.236  1.00  0.00    -0.349 N 
ATOM     11  C   UNL A   1      31.420  27.195  24.236  1.00  0.00     0.046 A 
ATOM     12  O   UNL A   1      31.549  25.972  22.274  1.00  0.00    -0.288 OA
ATOM     13  C   UNL A   1      31.217  27.144  25.616  1.00  0.00     0.051 A 
ATOM     14  H   UNL A   1      30.660  25.950  27.193  1.00  0.00     0.167 HD
ATOM     15  C   UNL A   1      31.825  28.353  23.564  1.00  0.00     0.015 A 
ATOM     16  C   UNL A   1      31.422  28.299  26.337  1.00  0.00     0.042 A 
ATOM     17  C   UNL A   1      32.097  29.481  24.294  1.00  0.00     0.016 A 
BRANCH   7  18
ATOM     18  C   UNL A   1      31.170  23.495  23.401  1.00  0.00     0.344 C 
ATOM     19  O   UNL A   1      30.220  23.024  22.801  1.00  0.00    -0.246 OA
BRANCH  18  20
ATOM     20  O   UNL A   1      32.461  23.095  23.340  1.00  0.00    -0.465 OA
ATOM     21  C   UNL A   1      32.949  22.914  22.014  1.00  0.00     0.282 C 
ENDBRANCH  18  20
ENDBRANCH   7  18
BRANCH   8  22
ATOM     22  S   UNL A   1      30.775  23.313  26.573  1.00  0.00    -0.098 SA
BRANCH  22  23
ATOM     23  C   UNL A   1      32.280  22.350  26.504  1.00  0.00     0.176 C 
BRANCH  23  24
ATOM     24  C   UNL A   1      33.331  22.592  27.561  1.00  0.00     0.234 C 
ATOM     25  O   UNL A   1      33.149  22.195  28.716  1.00  0.00    -0.274 OA
ATOM     26  N   UNL A   1      34.570  23.104  27.279  1.00  0.00    -0.325 N 
ATOM     27  H   UNL A   1      34.995  23.703  27.934  1.00  0.00     0.169 HD
BRANCH  26  28
ATOM     28  C   UNL A   1      35.258  22.806  26.094  1.00  0.00     0.044 A 
ATOM     29  C   UNL A   1      35.879  21.564  25.955  1.00  0.00     0.029 A 
ATOM     30  C   UNL A   1      35.339  23.760  25.070  1.00  0.00    -0.027 A 
ATOM     31  C   UNL A   1      36.711  21.297  24.867  1.00  0.00    -0.049 A 
ATOM     32  C   UNL A   1      36.121  23.460  23.945  1.00  0.00     0.006 A 
ATOM     33  C   UNL A   1      34.648  25.096  25.117  1.00  0.00     0.046 C 
ATOM     34  C   UNL A   1      37.482  20.013  24.796  1.00  0.00     0.044 C 
ATOM     35  C   UNL A   1      36.821  22.254  23.856  1.00  0.00     0.004 A 
ENDBRANCH  26  28
ENDBRANCH  23  24
ENDBRANCH  22  23
ENDBRANCH   8  22
ENDBRANCH   4   6
ENDBRANCH   3   4
ENDBRANCH   2   3
ENDBRANCH   1   2
BRANCH   1  36
ATOM     36  O   UNL A   1      35.317  32.907  28.060  1.00  0.00    -0.374 OA
BRANCH  36  37
ATOM     37  C   UNL A   1      34.170  33.334  28.764  1.00  0.00     0.202 C 
BRANCH  37  38
ATOM     38  C   UNL A   1      34.590  33.684  30.183  1.00  0.00     0.261 C 
BRANCH  38  39
ATOM     39  O   UNL A   1      34.336  32.592  31.110  1.00  0.00    -0.460 OA
BRANCH  39  40
ATOM     40  C   UNL A   1      35.363  32.265  31.956  1.00  0.00     0.338 C 
ATOM     41  O   UNL A   1      35.462  32.664  33.106  1.00  0.00    -0.246 OA
BRANCH  40  42
ATOM     42  C   UNL A   1      36.442  31.530  31.206  1.00  0.00     0.060 A 
ATOM     43  C   UNL A   1      36.360  30.137  31.036  1.00  0.00     0.016 A 
ATOM     44  C   UNL A   1      37.669  32.164  31.029  1.00  0.00     0.016 A 
ATOM     45  C   UNL A   1      37.535  29.372  30.867  1.00  0.00     0.010 A 
ATOM     46  C   UNL A   1      38.826  31.396  30.990  1.00  0.00     0.010 A 
ATOM     47  C   UNL A   1      38.795  29.985  30.954  1.00  0.00    -0.014 A 
BRANCH  47  48
ATOM     48  C   UNL A   1      40.074  29.317  30.572  1.00  0.00     0.031 A 
ATOM     49  C   UNL A   1      40.779  29.102  31.847  1.00  0.00     0.074 A 
ATOM     50  C   UNL A   1      40.596  28.788  29.426  1.00  0.00     0.049 A 
ATOM     51  N   UNL A   1      41.692  29.892  32.308  1.00  0.00    -0.248 NA
ATOM     52  C   UNL A   1      40.214  28.182  32.851  1.00  0.00     0.031 C 
ATOM     53  C   UNL A   1      40.106  28.871  28.060  1.00  0.00     0.029 A 
ATOM     54  N   UNL A   1      41.693  27.954  29.240  1.00  0.00    -0.354 N 
ATOM     55  C   UNL A   1      42.019  29.319  33.520  1.00  0.00     0.074 A 
ATOM     56  C   UNL A   1      40.863  28.585  33.944  1.00  0.00     0.031 C 
ATOM     57  C   UNL A   1      40.624  27.897  27.273  1.00  0.00     0.029 A 
ATOM     58  C   UNL A   1      41.692  27.256  28.013  1.00  0.00     0.049 A 
ATOM     59  H   UNL A   1      42.409  27.858  29.908  1.00  0.00     0.167 HD
ATOM     60  C   UNL A   1      43.323  29.033  33.760  1.00  0.00     0.037 A 
ATOM     61  C   UNL A   1      42.599  26.372  27.509  1.00  0.00     0.037 A 
ATOM     62  C   UNL A   1      44.180  29.762  32.851  1.00  0.00     0.049 A 
ATOM     63  C   UNL A   1      43.889  26.665  28.138  1.00  0.00     0.074 A 
ATOM     64  C   UNL A   1      44.482  31.087  32.618  1.00  0.00     0.029 A 
ATOM     65  N   UNL A   1      44.496  29.073  31.710  1.00  0.00    -0.354 N 
ATOM     66  N   UNL A   1      44.596  27.713  27.835  1.00  0.00    -0.248 NA
ATOM     67  C   UNL A   1      44.256  25.976  29.365  1.00  0.00     0.031 C 
ATOM     68  C   UNL A   1      44.940  31.175  31.271  1.00  0.00     0.029 A 
ATOM     69  C   UNL A   1      44.964  29.899  30.723  1.00  0.00     0.049 A 
ATOM     70  H   UNL A   1      44.398  28.099  31.612  1.00  0.00     0.167 HD
ATOM     71  C   UNL A   1      45.111  28.096  29.050  1.00  0.00     0.074 A 
ATOM     72  C   UNL A   1      45.052  26.907  29.893  1.00  0.00     0.031 C 
ATOM     73  C   UNL A   1      45.150  29.415  29.376  1.00  0.00     0.037 A 
BRANCH  60  74
ATOM     74  C   UNL A   1      43.777  27.751  34.419  1.00  0.00     0.057 A 
ATOM     75  C   UNL A   1      43.561  26.548  33.736  1.00  0.00     0.134 A 
ATOM     76  C   UNL A   1      44.182  27.602  35.768  1.00  0.00     0.134 A 
ATOM     77  F   UNL A   1      43.132  26.552  32.465  1.00  0.00    -0.206 F 
ATOM     78  C   UNL A   1      43.713  25.300  34.350  1.00  0.00     0.040 A 
ATOM     79  C   UNL A   1      44.392  26.364  36.373  1.00  0.00     0.040 A 
ATOM     80  F   UNL A   1      44.303  28.625  36.618  1.00  0.00    -0.206 F 
ATOM     81  C   UNL A   1      44.135  25.205  35.671  1.00  0.00     0.006 A 
ENDBRANCH  60  74
BRANCH  61  82
ATOM     82  C   UNL A   1      42.502  25.197  26.606  1.00  0.00     0.057 A 
ATOM     83  C   UNL A   1      43.276  25.084  25.435  1.00  0.00     0.134 A 
ATOM     84  C   UNL A   1      41.964  24.002  27.098  1.00  0.00     0.134 A 
ATOM     85  F   UNL A   1      43.883  26.159  24.912  1.00  0.00    -0.206 F 
ATOM     86  C   UNL A   1      43.522  23.851  24.808  1.00  0.00     0.040 A 
ATOM     87  C   UNL A   1      42.234  22.761  26.500  1.00  0.00     0.040 A 
ATOM     88  F   UNL A   1      41.234  23.999  28.224  1.00  0.00    -0.206 F 
ATOM     89  C   UNL A   1      43.012  22.680  25.351  1.00  0.00     0.006 A 
ENDBRANCH  61  82
BRANCH  73  90
ATOM     90  C   UNL A   1      45.270  30.403  28.256  1.00  0.00     0.057 A 
ATOM     91  C   UNL A   1      44.200  30.996  27.570  1.00  0.00     0.134 A 
ATOM     92  C   UNL A   1      46.559  30.812  27.895  1.00  0.00     0.134 A 
ATOM     93  F   UNL A   1      42.927  30.709  27.879  1.00  0.00    -0.206 F 
ATOM     94  C   UNL A   1      44.413  31.939  26.557  1.00  0.00     0.040 A 
ATOM     95  C   UNL A   1      46.784  31.775  26.912  1.00  0.00     0.040 A 
ATOM     96  F   UNL A   1      47.629  30.296  28.522  1.00  0.00    -0.206 F 
ATOM     97  C   UNL A   1      45.708  32.337  26.233  1.00  0.00     0.006 A 
ENDBRANCH  73  90
ENDBRANCH  47  48
ENDBRANCH  40  42
ENDBRANCH  39  40
ENDBRANCH  38  39
ENDBRANCH  37  38
ENDBRANCH  36  37
ENDBRANCH   1  36
TORSDOF 20
ENDMDL
MODEL 2
REMARK VINA RESULT:     -10.6      1.379      2.249
REMARK SMILES COC(=O)c1c(SCC(=O)Nc2cc(C)ccc2C)[nH]c2cc(C(=O)OCCOCCOC(=O)c3ccc(-c4c5nc(c(-c6c(F)cccc6F)c6ccc([nH]6)c(-c6c(F)cccc6F)c6nc(c(-c7c(F)cccc7F)c7ccc4[nH]7)C=C6)C=C5)cc3)ccc2c1=O
REMARK SMILES IDX 28 1 27 2 26 3 24 4 25 5 23 6 5 7 6 8 92 9 20 10 91 11 93 12
REMARK SMILES IDX 21 13 90 15 22 16 89 17 3 18 4 19 2 20 1 21 7 22 8 23 9 24
REMARK SMILES IDX 10 25 11 26 12 28 13 29 18 30 14 31 17 32 19 33 15 34 16 35
REMARK SMILES IDX 29 36 30 37 31 38 32 39 33 40 34 41 35 42 36 43 88 44 37 45
REMARK SMILES IDX 87 46 38 47 39 48 40 49 81 50 41 51 86 52 80 53 82 54 42 55
REMARK SMILES IDX 85 56 79 57 78 58 43 60 69 61 52 62 68 63 53 64 56 65 67 66
REMARK SMILES IDX 83 67 54 68 55 69 66 71 84 72 57 73 44 74 45 75 50 76 46 77
REMARK SMILES IDX 47 78 49 79 51 80 48 81 70 82 71 83 76 84 72 85 73 86 75 87
REMARK SMILES IDX 77 88 74 89 58 90 59 91 64 92 60 93 61 94 63 95 65 96 62 97
REMARK H PARENT 20 14 11 27 82 59 56 70
REMARK Flexibility Score: inf
ROOT
ATOM      1  C   UNL A   1      35.504  31.447  27.632  1.00  0.00     0.202 C 
ENDROOT
BRANCH   1   2
ATOM      2  C   UNL A   1      34.094  30.873  27.791  1.00  0.00     0.261 C 
BRANCH   2   3
ATOM      3  O   UNL A   1      33.890  29.816  26.840  1.00  0.00    -0.460 OA
BRANCH   3   4
ATOM      4  C   UNL A   1      32.720  29.780  26.169  1.00  0.00     0.338 C 
ATOM      5  O   UNL A   1      31.865  30.632  26.025  1.00  0.00    -0.246 OA
BRANCH   4   6
ATOM      6  C   UNL A   1      32.491  28.466  25.606  1.00  0.00     0.062 A 
ATOM      7  C   UNL A   1      33.384  24.149  23.199  1.00  0.00     0.138 A 
ATOM      8  C   UNL A   1      34.504  24.437  23.895  1.00  0.00     0.092 A 
ATOM      9  C   UNL A   1      32.167  24.974  23.380  1.00  0.00     0.205 A 
ATOM     10  N   UNL A   1      34.517  25.502  24.787  1.00  0.00    -0.349 N 
ATOM     11  C   UNL A   1      32.243  26.136  24.258  1.00  0.00     0.046 A 
ATOM     12  O   UNL A   1      31.135  24.774  22.748  1.00  0.00    -0.288 OA
ATOM     13  C   UNL A   1      33.445  26.378  24.927  1.00  0.00     0.051 A 
ATOM     14  H   UNL A   1      35.318  25.643  25.342  1.00  0.00     0.167 HD
ATOM     15  C   UNL A   1      31.157  27.014  24.294  1.00  0.00     0.015 A 
ATOM     16  C   UNL A   1      33.546  27.539  25.661  1.00  0.00     0.042 A 
ATOM     17  C   UNL A   1      31.287  28.203  24.966  1.00  0.00     0.016 A 
BRANCH   7  18
ATOM     18  C   UNL A   1      33.250  23.116  22.180  1.00  0.00     0.344 C 
ATOM     19  O   UNL A   1      33.480  23.308  20.999  1.00  0.00    -0.246 OA
BRANCH  18  20
ATOM     20  O   UNL A   1      32.953  21.939  22.778  1.00  0.00    -0.465 OA
ATOM     21  C   UNL A   1      31.867  21.242  22.177  1.00  0.00     0.282 C 
ENDBRANCH  18  20
ENDBRANCH   7  18
BRANCH   8  22
ATOM     22  S   UNL A   1      36.050  23.673  23.631  1.00  0.00    -0.098 SA
BRANCH  22  23
ATOM     23  C   UNL A   1      36.811  23.186  25.175  1.00  0.00     0.176 C 
BRANCH  23  24
ATOM     24  C   UNL A   1      37.268  21.755  25.325  1.00  0.00     0.234 C 
ATOM     25  O   UNL A   1      38.363  21.505  25.837  1.00  0.00    -0.274 OA
ATOM     26  N   UNL A   1      36.458  20.682  25.061  1.00  0.00    -0.325 N 
ATOM     27  H   UNL A   1      36.859  19.872  24.671  1.00  0.00     0.169 HD
BRANCH  26  28
ATOM     28  C   UNL A   1      35.081  20.690  25.325  1.00  0.00     0.044 A 
ATOM     29  C   UNL A   1      34.508  21.804  25.941  1.00  0.00     0.029 A 
ATOM     30  C   UNL A   1      34.295  19.578  24.992  1.00  0.00    -0.027 A 
ATOM     31  C   UNL A   1      33.181  21.780  26.371  1.00  0.00    -0.049 A 
ATOM     32  C   UNL A   1      32.943  19.588  25.366  1.00  0.00     0.006 A 
ATOM     33  C   UNL A   1      34.823  18.366  24.274  1.00  0.00     0.046 C 
ATOM     34  C   UNL A   1      32.615  22.927  27.154  1.00  0.00     0.044 C 
ATOM     35  C   UNL A   1      32.398  20.664  26.070  1.00  0.00     0.004 A 
ENDBRANCH  26  28
ENDBRANCH  23  24
ENDBRANCH  22  23
ENDBRANCH   8  22
ENDBRANCH   4   6
ENDBRANCH   3   4
ENDBRANCH   2   3
ENDBRANCH   1   2
BRANCH   1  36
ATOM     36  O   UNL A   1      35.398  32.811  27.957  1.00  0.00    -0.374 OA
BRANCH  36  37
ATOM     37  C   UNL A   1      34.261  33.300  28.637  1.00  0.00     0.202 C 
BRANCH  37  38
ATOM     38  C   UNL A   1      34.678  33.655  30.056  1.00  0.00     0.261 C 
BRANCH  38  39
ATOM     39  O   UNL A   1      34.345  32.599  31.001  1.00  0.00    -0.460 OA
BRANCH  39  40
ATOM     40  C   UNL A   1      35.340  32.225  31.865  1.00  0.00     0.338 C 
ATOM     41  O   UNL A   1      35.410  32.583  33.030  1.00  0.00    -0.246 OA
BRANCH  40  42
ATOM     42  C   UNL A   1      36.429  31.497  31.123  1.00  0.00     0.060 A 
ATOM     43  C   UNL A   1      36.337  30.109  30.920  1.00  0.00     0.016 A 
ATOM     44  C   UNL A   1      37.665  32.122  30.988  1.00  0.00     0.016 A 
ATOM     45  C   UNL A   1      37.509  29.336  30.760  1.00  0.00     0.010 A 
ATOM     46  C   UNL A   1      38.816  31.344  30.957  1.00  0.00     0.010 A 
ATOM     47  C   UNL A   1      38.771  29.934  30.889  1.00  0.00    -0.014 A 
BRANCH  47  48
ATOM     48  C   UNL A   1      40.053  29.262  30.521  1.00  0.00     0.031 A 
ATOM     49  C   UNL A   1      40.749  29.056  31.802  1.00  0.00     0.074 A 
ATOM     50  C   UNL A   1      40.582  28.724  29.382  1.00  0.00     0.049 A 
ATOM     51  N   UNL A   1      41.659  29.849  32.264  1.00  0.00    -0.248 NA
ATOM     52  C   UNL A   1      40.176  28.144  32.809  1.00  0.00     0.031 C 
ATOM     53  C   UNL A   1      40.101  28.797  28.012  1.00  0.00     0.029 A 
ATOM     54  N   UNL A   1      41.679  27.888  29.210  1.00  0.00    -0.354 N 
ATOM     55  C   UNL A   1      41.978  29.284  33.482  1.00  0.00     0.074 A 
ATOM     56  C   UNL A   1      40.818  28.555  33.904  1.00  0.00     0.031 C 
ATOM     57  C   UNL A   1      40.624  27.816  27.236  1.00  0.00     0.029 A 
ATOM     58  C   UNL A   1      41.686  27.180  27.988  1.00  0.00     0.049 A 
ATOM     59  H   UNL A   1      42.390  27.796  29.884  1.00  0.00     0.167 HD
ATOM     60  C   UNL A   1      43.280  28.998  33.733  1.00  0.00     0.037 A 
ATOM     61  C   UNL A   1      42.595  26.291  27.497  1.00  0.00     0.037 A 
ATOM     62  C   UNL A   1      44.144  29.720  32.825  1.00  0.00     0.049 A 
ATOM     63  C   UNL A   1      43.882  26.588  28.133  1.00  0.00     0.074 A 
ATOM     64  C   UNL A   1      44.449  31.043  32.583  1.00  0.00     0.029 A 
ATOM     65  N   UNL A   1      44.467  29.022  31.691  1.00  0.00    -0.354 N 
ATOM     66  N   UNL A   1      44.591  27.633  27.827  1.00  0.00    -0.248 NA
ATOM     67  C   UNL A   1      44.239  25.908  29.368  1.00  0.00     0.031 C 
ATOM     68  C   UNL A   1      44.915  31.121  31.239  1.00  0.00     0.029 A 
ATOM     69  C   UNL A   1      44.942  29.840  30.700  1.00  0.00     0.049 A 
ATOM     70  H   UNL A   1      44.368  28.047  31.599  1.00  0.00     0.167 HD
ATOM     71  C   UNL A   1      45.099  28.024  29.042  1.00  0.00     0.074 A 
ATOM     72  C   UNL A   1      45.033  26.842  29.894  1.00  0.00     0.031 C 
ATOM     73  C   UNL A   1      45.136  29.346  29.359  1.00  0.00     0.037 A 
BRANCH  60  74
ATOM     74  C   UNL A   1      43.728  27.721  34.405  1.00  0.00     0.057 A 
ATOM     75  C   UNL A   1      44.359  27.819  35.651  1.00  0.00     0.134 A 
ATOM     76  C   UNL A   1      43.799  26.441  33.803  1.00  0.00     0.134 A 
ATOM     77  F   UNL A   1      44.401  28.990  36.305  1.00  0.00    -0.206 F 
ATOM     78  C   UNL A   1      45.027  26.739  36.239  1.00  0.00     0.040 A 
ATOM     79  C   UNL A   1      44.412  25.343  34.407  1.00  0.00     0.040 A 
ATOM     80  F   UNL A   1      43.379  26.186  32.561  1.00  0.00    -0.206 F 
ATOM     81  C   UNL A   1      45.050  25.495  35.620  1.00  0.00     0.006 A 
ENDBRANCH  60  74
BRANCH  61  82
ATOM     82  C   UNL A   1      42.503  25.110  26.602  1.00  0.00     0.057 A 
ATOM     83  C   UNL A   1      43.252  25.008  25.414  1.00  0.00     0.134 A 
ATOM     84  C   UNL A   1      42.003  23.906  27.113  1.00  0.00     0.134 A 
ATOM     85  F   UNL A   1      43.822  26.093  24.872  1.00  0.00    -0.206 F 
ATOM     86  C   UNL A   1      43.511  23.777  24.787  1.00  0.00     0.040 A 
ATOM     87  C   UNL A   1      42.287  22.668  26.515  1.00  0.00     0.040 A 
ATOM     88  F   UNL A   1      41.300  23.893  28.256  1.00  0.00    -0.206 F 
ATOM     89  C   UNL A   1      43.039  22.598  25.348  1.00  0.00     0.006 A 
ENDBRANCH  61  82
BRANCH  73  90
ATOM     90  C   UNL A   1      45.265  30.325  28.232  1.00  0.00     0.057 A 
ATOM     91  C   UNL A   1      44.201  30.951  27.567  1.00  0.00     0.134 A 
ATOM     92  C   UNL A   1      46.559  30.690  27.842  1.00  0.00     0.134 A 
ATOM     93  F   UNL A   1      42.927  30.707  27.904  1.00  0.00    -0.206 F 
ATOM     94  C   UNL A   1      44.423  31.883  26.546  1.00  0.00     0.040 A 
ATOM     95  C   UNL A   1      46.794  31.642  26.851  1.00  0.00     0.040 A 
ATOM     96  F   UNL A   1      47.624  30.141  28.449  1.00  0.00    -0.206 F 
ATOM     97  C   UNL A   1      45.724  32.236  26.192  1.00  0.00     0.006 A 
ENDBRANCH  73  90
ENDBRANCH  47  48
ENDBRANCH  40  42
ENDBRANCH  39  40
ENDBRANCH  38  39
ENDBRANCH  37  38
ENDBRANCH  36  37
ENDBRANCH   1  36
TORSDOF 20
ENDMDL
MODEL 3
REMARK VINA RESULT:     -10.5      2.618      3.927
REMARK SMILES COC(=O)c1c(SCC(=O)Nc2cc(C)ccc2C)[nH]c2cc(C(=O)OCCOCCOC(=O)c3ccc(-c4c5nc(c(-c6c(F)cccc6F)c6ccc([nH]6)c(-c6c(F)cccc6F)c6nc(c(-c7c(F)cccc7F)c7ccc4[nH]7)C=C6)C=C5)cc3)ccc2c1=O
REMARK SMILES IDX 28 1 27 2 26 3 24 4 25 5 23 6 5 7 6 8 92 9 20 10 91 11 93 12
REMARK SMILES IDX 21 13 90 15 22 16 89 17 3 18 4 19 2 20 1 21 7 22 8 23 9 24
REMARK SMILES IDX 10 25 11 26 12 28 13 29 18 30 14 31 17 32 19 33 15 34 16 35
REMARK SMILES IDX 29 36 30 37 31 38 32 39 33 40 34 41 35 42 36 43 88 44 37 45
REMARK SMILES IDX 87 46 38 47 39 48 40 49 81 50 41 51 86 52 80 53 82 54 42 55
REMARK SMILES IDX 85 56 79 57 78 58 43 60 69 61 52 62 68 63 53 64 56 65 67 66
REMARK SMILES IDX 83 67 54 68 55 69 66 71 84 72 57 73 44 74 45 75 50 76 46 77
REMARK SMILES IDX 47 78 49 79 51 80 48 81 70 82 71 83 76 84 72 85 73 86 75 87
REMARK SMILES IDX 77 88 74 89 58 90 59 91 64 92 60 93 61 94 63 95 65 96 62 97
REMARK H PARENT 20 14 11 27 82 59 56 70
REMARK Flexibility Score: inf
ROOT
ATOM      1  C   UNL A   1      36.098  31.562  31.038  1.00  0.00     0.202 C 
ENDROOT
BRANCH   1   2
ATOM      2  C   UNL A   1      36.304  31.622  29.523  1.00  0.00     0.261 C 
BRANCH   2   3
ATOM      3  O   UNL A   1      35.106  31.200  28.852  1.00  0.00    -0.460 OA
BRANCH   3   4
ATOM      4  C   UNL A   1      35.204  30.219  27.931  1.00  0.00     0.338 C 
ATOM      5  O   UNL A   1      36.155  29.538  27.599  1.00  0.00    -0.246 OA
BRANCH   4   6
ATOM      6  C   UNL A   1      33.951  30.049  27.227  1.00  0.00     0.062 A 
ATOM      7  C   UNL A   1      30.711  28.729  23.623  1.00  0.00     0.138 A 
ATOM      8  C   UNL A   1      31.623  27.736  23.699  1.00  0.00     0.092 A 
ATOM      9  C   UNL A   1      30.727  29.827  24.618  1.00  0.00     0.205 A 
ATOM     10  N   UNL A   1      32.573  27.738  24.713  1.00  0.00    -0.349 N 
ATOM     11  C   UNL A   1      31.791  29.842  25.614  1.00  0.00     0.046 A 
ATOM     12  O   UNL A   1      29.941  30.768  24.573  1.00  0.00    -0.288 OA
ATOM     13  C   UNL A   1      32.709  28.789  25.614  1.00  0.00     0.051 A 
ATOM     14  H   UNL A   1      33.176  26.963  24.796  1.00  0.00     0.167 HD
ATOM     15  C   UNL A   1      31.914  30.964  26.438  1.00  0.00     0.015 A 
ATOM     16  C   UNL A   1      33.777  28.871  26.479  1.00  0.00     0.042 A 
ATOM     17  C   UNL A   1      33.016  31.076  27.247  1.00  0.00     0.016 A 
BRANCH   7  18
ATOM     18  C   UNL A   1      29.711  28.895  22.576  1.00  0.00     0.344 C 
ATOM     19  O   UNL A   1      29.933  29.468  21.524  1.00  0.00    -0.246 OA
BRANCH  18  20
ATOM     20  O   UNL A   1      28.588  28.227  22.926  1.00  0.00    -0.465 OA
ATOM     21  C   UNL A   1      27.394  28.993  22.795  1.00  0.00     0.282 C 
ENDBRANCH  18  20
ENDBRANCH   7  18
BRANCH   8  22
ATOM     22  S   UNL A   1      31.835  26.501  22.486  1.00  0.00    -0.098 SA
BRANCH  22  23
ATOM     23  C   UNL A   1      32.659  25.061  23.156  1.00  0.00     0.176 C 
BRANCH  23  24
ATOM     24  C   UNL A   1      33.140  24.003  22.192  1.00  0.00     0.234 C 
ATOM     25  O   UNL A   1      33.329  24.287  21.006  1.00  0.00    -0.274 OA
ATOM     26  N   UNL A   1      33.537  22.754  22.592  1.00  0.00    -0.325 N 
ATOM     27  H   UNL A   1      33.345  21.987  22.006  1.00  0.00     0.169 HD
BRANCH  26  28
ATOM     28  C   UNL A   1      34.207  22.525  23.803  1.00  0.00     0.044 A 
ATOM     29  C   UNL A   1      35.364  23.250  24.094  1.00  0.00     0.029 A 
ATOM     30  C   UNL A   1      33.727  21.560  24.699  1.00  0.00    -0.027 A 
ATOM     31  C   UNL A   1      36.147  22.932  25.204  1.00  0.00    -0.049 A 
ATOM     32  C   UNL A   1      34.483  21.292  25.850  1.00  0.00     0.006 A 
ATOM     33  C   UNL A   1      32.457  20.781  24.488  1.00  0.00     0.046 C 
ATOM     34  C   UNL A   1      37.458  23.623  25.432  1.00  0.00     0.044 C 
ATOM     35  C   UNL A   1      35.692  21.951  26.087  1.00  0.00     0.004 A 
ENDBRANCH  26  28
ENDBRANCH  23  24
ENDBRANCH  22  23
ENDBRANCH   8  22
ENDBRANCH   4   6
ENDBRANCH   3   4
ENDBRANCH   2   3
ENDBRANCH   1   2
BRANCH   1  36
ATOM     36  O   UNL A   1      37.239  32.161  31.601  1.00  0.00    -0.374 OA
BRANCH  36  37
ATOM     37  C   UNL A   1      37.142  33.402  32.269  1.00  0.00     0.202 C 
BRANCH  37  38
ATOM     38  C   UNL A   1      37.807  34.458  31.399  1.00  0.00     0.261 C 
BRANCH  38  39
ATOM     39  O   UNL A   1      39.252  34.288  31.348  1.00  0.00    -0.460 OA
BRANCH  39  40
ATOM     40  C   UNL A   1      39.774  33.905  30.141  1.00  0.00     0.338 C 
ATOM     41  O   UNL A   1      39.457  34.393  29.068  1.00  0.00    -0.246 OA
BRANCH  40  42
ATOM     42  C   UNL A   1      40.620  32.671  30.307  1.00  0.00     0.060 A 
ATOM     43  C   UNL A   1      42.011  32.738  30.111  1.00  0.00     0.016 A 
ATOM     44  C   UNL A   1      39.988  31.431  30.274  1.00  0.00     0.016 A 
ATOM     45  C   UNL A   1      42.726  31.588  29.708  1.00  0.00     0.010 A 
ATOM     46  C   UNL A   1      40.674  30.338  29.757  1.00  0.00     0.010 A 
ATOM     47  C   UNL A   1      42.043  30.397  29.418  1.00  0.00    -0.014 A 
BRANCH  47  48
ATOM     48  C   UNL A   1      42.716  29.081  29.205  1.00  0.00     0.031 A 
ATOM     49  C   UNL A   1      43.479  28.848  30.443  1.00  0.00     0.074 A 
ATOM     50  C   UNL A   1      42.653  28.092  28.266  1.00  0.00     0.049 A 
ATOM     51  N   UNL A   1      44.736  29.118  30.576  1.00  0.00    -0.248 NA
ATOM     52  C   UNL A   1      42.766  28.652  31.718  1.00  0.00     0.031 C 
ATOM     53  C   UNL A   1      41.987  28.081  26.974  1.00  0.00     0.029 A 
ATOM     54  N   UNL A   1      43.133  26.788  28.302  1.00  0.00    -0.354 N 
ATOM     55  C   UNL A   1      44.992  28.780  31.889  1.00  0.00     0.074 A 
ATOM     56  C   UNL A   1      43.747  28.904  32.587  1.00  0.00     0.031 C 
ATOM     57  C   UNL A   1      41.781  26.822  26.518  1.00  0.00     0.029 A 
ATOM     58  C   UNL A   1      42.528  25.918  27.369  1.00  0.00     0.049 A 
ATOM     59  H   UNL A   1      43.834  26.494  28.928  1.00  0.00     0.167 HD
ATOM     60  C   UNL A   1      46.006  27.914  32.141  1.00  0.00     0.037 A 
ATOM     61  C   UNL A   1      42.755  24.595  27.130  1.00  0.00     0.037 A 
ATOM     62  C   UNL A   1      46.893  27.824  31.002  1.00  0.00     0.049 A 
ATOM     63  C   UNL A   1      44.124  24.303  27.564  1.00  0.00     0.074 A 
ATOM     64  C   UNL A   1      47.747  28.679  30.337  1.00  0.00     0.029 A 
ATOM     65  N   UNL A   1      46.579  26.815  30.130  1.00  0.00    -0.354 N 
ATOM     66  N   UNL A   1      45.169  24.702  26.902  1.00  0.00    -0.248 NA
ATOM     67  C   UNL A   1      44.358  23.854  28.927  1.00  0.00     0.031 C 
ATOM     68  C   UNL A   1      47.889  28.174  29.013  1.00  0.00     0.029 A 
ATOM     69  C   UNL A   1      47.167  26.991  28.905  1.00  0.00     0.049 A 
ATOM     70  H   UNL A   1      45.998  26.054  30.357  1.00  0.00     0.167 HD
ATOM     71  C   UNL A   1      46.052  25.038  27.899  1.00  0.00     0.074 A 
ATOM     72  C   UNL A   1      45.601  24.316  29.083  1.00  0.00     0.031 C 
ATOM     73  C   UNL A   1      46.800  26.168  27.779  1.00  0.00     0.037 A 
BRANCH  60  74
ATOM     74  C   UNL A   1      45.903  26.797  33.154  1.00  0.00     0.057 A 
ATOM     75  C   UNL A   1      44.975  25.776  32.916  1.00  0.00     0.134 A 
ATOM     76  C   UNL A   1      46.473  26.790  34.450  1.00  0.00     0.134 A 
ATOM     77  F   UNL A   1      44.331  25.699  31.741  1.00  0.00    -0.206 F 
ATOM     78  C   UNL A   1      44.625  24.839  33.894  1.00  0.00     0.040 A 
ATOM     79  C   UNL A   1      46.175  25.826  35.413  1.00  0.00     0.040 A 
ATOM     80  F   UNL A   1      47.271  27.757  34.911  1.00  0.00    -0.206 F 
ATOM     81  C   UNL A   1      45.230  24.858  35.145  1.00  0.00     0.006 A 
ENDBRANCH  60  74
BRANCH  61  82
ATOM     82  C   UNL A   1      41.905  23.472  26.662  1.00  0.00     0.057 A 
ATOM     83  C   UNL A   1      42.391  22.473  25.796  1.00  0.00     0.134 A 
ATOM     84  C   UNL A   1      40.750  23.144  27.383  1.00  0.00     0.134 A 
ATOM     85  F   UNL A   1      43.521  22.664  25.101  1.00  0.00    -0.206 F 
ATOM     86  C   UNL A   1      41.779  21.214  25.676  1.00  0.00     0.040 A 
ATOM     87  C   UNL A   1      40.153  21.876  27.298  1.00  0.00     0.040 A 
ATOM     88  F   UNL A   1      40.224  24.017  28.255  1.00  0.00    -0.206 F 
ATOM     89  C   UNL A   1      40.663  20.906  26.442  1.00  0.00     0.006 A 
ENDBRANCH  61  82
BRANCH  73  90
ATOM     90  C   UNL A   1      47.145  26.627  26.395  1.00  0.00     0.057 A 
ATOM     91  C   UNL A   1      46.410  27.544  25.631  1.00  0.00     0.134 A 
ATOM     92  C   UNL A   1      48.332  26.140  25.835  1.00  0.00     0.134 A 
ATOM     93  F   UNL A   1      45.287  28.105  26.103  1.00  0.00    -0.206 F 
ATOM     94  C   UNL A   1      46.834  27.940  24.356  1.00  0.00     0.040 A 
ATOM     95  C   UNL A   1      48.783  26.553  24.582  1.00  0.00     0.040 A 
ATOM     96  F   UNL A   1      49.093  25.272  26.519  1.00  0.00    -0.206 F 
ATOM     97  C   UNL A   1      48.028  27.450  23.833  1.00  0.00     0.006 A 
ENDBRANCH  73  90
ENDBRANCH  47  48
ENDBRANCH  40  42
ENDBRANCH  39  40
ENDBRANCH  38  39
ENDBRANCH  37  38
ENDBRANCH  36  37
ENDBRANCH   1  36
TORSDOF 20
ENDMDL
