MODEL 1
REMARK VINA RESULT:     -10.0      0.000      0.000
REMARK SMILES O=C(OCCOCCOC(=O)[C@H]1CC1(c1ccccc1)c1ccccc1)c1ccc(-c2c3nc(c(-c4c(F)cccc4F)c4ccc([nH]4)c(-c4c(F)cccc4F)c4nc(c(-c5c(F)cccc5F)c5ccc2[nH]5)C=C4)C=C3)cc1
REMARK SMILES IDX 5 1 4 2 3 3 2 4 1 5 27 6 28 7 80 8 29 9 79 10 30 11 31 12
REMARK SMILES IDX 32 13 73 14 33 15 78 16 72 17 74 18 34 19 77 20 71 21 70 22
REMARK SMILES IDX 35 24 61 25 44 26 60 27 45 28 48 29 59 30 75 31 46 32 47 33
REMARK SMILES IDX 58 35 76 36 49 37 36 38 37 39 42 40 38 41 39 42 41 43 43 44
REMARK SMILES IDX 40 45 62 46 63 47 68 48 64 49 65 50 67 51 69 52 66 53 50 54
REMARK SMILES IDX 51 55 56 56 52 57 53 58 55 59 57 60 54 61 6 62 7 63 8 64
REMARK SMILES IDX 9 65 10 66 11 67 12 68 13 69 14 70 15 71 16 72 20 73 17 74
REMARK SMILES IDX 19 75 18 76 21 77 22 78 26 79 23 80 25 81 24 82
REMARK H PARENT 74 23 48 34
REMARK Flexibility Score: inf
ROOT
ATOM      1  C   UNL A   1      40.928  19.923  26.453  1.00  0.00     0.202 C 
ENDROOT
BRANCH   1   2
ATOM      2  C   UNL A   1      40.623  21.367  26.051  1.00  0.00     0.261 C 
BRANCH   2   3
ATOM      3  O   UNL A   1      39.300  21.745  26.498  1.00  0.00    -0.460 OA
BRANCH   3   4
ATOM      4  C   UNL A   1      38.695  22.949  26.323  1.00  0.00     0.338 C 
ATOM      5  O   UNL A   1      37.602  23.026  25.772  1.00  0.00    -0.246 OA
BRANCH   4   6
ATOM      6  C   UNL A   1      39.326  24.179  26.856  1.00  0.00     0.060 A 
ATOM      7  C   UNL A   1      39.280  24.478  28.207  1.00  0.00     0.016 A 
ATOM      8  C   UNL A   1      40.003  25.054  26.005  1.00  0.00     0.016 A 
ATOM      9  C   UNL A   1      39.653  25.701  28.692  1.00  0.00     0.010 A 
ATOM     10  C   UNL A   1      40.556  26.232  26.523  1.00  0.00     0.010 A 
ATOM     11  C   UNL A   1      40.351  26.569  27.870  1.00  0.00    -0.014 A 
BRANCH  11  12
ATOM     12  C   UNL A   1      40.789  27.826  28.498  1.00  0.00     0.031 A 
ATOM     13  C   UNL A   1      42.249  28.134  28.543  1.00  0.00     0.074 A 
ATOM     14  C   UNL A   1      39.856  28.744  28.820  1.00  0.00     0.049 A 
ATOM     15  N   UNL A   1      42.856  29.153  29.084  1.00  0.00    -0.248 NA
ATOM     16  C   UNL A   1      43.151  27.174  27.883  1.00  0.00     0.031 C 
ATOM     17  C   UNL A   1      38.404  28.569  28.660  1.00  0.00     0.029 A 
ATOM     18  N   UNL A   1      39.977  30.028  29.275  1.00  0.00    -0.354 N 
ATOM     19  C   UNL A   1      44.209  28.932  28.877  1.00  0.00     0.074 A 
ATOM     20  C   UNL A   1      44.340  27.686  28.158  1.00  0.00     0.031 C 
ATOM     21  C   UNL A   1      37.783  29.723  28.939  1.00  0.00     0.029 A 
ATOM     22  C   UNL A   1      38.771  30.673  29.421  1.00  0.00     0.049 A 
ATOM     23  H   UNL A   1      40.843  30.450  29.476  1.00  0.00     0.167 HD
ATOM     24  C   UNL A   1      45.241  29.711  29.270  1.00  0.00     0.037 A 
ATOM     25  C   UNL A   1      38.497  31.880  29.946  1.00  0.00     0.037 A 
ATOM     26  C   UNL A   1      45.058  30.953  29.972  1.00  0.00     0.049 A 
ATOM     27  C   UNL A   1      39.660  32.681  30.454  1.00  0.00     0.074 A 
ATOM     28  C   UNL A   1      46.007  31.786  30.528  1.00  0.00     0.029 A 
ATOM     29  N   UNL A   1      43.819  31.544  30.194  1.00  0.00    -0.354 N 
ATOM     30  N   UNL A   1      40.942  32.406  30.387  1.00  0.00    -0.248 NA
ATOM     31  C   UNL A   1      39.345  33.940  31.136  1.00  0.00     0.031 C 
ATOM     32  C   UNL A   1      45.339  32.869  31.114  1.00  0.00     0.029 A 
ATOM     33  C   UNL A   1      43.977  32.733  30.881  1.00  0.00     0.049 A 
ATOM     34  H   UNL A   1      42.955  31.171  29.903  1.00  0.00     0.167 HD
ATOM     35  C   UNL A   1      41.590  33.454  31.018  1.00  0.00     0.074 A 
ATOM     36  C   UNL A   1      40.557  34.390  31.426  1.00  0.00     0.031 C 
ATOM     37  C   UNL A   1      42.912  33.628  31.259  1.00  0.00     0.037 A 
BRANCH  24  38
ATOM     38  C   UNL A   1      46.621  29.187  29.015  1.00  0.00     0.057 A 
ATOM     39  C   UNL A   1      47.264  28.311  29.897  1.00  0.00     0.134 A 
ATOM     40  C   UNL A   1      47.340  29.611  27.889  1.00  0.00     0.134 A 
ATOM     41  F   UNL A   1      46.646  27.896  31.014  1.00  0.00    -0.206 F 
ATOM     42  C   UNL A   1      48.580  27.894  29.685  1.00  0.00     0.040 A 
ATOM     43  C   UNL A   1      48.648  29.184  27.653  1.00  0.00     0.040 A 
ATOM     44  F   UNL A   1      46.789  30.460  27.009  1.00  0.00    -0.206 F 
ATOM     45  C   UNL A   1      49.275  28.329  28.556  1.00  0.00     0.006 A 
ENDBRANCH  24  38
BRANCH  25  46
ATOM     46  C   UNL A   1      37.091  32.338  30.106  1.00  0.00     0.057 A 
ATOM     47  C   UNL A   1      36.334  32.016  31.237  1.00  0.00     0.134 A 
ATOM     48  C   UNL A   1      36.460  33.103  29.113  1.00  0.00     0.134 A 
ATOM     49  F   UNL A   1      36.868  31.271  32.217  1.00  0.00    -0.206 F 
ATOM     50  C   UNL A   1      35.002  32.416  31.366  1.00  0.00     0.040 A 
ATOM     51  C   UNL A   1      35.141  33.540  29.246  1.00  0.00     0.040 A 
ATOM     52  F   UNL A   1      37.123  33.453  28.001  1.00  0.00    -0.206 F 
ATOM     53  C   UNL A   1      34.404  33.186  30.371  1.00  0.00     0.006 A 
ENDBRANCH  25  46
BRANCH  37  54
ATOM     54  C   UNL A   1      43.293  34.889  31.968  1.00  0.00     0.057 A 
ATOM     55  C   UNL A   1      43.603  36.062  31.269  1.00  0.00     0.134 A 
ATOM     56  C   UNL A   1      43.331  34.930  33.367  1.00  0.00     0.134 A 
ATOM     57  F   UNL A   1      43.601  36.075  29.927  1.00  0.00    -0.206 F 
ATOM     58  C   UNL A   1      43.965  37.229  31.939  1.00  0.00     0.040 A 
ATOM     59  C   UNL A   1      43.664  36.099  34.047  1.00  0.00     0.040 A 
ATOM     60  F   UNL A   1      43.037  33.838  34.089  1.00  0.00    -0.206 F 
ATOM     61  C   UNL A   1      43.990  37.250  33.333  1.00  0.00     0.006 A 
ENDBRANCH  37  54
ENDBRANCH  11  12
ENDBRANCH   4   6
ENDBRANCH   3   4
ENDBRANCH   2   3
ENDBRANCH   1   2
BRANCH   1  62
ATOM     62  O   UNL A   1      41.721  19.202  25.515  1.00  0.00    -0.374 OA
BRANCH  62  63
ATOM     63  C   UNL A   1      42.997  18.784  25.997  1.00  0.00     0.202 C 
BRANCH  63  64
ATOM     64  C   UNL A   1      44.068  19.206  25.002  1.00  0.00     0.261 C 
BRANCH  64  65
ATOM     65  O   UNL A   1      44.135  20.644  24.952  1.00  0.00    -0.463 OA
BRANCH  65  66
ATOM     66  C   UNL A   1      45.395  21.151  25.009  1.00  0.00     0.310 C 
ATOM     67  O   UNL A   1      46.403  20.551  25.376  1.00  0.00    -0.252 OA
BRANCH  66  68
ATOM     68  C   UNL A   1      45.420  22.603  24.782  1.00  0.00     0.115 C 
ATOM     69  C   UNL A   1      44.089  23.280  24.614  1.00  0.00     0.034 C 
ATOM     70  C   UNL A   1      45.061  23.803  25.679  1.00  0.00     0.034 C 
BRANCH  70  71
ATOM     71  C   UNL A   1      44.441  23.822  27.100  1.00  0.00    -0.037 A 
ATOM     72  C   UNL A   1      45.266  23.952  28.239  1.00  0.00     0.004 A 
ATOM     73  C   UNL A   1      43.099  23.473  27.351  1.00  0.00     0.004 A 
ATOM     74  C   UNL A   1      44.794  23.723  29.537  1.00  0.00     0.000 A 
ATOM     75  C   UNL A   1      42.621  23.229  28.647  1.00  0.00     0.000 A 
ATOM     76  C   UNL A   1      43.472  23.348  29.740  1.00  0.00     0.000 A 
ENDBRANCH  70  71
BRANCH  70  77
ATOM     77  C   UNL A   1      45.910  25.086  25.357  1.00  0.00    -0.037 A 
ATOM     78  C   UNL A   1      45.311  26.313  25.001  1.00  0.00     0.004 A 
ATOM     79  C   UNL A   1      47.317  25.096  25.433  1.00  0.00     0.004 A 
ATOM     80  C   UNL A   1      46.052  27.463  24.726  1.00  0.00     0.000 A 
ATOM     81  C   UNL A   1      48.068  26.244  25.172  1.00  0.00     0.000 A 
ATOM     82  C   UNL A   1      47.435  27.427  24.814  1.00  0.00     0.000 A 
ENDBRANCH  70  77
ENDBRANCH  66  68
ENDBRANCH  65  66
ENDBRANCH  64  65
ENDBRANCH  63  64
ENDBRANCH  62  63
ENDBRANCH   1  62
TORSDOF 16
ENDMDL
MODEL 2
REMARK VINA RESULT:      -9.8      4.115     11.082
REMARK SMILES O=C(OCCOCCOC(=O)[C@H]1CC1(c1ccccc1)c1ccccc1)c1ccc(-c2c3nc(c(-c4c(F)cccc4F)c4ccc([nH]4)c(-c4c(F)cccc4F)c4nc(c(-c5c(F)cccc5F)c5ccc2[nH]5)C=C4)C=C3)cc1
REMARK SMILES IDX 5 1 4 2 3 3 2 4 1 5 27 6 28 7 80 8 29 9 79 10 30 11 31 12
REMARK SMILES IDX 32 13 73 14 33 15 78 16 72 17 74 18 34 19 77 20 71 21 70 22
REMARK SMILES IDX 35 24 61 25 44 26 60 27 45 28 48 29 59 30 75 31 46 32 47 33
REMARK SMILES IDX 58 35 76 36 49 37 36 38 37 39 42 40 38 41 39 42 41 43 43 44
REMARK SMILES IDX 40 45 62 46 63 47 68 48 64 49 65 50 67 51 69 52 66 53 50 54
REMARK SMILES IDX 51 55 56 56 52 57 53 58 55 59 57 60 54 61 6 62 7 63 8 64
REMARK SMILES IDX 9 65 10 66 11 67 12 68 13 69 14 70 15 71 16 72 20 73 17 74
REMARK SMILES IDX 19 75 18 76 21 77 22 78 26 79 23 80 25 81 24 82
REMARK H PARENT 74 23 48 34
REMARK Flexibility Score: inf
ROOT
ATOM      1  C   UNL A   1      34.149  34.001  27.989  1.00  0.00     0.202 C 
ENDROOT
BRANCH   1   2
ATOM      2  C   UNL A   1      33.763  32.576  28.386  1.00  0.00     0.261 C 
BRANCH   2   3
ATOM      3  O   UNL A   1      34.183  31.639  27.367  1.00  0.00    -0.460 OA
BRANCH   3   4
ATOM      4  C   UNL A   1      34.567  30.350  27.555  1.00  0.00     0.338 C 
ATOM      5  O   UNL A   1      33.845  29.422  27.204  1.00  0.00    -0.246 OA
BRANCH   4   6
ATOM      6  C   UNL A   1      35.898  30.051  28.135  1.00  0.00     0.060 A 
ATOM      7  C   UNL A   1      37.059  30.296  27.421  1.00  0.00     0.016 A 
ATOM      8  C   UNL A   1      36.009  29.537  29.427  1.00  0.00     0.016 A 
ATOM      9  C   UNL A   1      38.276  29.828  27.834  1.00  0.00     0.010 A 
ATOM     10  C   UNL A   1      37.275  29.223  29.940  1.00  0.00     0.010 A 
ATOM     11  C   UNL A   1      38.411  29.343  29.124  1.00  0.00    -0.014 A 
BRANCH  11  12
ATOM     12  C   UNL A   1      39.772  28.943  29.514  1.00  0.00     0.031 A 
ATOM     13  C   UNL A   1      40.436  29.664  30.640  1.00  0.00     0.074 A 
ATOM     14  C   UNL A   1      40.286  27.813  28.989  1.00  0.00     0.049 A 
ATOM     15  N   UNL A   1      41.640  29.510  31.116  1.00  0.00    -0.248 NA
ATOM     16  C   UNL A   1      39.639  30.693  31.330  1.00  0.00     0.031 C 
ATOM     17  C   UNL A   1      39.622  26.965  27.986  1.00  0.00     0.029 A 
ATOM     18  N   UNL A   1      41.442  27.136  29.267  1.00  0.00    -0.354 N 
ATOM     19  C   UNL A   1      41.763  30.453  32.125  1.00  0.00     0.074 A 
ATOM     20  C   UNL A   1      40.515  31.175  32.198  1.00  0.00     0.031 C 
ATOM     21  C   UNL A   1      40.345  25.853  27.795  1.00  0.00     0.029 A 
ATOM     22  C   UNL A   1      41.578  25.969  28.553  1.00  0.00     0.049 A 
ATOM     23  H   UNL A   1      42.111  27.454  29.916  1.00  0.00     0.167 HD
ATOM     24  C   UNL A   1      42.840  30.688  32.906  1.00  0.00     0.037 A 
ATOM     25  C   UNL A   1      42.618  25.119  28.480  1.00  0.00     0.037 A 
ATOM     26  C   UNL A   1      44.058  29.929  32.804  1.00  0.00     0.049 A 
ATOM     27  C   UNL A   1      43.832  25.459  29.294  1.00  0.00     0.074 A 
ATOM     28  C   UNL A   1      45.263  30.127  33.449  1.00  0.00     0.029 A 
ATOM     29  N   UNL A   1      44.207  28.803  32.002  1.00  0.00    -0.354 N 
ATOM     30  N   UNL A   1      44.004  26.441  30.148  1.00  0.00    -0.248 NA
ATOM     31  C   UNL A   1      45.006  24.599  29.116  1.00  0.00     0.031 C 
ATOM     32  C   UNL A   1      46.152  29.135  33.013  1.00  0.00     0.029 A 
ATOM     33  C   UNL A   1      45.485  28.293  32.133  1.00  0.00     0.049 A 
ATOM     34  H   UNL A   1      43.504  28.423  31.426  1.00  0.00     0.167 HD
ATOM     35  C   UNL A   1      45.303  26.321  30.611  1.00  0.00     0.074 A 
ATOM     36  C   UNL A   1      45.861  25.144  29.969  1.00  0.00     0.031 C 
ATOM     37  C   UNL A   1      45.986  27.114  31.472  1.00  0.00     0.037 A 
BRANCH  24  38
ATOM     38  C   UNL A   1      42.752  31.845  33.853  1.00  0.00     0.057 A 
ATOM     39  C   UNL A   1      43.237  33.117  33.527  1.00  0.00     0.134 A 
ATOM     40  C   UNL A   1      42.217  31.668  35.136  1.00  0.00     0.134 A 
ATOM     41  F   UNL A   1      43.796  33.345  32.330  1.00  0.00    -0.206 F 
ATOM     42  C   UNL A   1      43.218  34.166  34.451  1.00  0.00     0.040 A 
ATOM     43  C   UNL A   1      42.171  32.713  36.060  1.00  0.00     0.040 A 
ATOM     44  F   UNL A   1      41.746  30.472  35.519  1.00  0.00    -0.206 F 
ATOM     45  C   UNL A   1      42.681  33.965  35.722  1.00  0.00     0.006 A 
ENDBRANCH  24  38
BRANCH  25  46
ATOM     46  C   UNL A   1      42.589  23.961  27.549  1.00  0.00     0.057 A 
ATOM     47  C   UNL A   1      42.229  22.679  27.977  1.00  0.00     0.134 A 
ATOM     48  C   UNL A   1      42.943  24.106  26.198  1.00  0.00     0.134 A 
ATOM     49  F   UNL A   1      41.897  22.463  29.258  1.00  0.00    -0.206 F 
ATOM     50  C   UNL A   1      42.241  21.585  27.107  1.00  0.00     0.040 A 
ATOM     51  C   UNL A   1      42.925  23.029  25.310  1.00  0.00     0.040 A 
ATOM     52  F   UNL A   1      43.299  25.306  25.715  1.00  0.00    -0.206 F 
ATOM     53  C   UNL A   1      42.584  21.760  25.768  1.00  0.00     0.006 A 
ENDBRANCH  25  46
BRANCH  37  54
ATOM     54  C   UNL A   1      47.392  26.702  31.774  1.00  0.00     0.057 A 
ATOM     55  C   UNL A   1      48.479  27.205  31.048  1.00  0.00     0.134 A 
ATOM     56  C   UNL A   1      47.659  25.805  32.815  1.00  0.00     0.134 A 
ATOM     57  F   UNL A   1      48.280  28.054  30.027  1.00  0.00    -0.206 F 
ATOM     58  C   UNL A   1      49.784  26.808  31.331  1.00  0.00     0.040 A 
ATOM     59  C   UNL A   1      48.962  25.423  33.125  1.00  0.00     0.040 A 
ATOM     60  F   UNL A   1      46.658  25.295  33.548  1.00  0.00    -0.206 F 
ATOM     61  C   UNL A   1      50.028  25.919  32.377  1.00  0.00     0.006 A 
ENDBRANCH  37  54
ENDBRANCH  11  12
ENDBRANCH   4   6
ENDBRANCH   3   4
ENDBRANCH   2   3
ENDBRANCH   1   2
BRANCH   1  62
ATOM     62  O   UNL A   1      34.303  34.900  29.083  1.00  0.00    -0.374 OA
BRANCH  62  63
ATOM     63  C   UNL A   1      33.205  35.785  29.298  1.00  0.00     0.202 C 
BRANCH  63  64
ATOM     64  C   UNL A   1      32.813  35.743  30.768  1.00  0.00     0.261 C 
BRANCH  64  65
ATOM     65  O   UNL A   1      33.589  34.734  31.442  1.00  0.00    -0.463 OA
BRANCH  65  66
ATOM     66  C   UNL A   1      34.221  35.167  32.565  1.00  0.00     0.310 C 
ATOM     67  O   UNL A   1      34.352  36.337  32.919  1.00  0.00    -0.252 OA
BRANCH  66  68
ATOM     68  C   UNL A   1      34.946  34.085  33.247  1.00  0.00     0.115 C 
ATOM     69  C   UNL A   1      34.902  32.732  32.594  1.00  0.00     0.034 C 
ATOM     70  C   UNL A   1      36.263  33.354  32.929  1.00  0.00     0.034 C 
BRANCH  70  71
ATOM     71  C   UNL A   1      37.187  33.479  31.690  1.00  0.00    -0.037 A 
ATOM     72  C   UNL A   1      38.295  34.354  31.709  1.00  0.00     0.004 A 
ATOM     73  C   UNL A   1      36.851  32.941  30.431  1.00  0.00     0.004 A 
ATOM     74  C   UNL A   1      39.003  34.694  30.549  1.00  0.00     0.000 A 
ATOM     75  C   UNL A   1      37.547  33.286  29.262  1.00  0.00     0.000 A 
ATOM     76  C   UNL A   1      38.620  34.168  29.321  1.00  0.00     0.000 A 
ENDBRANCH  70  71
BRANCH  70  77
ATOM     77  C   UNL A   1      37.018  32.862  34.216  1.00  0.00    -0.037 A 
ATOM     78  C   UNL A   1      37.600  31.578  34.302  1.00  0.00     0.004 A 
ATOM     79  C   UNL A   1      37.187  33.682  35.350  1.00  0.00     0.004 A 
ATOM     80  C   UNL A   1      38.285  31.135  35.434  1.00  0.00     0.000 A 
ATOM     81  C   UNL A   1      37.881  33.252  36.483  1.00  0.00     0.000 A 
ATOM     82  C   UNL A   1      38.426  31.976  36.526  1.00  0.00     0.000 A 
ENDBRANCH  70  77
ENDBRANCH  66  68
ENDBRANCH  65  66
ENDBRANCH  64  65
ENDBRANCH  63  64
ENDBRANCH  62  63
ENDBRANCH   1  62
TORSDOF 16
ENDMDL
MODEL 3
REMARK VINA RESULT:      -9.6      0.473      6.369
REMARK SMILES O=C(OCCOCCOC(=O)[C@H]1CC1(c1ccccc1)c1ccccc1)c1ccc(-c2c3nc(c(-c4c(F)cccc4F)c4ccc([nH]4)c(-c4c(F)cccc4F)c4nc(c(-c5c(F)cccc5F)c5ccc2[nH]5)C=C4)C=C3)cc1
REMARK SMILES IDX 5 1 4 2 3 3 2 4 1 5 27 6 28 7 80 8 29 9 79 10 30 11 31 12
REMARK SMILES IDX 32 13 73 14 33 15 78 16 72 17 74 18 34 19 77 20 71 21 70 22
REMARK SMILES IDX 35 24 61 25 44 26 60 27 45 28 48 29 59 30 75 31 46 32 47 33
REMARK SMILES IDX 58 35 76 36 49 37 36 38 37 39 42 40 38 41 39 42 41 43 43 44
REMARK SMILES IDX 40 45 62 46 63 47 68 48 64 49 65 50 67 51 69 52 66 53 50 54
REMARK SMILES IDX 51 55 56 56 52 57 53 58 55 59 57 60 54 61 6 62 7 63 8 64
REMARK SMILES IDX 9 65 10 66 11 67 12 68 13 69 14 70 15 71 16 72 20 73 17 74
REMARK SMILES IDX 19 75 18 76 21 77 22 78 26 79 23 80 25 81 24 82
REMARK H PARENT 74 23 48 34
REMARK Flexibility Score: inf
ROOT
ATOM      1  C   UNL A   1      40.973  20.307  26.128  1.00  0.00     0.202 C 
ENDROOT
BRANCH   1   2
ATOM      2  C   UNL A   1      40.409  21.473  26.943  1.00  0.00     0.261 C 
BRANCH   2   3
ATOM      3  O   UNL A   1      39.067  21.790  26.505  1.00  0.00    -0.460 OA
BRANCH   3   4
ATOM      4  C   UNL A   1      38.591  23.016  26.165  1.00  0.00     0.338 C 
ATOM      5  O   UNL A   1      37.561  23.127  25.508  1.00  0.00    -0.246 OA
BRANCH   4   6
ATOM      6  C   UNL A   1      39.284  24.237  26.637  1.00  0.00     0.060 A 
ATOM      7  C   UNL A   1      39.192  24.643  27.958  1.00  0.00     0.016 A 
ATOM      8  C   UNL A   1      40.065  24.993  25.763  1.00  0.00     0.016 A 
ATOM      9  C   UNL A   1      39.630  25.873  28.370  1.00  0.00     0.010 A 
ATOM     10  C   UNL A   1      40.677  26.167  26.221  1.00  0.00     0.010 A 
ATOM     11  C   UNL A   1      40.431  26.622  27.526  1.00  0.00    -0.014 A 
BRANCH  11  12
ATOM     12  C   UNL A   1      40.928  27.891  28.082  1.00  0.00     0.031 A 
ATOM     13  C   UNL A   1      39.942  28.867  28.632  1.00  0.00     0.074 A 
ATOM     14  C   UNL A   1      42.255  28.037  28.266  1.00  0.00     0.049 A 
ATOM     15  N   UNL A   1      40.152  30.056  29.124  1.00  0.00    -0.248 NA
ATOM     16  C   UNL A   1      38.529  28.450  28.640  1.00  0.00     0.031 C 
ATOM     17  C   UNL A   1      43.277  27.048  27.887  1.00  0.00     0.029 A 
ATOM     18  N   UNL A   1      42.975  29.026  28.878  1.00  0.00    -0.354 N 
ATOM     19  C   UNL A   1      38.899  30.549  29.452  1.00  0.00     0.074 A 
ATOM     20  C   UNL A   1      37.930  29.535  29.108  1.00  0.00     0.031 C 
ATOM     21  C   UNL A   1      44.473  27.448  28.342  1.00  0.00     0.029 A 
ATOM     22  C   UNL A   1      44.326  28.772  28.921  1.00  0.00     0.049 A 
ATOM     23  H   UNL A   1      42.566  29.839  29.251  1.00  0.00     0.167 HD
ATOM     24  C   UNL A   1      38.600  31.755  29.985  1.00  0.00     0.037 A 
ATOM     25  C   UNL A   1      45.337  29.556  29.334  1.00  0.00     0.037 A 
ATOM     26  C   UNL A   1      39.604  32.727  30.324  1.00  0.00     0.049 A 
ATOM     27  C   UNL A   1      44.977  30.923  29.837  1.00  0.00     0.074 A 
ATOM     28  C   UNL A   1      39.444  34.026  30.763  1.00  0.00     0.029 A 
ATOM     29  N   UNL A   1      40.972  32.482  30.272  1.00  0.00    -0.354 N 
ATOM     30  N   UNL A   1      43.787  31.449  30.015  1.00  0.00    -0.248 NA
ATOM     31  C   UNL A   1      46.090  31.818  30.169  1.00  0.00     0.031 C 
ATOM     32  C   UNL A   1      40.719  34.578  30.949  1.00  0.00     0.029 A 
ATOM     33  C   UNL A   1      41.671  33.607  30.670  1.00  0.00     0.049 A 
ATOM     34  H   UNL A   1      41.383  31.632  29.993  1.00  0.00     0.167 HD
ATOM     35  C   UNL A   1      44.004  32.735  30.477  1.00  0.00     0.074 A 
ATOM     36  C   UNL A   1      45.442  32.895  30.589  1.00  0.00     0.031 C 
ATOM     37  C   UNL A   1      43.106  33.708  30.767  1.00  0.00     0.037 A 
BRANCH  24  38
ATOM     38  C   UNL A   1      37.148  32.086  30.142  1.00  0.00     0.057 A 
ATOM     39  C   UNL A   1      36.409  32.708  29.128  1.00  0.00     0.134 A 
ATOM     40  C   UNL A   1      36.490  31.825  31.351  1.00  0.00     0.134 A 
ATOM     41  F   UNL A   1      36.987  33.021  27.959  1.00  0.00    -0.206 F 
ATOM     42  C   UNL A   1      35.076  33.082  29.319  1.00  0.00     0.040 A 
ATOM     43  C   UNL A   1      35.153  32.172  31.547  1.00  0.00     0.040 A 
ATOM     44  F   UNL A   1      37.143  31.243  32.369  1.00  0.00    -0.206 F 
ATOM     45  C   UNL A   1      34.444  32.811  30.532  1.00  0.00     0.006 A 
ENDBRANCH  24  38
BRANCH  25  46
ATOM     46  C   UNL A   1      46.750  29.114  29.190  1.00  0.00     0.057 A 
ATOM     47  C   UNL A   1      47.465  29.305  28.003  1.00  0.00     0.134 A 
ATOM     48  C   UNL A   1      47.419  28.467  30.240  1.00  0.00     0.134 A 
ATOM     49  F   UNL A   1      46.882  29.899  26.951  1.00  0.00    -0.206 F 
ATOM     50  C   UNL A   1      48.780  28.855  27.858  1.00  0.00     0.040 A 
ATOM     51  C   UNL A   1      48.744  28.044  30.122  1.00  0.00     0.040 A 
ATOM     52  F   UNL A   1      46.798  28.250  31.409  1.00  0.00    -0.206 F 
ATOM     53  C   UNL A   1      49.425  28.227  28.923  1.00  0.00     0.006 A 
ENDBRANCH  25  46
BRANCH  37  54
ATOM     54  C   UNL A   1      43.672  35.004  31.256  1.00  0.00     0.057 A 
ATOM     55  C   UNL A   1      43.983  36.049  30.377  1.00  0.00     0.134 A 
ATOM     56  C   UNL A   1      43.888  35.211  32.623  1.00  0.00     0.134 A 
ATOM     57  F   UNL A   1      43.813  35.899  29.054  1.00  0.00    -0.206 F 
ATOM     58  C   UNL A   1      44.518  37.249  30.841  1.00  0.00     0.040 A 
ATOM     59  C   UNL A   1      44.397  36.416  33.101  1.00  0.00     0.040 A 
ATOM     60  F   UNL A   1      43.602  34.247  33.512  1.00  0.00    -0.206 F 
ATOM     61  C   UNL A   1      44.720  37.436  32.209  1.00  0.00     0.006 A 
ENDBRANCH  37  54
ENDBRANCH  11  12
ENDBRANCH   4   6
ENDBRANCH   3   4
ENDBRANCH   2   3
ENDBRANCH   1   2
BRANCH   1  62
ATOM     62  O   UNL A   1      42.366  20.076  26.310  1.00  0.00    -0.374 OA
BRANCH  62  63
ATOM     63  C   UNL A   1      42.844  18.832  25.801  1.00  0.00     0.202 C 
BRANCH  63  64
ATOM     64  C   UNL A   1      44.116  19.078  25.001  1.00  0.00     0.261 C 
BRANCH  64  65
ATOM     65  O   UNL A   1      44.162  20.456  24.587  1.00  0.00    -0.463 OA
BRANCH  65  66
ATOM     66  C   UNL A   1      45.390  21.032  24.683  1.00  0.00     0.310 C 
ATOM     67  O   UNL A   1      46.433  20.468  25.007  1.00  0.00    -0.252 OA
BRANCH  66  68
ATOM     68  C   UNL A   1      45.328  22.496  24.564  1.00  0.00     0.115 C 
ATOM     69  C   UNL A   1      43.959  23.113  24.573  1.00  0.00     0.034 C 
ATOM     70  C   UNL A   1      45.006  23.610  25.577  1.00  0.00     0.034 C 
BRANCH  70  71
ATOM     71  C   UNL A   1      44.528  23.498  27.048  1.00  0.00    -0.037 A 
ATOM     72  C   UNL A   1      43.150  23.429  27.349  1.00  0.00     0.004 A 
ATOM     73  C   UNL A   1      45.388  23.703  28.146  1.00  0.00     0.004 A 
ATOM     74  C   UNL A   1      42.659  23.583  28.652  1.00  0.00     0.000 A 
ATOM     75  C   UNL A   1      44.903  23.870  29.452  1.00  0.00     0.000 A 
ATOM     76  C   UNL A   1      43.537  23.816  29.703  1.00  0.00     0.000 A 
ENDBRANCH  70  71
BRANCH  70  77
ATOM     77  C   UNL A   1      45.761  24.954  25.272  1.00  0.00    -0.037 A 
ATOM     78  C   UNL A   1      45.076  26.171  25.065  1.00  0.00     0.004 A 
ATOM     79  C   UNL A   1      47.167  25.032  25.217  1.00  0.00     0.004 A 
ATOM     80  C   UNL A   1      45.736  27.373  24.808  1.00  0.00     0.000 A 
ATOM     81  C   UNL A   1      47.837  26.233  24.972  1.00  0.00     0.000 A 
ATOM     82  C   UNL A   1      47.121  27.403  24.763  1.00  0.00     0.000 A 
ENDBRANCH  70  77
ENDBRANCH  66  68
ENDBRANCH  65  66
ENDBRANCH  64  65
ENDBRANCH  63  64
ENDBRANCH  62  63
ENDBRANCH   1  62
TORSDOF 16
ENDMDL
