MODEL 1
REMARK VINA RESULT:     -10.9      0.000      0.000
REMARK SMILES O=C(CN1C(=O)c2ccccc2[C@@H]1O)OCCOCCOC(=O)c1ccc(-c2c3nc(c(-c4c(F)cccc4F)c4ccc([nH]4)c(-c4c(F)cccc4F)c4nc(c(-c5c(F)cccc5F)c5ccc2[nH]5)C=C4)C=C3)cc1
REMARK SMILES IDX 18 1 17 2 16 3 15 4 2 5 1 6 3 7 4 8 5 9 13 10 6 11 7 12
REMARK SMILES IDX 12 13 8 14 11 15 9 16 10 17 14 18 19 20 20 21 21 22 22 23
REMARK SMILES IDX 23 24 24 25 25 26 77 27 26 28 76 29 27 30 28 31 29 32 70 33
REMARK SMILES IDX 30 34 75 35 69 36 71 37 31 38 74 39 68 40 67 41 32 43 58 44
REMARK SMILES IDX 41 45 57 46 42 47 45 48 56 49 72 50 43 51 44 52 55 54 73 55
REMARK SMILES IDX 46 56 33 57 34 58 39 59 35 60 36 61 38 62 40 63 37 64 59 65
REMARK SMILES IDX 60 66 65 67 61 68 62 69 64 70 66 71 63 72 47 73 48 74 53 75
REMARK SMILES IDX 49 76 50 77 52 78 54 79 51 80
REMARK H PARENT 14 19 71 42 45 53
REMARK Flexibility Score: inf
ROOT
ATOM      1  O   UNL A   1      32.182  30.520  26.415  1.00  0.00    -0.374 OA
ENDROOT
BRANCH   1   2
ATOM      2  C   UNL A   1      31.854  29.316  27.084  1.00  0.00     0.202 C 
BRANCH   2   3
ATOM      3  C   UNL A   1      31.871  27.990  26.318  1.00  0.00     0.261 C 
BRANCH   3   4
ATOM      4  O   UNL A   1      30.903  26.947  26.561  1.00  0.00    -0.462 OA
BRANCH   4   5
ATOM      5  C   UNL A   1      30.671  25.773  25.967  1.00  0.00     0.325 C 
ATOM      6  O   UNL A   1      30.556  24.772  26.680  1.00  0.00    -0.250 OA
BRANCH   5   7
ATOM      7  C   UNL A   1      30.581  25.632  24.461  1.00  0.00     0.245 C 
BRANCH   7   8
ATOM      8  N   UNL A   1      30.063  26.652  23.564  1.00  0.00    -0.298 N 
ATOM      9  C   UNL A   1      28.734  27.037  23.677  1.00  0.00     0.257 C 
ATOM     10  C   UNL A   1      30.848  27.619  22.844  1.00  0.00     0.247 C 
ATOM     11  O   UNL A   1      27.830  26.455  24.250  1.00  0.00    -0.269 OA
ATOM     12  C   UNL A   1      28.614  28.349  23.043  1.00  0.00     0.047 A 
ATOM     13  C   UNL A   1      29.876  28.718  22.586  1.00  0.00     0.014 A 
ATOM     14  C   UNL A   1      27.501  29.149  22.896  1.00  0.00     0.014 A 
ATOM     15  C   UNL A   1      30.059  29.920  21.927  1.00  0.00     0.009 A 
ATOM     16  C   UNL A   1      27.678  30.367  22.241  1.00  0.00     0.001 A 
ATOM     17  C   UNL A   1      28.946  30.748  21.758  1.00  0.00     0.001 A 
BRANCH  10  18
ATOM     18  O   UNL A   1      31.160  27.067  21.588  1.00  0.00    -0.369 OA
ATOM     19  H   UNL A   1      30.966  27.716  20.893  1.00  0.00     0.213 HD
ENDBRANCH  10  18
ENDBRANCH   7   8
ENDBRANCH   5   7
ENDBRANCH   4   5
ENDBRANCH   3   4
ENDBRANCH   2   3
ENDBRANCH   1   2
BRANCH   1  20
ATOM     20  C   UNL A   1      31.195  31.524  26.237  1.00  0.00     0.202 C 
BRANCH  20  21
ATOM     21  C   UNL A   1      31.500  32.885  26.850  1.00  0.00     0.261 C 
BRANCH  21  22
ATOM     22  O   UNL A   1      32.908  33.159  26.812  1.00  0.00    -0.460 OA
BRANCH  22  23
ATOM     23  C   UNL A   1      33.417  33.714  27.937  1.00  0.00     0.338 C 
ATOM     24  O   UNL A   1      32.904  34.554  28.653  1.00  0.00    -0.246 OA
BRANCH  23  25
ATOM     25  C   UNL A   1      34.654  33.002  28.295  1.00  0.00     0.060 A 
ATOM     26  C   UNL A   1      34.563  31.635  28.585  1.00  0.00     0.016 A 
ATOM     27  C   UNL A   1      35.874  33.677  28.393  1.00  0.00     0.016 A 
ATOM     28  C   UNL A   1      35.688  30.945  29.024  1.00  0.00     0.010 A 
ATOM     29  C   UNL A   1      36.998  32.986  28.842  1.00  0.00     0.010 A 
ATOM     30  C   UNL A   1      36.899  31.629  29.195  1.00  0.00    -0.014 A 
BRANCH  30  31
ATOM     31  C   UNL A   1      38.017  30.961  29.898  1.00  0.00     0.031 A 
ATOM     32  C   UNL A   1      38.255  31.292  31.344  1.00  0.00     0.074 A 
ATOM     33  C   UNL A   1      38.783  30.061  29.260  1.00  0.00     0.049 A 
ATOM     34  N   UNL A   1      39.195  30.866  32.148  1.00  0.00    -0.248 NA
ATOM     35  C   UNL A   1      37.308  32.229  31.969  1.00  0.00     0.031 C 
ATOM     36  C   UNL A   1      38.616  29.640  27.870  1.00  0.00     0.029 A 
ATOM     37  N   UNL A   1      39.864  29.342  29.704  1.00  0.00    -0.354 N 
ATOM     38  C   UNL A   1      38.954  31.486  33.368  1.00  0.00     0.074 A 
ATOM     39  C   UNL A   1      37.802  32.343  33.192  1.00  0.00     0.031 C 
ATOM     40  C   UNL A   1      39.572  28.745  27.569  1.00  0.00     0.029 A 
ATOM     41  C   UNL A   1      40.432  28.555  28.734  1.00  0.00     0.049 A 
ATOM     42  H   UNL A   1      40.198  29.386  30.629  1.00  0.00     0.167 HD
ATOM     43  C   UNL A   1      39.627  31.340  34.533  1.00  0.00     0.037 A 
ATOM     44  C   UNL A   1      41.540  27.789  28.782  1.00  0.00     0.037 A 
ATOM     45  C   UNL A   1      40.774  30.487  34.698  1.00  0.00     0.049 A 
ATOM     46  C   UNL A   1      42.312  27.704  30.072  1.00  0.00     0.074 A 
ATOM     47  C   UNL A   1      41.525  30.261  35.837  1.00  0.00     0.029 A 
ATOM     48  N   UNL A   1      41.338  29.723  33.686  1.00  0.00    -0.354 N 
ATOM     49  N   UNL A   1      42.063  28.272  31.227  1.00  0.00    -0.248 NA
ATOM     50  C   UNL A   1      43.518  26.865  30.065  1.00  0.00     0.031 C 
ATOM     51  C   UNL A   1      42.576  29.400  35.502  1.00  0.00     0.029 A 
ATOM     52  C   UNL A   1      42.444  29.043  34.169  1.00  0.00     0.049 A 
ATOM     53  H   UNL A   1      41.004  29.673  32.762  1.00  0.00     0.167 HD
ATOM     54  C   UNL A   1      43.062  27.837  32.090  1.00  0.00     0.074 A 
ATOM     55  C   UNL A   1      43.907  26.940  31.329  1.00  0.00     0.031 C 
ATOM     56  C   UNL A   1      43.266  28.150  33.394  1.00  0.00     0.037 A 
BRANCH  43  57
ATOM     57  C   UNL A   1      39.152  32.135  35.715  1.00  0.00     0.057 A 
ATOM     58  C   UNL A   1      39.549  33.462  35.923  1.00  0.00     0.134 A 
ATOM     59  C   UNL A   1      38.250  31.579  36.632  1.00  0.00     0.134 A 
ATOM     60  F   UNL A   1      40.424  34.048  35.091  1.00  0.00    -0.206 F 
ATOM     61  C   UNL A   1      39.079  34.204  37.008  1.00  0.00     0.040 A 
ATOM     62  C   UNL A   1      37.753  32.319  37.706  1.00  0.00     0.040 A 
ATOM     63  F   UNL A   1      37.829  30.314  36.492  1.00  0.00    -0.206 F 
ATOM     64  C   UNL A   1      38.170  33.635  37.898  1.00  0.00     0.006 A 
ENDBRANCH  43  57
BRANCH  44  65
ATOM     65  C   UNL A   1      41.999  27.057  27.573  1.00  0.00     0.057 A 
ATOM     66  C   UNL A   1      42.760  27.691  26.584  1.00  0.00     0.134 A 
ATOM     67  C   UNL A   1      41.651  25.718  27.357  1.00  0.00     0.134 A 
ATOM     68  F   UNL A   1      43.108  28.978  26.721  1.00  0.00    -0.206 F 
ATOM     69  C   UNL A   1      43.134  27.030  25.412  1.00  0.00     0.040 A 
ATOM     70  C   UNL A   1      42.042  25.036  26.205  1.00  0.00     0.040 A 
ATOM     71  F   UNL A   1      40.926  25.051  28.268  1.00  0.00    -0.206 F 
ATOM     72  C   UNL A   1      42.777  25.696  25.222  1.00  0.00     0.006 A 
ENDBRANCH  44  65
BRANCH  56  73
ATOM     73  C   UNL A   1      44.425  27.487  34.083  1.00  0.00     0.057 A 
ATOM     74  C   UNL A   1      45.690  28.083  34.149  1.00  0.00     0.134 A 
ATOM     75  C   UNL A   1      44.263  26.243  34.708  1.00  0.00     0.134 A 
ATOM     76  F   UNL A   1      45.915  29.268  33.560  1.00  0.00    -0.206 F 
ATOM     77  C   UNL A   1      46.762  27.451  34.780  1.00  0.00     0.040 A 
ATOM     78  C   UNL A   1      45.319  25.617  35.371  1.00  0.00     0.040 A 
ATOM     79  F   UNL A   1      43.074  25.622  34.695  1.00  0.00    -0.206 F 
ATOM     80  C   UNL A   1      46.577  26.216  35.399  1.00  0.00     0.006 A 
ENDBRANCH  56  73
ENDBRANCH  30  31
ENDBRANCH  23  25
ENDBRANCH  22  23
ENDBRANCH  21  22
ENDBRANCH  20  21
ENDBRANCH   1  20
TORSDOF 16
ENDMDL
MODEL 2
REMARK VINA RESULT:     -10.9      4.037      8.852
REMARK SMILES O=C(CN1C(=O)c2ccccc2[C@@H]1O)OCCOCCOC(=O)c1ccc(-c2c3nc(c(-c4c(F)cccc4F)c4ccc([nH]4)c(-c4c(F)cccc4F)c4nc(c(-c5c(F)cccc5F)c5ccc2[nH]5)C=C4)C=C3)cc1
REMARK SMILES IDX 18 1 17 2 16 3 15 4 2 5 1 6 3 7 4 8 5 9 13 10 6 11 7 12
REMARK SMILES IDX 12 13 8 14 11 15 9 16 10 17 14 18 19 20 20 21 21 22 22 23
REMARK SMILES IDX 23 24 24 25 25 26 77 27 26 28 76 29 27 30 28 31 29 32 70 33
REMARK SMILES IDX 30 34 75 35 69 36 71 37 31 38 74 39 68 40 67 41 32 43 58 44
REMARK SMILES IDX 41 45 57 46 42 47 45 48 56 49 72 50 43 51 44 52 55 54 73 55
REMARK SMILES IDX 46 56 33 57 34 58 39 59 35 60 36 61 38 62 40 63 37 64 59 65
REMARK SMILES IDX 60 66 65 67 61 68 62 69 64 70 66 71 63 72 47 73 48 74 53 75
REMARK SMILES IDX 49 76 50 77 52 78 54 79 51 80
REMARK H PARENT 14 19 71 42 45 53
REMARK Flexibility Score: inf
ROOT
ATOM      1  O   UNL A   1      42.274  21.385  26.668  1.00  0.00    -0.374 OA
ENDROOT
BRANCH   1   2
ATOM      2  C   UNL A   1      41.028  20.725  26.799  1.00  0.00     0.202 C 
BRANCH   2   3
ATOM      3  C   UNL A   1      39.787  21.294  26.107  1.00  0.00     0.261 C 
BRANCH   3   4
ATOM      4  O   UNL A   1      39.006  22.363  26.681  1.00  0.00    -0.462 OA
BRANCH   4   5
ATOM      5  C   UNL A   1      38.329  23.380  26.139  1.00  0.00     0.325 C 
ATOM      6  O   UNL A   1      38.417  24.489  26.673  1.00  0.00    -0.250 OA
BRANCH   5   7
ATOM      7  C   UNL A   1      37.442  23.205  24.923  1.00  0.00     0.245 C 
BRANCH   7   8
ATOM      8  N   UNL A   1      36.109  22.626  24.947  1.00  0.00    -0.298 N 
ATOM      9  C   UNL A   1      35.160  23.082  24.042  1.00  0.00     0.257 C 
ATOM     10  C   UNL A   1      35.754  21.349  25.506  1.00  0.00     0.247 C 
ATOM     11  O   UNL A   1      35.183  24.106  23.383  1.00  0.00    -0.269 OA
ATOM     12  C   UNL A   1      34.129  22.049  23.946  1.00  0.00     0.047 A 
ATOM     13  C   UNL A   1      34.501  20.998  24.779  1.00  0.00     0.014 A 
ATOM     14  C   UNL A   1      32.981  22.030  23.183  1.00  0.00     0.014 A 
ATOM     15  C   UNL A   1      33.697  19.880  24.898  1.00  0.00     0.009 A 
ATOM     16  C   UNL A   1      32.169  20.901  23.289  1.00  0.00     0.001 A 
ATOM     17  C   UNL A   1      32.523  19.836  24.142  1.00  0.00     0.001 A 
BRANCH  10  18
ATOM     18  O   UNL A   1      35.386  21.556  26.848  1.00  0.00    -0.369 OA
ATOM     19  H   UNL A   1      35.074  20.721  27.231  1.00  0.00     0.213 HD
ENDBRANCH  10  18
ENDBRANCH   7   8
ENDBRANCH   5   7
ENDBRANCH   4   5
ENDBRANCH   3   4
ENDBRANCH   2   3
ENDBRANCH   1   2
BRANCH   1  20
ATOM     20  C   UNL A   1      43.254  20.879  25.776  1.00  0.00     0.202 C 
BRANCH  20  21
ATOM     21  C   UNL A   1      43.887  21.890  24.827  1.00  0.00     0.261 C 
BRANCH  21  22
ATOM     22  O   UNL A   1      43.186  23.141  24.870  1.00  0.00    -0.460 OA
BRANCH  22  23
ATOM     23  C   UNL A   1      43.959  24.226  25.106  1.00  0.00     0.338 C 
ATOM     24  O   UNL A   1      45.012  24.522  24.572  1.00  0.00    -0.246 OA
BRANCH  23  25
ATOM     25  C   UNL A   1      43.232  25.135  26.006  1.00  0.00     0.060 A 
ATOM     26  C   UNL A   1      43.693  26.454  26.116  1.00  0.00     0.016 A 
ATOM     27  C   UNL A   1      42.149  24.688  26.766  1.00  0.00     0.016 A 
ATOM     28  C   UNL A   1      43.098  27.319  27.029  1.00  0.00     0.010 A 
ATOM     29  C   UNL A   1      41.561  25.554  27.687  1.00  0.00     0.010 A 
ATOM     30  C   UNL A   1      42.058  26.859  27.847  1.00  0.00    -0.014 A 
BRANCH  30  31
ATOM     31  C   UNL A   1      41.604  27.692  28.982  1.00  0.00     0.031 A 
ATOM     32  C   UNL A   1      42.341  27.590  30.288  1.00  0.00     0.074 A 
ATOM     33  C   UNL A   1      40.571  28.539  28.836  1.00  0.00     0.049 A 
ATOM     34  N   UNL A   1      42.097  28.187  31.426  1.00  0.00    -0.248 NA
ATOM     35  C   UNL A   1      43.508  26.693  30.316  1.00  0.00     0.031 C 
ATOM     36  C   UNL A   1      39.811  28.742  27.604  1.00  0.00     0.029 A 
ATOM     37  N   UNL A   1      39.981  29.382  29.742  1.00  0.00    -0.354 N 
ATOM     38  C   UNL A   1      43.076  27.736  32.302  1.00  0.00     0.074 A 
ATOM     39  C   UNL A   1      43.896  26.790  31.578  1.00  0.00     0.031 C 
ATOM     40  C   UNL A   1      38.843  29.645  27.836  1.00  0.00     0.029 A 
ATOM     41  C   UNL A   1      38.898  30.056  29.236  1.00  0.00     0.049 A 
ATOM     42  H   UNL A   1      40.303  29.494  30.666  1.00  0.00     0.167 HD
ATOM     43  C   UNL A   1      43.279  28.092  33.593  1.00  0.00     0.037 A 
ATOM     44  C   UNL A   1      38.036  30.891  29.848  1.00  0.00     0.037 A 
ATOM     45  C   UNL A   1      42.456  29.032  34.306  1.00  0.00     0.049 A 
ATOM     46  C   UNL A   1      38.242  31.212  31.306  1.00  0.00     0.074 A 
ATOM     47  C   UNL A   1      42.578  29.469  35.613  1.00  0.00     0.029 A 
ATOM     48  N   UNL A   1      41.351  29.677  33.769  1.00  0.00    -0.354 N 
ATOM     49  N   UNL A   1      39.185  30.801  32.120  1.00  0.00    -0.248 NA
ATOM     50  C   UNL A   1      37.266  32.117  31.927  1.00  0.00     0.031 C 
ATOM     51  C   UNL A   1      41.517  30.339  35.883  1.00  0.00     0.029 A 
ATOM     52  C   UNL A   1      40.767  30.490  34.727  1.00  0.00     0.049 A 
ATOM     53  H   UNL A   1      41.029  29.571  32.845  1.00  0.00     0.167 HD
ATOM     54  C   UNL A   1      38.932  31.420  33.339  1.00  0.00     0.074 A 
ATOM     55  C   UNL A   1      37.761  32.251  33.148  1.00  0.00     0.031 C 
ATOM     56  C   UNL A   1      39.605  31.313  34.512  1.00  0.00     0.037 A 
BRANCH  43  57
ATOM     57  C   UNL A   1      44.423  27.447  34.321  1.00  0.00     0.057 A 
ATOM     58  C   UNL A   1      44.278  26.227  34.995  1.00  0.00     0.134 A 
ATOM     59  C   UNL A   1      45.696  28.031  34.309  1.00  0.00     0.134 A 
ATOM     60  F   UNL A   1      43.082  25.624  35.059  1.00  0.00    -0.206 F 
ATOM     61  C   UNL A   1      45.355  25.619  35.644  1.00  0.00     0.040 A 
ATOM     62  C   UNL A   1      46.786  27.420  34.932  1.00  0.00     0.040 A 
ATOM     63  F   UNL A   1      45.904  29.198  33.682  1.00  0.00    -0.206 F 
ATOM     64  C   UNL A   1      46.615  26.212  35.605  1.00  0.00     0.006 A 
ENDBRANCH  43  57
BRANCH  44  65
ATOM     65  C   UNL A   1      36.890  31.469  29.100  1.00  0.00     0.057 A 
ATOM     66  C   UNL A   1      36.905  32.796  28.656  1.00  0.00     0.134 A 
ATOM     67  C   UNL A   1      35.732  30.721  28.851  1.00  0.00     0.134 A 
ATOM     68  F   UNL A   1      37.975  33.571  28.882  1.00  0.00    -0.206 F 
ATOM     69  C   UNL A   1      35.803  33.366  28.016  1.00  0.00     0.040 A 
ATOM     70  C   UNL A   1      34.634  31.269  28.187  1.00  0.00     0.040 A 
ATOM     71  F   UNL A   1      35.654  29.441  29.248  1.00  0.00    -0.206 F 
ATOM     72  C   UNL A   1      34.664  32.600  27.777  1.00  0.00     0.006 A 
ENDBRANCH  44  65
BRANCH  56  73
ATOM     73  C   UNL A   1      39.110  32.142  35.662  1.00  0.00     0.057 A 
ATOM     74  C   UNL A   1      38.257  31.620  36.642  1.00  0.00     0.134 A 
ATOM     75  C   UNL A   1      39.513  33.478  35.801  1.00  0.00     0.134 A 
ATOM     76  F   UNL A   1      37.825  30.352  36.561  1.00  0.00    -0.206 F 
ATOM     77  C   UNL A   1      37.794  32.404  37.699  1.00  0.00     0.040 A 
ATOM     78  C   UNL A   1      39.083  34.262  36.872  1.00  0.00     0.040 A 
ATOM     79  F   UNL A   1      40.340  34.037  34.906  1.00  0.00    -0.206 F 
ATOM     80  C   UNL A   1      38.211  33.728  37.819  1.00  0.00     0.006 A 
ENDBRANCH  56  73
ENDBRANCH  30  31
ENDBRANCH  23  25
ENDBRANCH  22  23
ENDBRANCH  21  22
ENDBRANCH  20  21
ENDBRANCH   1  20
TORSDOF 16
ENDMDL
MODEL 3
REMARK VINA RESULT:     -10.7      5.409     10.165
REMARK SMILES O=C(CN1C(=O)c2ccccc2[C@@H]1O)OCCOCCOC(=O)c1ccc(-c2c3nc(c(-c4c(F)cccc4F)c4ccc([nH]4)c(-c4c(F)cccc4F)c4nc(c(-c5c(F)cccc5F)c5ccc2[nH]5)C=C4)C=C3)cc1
REMARK SMILES IDX 18 1 17 2 16 3 15 4 2 5 1 6 3 7 4 8 5 9 13 10 6 11 7 12
REMARK SMILES IDX 12 13 8 14 11 15 9 16 10 17 14 18 19 20 20 21 21 22 22 23
REMARK SMILES IDX 23 24 24 25 25 26 77 27 26 28 76 29 27 30 28 31 29 32 70 33
REMARK SMILES IDX 30 34 75 35 69 36 71 37 31 38 74 39 68 40 67 41 32 43 58 44
REMARK SMILES IDX 41 45 57 46 42 47 45 48 56 49 72 50 43 51 44 52 55 54 73 55
REMARK SMILES IDX 46 56 33 57 34 58 39 59 35 60 36 61 38 62 40 63 37 64 59 65
REMARK SMILES IDX 60 66 65 67 61 68 62 69 64 70 66 71 63 72 47 73 48 74 53 75
REMARK SMILES IDX 49 76 50 77 52 78 54 79 51 80
REMARK H PARENT 14 19 71 42 45 53
REMARK Flexibility Score: inf
ROOT
ATOM      1  O   UNL A   1      46.080  21.709  24.199  1.00  0.00    -0.374 OA
ENDROOT
BRANCH   1   2
ATOM      2  C   UNL A   1      46.009  20.579  25.050  1.00  0.00     0.202 C 
BRANCH   2   3
ATOM      3  C   UNL A   1      45.237  19.335  24.602  1.00  0.00     0.261 C 
BRANCH   3   4
ATOM      4  O   UNL A   1      43.801  19.238  24.712  1.00  0.00    -0.462 OA
BRANCH   4   5
ATOM      5  C   UNL A   1      42.995  18.835  25.698  1.00  0.00     0.325 C 
ATOM      6  O   UNL A   1      42.574  17.675  25.670  1.00  0.00    -0.250 OA
BRANCH   5   7
ATOM      7  C   UNL A   1      42.561  19.760  26.818  1.00  0.00     0.245 C 
BRANCH   7   8
ATOM      8  N   UNL A   1      41.291  20.464  26.864  1.00  0.00    -0.298 N 
ATOM      9  C   UNL A   1      41.217  21.676  27.537  1.00  0.00     0.257 C 
ATOM     10  C   UNL A   1      40.191  20.281  25.955  1.00  0.00     0.247 C 
ATOM     11  O   UNL A   1      42.004  22.136  28.345  1.00  0.00    -0.269 OA
ATOM     12  C   UNL A   1      40.035  22.374  27.033  1.00  0.00     0.047 A 
ATOM     13  C   UNL A   1      39.448  21.569  26.061  1.00  0.00     0.014 A 
ATOM     14  C   UNL A   1      39.533  23.609  27.385  1.00  0.00     0.014 A 
ATOM     15  C   UNL A   1      38.294  21.976  25.416  1.00  0.00     0.009 A 
ATOM     16  C   UNL A   1      38.375  24.032  26.732  1.00  0.00     0.001 A 
ATOM     17  C   UNL A   1      37.760  23.221  25.758  1.00  0.00     0.001 A 
BRANCH  10  18
ATOM     18  O   UNL A   1      39.347  19.295  26.497  1.00  0.00    -0.369 OA
ATOM     19  H   UNL A   1      39.618  18.422  26.171  1.00  0.00     0.213 HD
ENDBRANCH  10  18
ENDBRANCH   7   8
ENDBRANCH   5   7
ENDBRANCH   4   5
ENDBRANCH   3   4
ENDBRANCH   2   3
ENDBRANCH   1   2
BRANCH   1  20
ATOM     20  C   UNL A   1      44.902  22.213  23.590  1.00  0.00     0.202 C 
BRANCH  20  21
ATOM     21  C   UNL A   1      43.886  22.862  24.523  1.00  0.00     0.261 C 
BRANCH  21  22
ATOM     22  O   UNL A   1      44.047  24.288  24.540  1.00  0.00    -0.460 OA
BRANCH  22  23
ATOM     23  C   UNL A   1      44.823  24.767  25.540  1.00  0.00     0.338 C 
ATOM     24  O   UNL A   1      46.033  24.690  25.648  1.00  0.00    -0.246 OA
BRANCH  23  25
ATOM     25  C   UNL A   1      43.989  25.589  26.430  1.00  0.00     0.060 A 
ATOM     26  C   UNL A   1      44.238  26.967  26.473  1.00  0.00     0.016 A 
ATOM     27  C   UNL A   1      43.014  25.011  27.246  1.00  0.00     0.016 A 
ATOM     28  C   UNL A   1      43.542  27.767  27.373  1.00  0.00     0.010 A 
ATOM     29  C   UNL A   1      42.323  25.813  28.154  1.00  0.00     0.010 A 
ATOM     30  C   UNL A   1      42.613  27.186  28.245  1.00  0.00    -0.014 A 
BRANCH  30  31
ATOM     31  C   UNL A   1      42.067  27.986  29.363  1.00  0.00     0.031 A 
ATOM     32  C   UNL A   1      42.758  27.924  30.696  1.00  0.00     0.074 A 
ATOM     33  C   UNL A   1      40.991  28.769  29.180  1.00  0.00     0.049 A 
ATOM     34  N   UNL A   1      42.436  28.502  31.825  1.00  0.00    -0.248 NA
ATOM     35  C   UNL A   1      43.975  27.099  30.767  1.00  0.00     0.031 C 
ATOM     36  C   UNL A   1      40.267  28.930  27.920  1.00  0.00     0.029 A 
ATOM     37  N   UNL A   1      40.316  29.573  30.063  1.00  0.00    -0.354 N 
ATOM     38  C   UNL A   1      43.407  28.107  32.737  1.00  0.00     0.074 A 
ATOM     39  C   UNL A   1      44.309  27.215  32.043  1.00  0.00     0.031 C 
ATOM     40  C   UNL A   1      39.238  29.772  28.115  1.00  0.00     0.029 A 
ATOM     41  C   UNL A   1      39.215  30.181  29.517  1.00  0.00     0.049 A 
ATOM     42  H   UNL A   1      40.597  29.700  30.999  1.00  0.00     0.167 HD
ATOM     43  C   UNL A   1      43.539  28.470  34.035  1.00  0.00     0.037 A 
ATOM     44  C   UNL A   1      38.281  30.961  30.098  1.00  0.00     0.037 A 
ATOM     45  C   UNL A   1      42.634  29.357  34.717  1.00  0.00     0.049 A 
ATOM     46  C   UNL A   1      38.413  31.289  31.562  1.00  0.00     0.074 A 
ATOM     47  C   UNL A   1      42.681  29.796  36.028  1.00  0.00     0.029 A 
ATOM     48  N   UNL A   1      41.513  29.935  34.139  1.00  0.00    -0.354 N 
ATOM     49  N   UNL A   1      39.347  30.933  32.411  1.00  0.00    -0.248 NA
ATOM     50  C   UNL A   1      37.361  32.131  32.147  1.00  0.00     0.031 C 
ATOM     51  C   UNL A   1      41.559  30.599  36.259  1.00  0.00     0.029 A 
ATOM     52  C   UNL A   1      40.846  30.709  35.075  1.00  0.00     0.049 A 
ATOM     53  H   UNL A   1      41.234  29.814  33.204  1.00  0.00     0.167 HD
ATOM     54  C   UNL A   1      39.012  31.531  33.620  1.00  0.00     0.074 A 
ATOM     55  C   UNL A   1      37.800  32.290  33.386  1.00  0.00     0.031 C 
ATOM     56  C   UNL A   1      39.645  31.461  34.817  1.00  0.00     0.037 A 
BRANCH  43  57
ATOM     57  C   UNL A   1      44.691  27.893  34.804  1.00  0.00     0.057 A 
ATOM     58  C   UNL A   1      44.594  26.668  35.476  1.00  0.00     0.134 A 
ATOM     59  C   UNL A   1      45.928  28.551  34.837  1.00  0.00     0.134 A 
ATOM     60  F   UNL A   1      43.433  25.995  35.498  1.00  0.00    -0.206 F 
ATOM     61  C   UNL A   1      45.680  26.123  36.165  1.00  0.00     0.040 A 
ATOM     62  C   UNL A   1      47.028  28.004  35.500  1.00  0.00     0.040 A 
ATOM     63  F   UNL A   1      46.091  29.728  34.215  1.00  0.00    -0.206 F 
ATOM     64  C   UNL A   1      46.904  26.788  36.169  1.00  0.00     0.006 A 
ENDBRANCH  43  57
BRANCH  44  65
ATOM     65  C   UNL A   1      37.131  31.471  29.307  1.00  0.00     0.057 A 
ATOM     66  C   UNL A   1      37.125  32.770  28.785  1.00  0.00     0.134 A 
ATOM     67  C   UNL A   1      35.991  30.687  29.093  1.00  0.00     0.134 A 
ATOM     68  F   UNL A   1      38.178  33.578  28.974  1.00  0.00    -0.206 F 
ATOM     69  C   UNL A   1      36.019  33.280  28.104  1.00  0.00     0.040 A 
ATOM     70  C   UNL A   1      34.889  31.173  28.389  1.00  0.00     0.040 A 
ATOM     71  F   UNL A   1      35.933  29.432  29.564  1.00  0.00    -0.206 F 
ATOM     72  C   UNL A   1      34.897  32.478  27.902  1.00  0.00     0.006 A 
ENDBRANCH  44  65
BRANCH  56  73
ATOM     73  C   UNL A   1      39.058  32.255  35.949  1.00  0.00     0.057 A 
ATOM     74  C   UNL A   1      38.183  31.684  36.882  1.00  0.00     0.134 A 
ATOM     75  C   UNL A   1      39.392  33.605  36.119  1.00  0.00     0.134 A 
ATOM     76  F   UNL A   1      37.813  30.399  36.770  1.00  0.00    -0.206 F 
ATOM     77  C   UNL A   1      37.634  32.435  37.922  1.00  0.00     0.040 A 
ATOM     78  C   UNL A   1      38.875  34.358  37.174  1.00  0.00     0.040 A 
ATOM     79  F   UNL A   1      40.235  34.211  35.270  1.00  0.00    -0.206 F 
ATOM     80  C   UNL A   1      37.984  33.776  38.073  1.00  0.00     0.006 A 
ENDBRANCH  56  73
ENDBRANCH  30  31
ENDBRANCH  23  25
ENDBRANCH  22  23
ENDBRANCH  21  22
ENDBRANCH  20  21
ENDBRANCH   1  20
TORSDOF 16
ENDMDL
