MODEL 1
REMARK VINA RESULT:     -11.7      0.000      0.000
REMARK SMILES O=C(CCC(=O)N1Cc2[nH]cnc2C[C@H]1C(=O)NCc1ccccc1)OCCOCCOC(=O)c1ccc(-c2c3nc(c(-c4c(F)cccc4F)c4ccc([nH]4)c(-c4c(F)cccc4F)c4nc(c(-c5c(F)cccc5F)c5ccc2[nH]5)C=C4)C=C3)cc1
REMARK SMILES IDX 27 1 26 2 2 3 1 4 3 5 4 6 5 7 6 8 7 9 8 10 15 11 9 12 14 13
REMARK SMILES IDX 10 14 13 15 11 16 12 18 16 19 17 20 18 21 19 23 20 24 21 25
REMARK SMILES IDX 25 26 22 27 24 28 23 29 28 30 29 31 30 32 31 33 32 34 33 35
REMARK SMILES IDX 34 36 35 37 36 38 88 39 37 40 87 41 38 42 39 43 40 44 81 45
REMARK SMILES IDX 41 46 86 47 80 48 82 49 42 50 85 51 79 52 78 53 43 55 69 56
REMARK SMILES IDX 52 57 68 58 53 59 56 60 67 61 83 62 54 63 55 64 66 66 84 67
REMARK SMILES IDX 57 68 44 69 45 70 50 71 46 72 47 73 49 74 51 75 48 76 70 77
REMARK SMILES IDX 71 78 76 79 72 80 73 81 75 82 77 83 74 84 58 85 59 86 64 87
REMARK SMILES IDX 60 88 61 89 63 90 65 91 62 92
REMARK H PARENT 10 17 18 22 82 54 56 65
REMARK Flexibility Score: inf
ROOT
ATOM      1  C   UNL A   1      38.310  21.228  25.751  1.00  0.00     0.261 C 
ENDROOT
BRANCH   1   2
ATOM      2  O   UNL A   1      37.574  22.245  25.048  1.00  0.00    -0.463 OA
BRANCH   2   3
ATOM      3  C   UNL A   1      36.288  22.103  24.655  1.00  0.00     0.306 C 
ATOM      4  O   UNL A   1      35.951  22.436  23.521  1.00  0.00    -0.252 OA
BRANCH   3   5
ATOM      5  C   UNL A   1      35.335  21.404  25.579  1.00  0.00     0.132 C 
BRANCH   5   6
ATOM      6  C   UNL A   1      34.256  20.674  24.801  1.00  0.00     0.112 C 
BRANCH   6   7
ATOM      7  C   UNL A   1      32.899  21.348  24.867  1.00  0.00     0.224 C 
ATOM      8  O   UNL A   1      31.940  20.673  25.259  1.00  0.00    -0.275 OA
BRANCH   7   9
ATOM      9  N   UNL A   1      32.739  22.674  24.476  1.00  0.00    -0.324 N 
ATOM     10  C   UNL A   1      32.410  22.865  23.050  1.00  0.00     0.176 C 
ATOM     11  C   UNL A   1      32.879  23.877  25.379  1.00  0.00     0.180 C 
ATOM     12  C   UNL A   1      32.765  24.220  22.606  1.00  0.00     0.058 A 
ATOM     13  C   UNL A   1      33.652  25.075  24.777  1.00  0.00     0.093 C 
ATOM     14  N   UNL A   1      32.552  24.764  21.371  1.00  0.00    -0.347 N 
ATOM     15  C   UNL A   1      33.334  25.221  23.348  1.00  0.00     0.066 A 
ATOM     16  C   UNL A   1      32.999  26.059  21.425  1.00  0.00     0.197 A 
ATOM     17  H   UNL A   1      32.153  24.313  20.592  1.00  0.00     0.167 HD
ATOM     18  N   UNL A   1      33.468  26.367  22.617  1.00  0.00    -0.242 NA
BRANCH  11  19
ATOM     19  C   UNL A   1      31.659  24.243  26.262  1.00  0.00     0.243 C 
ATOM     20  O   UNL A   1      31.581  23.799  27.418  1.00  0.00    -0.273 OA
ATOM     21  N   UNL A   1      30.583  24.962  25.879  1.00  0.00    -0.350 N 
ATOM     22  H   UNL A   1      30.007  25.241  26.627  1.00  0.00     0.163 HD
BRANCH  21  23
ATOM     23  C   UNL A   1      30.110  25.403  24.590  1.00  0.00     0.151 C 
BRANCH  23  24
ATOM     24  C   UNL A   1      30.258  26.890  24.377  1.00  0.00    -0.029 A 
ATOM     25  C   UNL A   1      29.569  27.595  23.376  1.00  0.00     0.005 A 
ATOM     26  C   UNL A   1      31.118  27.605  25.224  1.00  0.00     0.005 A 
ATOM     27  C   UNL A   1      29.758  28.967  23.207  1.00  0.00     0.000 A 
ATOM     28  C   UNL A   1      31.294  28.980  25.064  1.00  0.00     0.000 A 
ATOM     29  C   UNL A   1      30.621  29.660  24.052  1.00  0.00     0.000 A 
ENDBRANCH  23  24
ENDBRANCH  21  23
ENDBRANCH  11  19
ENDBRANCH   7   9
ENDBRANCH   6   7
ENDBRANCH   5   6
ENDBRANCH   3   5
ENDBRANCH   2   3
ENDBRANCH   1   2
BRANCH   1  30
ATOM     30  C   UNL A   1      39.684  21.735  26.182  1.00  0.00     0.202 C 
BRANCH  30  31
ATOM     31  O   UNL A   1      40.516  20.856  26.937  1.00  0.00    -0.374 OA
BRANCH  31  32
ATOM     32  C   UNL A   1      41.093  19.706  26.326  1.00  0.00     0.202 C 
BRANCH  32  33
ATOM     33  C   UNL A   1      42.604  19.646  26.111  1.00  0.00     0.261 C 
BRANCH  33  34
ATOM     34  O   UNL A   1      43.009  19.606  24.749  1.00  0.00    -0.460 OA
BRANCH  34  35
ATOM     35  C   UNL A   1      44.343  19.499  24.604  1.00  0.00     0.338 C 
ATOM     36  O   UNL A   1      45.018  18.477  24.729  1.00  0.00    -0.246 OA
BRANCH  35  37
ATOM     37  C   UNL A   1      44.959  20.822  24.487  1.00  0.00     0.060 A 
ATOM     38  C   UNL A   1      45.936  21.095  25.447  1.00  0.00     0.016 A 
ATOM     39  C   UNL A   1      44.199  21.832  23.882  1.00  0.00     0.016 A 
ATOM     40  C   UNL A   1      45.926  22.337  26.036  1.00  0.00     0.010 A 
ATOM     41  C   UNL A   1      44.181  23.070  24.481  1.00  0.00     0.010 A 
ATOM     42  C   UNL A   1      44.966  23.264  25.618  1.00  0.00    -0.014 A 
BRANCH  42  43
ATOM     43  C   UNL A   1      44.790  24.440  26.440  1.00  0.00     0.031 A 
ATOM     44  C   UNL A   1      45.938  25.361  26.455  1.00  0.00     0.074 A 
ATOM     45  C   UNL A   1      43.636  24.721  27.072  1.00  0.00     0.049 A 
ATOM     46  N   UNL A   1      46.652  25.725  27.467  1.00  0.00    -0.248 NA
ATOM     47  C   UNL A   1      46.393  25.882  25.159  1.00  0.00     0.031 C 
ATOM     48  C   UNL A   1      42.331  24.080  26.898  1.00  0.00     0.029 A 
ATOM     49  N   UNL A   1      43.374  25.741  27.938  1.00  0.00    -0.354 N 
ATOM     50  C   UNL A   1      47.534  26.674  26.968  1.00  0.00     0.074 A 
ATOM     51  C   UNL A   1      47.428  26.631  25.532  1.00  0.00     0.031 C 
ATOM     52  C   UNL A   1      41.382  24.856  27.471  1.00  0.00     0.029 A 
ATOM     53  C   UNL A   1      42.025  25.977  28.141  1.00  0.00     0.049 A 
ATOM     54  H   UNL A   1      44.082  26.263  28.381  1.00  0.00     0.167 HD
ATOM     55  C   UNL A   1      48.111  27.597  27.777  1.00  0.00     0.037 A 
ATOM     56  C   UNL A   1      41.481  27.062  28.742  1.00  0.00     0.037 A 
ATOM     57  C   UNL A   1      48.125  27.182  29.155  1.00  0.00     0.049 A 
ATOM     58  C   UNL A   1      42.542  27.731  29.535  1.00  0.00     0.074 A 
ATOM     59  C   UNL A   1      48.596  26.071  29.830  1.00  0.00     0.029 A 
ATOM     60  N   UNL A   1      47.306  27.830  30.045  1.00  0.00    -0.354 N 
ATOM     61  N   UNL A   1      43.040  27.274  30.650  1.00  0.00    -0.248 NA
ATOM     62  C   UNL A   1      43.328  28.772  28.885  1.00  0.00     0.031 C 
ATOM     63  C   UNL A   1      47.677  25.861  30.899  1.00  0.00     0.029 A 
ATOM     64  C   UNL A   1      46.710  26.863  30.814  1.00  0.00     0.049 A 
ATOM     65  H   UNL A   1      47.171  28.803  30.119  1.00  0.00     0.167 HD
ATOM     66  C   UNL A   1      44.373  27.655  30.625  1.00  0.00     0.074 A 
ATOM     67  C   UNL A   1      44.460  28.674  29.585  1.00  0.00     0.031 C 
ATOM     68  C   UNL A   1      45.334  26.913  31.248  1.00  0.00     0.037 A 
BRANCH  55  69
ATOM     69  C   UNL A   1      48.330  29.020  27.344  1.00  0.00     0.057 A 
ATOM     70  C   UNL A   1      49.590  29.609  27.516  1.00  0.00     0.134 A 
ATOM     71  C   UNL A   1      47.282  29.911  27.025  1.00  0.00     0.134 A 
ATOM     72  F   UNL A   1      50.654  28.867  27.858  1.00  0.00    -0.206 F 
ATOM     73  C   UNL A   1      49.785  30.992  27.430  1.00  0.00     0.040 A 
ATOM     74  C   UNL A   1      47.476  31.285  26.878  1.00  0.00     0.040 A 
ATOM     75  F   UNL A   1      46.004  29.517  26.940  1.00  0.00    -0.206 F 
ATOM     76  C   UNL A   1      48.726  31.834  27.110  1.00  0.00     0.006 A 
ENDBRANCH  55  69
BRANCH  56  77
ATOM     77  C   UNL A   1      40.167  27.698  28.500  1.00  0.00     0.057 A 
ATOM     78  C   UNL A   1      39.163  27.679  29.477  1.00  0.00     0.134 A 
ATOM     79  C   UNL A   1      39.942  28.550  27.404  1.00  0.00     0.134 A 
ATOM     80  F   UNL A   1      39.303  26.937  30.585  1.00  0.00    -0.206 F 
ATOM     81  C   UNL A   1      38.010  28.468  29.379  1.00  0.00     0.040 A 
ATOM     82  C   UNL A   1      38.789  29.331  27.284  1.00  0.00     0.040 A 
ATOM     83  F   UNL A   1      40.871  28.722  26.453  1.00  0.00    -0.206 F 
ATOM     84  C   UNL A   1      37.823  29.302  28.281  1.00  0.00     0.006 A 
ENDBRANCH  56  77
BRANCH  68  85
ATOM     85  C   UNL A   1      44.891  25.870  32.230  1.00  0.00     0.057 A 
ATOM     86  C   UNL A   1      44.554  24.556  31.873  1.00  0.00     0.134 A 
ATOM     87  C   UNL A   1      44.933  26.166  33.598  1.00  0.00     0.134 A 
ATOM     88  F   UNL A   1      44.594  24.153  30.596  1.00  0.00    -0.206 F 
ATOM     89  C   UNL A   1      44.216  23.598  32.834  1.00  0.00     0.040 A 
ATOM     90  C   UNL A   1      44.631  25.208  34.568  1.00  0.00     0.040 A 
ATOM     91  F   UNL A   1      45.308  27.385  34.016  1.00  0.00    -0.206 F 
ATOM     92  C   UNL A   1      44.257  23.923  34.186  1.00  0.00     0.006 A 
ENDBRANCH  68  85
ENDBRANCH  42  43
ENDBRANCH  35  37
ENDBRANCH  34  35
ENDBRANCH  33  34
ENDBRANCH  32  33
ENDBRANCH  31  32
ENDBRANCH  30  31
ENDBRANCH   1  30
TORSDOF 20
ENDMDL
MODEL 2
REMARK VINA RESULT:     -11.6      5.587     10.354
REMARK SMILES O=C(CCC(=O)N1Cc2[nH]cnc2C[C@H]1C(=O)NCc1ccccc1)OCCOCCOC(=O)c1ccc(-c2c3nc(c(-c4c(F)cccc4F)c4ccc([nH]4)c(-c4c(F)cccc4F)c4nc(c(-c5c(F)cccc5F)c5ccc2[nH]5)C=C4)C=C3)cc1
REMARK SMILES IDX 27 1 26 2 2 3 1 4 3 5 4 6 5 7 6 8 7 9 8 10 15 11 9 12 14 13
REMARK SMILES IDX 10 14 13 15 11 16 12 18 16 19 17 20 18 21 19 23 20 24 21 25
REMARK SMILES IDX 25 26 22 27 24 28 23 29 28 30 29 31 30 32 31 33 32 34 33 35
REMARK SMILES IDX 34 36 35 37 36 38 88 39 37 40 87 41 38 42 39 43 40 44 81 45
REMARK SMILES IDX 41 46 86 47 80 48 82 49 42 50 85 51 79 52 78 53 43 55 69 56
REMARK SMILES IDX 52 57 68 58 53 59 56 60 67 61 83 62 54 63 55 64 66 66 84 67
REMARK SMILES IDX 57 68 44 69 45 70 50 71 46 72 47 73 49 74 51 75 48 76 70 77
REMARK SMILES IDX 71 78 76 79 72 80 73 81 75 82 77 83 74 84 58 85 59 86 64 87
REMARK SMILES IDX 60 88 61 89 63 90 65 91 62 92
REMARK H PARENT 10 17 18 22 82 54 56 65
REMARK Flexibility Score: inf
ROOT
ATOM      1  C   UNL A   1      34.025  31.014  27.459  1.00  0.00     0.261 C 
ENDROOT
BRANCH   1   2
ATOM      2  O   UNL A   1      32.704  31.100  26.895  1.00  0.00    -0.463 OA
BRANCH   2   3
ATOM      3  C   UNL A   1      32.017  30.035  26.425  1.00  0.00     0.306 C 
ATOM      4  O   UNL A   1      31.678  29.993  25.245  1.00  0.00    -0.252 OA
BRANCH   3   5
ATOM      5  C   UNL A   1      31.816  28.860  27.337  1.00  0.00     0.132 C 
BRANCH   5   6
ATOM      6  C   UNL A   1      32.570  27.644  26.837  1.00  0.00     0.112 C 
BRANCH   6   7
ATOM      7  C   UNL A   1      31.697  26.648  26.098  1.00  0.00     0.224 C 
ATOM      8  O   UNL A   1      30.600  26.366  26.595  1.00  0.00    -0.275 OA
BRANCH   7   9
ATOM      9  N   UNL A   1      32.129  26.058  24.914  1.00  0.00    -0.324 N 
ATOM     10  C   UNL A   1      31.310  24.921  24.453  1.00  0.00     0.176 C 
ATOM     11  C   UNL A   1      33.332  26.488  24.109  1.00  0.00     0.180 C 
ATOM     12  C   UNL A   1      32.078  24.052  23.550  1.00  0.00     0.058 A 
ATOM     13  C   UNL A   1      34.216  25.339  23.568  1.00  0.00     0.093 C 
ATOM     14  N   UNL A   1      31.626  22.943  22.892  1.00  0.00    -0.347 N 
ATOM     15  C   UNL A   1      33.378  24.204  23.150  1.00  0.00     0.066 A 
ATOM     16  C   UNL A   1      32.668  22.481  22.131  1.00  0.00     0.197 A 
ATOM     17  H   UNL A   1      30.724  22.552  22.953  1.00  0.00     0.167 HD
ATOM     18  N   UNL A   1      33.740  23.234  22.259  1.00  0.00    -0.242 NA
BRANCH  11  19
ATOM     19  C   UNL A   1      33.150  27.697  23.156  1.00  0.00     0.243 C 
ATOM     20  O   UNL A   1      34.070  28.518  23.023  1.00  0.00    -0.273 OA
ATOM     21  N   UNL A   1      32.028  28.019  22.480  1.00  0.00    -0.350 N 
ATOM     22  H   UNL A   1      32.166  28.709  21.791  1.00  0.00     0.163 HD
BRANCH  21  23
ATOM     23  C   UNL A   1      30.667  27.550  22.564  1.00  0.00     0.151 C 
BRANCH  23  24
ATOM     24  C   UNL A   1      29.650  28.666  22.550  1.00  0.00    -0.029 A 
ATOM     25  C   UNL A   1      29.943  29.968  22.111  1.00  0.00     0.005 A 
ATOM     26  C   UNL A   1      28.346  28.389  22.987  1.00  0.00     0.005 A 
ATOM     27  C   UNL A   1      28.973  30.969  22.139  1.00  0.00     0.000 A 
ATOM     28  C   UNL A   1      27.371  29.387  22.999  1.00  0.00     0.000 A 
ATOM     29  C   UNL A   1      27.686  30.679  22.583  1.00  0.00     0.000 A 
ENDBRANCH  23  24
ENDBRANCH  21  23
ENDBRANCH  11  19
ENDBRANCH   7   9
ENDBRANCH   6   7
ENDBRANCH   5   6
ENDBRANCH   3   5
ENDBRANCH   2   3
ENDBRANCH   1   2
BRANCH   1  30
ATOM     30  C   UNL A   1      34.614  32.400  27.707  1.00  0.00     0.202 C 
BRANCH  30  31
ATOM     31  O   UNL A   1      33.778  33.383  28.315  1.00  0.00    -0.374 OA
BRANCH  31  32
ATOM     32  C   UNL A   1      34.349  34.486  29.011  1.00  0.00     0.202 C 
BRANCH  32  33
ATOM     33  C   UNL A   1      33.437  35.457  29.761  1.00  0.00     0.261 C 
BRANCH  33  34
ATOM     34  O   UNL A   1      32.753  34.892  30.871  1.00  0.00    -0.460 OA
BRANCH  34  35
ATOM     35  C   UNL A   1      32.916  35.603  32.002  1.00  0.00     0.338 C 
ATOM     36  O   UNL A   1      32.529  36.752  32.212  1.00  0.00    -0.246 OA
BRANCH  35  37
ATOM     37  C   UNL A   1      33.827  34.914  32.918  1.00  0.00     0.060 A 
ATOM     38  C   UNL A   1      34.982  35.632  33.238  1.00  0.00     0.016 A 
ATOM     39  C   UNL A   1      33.787  33.513  32.932  1.00  0.00     0.016 A 
ATOM     40  C   UNL A   1      36.176  34.952  33.251  1.00  0.00     0.010 A 
ATOM     41  C   UNL A   1      34.984  32.836  32.932  1.00  0.00     0.010 A 
ATOM     42  C   UNL A   1      36.163  33.580  32.980  1.00  0.00    -0.014 A 
BRANCH  42  43
ATOM     43  C   UNL A   1      37.439  32.953  32.716  1.00  0.00     0.031 A 
ATOM     44  C   UNL A   1      38.393  32.998  33.836  1.00  0.00     0.074 A 
ATOM     45  C   UNL A   1      37.706  32.298  31.572  1.00  0.00     0.049 A 
ATOM     46  N   UNL A   1      39.560  33.550  33.864  1.00  0.00    -0.248 NA
ATOM     47  C   UNL A   1      37.954  32.417  35.111  1.00  0.00     0.031 C 
ATOM     48  C   UNL A   1      36.770  31.902  30.518  1.00  0.00     0.029 A 
ATOM     49  N   UNL A   1      38.886  31.746  31.170  1.00  0.00    -0.354 N 
ATOM     50  C   UNL A   1      40.087  33.222  35.106  1.00  0.00     0.074 A 
ATOM     51  C   UNL A   1      39.015  32.649  35.880  1.00  0.00     0.031 C 
ATOM     52  C   UNL A   1      37.375  30.999  29.712  1.00  0.00     0.029 A 
ATOM     53  C   UNL A   1      38.762  30.845  30.126  1.00  0.00     0.049 A 
ATOM     54  H   UNL A   1      39.751  31.969  31.585  1.00  0.00     0.167 HD
ATOM     55  C   UNL A   1      41.426  33.222  35.327  1.00  0.00     0.037 A 
ATOM     56  C   UNL A   1      39.710  29.978  29.696  1.00  0.00     0.037 A 
ATOM     57  C   UNL A   1      42.136  34.040  34.380  1.00  0.00     0.049 A 
ATOM     58  C   UNL A   1      41.024  30.441  30.206  1.00  0.00     0.074 A 
ATOM     59  C   UNL A   1      42.048  35.360  33.980  1.00  0.00     0.029 A 
ATOM     60  N   UNL A   1      42.923  33.425  33.440  1.00  0.00    -0.354 N 
ATOM     61  N   UNL A   1      41.672  31.481  29.761  1.00  0.00    -0.248 NA
ATOM     62  C   UNL A   1      41.474  29.935  31.495  1.00  0.00     0.031 C 
ATOM     63  C   UNL A   1      42.382  35.358  32.594  1.00  0.00     0.029 A 
ATOM     64  C   UNL A   1      42.662  34.038  32.241  1.00  0.00     0.049 A 
ATOM     65  H   UNL A   1      43.554  32.685  33.594  1.00  0.00     0.167 HD
ATOM     66  C   UNL A   1      42.310  32.004  30.876  1.00  0.00     0.074 A 
ATOM     67  C   UNL A   1      42.255  30.946  31.878  1.00  0.00     0.031 C 
ATOM     68  C   UNL A   1      42.573  33.339  30.981  1.00  0.00     0.037 A 
BRANCH  55  69
ATOM     69  C   UNL A   1      42.096  32.186  36.186  1.00  0.00     0.057 A 
ATOM     70  C   UNL A   1      43.006  32.590  37.173  1.00  0.00     0.134 A 
ATOM     71  C   UNL A   1      42.093  30.804  35.893  1.00  0.00     0.134 A 
ATOM     72  F   UNL A   1      43.125  33.884  37.509  1.00  0.00    -0.206 F 
ATOM     73  C   UNL A   1      43.887  31.694  37.788  1.00  0.00     0.040 A 
ATOM     74  C   UNL A   1      42.926  29.892  36.542  1.00  0.00     0.040 A 
ATOM     75  F   UNL A   1      41.363  30.283  34.899  1.00  0.00    -0.206 F 
ATOM     76  C   UNL A   1      43.848  30.340  37.474  1.00  0.00     0.006 A 
ENDBRANCH  55  69
BRANCH  56  77
ATOM     77  C   UNL A   1      39.537  28.649  29.068  1.00  0.00     0.057 A 
ATOM     78  C   UNL A   1      40.037  28.384  27.786  1.00  0.00     0.134 A 
ATOM     79  C   UNL A   1      39.096  27.531  29.800  1.00  0.00     0.134 A 
ATOM     80  F   UNL A   1      40.529  29.374  27.027  1.00  0.00    -0.206 F 
ATOM     81  C   UNL A   1      40.106  27.086  27.265  1.00  0.00     0.040 A 
ATOM     82  C   UNL A   1      39.142  26.232  29.286  1.00  0.00     0.040 A 
ATOM     83  F   UNL A   1      38.684  27.649  31.070  1.00  0.00    -0.206 F 
ATOM     84  C   UNL A   1      39.661  26.004  28.019  1.00  0.00     0.006 A 
ENDBRANCH  56  77
BRANCH  68  85
ATOM     85  C   UNL A   1      42.462  34.178  29.742  1.00  0.00     0.057 A 
ATOM     86  C   UNL A   1      41.294  34.854  29.361  1.00  0.00     0.134 A 
ATOM     87  C   UNL A   1      43.612  34.416  28.979  1.00  0.00     0.134 A 
ATOM     88  F   UNL A   1      40.175  34.773  30.095  1.00  0.00    -0.206 F 
ATOM     89  C   UNL A   1      41.260  35.683  28.236  1.00  0.00     0.040 A 
ATOM     90  C   UNL A   1      43.599  35.269  27.874  1.00  0.00     0.040 A 
ATOM     91  F   UNL A   1      44.781  33.852  29.322  1.00  0.00    -0.206 F 
ATOM     92  C   UNL A   1      42.416  35.895  27.491  1.00  0.00     0.006 A 
ENDBRANCH  68  85
ENDBRANCH  42  43
ENDBRANCH  35  37
ENDBRANCH  34  35
ENDBRANCH  33  34
ENDBRANCH  32  33
ENDBRANCH  31  32
ENDBRANCH  30  31
ENDBRANCH   1  30
TORSDOF 20
ENDMDL
MODEL 3
REMARK VINA RESULT:     -11.5      5.362     10.401
REMARK SMILES O=C(CCC(=O)N1Cc2[nH]cnc2C[C@H]1C(=O)NCc1ccccc1)OCCOCCOC(=O)c1ccc(-c2c3nc(c(-c4c(F)cccc4F)c4ccc([nH]4)c(-c4c(F)cccc4F)c4nc(c(-c5c(F)cccc5F)c5ccc2[nH]5)C=C4)C=C3)cc1
REMARK SMILES IDX 27 1 26 2 2 3 1 4 3 5 4 6 5 7 6 8 7 9 8 10 15 11 9 12 14 13
REMARK SMILES IDX 10 14 13 15 11 16 12 18 16 19 17 20 18 21 19 23 20 24 21 25
REMARK SMILES IDX 25 26 22 27 24 28 23 29 28 30 29 31 30 32 31 33 32 34 33 35
REMARK SMILES IDX 34 36 35 37 36 38 88 39 37 40 87 41 38 42 39 43 40 44 81 45
REMARK SMILES IDX 41 46 86 47 80 48 82 49 42 50 85 51 79 52 78 53 43 55 69 56
REMARK SMILES IDX 52 57 68 58 53 59 56 60 67 61 83 62 54 63 55 64 66 66 84 67
REMARK SMILES IDX 57 68 44 69 45 70 50 71 46 72 47 73 49 74 51 75 48 76 70 77
REMARK SMILES IDX 71 78 76 79 72 80 73 81 75 82 77 83 74 84 58 85 59 86 64 87
REMARK SMILES IDX 60 88 61 89 63 90 65 91 62 92
REMARK H PARENT 10 17 18 22 82 54 56 65
REMARK Flexibility Score: inf
ROOT
ATOM      1  C   UNL A   1      34.379  31.397  27.987  1.00  0.00     0.261 C 
ENDROOT
BRANCH   1   2
ATOM      2  O   UNL A   1      33.213  31.096  27.199  1.00  0.00    -0.463 OA
BRANCH   2   3
ATOM      3  C   UNL A   1      33.043  29.939  26.521  1.00  0.00     0.306 C 
ATOM      4  O   UNL A   1      34.016  29.248  26.229  1.00  0.00    -0.252 OA
BRANCH   3   5
ATOM      5  C   UNL A   1      31.643  29.461  26.270  1.00  0.00     0.132 C 
BRANCH   5   6
ATOM      6  C   UNL A   1      31.636  28.226  25.390  1.00  0.00     0.112 C 
BRANCH   6   7
ATOM      7  C   UNL A   1      31.460  26.932  26.161  1.00  0.00     0.224 C 
ATOM      8  O   UNL A   1      31.018  27.004  27.313  1.00  0.00    -0.275 OA
BRANCH   7   9
ATOM      9  N   UNL A   1      31.807  25.710  25.594  1.00  0.00    -0.324 N 
ATOM     10  C   UNL A   1      33.199  25.622  25.110  1.00  0.00     0.176 C 
ATOM     11  C   UNL A   1      30.889  24.519  25.447  1.00  0.00     0.180 C 
ATOM     12  C   UNL A   1      33.338  24.566  24.098  1.00  0.00     0.058 A 
ATOM     13  C   UNL A   1      30.969  23.781  24.090  1.00  0.00     0.093 C 
ATOM     14  N   UNL A   1      34.488  24.168  23.476  1.00  0.00    -0.347 N 
ATOM     15  C   UNL A   1      32.361  23.740  23.612  1.00  0.00     0.066 A 
ATOM     16  C   UNL A   1      34.152  23.127  22.650  1.00  0.00     0.197 A 
ATOM     17  H   UNL A   1      35.386  24.554  23.599  1.00  0.00     0.167 HD
ATOM     18  N   UNL A   1      32.869  22.839  22.721  1.00  0.00    -0.242 NA
BRANCH  11  19
ATOM     19  C   UNL A   1      30.699  23.614  26.691  1.00  0.00     0.243 C 
ATOM     20  O   UNL A   1      29.625  23.638  27.310  1.00  0.00    -0.273 OA
ATOM     21  N   UNL A   1      31.636  22.821  27.251  1.00  0.00    -0.350 N 
ATOM     22  H   UNL A   1      31.274  22.191  27.916  1.00  0.00     0.163 HD
BRANCH  21  23
ATOM     23  C   UNL A   1      33.062  22.712  27.068  1.00  0.00     0.151 C 
BRANCH  23  24
ATOM     24  C   UNL A   1      33.463  21.562  26.175  1.00  0.00    -0.029 A 
ATOM     25  C   UNL A   1      34.792  21.312  25.794  1.00  0.00     0.005 A 
ATOM     26  C   UNL A   1      32.462  20.697  25.709  1.00  0.00     0.005 A 
ATOM     27  C   UNL A   1      35.107  20.249  24.948  1.00  0.00     0.000 A 
ATOM     28  C   UNL A   1      32.780  19.623  24.876  1.00  0.00     0.000 A 
ATOM     29  C   UNL A   1      34.100  19.404  24.489  1.00  0.00     0.000 A 
ENDBRANCH  23  24
ENDBRANCH  21  23
ENDBRANCH  11  19
ENDBRANCH   7   9
ENDBRANCH   6   7
ENDBRANCH   5   6
ENDBRANCH   3   5
ENDBRANCH   2   3
ENDBRANCH   1   2
BRANCH   1  30
ATOM     30  C   UNL A   1      34.659  32.897  28.013  1.00  0.00     0.202 C 
BRANCH  30  31
ATOM     31  O   UNL A   1      34.067  33.670  29.056  1.00  0.00    -0.374 OA
BRANCH  31  32
ATOM     32  C   UNL A   1      33.277  34.814  28.747  1.00  0.00     0.202 C 
BRANCH  32  33
ATOM     33  C   UNL A   1      32.919  35.803  29.855  1.00  0.00     0.261 C 
BRANCH  33  34
ATOM     34  O   UNL A   1      33.763  35.746  30.998  1.00  0.00    -0.460 OA
BRANCH  34  35
ATOM     35  C   UNL A   1      33.153  35.212  32.072  1.00  0.00     0.338 C 
ATOM     36  O   UNL A   1      31.971  35.345  32.389  1.00  0.00    -0.246 OA
BRANCH  35  37
ATOM     37  C   UNL A   1      34.133  34.606  32.975  1.00  0.00     0.060 A 
ATOM     38  C   UNL A   1      35.278  35.377  33.190  1.00  0.00     0.016 A 
ATOM     39  C   UNL A   1      34.141  33.208  33.071  1.00  0.00     0.016 A 
ATOM     40  C   UNL A   1      36.493  34.734  33.176  1.00  0.00     0.010 A 
ATOM     41  C   UNL A   1      35.358  32.569  33.044  1.00  0.00     0.010 A 
ATOM     42  C   UNL A   1      36.512  33.349  32.986  1.00  0.00    -0.014 A 
BRANCH  42  43
ATOM     43  C   UNL A   1      37.792  32.747  32.688  1.00  0.00     0.031 A 
ATOM     44  C   UNL A   1      38.747  32.741  33.809  1.00  0.00     0.074 A 
ATOM     45  C   UNL A   1      38.064  32.154  31.512  1.00  0.00     0.049 A 
ATOM     46  N   UNL A   1      39.910  33.300  33.864  1.00  0.00    -0.248 NA
ATOM     47  C   UNL A   1      38.314  32.092  35.052  1.00  0.00     0.031 C 
ATOM     48  C   UNL A   1      37.129  31.806  30.439  1.00  0.00     0.029 A 
ATOM     49  N   UNL A   1      39.247  31.633  31.081  1.00  0.00    -0.354 N 
ATOM     50  C   UNL A   1      40.441  32.913  35.087  1.00  0.00     0.074 A 
ATOM     51  C   UNL A   1      39.375  32.292  35.831  1.00  0.00     0.031 C 
ATOM     52  C   UNL A   1      37.740  30.951  29.587  1.00  0.00     0.029 A 
ATOM     53  C   UNL A   1      39.128  30.786  29.992  1.00  0.00     0.049 A 
ATOM     54  H   UNL A   1      40.110  31.841  31.506  1.00  0.00     0.167 HD
ATOM     55  C   UNL A   1      41.780  32.911  35.307  1.00  0.00     0.037 A 
ATOM     56  C   UNL A   1      40.083  29.950  29.517  1.00  0.00     0.037 A 
ATOM     57  C   UNL A   1      42.483  33.783  34.403  1.00  0.00     0.049 A 
ATOM     58  C   UNL A   1      41.394  30.397  30.048  1.00  0.00     0.074 A 
ATOM     59  C   UNL A   1      42.384  35.122  34.072  1.00  0.00     0.029 A 
ATOM     60  N   UNL A   1      43.274  33.223  33.431  1.00  0.00    -0.354 N 
ATOM     61  N   UNL A   1      42.033  31.463  29.658  1.00  0.00    -0.248 NA
ATOM     62  C   UNL A   1      41.850  29.828  31.310  1.00  0.00     0.031 C 
ATOM     63  C   UNL A   1      42.717  35.193  32.688  1.00  0.00     0.029 A 
ATOM     64  C   UNL A   1      43.007  33.896  32.266  1.00  0.00     0.049 A 
ATOM     65  H   UNL A   1      43.910  32.482  33.547  1.00  0.00     0.167 HD
ATOM     66  C   UNL A   1      42.669  31.933  30.798  1.00  0.00     0.074 A 
ATOM     67  C   UNL A   1      42.623  30.824  31.744  1.00  0.00     0.031 C 
ATOM     68  C   UNL A   1      42.922  33.263  30.971  1.00  0.00     0.037 A 
BRANCH  55  69
ATOM     69  C   UNL A   1      42.460  31.838  36.110  1.00  0.00     0.057 A 
ATOM     70  C   UNL A   1      43.379  32.197  37.105  1.00  0.00     0.134 A 
ATOM     71  C   UNL A   1      42.453  30.471  35.755  1.00  0.00     0.134 A 
ATOM     72  F   UNL A   1      43.502  33.474  37.498  1.00  0.00    -0.206 F 
ATOM     73  C   UNL A   1      44.267  31.274  37.670  1.00  0.00     0.040 A 
ATOM     74  C   UNL A   1      43.293  29.530  36.353  1.00  0.00     0.040 A 
ATOM     75  F   UNL A   1      41.713  29.995  34.746  1.00  0.00    -0.206 F 
ATOM     76  C   UNL A   1      44.225  29.936  37.294  1.00  0.00     0.006 A 
ENDBRANCH  55  69
BRANCH  56  77
ATOM     77  C   UNL A   1      39.920  28.654  28.821  1.00  0.00     0.057 A 
ATOM     78  C   UNL A   1      40.514  28.423  27.573  1.00  0.00     0.134 A 
ATOM     79  C   UNL A   1      39.385  27.524  29.466  1.00  0.00     0.134 A 
ATOM     80  F   UNL A   1      41.097  29.425  26.899  1.00  0.00    -0.206 F 
ATOM     81  C   UNL A   1      40.584  27.145  27.005  1.00  0.00     0.040 A 
ATOM     82  C   UNL A   1      39.432  26.246  28.903  1.00  0.00     0.040 A 
ATOM     83  F   UNL A   1      38.874  27.605  30.703  1.00  0.00    -0.206 F 
ATOM     84  C   UNL A   1      40.045  26.050  27.674  1.00  0.00     0.006 A 
ENDBRANCH  56  77
BRANCH  68  85
ATOM     85  C   UNL A   1      42.802  34.163  29.778  1.00  0.00     0.057 A 
ATOM     86  C   UNL A   1      43.838  34.379  28.857  1.00  0.00     0.134 A 
ATOM     87  C   UNL A   1      41.557  34.729  29.477  1.00  0.00     0.134 A 
ATOM     88  F   UNL A   1      45.031  33.788  29.006  1.00  0.00    -0.206 F 
ATOM     89  C   UNL A   1      43.656  35.171  27.720  1.00  0.00     0.040 A 
ATOM     90  C   UNL A   1      41.353  35.493  28.327  1.00  0.00     0.040 A 
ATOM     91  F   UNL A   1      40.503  34.513  30.281  1.00  0.00    -0.206 F 
ATOM     92  C   UNL A   1      42.409  35.727  27.450  1.00  0.00     0.006 A 
ENDBRANCH  68  85
ENDBRANCH  42  43
ENDBRANCH  35  37
ENDBRANCH  34  35
ENDBRANCH  33  34
ENDBRANCH  32  33
ENDBRANCH  31  32
ENDBRANCH  30  31
ENDBRANCH   1  30
TORSDOF 20
ENDMDL
