MODEL 1
REMARK VINA RESULT:     -11.1      0.000      0.000
REMARK SMILES Cc1ccc(-c2ncccc2C(=O)OCCOCCOC(=O)c2ccc(-c3c4nc(c(-c5c(F)cccc5F)c5ccc([nH]5)c(-c5c(F)cccc5F)c5nc(c(-c6c(F)cccc6F)c6ccc3[nH]6)C=C5)C=C4)cc2)c(C)c1
REMARK SMILES IDX 18 1 17 2 16 3 15 4 14 5 12 6 13 7 11 8 6 9 7 10 8 11 10 12
REMARK SMILES IDX 9 13 5 14 1 15 2 16 3 17 79 18 4 19 77 20 78 21 19 22 20 23
REMARK SMILES IDX 21 24 22 25 23 26 24 27 76 28 25 29 75 30 26 31 27 32 28 33
REMARK SMILES IDX 69 34 29 35 74 36 68 37 70 38 30 39 73 40 67 41 66 42 31 44
REMARK SMILES IDX 57 45 40 46 56 47 41 48 44 49 55 50 71 51 42 52 43 53 54 55
REMARK SMILES IDX 72 56 45 57 32 58 33 59 38 60 34 61 35 62 37 63 39 64 36 65
REMARK SMILES IDX 58 66 59 67 64 68 60 69 61 70 63 71 65 72 62 73 46 74 47 75
REMARK SMILES IDX 52 76 48 77 49 78 51 79 53 80 50 81
REMARK H PARENT 70 43 44 54
REMARK Flexibility Score: inf
ROOT
ATOM      1  C   UNL A   1      31.238  32.286  26.508  1.00  0.00     0.202 C 
ENDROOT
BRANCH   1   2
ATOM      2  O   UNL A   1      31.439  30.934  26.110  1.00  0.00    -0.374 OA
BRANCH   2   3
ATOM      3  C   UNL A   1      32.751  30.388  26.285  1.00  0.00     0.202 C 
BRANCH   3   4
ATOM      4  C   UNL A   1      32.874  29.228  27.275  1.00  0.00     0.261 C 
BRANCH   4   5
ATOM      5  O   UNL A   1      33.453  28.085  26.614  1.00  0.00    -0.460 OA
BRANCH   5   6
ATOM      6  C   UNL A   1      32.625  27.025  26.446  1.00  0.00     0.340 C 
ATOM      7  O   UNL A   1      31.608  26.789  27.078  1.00  0.00    -0.246 OA
BRANCH   6   8
ATOM      8  C   UNL A   1      33.134  26.198  25.338  1.00  0.00     0.086 A 
ATOM      9  C   UNL A   1      32.559  26.243  24.061  1.00  0.00     0.085 A 
ATOM     10  N   UNL A   1      33.004  25.454  23.044  1.00  0.00    -0.255 NA
ATOM     11  C   UNL A   1      34.022  24.605  23.307  1.00  0.00     0.112 A 
ATOM     12  C   UNL A   1      34.210  25.333  25.567  1.00  0.00     0.019 A 
ATOM     13  C   UNL A   1      34.659  24.518  24.534  1.00  0.00     0.021 A 
BRANCH   9  14
ATOM     14  C   UNL A   1      31.519  27.209  23.667  1.00  0.00     0.004 A 
ATOM     15  C   UNL A   1      28.319  29.663  22.086  1.00  0.00     0.044 C 
ATOM     16  C   UNL A   1      29.416  28.829  22.677  1.00  0.00    -0.051 A 
ATOM     17  C   UNL A   1      29.129  27.647  23.359  1.00  0.00     0.004 A 
ATOM     18  C   UNL A   1      30.748  29.246  22.582  1.00  0.00     0.007 A 
ATOM     19  C   UNL A   1      30.169  26.857  23.855  1.00  0.00     0.011 A 
ATOM     20  C   UNL A   1      31.805  28.454  23.074  1.00  0.00    -0.041 A 
ATOM     21  C   UNL A   1      33.202  29.004  22.973  1.00  0.00     0.045 C 
ENDBRANCH   9  14
ENDBRANCH   6   8
ENDBRANCH   5   6
ENDBRANCH   4   5
ENDBRANCH   3   4
ENDBRANCH   2   3
ENDBRANCH   1   2
BRANCH   1  22
ATOM     22  C   UNL A   1      32.460  33.053  27.036  1.00  0.00     0.261 C 
BRANCH  22  23
ATOM     23  O   UNL A   1      32.237  33.664  28.309  1.00  0.00    -0.460 OA
BRANCH  23  24
ATOM     24  C   UNL A   1      33.273  34.436  28.715  1.00  0.00     0.338 C 
ATOM     25  O   UNL A   1      33.240  35.605  29.064  1.00  0.00    -0.246 OA
BRANCH  24  26
ATOM     26  C   UNL A   1      34.490  33.616  28.821  1.00  0.00     0.060 A 
ATOM     27  C   UNL A   1      34.353  32.347  29.392  1.00  0.00     0.016 A 
ATOM     28  C   UNL A   1      35.746  34.106  28.452  1.00  0.00     0.016 A 
ATOM     29  C   UNL A   1      35.484  31.591  29.673  1.00  0.00     0.010 A 
ATOM     30  C   UNL A   1      36.883  33.345  28.737  1.00  0.00     0.010 A 
ATOM     31  C   UNL A   1      36.757  32.111  29.399  1.00  0.00    -0.014 A 
BRANCH  31  32
ATOM     32  C   UNL A   1      37.931  31.449  30.010  1.00  0.00     0.031 A 
ATOM     33  C   UNL A   1      38.245  31.738  31.453  1.00  0.00     0.074 A 
ATOM     34  C   UNL A   1      38.640  30.534  29.327  1.00  0.00     0.049 A 
ATOM     35  N   UNL A   1      39.168  31.222  32.223  1.00  0.00    -0.248 NA
ATOM     36  C   UNL A   1      37.398  32.741  32.122  1.00  0.00     0.031 C 
ATOM     37  C   UNL A   1      38.401  30.142  27.938  1.00  0.00     0.029 A 
ATOM     38  N   UNL A   1      39.697  29.755  29.721  1.00  0.00    -0.354 N 
ATOM     39  C   UNL A   1      39.003  31.824  33.465  1.00  0.00     0.074 A 
ATOM     40  C   UNL A   1      37.926  32.781  33.335  1.00  0.00     0.031 C 
ATOM     41  C   UNL A   1      39.282  29.185  27.599  1.00  0.00     0.029 A 
ATOM     42  C   UNL A   1      40.154  28.911  28.739  1.00  0.00     0.049 A 
ATOM     43  H   UNL A   1      40.090  29.795  30.623  1.00  0.00     0.167 HD
ATOM     44  C   UNL A   1      39.670  31.585  34.617  1.00  0.00     0.037 A 
ATOM     45  C   UNL A   1      41.165  28.021  28.765  1.00  0.00     0.037 A 
ATOM     46  C   UNL A   1      40.743  30.637  34.745  1.00  0.00     0.049 A 
ATOM     47  C   UNL A   1      41.942  27.831  30.042  1.00  0.00     0.074 A 
ATOM     48  C   UNL A   1      41.499  30.332  35.863  1.00  0.00     0.029 A 
ATOM     49  N   UNL A   1      41.212  29.838  33.713  1.00  0.00    -0.354 N 
ATOM     50  N   UNL A   1      41.766  28.395  31.212  1.00  0.00    -0.248 NA
ATOM     51  C   UNL A   1      43.054  26.870  29.999  1.00  0.00     0.031 C 
ATOM     52  C   UNL A   1      42.449  29.372  35.499  1.00  0.00     0.029 A 
ATOM     53  C   UNL A   1      42.256  29.049  34.165  1.00  0.00     0.049 A 
ATOM     54  H   UNL A   1      40.856  29.833  32.796  1.00  0.00     0.167 HD
ATOM     55  C   UNL A   1      42.722  27.836  32.052  1.00  0.00     0.074 A 
ATOM     56  C   UNL A   1      43.462  26.875  31.260  1.00  0.00     0.031 C 
ATOM     57  C   UNL A   1      42.971  28.093  33.360  1.00  0.00     0.037 A 
BRANCH  44  58
ATOM     58  C   UNL A   1      39.259  32.373  35.827  1.00  0.00     0.057 A 
ATOM     59  C   UNL A   1      38.349  31.862  36.762  1.00  0.00     0.134 A 
ATOM     60  C   UNL A   1      39.793  33.644  36.072  1.00  0.00     0.134 A 
ATOM     61  F   UNL A   1      37.788  30.657  36.576  1.00  0.00    -0.206 F 
ATOM     62  C   UNL A   1      37.971  32.594  37.888  1.00  0.00     0.040 A 
ATOM     63  C   UNL A   1      39.441  34.376  37.207  1.00  0.00     0.040 A 
ATOM     64  F   UNL A   1      40.669  34.191  35.216  1.00  0.00    -0.206 F 
ATOM     65  C   UNL A   1      38.523  33.853  38.116  1.00  0.00     0.006 A 
ENDBRANCH  44  58
BRANCH  45  66
ATOM     66  C   UNL A   1      41.507  27.234  27.553  1.00  0.00     0.057 A 
ATOM     67  C   UNL A   1      41.004  25.942  27.359  1.00  0.00     0.134 A 
ATOM     68  C   UNL A   1      42.388  27.734  26.587  1.00  0.00     0.134 A 
ATOM     69  F   UNL A   1      40.173  25.398  28.261  1.00  0.00    -0.206 F 
ATOM     70  C   UNL A   1      41.386  25.164  26.265  1.00  0.00     0.040 A 
ATOM     71  C   UNL A   1      42.758  26.978  25.474  1.00  0.00     0.040 A 
ATOM     72  F   UNL A   1      42.904  28.965  26.713  1.00  0.00    -0.206 F 
ATOM     73  C   UNL A   1      42.265  25.684  25.317  1.00  0.00     0.006 A 
ENDBRANCH  45  66
BRANCH  57  74
ATOM     74  C   UNL A   1      44.060  27.296  34.016  1.00  0.00     0.057 A 
ATOM     75  C   UNL A   1      43.806  26.066  34.635  1.00  0.00     0.134 A 
ATOM     76  C   UNL A   1      45.383  27.757  34.010  1.00  0.00     0.134 A 
ATOM     77  F   UNL A   1      42.558  25.575  34.685  1.00  0.00    -0.206 F 
ATOM     78  C   UNL A   1      44.822  25.339  35.256  1.00  0.00     0.040 A 
ATOM     79  C   UNL A   1      46.413  27.026  34.602  1.00  0.00     0.040 A 
ATOM     80  F   UNL A   1      45.697  28.922  33.423  1.00  0.00    -0.206 F 
ATOM     81  C   UNL A   1      46.132  25.817  35.237  1.00  0.00     0.006 A 
ENDBRANCH  57  74
ENDBRANCH  31  32
ENDBRANCH  24  26
ENDBRANCH  23  24
ENDBRANCH  22  23
ENDBRANCH   1  22
TORSDOF 15
ENDMDL
MODEL 2
REMARK VINA RESULT:     -11.0      4.282      9.284
REMARK SMILES Cc1ccc(-c2ncccc2C(=O)OCCOCCOC(=O)c2ccc(-c3c4nc(c(-c5c(F)cccc5F)c5ccc([nH]5)c(-c5c(F)cccc5F)c5nc(c(-c6c(F)cccc6F)c6ccc3[nH]6)C=C5)C=C4)cc2)c(C)c1
REMARK SMILES IDX 18 1 17 2 16 3 15 4 14 5 12 6 13 7 11 8 6 9 7 10 8 11 10 12
REMARK SMILES IDX 9 13 5 14 1 15 2 16 3 17 79 18 4 19 77 20 78 21 19 22 20 23
REMARK SMILES IDX 21 24 22 25 23 26 24 27 76 28 25 29 75 30 26 31 27 32 28 33
REMARK SMILES IDX 69 34 29 35 74 36 68 37 70 38 30 39 73 40 67 41 66 42 31 44
REMARK SMILES IDX 57 45 40 46 56 47 41 48 44 49 55 50 71 51 42 52 43 53 54 55
REMARK SMILES IDX 72 56 45 57 32 58 33 59 38 60 34 61 35 62 37 63 39 64 36 65
REMARK SMILES IDX 58 66 59 67 64 68 60 69 61 70 63 71 65 72 62 73 46 74 47 75
REMARK SMILES IDX 52 76 48 77 49 78 51 79 53 80 50 81
REMARK H PARENT 70 43 44 54
REMARK Flexibility Score: inf
ROOT
ATOM      1  C   UNL A   1      36.374  20.415  24.996  1.00  0.00     0.202 C 
ENDROOT
BRANCH   1   2
ATOM      2  O   UNL A   1      36.156  21.775  24.638  1.00  0.00    -0.374 OA
BRANCH   2   3
ATOM      3  C   UNL A   1      35.701  22.658  25.668  1.00  0.00     0.202 C 
BRANCH   3   4
ATOM      4  C   UNL A   1      35.825  24.156  25.378  1.00  0.00     0.261 C 
BRANCH   4   5
ATOM      5  O   UNL A   1      34.610  24.828  25.765  1.00  0.00    -0.460 OA
BRANCH   5   6
ATOM      6  C   UNL A   1      33.635  24.859  24.824  1.00  0.00     0.340 C 
ATOM      7  O   UNL A   1      33.761  25.182  23.654  1.00  0.00    -0.246 OA
BRANCH   6   8
ATOM      8  C   UNL A   1      32.374  24.401  25.434  1.00  0.00     0.086 A 
ATOM      9  C   UNL A   1      31.487  25.294  26.051  1.00  0.00     0.085 A 
ATOM     10  N   UNL A   1      30.338  24.869  26.646  1.00  0.00    -0.255 NA
ATOM     11  C   UNL A   1      30.078  23.543  26.637  1.00  0.00     0.112 A 
ATOM     12  C   UNL A   1      32.057  23.038  25.410  1.00  0.00     0.019 A 
ATOM     13  C   UNL A   1      30.891  22.600  26.027  1.00  0.00     0.021 A 
BRANCH   9  14
ATOM     14  C   UNL A   1      31.646  26.758  26.016  1.00  0.00     0.004 A 
ATOM     15  C   UNL A   1      31.717  31.075  26.351  1.00  0.00     0.044 C 
ATOM     16  C   UNL A   1      31.739  29.581  26.225  1.00  0.00    -0.051 A 
ATOM     17  C   UNL A   1      32.295  28.786  27.225  1.00  0.00     0.004 A 
ATOM     18  C   UNL A   1      31.229  28.963  25.077  1.00  0.00     0.007 A 
ATOM     19  C   UNL A   1      32.257  27.394  27.113  1.00  0.00     0.011 A 
ATOM     20  C   UNL A   1      31.180  27.560  24.957  1.00  0.00    -0.041 A 
ATOM     21  C   UNL A   1      30.661  26.983  23.668  1.00  0.00     0.045 C 
ENDBRANCH   9  14
ENDBRANCH   6   8
ENDBRANCH   5   6
ENDBRANCH   4   5
ENDBRANCH   3   4
ENDBRANCH   2   3
ENDBRANCH   1   2
BRANCH   1  22
ATOM     22  C   UNL A   1      37.830  19.929  25.064  1.00  0.00     0.261 C 
BRANCH  22  23
ATOM     23  O   UNL A   1      38.775  20.994  25.193  1.00  0.00    -0.460 OA
BRANCH  23  24
ATOM     24  C   UNL A   1      39.735  20.742  26.115  1.00  0.00     0.338 C 
ATOM     25  O   UNL A   1      40.360  19.707  26.275  1.00  0.00    -0.246 OA
BRANCH  24  26
ATOM     26  C   UNL A   1      40.049  21.975  26.855  1.00  0.00     0.060 A 
ATOM     27  C   UNL A   1      39.373  23.137  26.468  1.00  0.00     0.016 A 
ATOM     28  C   UNL A   1      41.037  22.013  27.841  1.00  0.00     0.016 A 
ATOM     29  C   UNL A   1      39.742  24.361  27.010  1.00  0.00     0.010 A 
ATOM     30  C   UNL A   1      41.409  23.246  28.385  1.00  0.00     0.010 A 
ATOM     31  C   UNL A   1      40.799  24.428  27.928  1.00  0.00    -0.014 A 
BRANCH  31  32
ATOM     32  C   UNL A   1      41.388  25.754  28.224  1.00  0.00     0.031 A 
ATOM     33  C   UNL A   1      42.771  26.053  27.709  1.00  0.00     0.074 A 
ATOM     34  C   UNL A   1      40.670  26.704  28.847  1.00  0.00     0.049 A 
ATOM     35  N   UNL A   1      43.459  27.163  27.773  1.00  0.00    -0.248 NA
ATOM     36  C   UNL A   1      43.468  24.953  27.021  1.00  0.00     0.031 C 
ATOM     37  C   UNL A   1      39.307  26.541  29.351  1.00  0.00     0.029 A 
ATOM     38  N   UNL A   1      40.987  28.004  29.143  1.00  0.00    -0.354 N 
ATOM     39  C   UNL A   1      44.660  26.899  27.124  1.00  0.00     0.074 A 
ATOM     40  C   UNL A   1      44.629  25.512  26.718  1.00  0.00     0.031 C 
ATOM     41  C   UNL A   1      38.900  27.705  29.886  1.00  0.00     0.029 A 
ATOM     42  C   UNL A   1      39.978  28.686  29.777  1.00  0.00     0.049 A 
ATOM     43  H   UNL A   1      41.856  28.412  28.921  1.00  0.00     0.167 HD
ATOM     44  C   UNL A   1      45.687  27.742  26.867  1.00  0.00     0.037 A 
ATOM     45  C   UNL A   1      39.937  29.958  30.217  1.00  0.00     0.037 A 
ATOM     46  C   UNL A   1      45.719  29.120  27.275  1.00  0.00     0.049 A 
ATOM     47  C   UNL A   1      41.127  30.853  29.985  1.00  0.00     0.074 A 
ATOM     48  C   UNL A   1      46.719  30.056  27.082  1.00  0.00     0.029 A 
ATOM     49  N   UNL A   1      44.698  29.760  27.962  1.00  0.00    -0.354 N 
ATOM     50  N   UNL A   1      42.249  30.597  29.357  1.00  0.00    -0.248 NA
ATOM     51  C   UNL A   1      41.036  32.220  30.517  1.00  0.00     0.031 C 
ATOM     52  C   UNL A   1      46.318  31.254  27.683  1.00  0.00     0.029 A 
ATOM     53  C   UNL A   1      45.050  31.076  28.212  1.00  0.00     0.049 A 
ATOM     54  H   UNL A   1      43.850  29.341  28.231  1.00  0.00     0.167 HD
ATOM     55  C   UNL A   1      42.983  31.776  29.391  1.00  0.00     0.074 A 
ATOM     56  C   UNL A   1      42.170  32.753  30.086  1.00  0.00     0.031 C 
ATOM     57  C   UNL A   1      44.220  32.032  28.897  1.00  0.00     0.037 A 
BRANCH  44  58
ATOM     58  C   UNL A   1      46.861  27.188  26.116  1.00  0.00     0.057 A 
ATOM     59  C   UNL A   1      46.971  27.316  24.724  1.00  0.00     0.134 A 
ATOM     60  C   UNL A   1      47.904  26.539  26.789  1.00  0.00     0.134 A 
ATOM     61  F   UNL A   1      45.997  27.910  24.018  1.00  0.00    -0.206 F 
ATOM     62  C   UNL A   1      48.065  26.802  24.027  1.00  0.00     0.040 A 
ATOM     63  C   UNL A   1      49.015  26.042  26.106  1.00  0.00     0.040 A 
ATOM     64  F   UNL A   1      47.861  26.383  28.121  1.00  0.00    -0.206 F 
ATOM     65  C   UNL A   1      49.095  26.169  24.721  1.00  0.00     0.006 A 
ENDBRANCH  44  58
BRANCH  45  66
ATOM     66  C   UNL A   1      38.735  30.473  30.919  1.00  0.00     0.057 A 
ATOM     67  C   UNL A   1      37.732  31.168  30.230  1.00  0.00     0.134 A 
ATOM     68  C   UNL A   1      38.585  30.333  32.304  1.00  0.00     0.134 A 
ATOM     69  F   UNL A   1      37.829  31.356  28.906  1.00  0.00    -0.206 F 
ATOM     70  C   UNL A   1      36.640  31.728  30.896  1.00  0.00     0.040 A 
ATOM     71  C   UNL A   1      37.485  30.864  32.978  1.00  0.00     0.040 A 
ATOM     72  F   UNL A   1      39.509  29.678  33.021  1.00  0.00    -0.206 F 
ATOM     73  C   UNL A   1      36.514  31.574  32.275  1.00  0.00     0.006 A 
ENDBRANCH  45  66
BRANCH  57  74
ATOM     74  C   UNL A   1      44.743  33.429  29.058  1.00  0.00     0.057 A 
ATOM     75  C   UNL A   1      44.470  34.433  28.121  1.00  0.00     0.134 A 
ATOM     76  C   UNL A   1      45.512  33.777  30.176  1.00  0.00     0.134 A 
ATOM     77  F   UNL A   1      43.749  34.161  27.023  1.00  0.00    -0.206 F 
ATOM     78  C   UNL A   1      44.974  35.726  28.272  1.00  0.00     0.040 A 
ATOM     79  C   UNL A   1      45.997  35.073  30.352  1.00  0.00     0.040 A 
ATOM     80  F   UNL A   1      45.799  32.866  31.118  1.00  0.00    -0.206 F 
ATOM     81  C   UNL A   1      45.736  36.050  29.392  1.00  0.00     0.006 A 
ENDBRANCH  57  74
ENDBRANCH  31  32
ENDBRANCH  24  26
ENDBRANCH  23  24
ENDBRANCH  22  23
ENDBRANCH   1  22
TORSDOF 15
ENDMDL
MODEL 3
REMARK VINA RESULT:     -10.9      0.851      6.293
REMARK SMILES Cc1ccc(-c2ncccc2C(=O)OCCOCCOC(=O)c2ccc(-c3c4nc(c(-c5c(F)cccc5F)c5ccc([nH]5)c(-c5c(F)cccc5F)c5nc(c(-c6c(F)cccc6F)c6ccc3[nH]6)C=C5)C=C4)cc2)c(C)c1
REMARK SMILES IDX 18 1 17 2 16 3 15 4 14 5 12 6 13 7 11 8 6 9 7 10 8 11 10 12
REMARK SMILES IDX 9 13 5 14 1 15 2 16 3 17 79 18 4 19 77 20 78 21 19 22 20 23
REMARK SMILES IDX 21 24 22 25 23 26 24 27 76 28 25 29 75 30 26 31 27 32 28 33
REMARK SMILES IDX 69 34 29 35 74 36 68 37 70 38 30 39 73 40 67 41 66 42 31 44
REMARK SMILES IDX 57 45 40 46 56 47 41 48 44 49 55 50 71 51 42 52 43 53 54 55
REMARK SMILES IDX 72 56 45 57 32 58 33 59 38 60 34 61 35 62 37 63 39 64 36 65
REMARK SMILES IDX 58 66 59 67 64 68 60 69 61 70 63 71 65 72 62 73 46 74 47 75
REMARK SMILES IDX 52 76 48 77 49 78 51 79 53 80 50 81
REMARK H PARENT 70 43 44 54
REMARK Flexibility Score: inf
ROOT
ATOM      1  C   UNL A   1      31.403  32.133  26.783  1.00  0.00     0.202 C 
ENDROOT
BRANCH   1   2
ATOM      2  O   UNL A   1      32.005  30.967  26.233  1.00  0.00    -0.374 OA
BRANCH   2   3
ATOM      3  C   UNL A   1      33.187  30.476  26.874  1.00  0.00     0.202 C 
BRANCH   3   4
ATOM      4  C   UNL A   1      33.682  29.102  26.416  1.00  0.00     0.261 C 
BRANCH   4   5
ATOM      5  O   UNL A   1      33.039  28.741  25.177  1.00  0.00    -0.460 OA
BRANCH   5   6
ATOM      6  C   UNL A   1      32.207  27.673  25.241  1.00  0.00     0.340 C 
ATOM      7  O   UNL A   1      31.371  27.451  26.102  1.00  0.00    -0.246 OA
BRANCH   6   8
ATOM      8  C   UNL A   1      32.449  26.814  24.069  1.00  0.00     0.086 A 
ATOM      9  C   UNL A   1      31.613  26.849  22.945  1.00  0.00     0.085 A 
ATOM     10  N   UNL A   1      31.814  26.032  21.874  1.00  0.00    -0.255 NA
ATOM     11  C   UNL A   1      32.848  25.164  21.930  1.00  0.00     0.112 A 
ATOM     12  C   UNL A   1      33.533  25.929  24.079  1.00  0.00     0.019 A 
ATOM     13  C   UNL A   1      33.733  25.086  22.992  1.00  0.00     0.021 A 
BRANCH   9  14
ATOM     14  C   UNL A   1      30.530  27.832  22.763  1.00  0.00     0.004 A 
ATOM     15  C   UNL A   1      27.654  31.066  22.598  1.00  0.00     0.044 C 
ATOM     16  C   UNL A   1      28.641  29.937  22.609  1.00  0.00    -0.051 A 
ATOM     17  C   UNL A   1      29.893  30.074  22.012  1.00  0.00     0.004 A 
ATOM     18  C   UNL A   1      28.303  28.711  23.193  1.00  0.00     0.007 A 
ATOM     19  C   UNL A   1      30.817  29.029  22.080  1.00  0.00     0.011 A 
ATOM     20  C   UNL A   1      29.230  27.653  23.273  1.00  0.00    -0.041 A 
ATOM     21  C   UNL A   1      28.765  26.354  23.874  1.00  0.00     0.045 C 
ENDBRANCH   9  14
ENDBRANCH   6   8
ENDBRANCH   5   6
ENDBRANCH   4   5
ENDBRANCH   3   4
ENDBRANCH   2   3
ENDBRANCH   1   2
BRANCH   1  22
ATOM     22  C   UNL A   1      32.275  33.393  26.887  1.00  0.00     0.261 C 
BRANCH  22  23
ATOM     23  O   UNL A   1      32.160  34.057  28.149  1.00  0.00    -0.460 OA
BRANCH  23  24
ATOM     24  C   UNL A   1      33.262  34.775  28.471  1.00  0.00     0.338 C 
ATOM     25  O   UNL A   1      33.349  35.983  28.617  1.00  0.00    -0.246 OA
BRANCH  24  26
ATOM     26  C   UNL A   1      34.376  33.863  28.778  1.00  0.00     0.060 A 
ATOM     27  C   UNL A   1      34.064  32.693  29.478  1.00  0.00     0.016 A 
ATOM     28  C   UNL A   1      35.700  34.181  28.466  1.00  0.00     0.016 A 
ATOM     29  C   UNL A   1      35.085  31.873  29.942  1.00  0.00     0.010 A 
ATOM     30  C   UNL A   1      36.727  33.358  28.935  1.00  0.00     0.010 A 
ATOM     31  C   UNL A   1      36.422  32.232  29.722  1.00  0.00    -0.014 A 
BRANCH  31  32
ATOM     32  C   UNL A   1      37.472  31.543  30.505  1.00  0.00     0.031 A 
ATOM     33  C   UNL A   1      38.332  30.524  29.807  1.00  0.00     0.074 A 
ATOM     34  C   UNL A   1      37.721  31.889  31.780  1.00  0.00     0.049 A 
ATOM     35  N   UNL A   1      39.359  29.852  30.261  1.00  0.00    -0.248 NA
ATOM     36  C   UNL A   1      37.994  30.228  28.404  1.00  0.00     0.031 C 
ATOM     37  C   UNL A   1      36.980  32.892  32.544  1.00  0.00     0.029 A 
ATOM     38  N   UNL A   1      38.683  31.444  32.649  1.00  0.00    -0.354 N 
ATOM     39  C   UNL A   1      39.795  29.069  29.198  1.00  0.00     0.074 A 
ATOM     40  C   UNL A   1      38.893  29.308  28.093  1.00  0.00     0.031 C 
ATOM     41  C   UNL A   1      37.524  32.994  33.769  1.00  0.00     0.029 A 
ATOM     42  C   UNL A   1      38.637  32.053  33.879  1.00  0.00     0.049 A 
ATOM     43  H   UNL A   1      39.345  30.754  32.413  1.00  0.00     0.167 HD
ATOM     44  C   UNL A   1      40.865  28.243  29.139  1.00  0.00     0.037 A 
ATOM     45  C   UNL A   1      39.411  31.866  34.965  1.00  0.00     0.037 A 
ATOM     46  C   UNL A   1      41.758  28.001  30.239  1.00  0.00     0.049 A 
ATOM     47  C   UNL A   1      40.549  30.881  34.895  1.00  0.00     0.074 A 
ATOM     48  C   UNL A   1      42.862  27.168  30.290  1.00  0.00     0.029 A 
ATOM     49  N   UNL A   1      41.648  28.599  31.485  1.00  0.00    -0.354 N 
ATOM     50  N   UNL A   1      40.960  30.159  33.881  1.00  0.00    -0.248 NA
ATOM     51  C   UNL A   1      41.336  30.695  36.122  1.00  0.00     0.031 C 
ATOM     52  C   UNL A   1      43.400  27.235  31.580  1.00  0.00     0.029 A 
ATOM     53  C   UNL A   1      42.656  28.142  32.318  1.00  0.00     0.049 A 
ATOM     54  H   UNL A   1      40.957  29.250  31.741  1.00  0.00     0.167 HD
ATOM     55  C   UNL A   1      42.070  29.458  34.337  1.00  0.00     0.074 A 
ATOM     56  C   UNL A   1      42.278  29.857  35.714  1.00  0.00     0.031 C 
ATOM     57  C   UNL A   1      42.849  28.562  33.681  1.00  0.00     0.037 A 
BRANCH  44  58
ATOM     58  C   UNL A   1      41.116  27.535  27.840  1.00  0.00     0.057 A 
ATOM     59  C   UNL A   1      40.565  26.274  27.571  1.00  0.00     0.134 A 
ATOM     60  C   UNL A   1      41.897  28.125  26.839  1.00  0.00     0.134 A 
ATOM     61  F   UNL A   1      39.822  25.646  28.496  1.00  0.00    -0.206 F 
ATOM     62  C   UNL A   1      40.796  25.619  26.361  1.00  0.00     0.040 A 
ATOM     63  C   UNL A   1      42.117  27.490  25.615  1.00  0.00     0.040 A 
ATOM     64  F   UNL A   1      42.454  29.330  27.032  1.00  0.00    -0.206 F 
ATOM     65  C   UNL A   1      41.570  26.231  25.376  1.00  0.00     0.006 A 
ENDBRANCH  44  58
BRANCH  45  66
ATOM     66  C   UNL A   1      39.147  32.622  36.216  1.00  0.00     0.057 A 
ATOM     67  C   UNL A   1      38.308  32.109  37.213  1.00  0.00     0.134 A 
ATOM     68  C   UNL A   1      39.684  33.898  36.420  1.00  0.00     0.134 A 
ATOM     69  F   UNL A   1      37.744  30.901  37.065  1.00  0.00    -0.206 F 
ATOM     70  C   UNL A   1      37.989  32.849  38.353  1.00  0.00     0.040 A 
ATOM     71  C   UNL A   1      39.396  34.638  37.567  1.00  0.00     0.040 A 
ATOM     72  F   UNL A   1      40.496  34.446  35.504  1.00  0.00    -0.206 F 
ATOM     73  C   UNL A   1      38.536  34.117  38.533  1.00  0.00     0.006 A 
ENDBRANCH  45  66
BRANCH  57  74
ATOM     74  C   UNL A   1      44.013  27.989  34.436  1.00  0.00     0.057 A 
ATOM     75  C   UNL A   1      43.910  26.793  35.156  1.00  0.00     0.134 A 
ATOM     76  C   UNL A   1      45.256  28.635  34.424  1.00  0.00     0.134 A 
ATOM     77  F   UNL A   1      42.743  26.133  35.216  1.00  0.00    -0.206 F 
ATOM     78  C   UNL A   1      44.994  26.276  35.868  1.00  0.00     0.040 A 
ATOM     79  C   UNL A   1      46.354  28.113  35.108  1.00  0.00     0.040 A 
ATOM     80  F   UNL A   1      45.426  29.778  33.744  1.00  0.00    -0.206 F 
ATOM     81  C   UNL A   1      46.222  26.934  35.841  1.00  0.00     0.006 A 
ENDBRANCH  57  74
ENDBRANCH  31  32
ENDBRANCH  24  26
ENDBRANCH  23  24
ENDBRANCH  22  23
ENDBRANCH   1  22
TORSDOF 15
ENDMDL
