MODEL 1
REMARK VINA RESULT:     -10.6      0.000      0.000
REMARK SMILES CC(C)[NH2+][C@]1(C(=O)OCCOCCOC(=O)c2ccc(-c3c4nc(c(-c5c(F)cccc5F)c5ccc([nH]5)c(-c5c(F)cccc5F)c5nc(c(-c6c(F)cccc6F)c6ccc3[nH]6)C=C5)C=C4)cc2)CC[C@H]([N@H+](C)C2CCCC2)C1
REMARK SMILES IDX 11 1 10 2 9 3 8 4 6 5 7 6 5 7 71 8 81 9 72 10 73 11 4 12
REMARK SMILES IDX 2 15 1 16 3 17 74 18 75 19 76 21 77 22 80 23 78 24 79 25
REMARK SMILES IDX 12 26 13 27 14 28 15 29 16 30 17 31 18 32 70 33 19 34 69 35
REMARK SMILES IDX 20 36 21 37 22 38 63 39 23 40 68 41 62 42 64 43 24 44 67 45
REMARK SMILES IDX 61 46 60 47 25 49 51 50 34 51 50 52 35 53 38 54 49 55 65 56
REMARK SMILES IDX 36 57 37 58 48 60 66 61 39 62 26 63 27 64 32 65 28 66 29 67
REMARK SMILES IDX 31 68 33 69 30 70 52 71 53 72 58 73 54 74 55 75 57 76 59 77
REMARK SMILES IDX 56 78 40 79 41 80 46 81 42 82 43 83 45 84 47 85 44 86
REMARK H PARENT 4 13 4 14 74 20 64 48 38 59
REMARK Flexibility Score: inf
ROOT
ATOM      1  O   UNL A   1      34.543  20.305  24.577  1.00  0.00    -0.374 OA
ENDROOT
BRANCH   1   2
ATOM      2  C   UNL A   1      33.263  20.378  25.201  1.00  0.00     0.202 C 
BRANCH   2   3
ATOM      3  C   UNL A   1      32.954  21.579  26.098  1.00  0.00     0.261 C 
BRANCH   3   4
ATOM      4  O   UNL A   1      31.699  22.223  25.789  1.00  0.00    -0.459 OA
BRANCH   4   5
ATOM      5  C   UNL A   1      31.517  23.412  26.440  1.00  0.00     0.368 C 
ATOM      6  O   UNL A   1      31.491  23.504  27.665  1.00  0.00    -0.245 OA
BRANCH   5   7
ATOM      7  C   UNL A   1      31.441  24.654  25.483  1.00  0.00     0.200 C 
ATOM      8  C   UNL A   1      30.182  25.502  25.708  1.00  0.00     0.087 C 
ATOM      9  C   UNL A   1      32.546  25.593  26.021  1.00  0.00     0.146 C 
ATOM     10  C   UNL A   1      30.610  26.972  25.550  1.00  0.00     0.072 C 
ATOM     11  C   UNL A   1      32.121  27.058  25.868  1.00  0.00     0.191 C 
BRANCH   7  12
ATOM     12  N   UNL A   1      31.516  24.141  24.092  1.00  0.00    -0.330 N 
ATOM     13  H   UNL A   1      31.524  23.123  24.163  1.00  0.00     0.347 HD
ATOM     14  H   UNL A   1      30.720  24.599  23.650  1.00  0.00     0.347 HD
BRANCH  12  15
ATOM     15  C   UNL A   1      32.606  24.494  23.199  1.00  0.00     0.176 C 
ATOM     16  C   UNL A   1      33.275  23.210  22.693  1.00  0.00     0.075 C 
ATOM     17  C   UNL A   1      32.168  25.311  21.987  1.00  0.00     0.075 C 
ENDBRANCH  12  15
ENDBRANCH   7  12
BRANCH  11  18
ATOM     18  N   UNL A   1      32.846  27.997  24.977  1.00  0.00    -0.332 N 
ATOM     19  C   UNL A   1      33.938  27.447  24.165  1.00  0.00     0.333 C 
ATOM     20  H   UNL A   1      32.109  28.244  24.316  1.00  0.00     0.348 HD
BRANCH  18  21
ATOM     21  C   UNL A   1      33.343  29.192  25.690  1.00  0.00     0.184 C 
ATOM     22  C   UNL A   1      32.303  29.873  26.601  1.00  0.00     0.065 C 
ATOM     23  C   UNL A   1      34.482  28.980  26.697  1.00  0.00     0.065 C 
ATOM     24  C   UNL A   1      33.127  30.910  27.348  1.00  0.00     0.006 C 
ATOM     25  C   UNL A   1      34.515  30.287  27.496  1.00  0.00     0.006 C 
ENDBRANCH  18  21
ENDBRANCH  11  18
ENDBRANCH   5   7
ENDBRANCH   4   5
ENDBRANCH   3   4
ENDBRANCH   2   3
ENDBRANCH   1   2
BRANCH   1  26
ATOM     26  C   UNL A   1      35.614  21.029  25.175  1.00  0.00     0.202 C 
BRANCH  26  27
ATOM     27  C   UNL A   1      37.024  20.436  25.037  1.00  0.00     0.261 C 
BRANCH  27  28
ATOM     28  O   UNL A   1      38.067  21.424  25.089  1.00  0.00    -0.460 OA
BRANCH  28  29
ATOM     29  C   UNL A   1      39.116  21.075  25.875  1.00  0.00     0.338 C 
ATOM     30  O   UNL A   1      39.737  20.026  25.861  1.00  0.00    -0.246 OA
BRANCH  29  31
ATOM     31  C   UNL A   1      39.568  22.228  26.675  1.00  0.00     0.060 A 
ATOM     32  C   UNL A   1      38.954  23.457  26.408  1.00  0.00     0.016 A 
ATOM     33  C   UNL A   1      40.628  22.141  27.579  1.00  0.00     0.016 A 
ATOM     34  C   UNL A   1      39.445  24.618  26.993  1.00  0.00     0.010 A 
ATOM     35  C   UNL A   1      41.127  23.314  28.161  1.00  0.00     0.010 A 
ATOM     36  C   UNL A   1      40.567  24.561  27.831  1.00  0.00    -0.014 A 
BRANCH  36  37
ATOM     37  C   UNL A   1      41.225  25.839  28.195  1.00  0.00     0.031 A 
ATOM     38  C   UNL A   1      42.616  26.113  27.690  1.00  0.00     0.074 A 
ATOM     39  C   UNL A   1      40.549  26.792  28.861  1.00  0.00     0.049 A 
ATOM     40  N   UNL A   1      43.321  27.214  27.755  1.00  0.00    -0.248 NA
ATOM     41  C   UNL A   1      43.302  25.000  27.015  1.00  0.00     0.031 C 
ATOM     42  C   UNL A   1      39.189  26.655  29.378  1.00  0.00     0.029 A 
ATOM     43  N   UNL A   1      40.910  28.073  29.193  1.00  0.00    -0.354 N 
ATOM     44  C   UNL A   1      44.524  26.931  27.120  1.00  0.00     0.074 A 
ATOM     45  C   UNL A   1      44.472  25.543  26.715  1.00  0.00     0.031 C 
ATOM     46  C   UNL A   1      38.822  27.816  29.949  1.00  0.00     0.029 A 
ATOM     47  C   UNL A   1      39.925  28.770  29.844  1.00  0.00     0.049 A 
ATOM     48  H   UNL A   1      41.793  28.455  28.983  1.00  0.00     0.167 HD
ATOM     49  C   UNL A   1      45.570  27.756  26.880  1.00  0.00     0.037 A 
ATOM     50  C   UNL A   1      39.910  30.040  30.293  1.00  0.00     0.037 A 
ATOM     51  C   UNL A   1      45.625  29.137  27.283  1.00  0.00     0.049 A 
ATOM     52  C   UNL A   1      41.099  30.927  30.045  1.00  0.00     0.074 A 
ATOM     53  C   UNL A   1      46.639  30.057  27.081  1.00  0.00     0.029 A 
ATOM     54  N   UNL A   1      44.622  29.794  27.978  1.00  0.00    -0.354 N 
ATOM     55  N   UNL A   1      42.215  30.658  29.411  1.00  0.00    -0.248 NA
ATOM     56  C   UNL A   1      41.019  32.301  30.561  1.00  0.00     0.031 C 
ATOM     57  C   UNL A   1      46.264  31.261  27.686  1.00  0.00     0.029 A 
ATOM     58  C   UNL A   1      44.999  31.103  28.228  1.00  0.00     0.049 A 
ATOM     59  H   UNL A   1      43.766  29.390  28.252  1.00  0.00     0.167 HD
ATOM     60  C   UNL A   1      42.957  31.832  29.431  1.00  0.00     0.074 A 
ATOM     61  C   UNL A   1      42.157  32.820  30.123  1.00  0.00     0.031 C 
ATOM     62  C   UNL A   1      44.191  32.073  28.920  1.00  0.00     0.037 A 
BRANCH  49  63
ATOM     63  C   UNL A   1      46.750  27.176  26.156  1.00  0.00     0.057 A 
ATOM     64  C   UNL A   1      47.766  26.490  26.835  1.00  0.00     0.134 A 
ATOM     65  C   UNL A   1      46.859  27.285  24.765  1.00  0.00     0.134 A 
ATOM     66  F   UNL A   1      47.729  26.365  28.169  1.00  0.00    -0.206 F 
ATOM     67  C   UNL A   1      48.860  25.950  26.154  1.00  0.00     0.040 A 
ATOM     68  C   UNL A   1      47.936  26.729  24.072  1.00  0.00     0.040 A 
ATOM     69  F   UNL A   1      45.919  27.928  24.057  1.00  0.00    -0.206 F 
ATOM     70  C   UNL A   1      48.944  26.064  24.768  1.00  0.00     0.006 A 
ENDBRANCH  49  63
BRANCH  50  71
ATOM     71  C   UNL A   1      38.717  30.558  31.008  1.00  0.00     0.057 A 
ATOM     72  C   UNL A   1      37.679  31.199  30.323  1.00  0.00     0.134 A 
ATOM     73  C   UNL A   1      38.597  30.439  32.397  1.00  0.00     0.134 A 
ATOM     74  F   UNL A   1      37.746  31.365  28.994  1.00  0.00    -0.206 F 
ATOM     75  C   UNL A   1      36.571  31.718  30.996  1.00  0.00     0.040 A 
ATOM     76  C   UNL A   1      37.485  30.932  33.081  1.00  0.00     0.040 A 
ATOM     77  F   UNL A   1      39.559  29.833  33.110  1.00  0.00    -0.206 F 
ATOM     78  C   UNL A   1      36.470  31.580  32.379  1.00  0.00     0.006 A 
ENDBRANCH  50  71
BRANCH  62  79
ATOM     79  C   UNL A   1      44.732  33.464  29.072  1.00  0.00     0.057 A 
ATOM     80  C   UNL A   1      44.464  34.468  28.132  1.00  0.00     0.134 A 
ATOM     81  C   UNL A   1      45.518  33.808  30.178  1.00  0.00     0.134 A 
ATOM     82  F   UNL A   1      43.728  34.200  27.042  1.00  0.00    -0.206 F 
ATOM     83  C   UNL A   1      44.985  35.755  28.272  1.00  0.00     0.040 A 
ATOM     84  C   UNL A   1      46.023  35.098  30.343  1.00  0.00     0.040 A 
ATOM     85  F   UNL A   1      45.803  32.897  31.121  1.00  0.00    -0.206 F 
ATOM     86  C   UNL A   1      45.764  36.074  29.382  1.00  0.00     0.006 A 
ENDBRANCH  62  79
ENDBRANCH  36  37
ENDBRANCH  29  31
ENDBRANCH  28  29
ENDBRANCH  27  28
ENDBRANCH  26  27
ENDBRANCH   1  26
TORSDOF 18
ENDMDL
MODEL 2
REMARK VINA RESULT:     -10.5      2.873      7.501
REMARK SMILES CC(C)[NH2+][C@]1(C(=O)OCCOCCOC(=O)c2ccc(-c3c4nc(c(-c5c(F)cccc5F)c5ccc([nH]5)c(-c5c(F)cccc5F)c5nc(c(-c6c(F)cccc6F)c6ccc3[nH]6)C=C5)C=C4)cc2)CC[C@H]([N@H+](C)C2CCCC2)C1
REMARK SMILES IDX 11 1 10 2 9 3 8 4 6 5 7 6 5 7 71 8 81 9 72 10 73 11 4 12
REMARK SMILES IDX 2 15 1 16 3 17 74 18 75 19 76 21 77 22 80 23 78 24 79 25
REMARK SMILES IDX 12 26 13 27 14 28 15 29 16 30 17 31 18 32 70 33 19 34 69 35
REMARK SMILES IDX 20 36 21 37 22 38 63 39 23 40 68 41 62 42 64 43 24 44 67 45
REMARK SMILES IDX 61 46 60 47 25 49 51 50 34 51 50 52 35 53 38 54 49 55 65 56
REMARK SMILES IDX 36 57 37 58 48 60 66 61 39 62 26 63 27 64 32 65 28 66 29 67
REMARK SMILES IDX 31 68 33 69 30 70 52 71 53 72 58 73 54 74 55 75 57 76 59 77
REMARK SMILES IDX 56 78 40 79 41 80 46 81 42 82 43 83 45 84 47 85 44 86
REMARK H PARENT 4 13 4 14 74 20 64 48 38 59
REMARK Flexibility Score: inf
ROOT
ATOM      1  O   UNL A   1      32.969  30.491  27.004  1.00  0.00    -0.374 OA
ENDROOT
BRANCH   1   2
ATOM      2  C   UNL A   1      31.925  30.483  26.033  1.00  0.00     0.202 C 
BRANCH   2   3
ATOM      3  C   UNL A   1      31.892  29.348  25.005  1.00  0.00     0.261 C 
BRANCH   3   4
ATOM      4  O   UNL A   1      32.722  28.221  25.363  1.00  0.00    -0.459 OA
BRANCH   4   5
ATOM      5  C   UNL A   1      33.353  27.643  24.296  1.00  0.00     0.368 C 
ATOM      6  O   UNL A   1      34.007  28.288  23.480  1.00  0.00    -0.245 OA
BRANCH   5   7
ATOM      7  C   UNL A   1      33.243  26.078  24.265  1.00  0.00     0.200 C 
ATOM      8  C   UNL A   1      33.656  25.478  22.915  1.00  0.00     0.087 C 
ATOM      9  C   UNL A   1      34.403  25.615  25.177  1.00  0.00     0.146 C 
ATOM     10  C   UNL A   1      34.416  24.177  23.227  1.00  0.00     0.072 C 
ATOM     11  C   UNL A   1      35.005  24.307  24.651  1.00  0.00     0.191 C 
BRANCH   7  12
ATOM     12  N   UNL A   1      31.842  25.730  24.614  1.00  0.00    -0.330 N 
ATOM     13  H   UNL A   1      31.889  24.874  25.166  1.00  0.00     0.347 HD
ATOM     14  H   UNL A   1      31.511  26.587  25.057  1.00  0.00     0.347 HD
BRANCH  12  15
ATOM     15  C   UNL A   1      30.829  25.502  23.596  1.00  0.00     0.176 C 
ATOM     16  C   UNL A   1      30.562  23.996  23.486  1.00  0.00     0.075 C 
ATOM     17  C   UNL A   1      29.503  26.201  23.881  1.00  0.00     0.075 C 
ENDBRANCH  12  15
ENDBRANCH   7  12
BRANCH  11  18
ATOM     18  N   UNL A   1      34.931  23.043  25.424  1.00  0.00    -0.332 N 
ATOM     19  C   UNL A   1      34.035  23.015  26.586  1.00  0.00     0.333 C 
ATOM     20  H   UNL A   1      34.509  22.420  24.735  1.00  0.00     0.348 HD
BRANCH  18  21
ATOM     21  C   UNL A   1      36.261  22.551  25.841  1.00  0.00     0.184 C 
ATOM     22  C   UNL A   1      36.962  21.647  24.808  1.00  0.00     0.065 C 
ATOM     23  C   UNL A   1      37.356  23.603  26.062  1.00  0.00     0.065 C 
ATOM     24  C   UNL A   1      38.355  21.473  25.393  1.00  0.00     0.006 C 
ATOM     25  C   UNL A   1      38.648  22.782  26.124  1.00  0.00     0.006 C 
ENDBRANCH  18  21
ENDBRANCH  11  18
ENDBRANCH   5   7
ENDBRANCH   4   5
ENDBRANCH   3   4
ENDBRANCH   2   3
ENDBRANCH   1   2
BRANCH   1  26
ATOM     26  C   UNL A   1      33.282  31.731  27.631  1.00  0.00     0.202 C 
BRANCH  26  27
ATOM     27  C   UNL A   1      34.688  31.878  28.231  1.00  0.00     0.261 C 
BRANCH  27  28
ATOM     28  O   UNL A   1      35.221  30.646  28.745  1.00  0.00    -0.460 OA
BRANCH  28  29
ATOM     29  C   UNL A   1      36.203  30.814  29.666  1.00  0.00     0.338 C 
ATOM     30  O   UNL A   1      36.129  31.401  30.731  1.00  0.00    -0.246 OA
BRANCH  29  31
ATOM     31  C   UNL A   1      37.391  30.019  29.305  1.00  0.00     0.060 A 
ATOM     32  C   UNL A   1      38.135  29.486  30.364  1.00  0.00     0.016 A 
ATOM     33  C   UNL A   1      37.829  29.884  27.987  1.00  0.00     0.016 A 
ATOM     34  C   UNL A   1      39.359  28.877  30.114  1.00  0.00     0.010 A 
ATOM     35  C   UNL A   1      39.068  29.278  27.737  1.00  0.00     0.010 A 
ATOM     36  C   UNL A   1      39.858  28.816  28.806  1.00  0.00    -0.014 A 
BRANCH  36  37
ATOM     37  C   UNL A   1      41.276  28.425  28.622  1.00  0.00     0.031 A 
ATOM     38  C   UNL A   1      41.599  26.999  28.267  1.00  0.00     0.074 A 
ATOM     39  C   UNL A   1      42.250  29.352  28.648  1.00  0.00     0.049 A 
ATOM     40  N   UNL A   1      42.743  26.471  27.912  1.00  0.00    -0.248 NA
ATOM     41  C   UNL A   1      40.483  26.041  28.309  1.00  0.00     0.031 C 
ATOM     42  C   UNL A   1      42.059  30.768  28.954  1.00  0.00     0.029 A 
ATOM     43  N   UNL A   1      43.592  29.239  28.389  1.00  0.00    -0.354 N 
ATOM     44  C   UNL A   1      42.482  25.126  27.678  1.00  0.00     0.074 A 
ATOM     45  C   UNL A   1      41.082  24.910  27.972  1.00  0.00     0.031 C 
ATOM     46  C   UNL A   1      43.241  31.399  28.848  1.00  0.00     0.029 A 
ATOM     47  C   UNL A   1      44.270  30.429  28.476  1.00  0.00     0.049 A 
ATOM     48  H   UNL A   1      44.028  28.386  28.162  1.00  0.00     0.167 HD
ATOM     49  C   UNL A   1      43.327  24.163  27.241  1.00  0.00     0.037 A 
ATOM     50  C   UNL A   1      45.571  30.706  28.267  1.00  0.00     0.037 A 
ATOM     51  C   UNL A   1      44.720  24.375  26.950  1.00  0.00     0.049 A 
ATOM     52  C   UNL A   1      46.497  29.610  27.815  1.00  0.00     0.074 A 
ATOM     53  C   UNL A   1      45.657  23.463  26.496  1.00  0.00     0.029 A 
ATOM     54  N   UNL A   1      45.378  25.587  27.091  1.00  0.00    -0.354 N 
ATOM     55  N   UNL A   1      46.231  28.352  27.562  1.00  0.00    -0.248 NA
ATOM     56  C   UNL A   1      47.905  29.979  27.604  1.00  0.00     0.031 C 
ATOM     57  C   UNL A   1      46.891  24.116  26.398  1.00  0.00     0.029 A 
ATOM     58  C   UNL A   1      46.713  25.444  26.749  1.00  0.00     0.049 A 
ATOM     59  H   UNL A   1      44.958  26.427  27.388  1.00  0.00     0.167 HD
ATOM     60  C   UNL A   1      47.427  27.786  27.139  1.00  0.00     0.074 A 
ATOM     61  C   UNL A   1      48.417  28.843  27.154  1.00  0.00     0.031 C 
ATOM     62  C   UNL A   1      47.684  26.506  26.771  1.00  0.00     0.037 A 
BRANCH  49  63
ATOM     63  C   UNL A   1      42.763  22.783  27.066  1.00  0.00     0.057 A 
ATOM     64  C   UNL A   1      42.458  21.966  28.163  1.00  0.00     0.134 A 
ATOM     65  C   UNL A   1      42.500  22.276  25.787  1.00  0.00     0.134 A 
ATOM     66  F   UNL A   1      42.701  22.388  29.412  1.00  0.00    -0.206 F 
ATOM     67  C   UNL A   1      41.931  20.685  27.992  1.00  0.00     0.040 A 
ATOM     68  C   UNL A   1      41.952  21.004  25.606  1.00  0.00     0.040 A 
ATOM     69  F   UNL A   1      42.768  23.008  24.696  1.00  0.00    -0.206 F 
ATOM     70  C   UNL A   1      41.671  20.203  26.710  1.00  0.00     0.006 A 
ENDBRANCH  49  63
BRANCH  50  71
ATOM     71  C   UNL A   1      46.075  32.088  28.461  1.00  0.00     0.057 A 
ATOM     72  C   UNL A   1      46.024  33.034  27.431  1.00  0.00     0.134 A 
ATOM     73  C   UNL A   1      46.635  32.490  29.679  1.00  0.00     0.134 A 
ATOM     74  F   UNL A   1      45.520  32.703  26.234  1.00  0.00    -0.206 F 
ATOM     75  C   UNL A   1      46.528  34.326  27.600  1.00  0.00     0.040 A 
ATOM     76  C   UNL A   1      47.121  33.784  29.870  1.00  0.00     0.040 A 
ATOM     77  F   UNL A   1      46.711  31.629  30.706  1.00  0.00    -0.206 F 
ATOM     78  C   UNL A   1      47.073  34.704  28.826  1.00  0.00     0.006 A 
ENDBRANCH  50  71
BRANCH  62  79
ATOM     79  C   UNL A   1      49.084  26.191  26.331  1.00  0.00     0.057 A 
ATOM     80  C   UNL A   1      49.533  26.479  25.036  1.00  0.00     0.134 A 
ATOM     81  C   UNL A   1      49.997  25.607  27.217  1.00  0.00     0.134 A 
ATOM     82  F   UNL A   1      48.704  27.028  24.134  1.00  0.00    -0.206 F 
ATOM     83  C   UNL A   1      50.832  26.169  24.629  1.00  0.00     0.040 A 
ATOM     84  C   UNL A   1      51.306  25.316  26.830  1.00  0.00     0.040 A 
ATOM     85  F   UNL A   1      49.634  25.315  28.475  1.00  0.00    -0.206 F 
ATOM     86  C   UNL A   1      51.723  25.588  25.529  1.00  0.00     0.006 A 
ENDBRANCH  62  79
ENDBRANCH  36  37
ENDBRANCH  29  31
ENDBRANCH  28  29
ENDBRANCH  27  28
ENDBRANCH  26  27
ENDBRANCH   1  26
TORSDOF 18
ENDMDL
MODEL 3
REMARK VINA RESULT:     -10.4      3.816      9.188
REMARK SMILES CC(C)[NH2+][C@]1(C(=O)OCCOCCOC(=O)c2ccc(-c3c4nc(c(-c5c(F)cccc5F)c5ccc([nH]5)c(-c5c(F)cccc5F)c5nc(c(-c6c(F)cccc6F)c6ccc3[nH]6)C=C5)C=C4)cc2)CC[C@H]([N@H+](C)C2CCCC2)C1
REMARK SMILES IDX 11 1 10 2 9 3 8 4 6 5 7 6 5 7 71 8 81 9 72 10 73 11 4 12
REMARK SMILES IDX 2 15 1 16 3 17 74 18 75 19 76 21 77 22 80 23 78 24 79 25
REMARK SMILES IDX 12 26 13 27 14 28 15 29 16 30 17 31 18 32 70 33 19 34 69 35
REMARK SMILES IDX 20 36 21 37 22 38 63 39 23 40 68 41 62 42 64 43 24 44 67 45
REMARK SMILES IDX 61 46 60 47 25 49 51 50 34 51 50 52 35 53 38 54 49 55 65 56
REMARK SMILES IDX 36 57 37 58 48 60 66 61 39 62 26 63 27 64 32 65 28 66 29 67
REMARK SMILES IDX 31 68 33 69 30 70 52 71 53 72 58 73 54 74 55 75 57 76 59 77
REMARK SMILES IDX 56 78 40 79 41 80 46 81 42 82 43 83 45 84 47 85 44 86
REMARK H PARENT 4 13 4 14 74 20 64 48 38 59
REMARK Flexibility Score: inf
ROOT
ATOM      1  O   UNL A   1      32.374  28.072  25.642  1.00  0.00    -0.374 OA
ENDROOT
BRANCH   1   2
ATOM      2  C   UNL A   1      31.228  27.230  25.544  1.00  0.00     0.202 C 
BRANCH   2   3
ATOM      3  C   UNL A   1      31.140  26.005  26.459  1.00  0.00     0.261 C 
BRANCH   3   4
ATOM      4  O   UNL A   1      32.268  25.111  26.335  1.00  0.00    -0.459 OA
BRANCH   4   5
ATOM      5  C   UNL A   1      31.968  23.806  26.615  1.00  0.00     0.368 C 
ATOM      6  O   UNL A   1      30.983  23.475  27.272  1.00  0.00    -0.245 OA
BRANCH   5   7
ATOM      7  C   UNL A   1      32.938  22.773  25.941  1.00  0.00     0.200 C 
ATOM      8  C   UNL A   1      33.580  21.813  26.951  1.00  0.00     0.087 C 
ATOM      9  C   UNL A   1      31.984  21.826  25.177  1.00  0.00     0.146 C 
ATOM     10  C   UNL A   1      33.642  20.435  26.267  1.00  0.00     0.072 C 
ATOM     11  C   UNL A   1      32.530  20.393  25.194  1.00  0.00     0.191 C 
BRANCH   7  12
ATOM     12  N   UNL A   1      33.961  23.553  25.198  1.00  0.00    -0.330 N 
ATOM     13  H   UNL A   1      33.585  23.696  24.261  1.00  0.00     0.347 HD
ATOM     14  H   UNL A   1      34.098  24.360  25.805  1.00  0.00     0.347 HD
BRANCH  12  15
ATOM     15  C   UNL A   1      35.320  23.068  25.022  1.00  0.00     0.176 C 
ATOM     16  C   UNL A   1      35.568  22.804  23.533  1.00  0.00     0.075 C 
ATOM     17  C   UNL A   1      36.387  24.039  25.519  1.00  0.00     0.075 C 
ENDBRANCH  12  15
ENDBRANCH   7  12
BRANCH  11  18
ATOM     18  N   UNL A   1      32.951  19.699  23.952  1.00  0.00    -0.332 N 
ATOM     19  C   UNL A   1      32.153  19.936  22.744  1.00  0.00     0.333 C 
ATOM     20  H   UNL A   1      33.852  20.144  23.779  1.00  0.00     0.348 HD
BRANCH  18  21
ATOM     21  C   UNL A   1      33.106  18.241  24.138  1.00  0.00     0.184 C 
ATOM     22  C   UNL A   1      34.566  17.761  24.248  1.00  0.00     0.065 C 
ATOM     23  C   UNL A   1      32.528  17.637  25.425  1.00  0.00     0.065 C 
ATOM     24  C   UNL A   1      34.419  16.298  24.638  1.00  0.00     0.006 C 
ATOM     25  C   UNL A   1      33.148  16.237  25.484  1.00  0.00     0.006 C 
ENDBRANCH  18  21
ENDBRANCH  11  18
ENDBRANCH   5   7
ENDBRANCH   4   5
ENDBRANCH   3   4
ENDBRANCH   2   3
ENDBRANCH   1   2
BRANCH   1  26
ATOM     26  C   UNL A   1      32.296  29.369  25.061  1.00  0.00     0.202 C 
BRANCH  26  27
ATOM     27  C   UNL A   1      31.824  30.516  25.966  1.00  0.00     0.261 C 
BRANCH  27  28
ATOM     28  O   UNL A   1      32.500  30.557  27.235  1.00  0.00    -0.460 OA
BRANCH  28  29
ATOM     29  C   UNL A   1      33.185  31.707  27.455  1.00  0.00     0.338 C 
ATOM     30  O   UNL A   1      32.732  32.833  27.560  1.00  0.00    -0.246 OA
BRANCH  29  31
ATOM     31  C   UNL A   1      34.601  31.417  27.746  1.00  0.00     0.060 A 
ATOM     32  C   UNL A   1      34.953  30.067  27.866  1.00  0.00     0.016 A 
ATOM     33  C   UNL A   1      35.534  32.423  28.002  1.00  0.00     0.016 A 
ATOM     34  C   UNL A   1      36.223  29.719  28.311  1.00  0.00     0.010 A 
ATOM     35  C   UNL A   1      36.811  32.070  28.458  1.00  0.00     0.010 A 
ATOM     36  C   UNL A   1      37.142  30.718  28.661  1.00  0.00    -0.014 A 
BRANCH  36  37
ATOM     37  C   UNL A   1      38.363  30.310  29.395  1.00  0.00     0.031 A 
ATOM     38  C   UNL A   1      38.543  30.762  30.819  1.00  0.00     0.074 A 
ATOM     39  C   UNL A   1      39.238  29.449  28.845  1.00  0.00     0.049 A 
ATOM     40  N   UNL A   1      39.448  30.405  31.696  1.00  0.00    -0.248 NA
ATOM     41  C   UNL A   1      37.569  31.742  31.326  1.00  0.00     0.031 C 
ATOM     42  C   UNL A   1      39.157  28.920  27.485  1.00  0.00     0.029 A 
ATOM     43  N   UNL A   1      40.352  28.851  29.376  1.00  0.00    -0.354 N 
ATOM     44  C   UNL A   1      39.145  31.105  32.857  1.00  0.00     0.074 A 
ATOM     45  C   UNL A   1      38.000  31.939  32.563  1.00  0.00     0.031 C 
ATOM     46  C   UNL A   1      40.173  28.060  27.293  1.00  0.00     0.029 A 
ATOM     47  C   UNL A   1      40.976  27.987  28.512  1.00  0.00     0.049 A 
ATOM     48  H   UNL A   1      40.674  29.026  30.290  1.00  0.00     0.167 HD
ATOM     49  C   UNL A   1      39.753  31.045  34.066  1.00  0.00     0.037 A 
ATOM     50  C   UNL A   1      42.064  27.214  28.691  1.00  0.00     0.037 A 
ATOM     51  C   UNL A   1      40.893  30.217  34.361  1.00  0.00     0.049 A 
ATOM     52  C   UNL A   1      42.743  27.191  30.033  1.00  0.00     0.074 A 
ATOM     53  C   UNL A   1      41.577  30.082  35.557  1.00  0.00     0.029 A 
ATOM     54  N   UNL A   1      41.520  29.386  33.446  1.00  0.00    -0.354 N 
ATOM     55  N   UNL A   1      42.425  27.829  31.133  1.00  0.00    -0.248 NA
ATOM     56  C   UNL A   1      43.926  26.327  30.161  1.00  0.00     0.031 C 
ATOM     57  C   UNL A   1      42.642  29.197  35.354  1.00  0.00     0.029 A 
ATOM     58  C   UNL A   1      42.594  28.748  34.045  1.00  0.00     0.049 A 
ATOM     59  H   UNL A   1      41.243  29.266  32.509  1.00  0.00     0.167 HD
ATOM     60  C   UNL A   1      43.350  27.425  32.089  1.00  0.00     0.074 A 
ATOM     61  C   UNL A   1      44.231  26.474  31.442  1.00  0.00     0.031 C 
ATOM     62  C   UNL A   1      43.461  27.806  33.386  1.00  0.00     0.037 A 
BRANCH  49  63
ATOM     63  C   UNL A   1      39.201  31.915  35.157  1.00  0.00     0.057 A 
ATOM     64  C   UNL A   1      39.512  33.278  35.242  1.00  0.00     0.134 A 
ATOM     65  C   UNL A   1      38.329  31.388  36.118  1.00  0.00     0.134 A 
ATOM     66  F   UNL A   1      40.353  33.839  34.361  1.00  0.00    -0.206 F 
ATOM     67  C   UNL A   1      38.992  34.082  36.258  1.00  0.00     0.040 A 
ATOM     68  C   UNL A   1      37.786  32.188  37.125  1.00  0.00     0.040 A 
ATOM     69  F   UNL A   1      37.990  30.091  36.092  1.00  0.00    -0.206 F 
ATOM     70  C   UNL A   1      38.121  33.538  37.200  1.00  0.00     0.006 A 
ENDBRANCH  49  63
BRANCH  50  71
ATOM     71  C   UNL A   1      42.569  26.378  27.574  1.00  0.00     0.057 A 
ATOM     72  C   UNL A   1      43.461  26.890  26.625  1.00  0.00     0.134 A 
ATOM     73  C   UNL A   1      42.158  25.049  27.421  1.00  0.00     0.134 A 
ATOM     74  F   UNL A   1      43.874  28.164  26.704  1.00  0.00    -0.206 F 
ATOM     75  C   UNL A   1      43.912  26.116  25.554  1.00  0.00     0.040 A 
ATOM     76  C   UNL A   1      42.619  24.256  26.370  1.00  0.00     0.040 A 
ATOM     77  F   UNL A   1      41.306  24.499  28.300  1.00  0.00    -0.206 F 
ATOM     78  C   UNL A   1      43.494  24.793  25.428  1.00  0.00     0.006 A 
ENDBRANCH  50  71
BRANCH  62  79
ATOM     79  C   UNL A   1      44.557  27.172  34.192  1.00  0.00     0.057 A 
ATOM     80  C   UNL A   1      45.823  27.761  34.308  1.00  0.00     0.134 A 
ATOM     81  C   UNL A   1      44.339  25.968  34.871  1.00  0.00     0.134 A 
ATOM     82  F   UNL A   1      46.101  28.909  33.672  1.00  0.00    -0.206 F 
ATOM     83  C   UNL A   1      46.842  27.157  35.046  1.00  0.00     0.040 A 
ATOM     84  C   UNL A   1      45.342  25.367  35.633  1.00  0.00     0.040 A 
ATOM     85  F   UNL A   1      43.146  25.357  34.810  1.00  0.00    -0.206 F 
ATOM     86  C   UNL A   1      46.601  25.957  35.714  1.00  0.00     0.006 A 
ENDBRANCH  62  79
ENDBRANCH  36  37
ENDBRANCH  29  31
ENDBRANCH  28  29
ENDBRANCH  27  28
ENDBRANCH  26  27
ENDBRANCH   1  26
TORSDOF 18
ENDMDL
