MODEL 1
REMARK VINA RESULT:     -10.3      0.000      0.000
REMARK SMILES C[C@H]1OCC[C@H]1C(=O)N1CCCC[C@@H]1CC(=O)OCCOCCOC(=O)c1ccc(-c2c3nc(c(-c4c(F)cccc4F)c4ccc([nH]4)c(-c4c(F)cccc4F)c4nc(c(-c5c(F)cccc5F)c5ccc2[nH]5)C=C4)C=C3)cc1
REMARK SMILES IDX 20 1 19 2 18 3 16 4 17 5 15 6 14 7 9 8 10 9 11 10 13 11
REMARK SMILES IDX 12 12 7 13 8 14 6 15 1 16 2 17 3 18 4 19 5 20 21 21 22 22
REMARK SMILES IDX 23 23 24 24 25 25 26 26 27 27 28 28 80 29 29 30 79 31 30 32
REMARK SMILES IDX 31 33 32 34 73 35 33 36 78 37 72 38 74 39 34 40 77 41 71 42
REMARK SMILES IDX 70 43 35 45 61 46 44 47 60 48 45 49 48 50 59 51 75 52 46 53
REMARK SMILES IDX 47 54 58 56 76 57 49 58 36 59 37 60 42 61 38 62 39 63 41 64
REMARK SMILES IDX 43 65 40 66 62 67 63 68 68 69 64 70 65 71 67 72 69 73 66 74
REMARK SMILES IDX 50 75 51 76 56 77 52 78 53 79 55 80 57 81 54 82
REMARK H PARENT 74 44 48 55
REMARK Flexibility Score: inf
ROOT
ATOM      1  C   UNL A   1      32.515  29.774  27.091  1.00  0.00     0.202 C 
ENDROOT
BRANCH   1   2
ATOM      2  C   UNL A   1      31.403  28.830  27.555  1.00  0.00     0.261 C 
BRANCH   2   3
ATOM      3  O   UNL A   1      31.868  27.484  27.751  1.00  0.00    -0.463 OA
BRANCH   3   4
ATOM      4  C   UNL A   1      31.436  26.613  26.810  1.00  0.00     0.307 C 
ATOM      5  O   UNL A   1      30.309  26.126  26.775  1.00  0.00    -0.252 OA
BRANCH   4   6
ATOM      6  C   UNL A   1      32.430  26.293  25.735  1.00  0.00     0.147 C 
BRANCH   6   7
ATOM      7  C   UNL A   1      32.331  26.808  24.298  1.00  0.00     0.096 C 
ATOM      8  N   UNL A   1      31.880  25.732  23.357  1.00  0.00    -0.339 N 
ATOM      9  C   UNL A   1      31.953  26.036  21.929  1.00  0.00     0.120 C 
ATOM     10  C   UNL A   1      33.316  26.592  21.532  1.00  0.00     0.022 C 
ATOM     11  C   UNL A   1      33.655  27.450  23.852  1.00  0.00     0.026 C 
ATOM     12  C   UNL A   1      33.648  27.818  22.370  1.00  0.00     0.004 C 
BRANCH   8  13
ATOM     13  C   UNL A   1      31.958  24.386  23.705  1.00  0.00     0.228 C 
ATOM     14  O   UNL A   1      31.174  23.896  24.520  1.00  0.00    -0.274 OA
BRANCH  13  15
ATOM     15  C   UNL A   1      33.009  23.512  22.988  1.00  0.00     0.109 C 
ATOM     16  C   UNL A   1      34.879  24.071  24.764  1.00  0.00     0.039 C 
ATOM     17  C   UNL A   1      34.201  23.068  23.841  1.00  0.00     0.127 C 
ATOM     18  O   UNL A   1      33.743  21.902  24.555  1.00  0.00    -0.378 OA
ATOM     19  C   UNL A   1      32.748  21.261  23.741  1.00  0.00     0.161 C 
ATOM     20  C   UNL A   1      32.521  22.147  22.528  1.00  0.00     0.044 C 
ENDBRANCH  13  15
ENDBRANCH   8  13
ENDBRANCH   6   7
ENDBRANCH   4   6
ENDBRANCH   3   4
ENDBRANCH   2   3
ENDBRANCH   1   2
BRANCH   1  21
ATOM     21  O   UNL A   1      32.159  30.799  26.171  1.00  0.00    -0.374 OA
BRANCH  21  22
ATOM     22  C   UNL A   1      31.386  31.900  26.652  1.00  0.00     0.202 C 
BRANCH  22  23
ATOM     23  C   UNL A   1      32.097  33.254  26.787  1.00  0.00     0.261 C 
BRANCH  23  24
ATOM     24  O   UNL A   1      32.199  33.697  28.157  1.00  0.00    -0.460 OA
BRANCH  24  25
ATOM     25  C   UNL A   1      33.273  34.485  28.422  1.00  0.00     0.338 C 
ATOM     26  O   UNL A   1      33.279  35.688  28.609  1.00  0.00    -0.246 OA
BRANCH  25  27
ATOM     27  C   UNL A   1      34.472  33.658  28.644  1.00  0.00     0.060 A 
ATOM     28  C   UNL A   1      34.288  32.334  29.063  1.00  0.00     0.016 A 
ATOM     29  C   UNL A   1      35.752  34.210  28.581  1.00  0.00     0.016 A 
ATOM     30  C   UNL A   1      35.383  31.564  29.451  1.00  0.00     0.010 A 
ATOM     31  C   UNL A   1      36.849  33.440  28.987  1.00  0.00     0.010 A 
ATOM     32  C   UNL A   1      36.665  32.127  29.456  1.00  0.00    -0.014 A 
BRANCH  32  33
ATOM     33  C   UNL A   1      37.781  31.390  30.100  1.00  0.00     0.031 A 
ATOM     34  C   UNL A   1      38.089  31.654  31.549  1.00  0.00     0.074 A 
ATOM     35  C   UNL A   1      38.476  30.458  29.423  1.00  0.00     0.049 A 
ATOM     36  N   UNL A   1      39.036  31.155  32.302  1.00  0.00    -0.248 NA
ATOM     37  C   UNL A   1      37.206  32.605  32.245  1.00  0.00     0.031 C 
ATOM     38  C   UNL A   1      38.232  30.064  28.036  1.00  0.00     0.029 A 
ATOM     39  N   UNL A   1      39.531  29.674  29.816  1.00  0.00    -0.354 N 
ATOM     40  C   UNL A   1      38.861  31.725  33.557  1.00  0.00     0.074 A 
ATOM     41  C   UNL A   1      37.740  32.634  33.457  1.00  0.00     0.031 C 
ATOM     42  C   UNL A   1      39.121  29.116  27.691  1.00  0.00     0.029 A 
ATOM     43  C   UNL A   1      40.015  28.862  28.819  1.00  0.00     0.049 A 
ATOM     44  H   UNL A   1      39.905  29.692  30.726  1.00  0.00     0.167 HD
ATOM     45  C   UNL A   1      39.564  31.502  34.694  1.00  0.00     0.037 A 
ATOM     46  C   UNL A   1      41.073  28.029  28.815  1.00  0.00     0.037 A 
ATOM     47  C   UNL A   1      40.683  30.603  34.793  1.00  0.00     0.049 A 
ATOM     48  C   UNL A   1      41.903  27.881  30.063  1.00  0.00     0.074 A 
ATOM     49  C   UNL A   1      41.470  30.324  35.897  1.00  0.00     0.029 A 
ATOM     50  N   UNL A   1      41.173  29.837  33.747  1.00  0.00    -0.354 N 
ATOM     51  N   UNL A   1      41.731  28.426  31.243  1.00  0.00    -0.248 NA
ATOM     52  C   UNL A   1      43.077  27.000  29.978  1.00  0.00     0.031 C 
ATOM     53  C   UNL A   1      42.463  29.419  35.508  1.00  0.00     0.029 A 
ATOM     54  C   UNL A   1      42.264  29.098  34.175  1.00  0.00     0.049 A 
ATOM     55  H   UNL A   1      40.802  29.820  32.836  1.00  0.00     0.167 HD
ATOM     56  C   UNL A   1      42.749  27.927  32.047  1.00  0.00     0.074 A 
ATOM     57  C   UNL A   1      43.529  27.028  31.223  1.00  0.00     0.031 C 
ATOM     58  C   UNL A   1      43.016  28.190  33.350  1.00  0.00     0.037 A 
BRANCH  45  59
ATOM     59  C   UNL A   1      39.149  32.254  35.924  1.00  0.00     0.057 A 
ATOM     60  C   UNL A   1      39.592  33.560  36.171  1.00  0.00     0.134 A 
ATOM     61  C   UNL A   1      38.261  31.686  36.845  1.00  0.00     0.134 A 
ATOM     62  F   UNL A   1      40.455  34.156  35.335  1.00  0.00    -0.206 F 
ATOM     63  C   UNL A   1      39.175  34.269  37.300  1.00  0.00     0.040 A 
ATOM     64  C   UNL A   1      37.819  32.394  37.964  1.00  0.00     0.040 A 
ATOM     65  F   UNL A   1      37.796  30.441  36.664  1.00  0.00    -0.206 F 
ATOM     66  C   UNL A   1      38.279  33.689  38.195  1.00  0.00     0.006 A 
ENDBRANCH  45  59
BRANCH  46  67
ATOM     67  C   UNL A   1      41.438  27.280  27.583  1.00  0.00     0.057 A 
ATOM     68  C   UNL A   1      41.028  25.955  27.392  1.00  0.00     0.134 A 
ATOM     69  C   UNL A   1      42.251  27.852  26.598  1.00  0.00     0.134 A 
ATOM     70  F   UNL A   1      40.270  25.343  28.313  1.00  0.00    -0.206 F 
ATOM     71  C   UNL A   1      41.437  25.218  26.280  1.00  0.00     0.040 A 
ATOM     72  C   UNL A   1      42.646  27.135  25.468  1.00  0.00     0.040 A 
ATOM     73  F   UNL A   1      42.681  29.116  26.723  1.00  0.00    -0.206 F 
ATOM     74  C   UNL A   1      42.247  25.809  25.312  1.00  0.00     0.006 A 
ENDBRANCH  46  67
BRANCH  58  75
ATOM     75  C   UNL A   1      44.165  27.458  33.981  1.00  0.00     0.057 A 
ATOM     76  C   UNL A   1      44.005  26.204  34.583  1.00  0.00     0.134 A 
ATOM     77  C   UNL A   1      45.457  28.001  33.949  1.00  0.00     0.134 A 
ATOM     78  F   UNL A   1      42.793  25.635  34.656  1.00  0.00    -0.206 F 
ATOM     79  C   UNL A   1      45.085  25.525  35.151  1.00  0.00     0.040 A 
ATOM     80  C   UNL A   1      46.548  27.320  34.490  1.00  0.00     0.040 A 
ATOM     81  F   UNL A   1      45.680  29.195  33.379  1.00  0.00    -0.206 F 
ATOM     82  C   UNL A   1      46.362  26.081  35.100  1.00  0.00     0.006 A 
ENDBRANCH  58  75
ENDBRANCH  32  33
ENDBRANCH  25  27
ENDBRANCH  24  25
ENDBRANCH  23  24
ENDBRANCH  22  23
ENDBRANCH  21  22
ENDBRANCH   1  21
TORSDOF 17
ENDMDL
MODEL 2
REMARK VINA RESULT:     -10.2      3.607      5.094
REMARK SMILES C[C@H]1OCC[C@H]1C(=O)N1CCCC[C@@H]1CC(=O)OCCOCCOC(=O)c1ccc(-c2c3nc(c(-c4c(F)cccc4F)c4ccc([nH]4)c(-c4c(F)cccc4F)c4nc(c(-c5c(F)cccc5F)c5ccc2[nH]5)C=C4)C=C3)cc1
REMARK SMILES IDX 20 1 19 2 18 3 16 4 17 5 15 6 14 7 9 8 10 9 11 10 13 11
REMARK SMILES IDX 12 12 7 13 8 14 6 15 1 16 2 17 3 18 4 19 5 20 21 21 22 22
REMARK SMILES IDX 23 23 24 24 25 25 26 26 27 27 28 28 80 29 29 30 79 31 30 32
REMARK SMILES IDX 31 33 32 34 73 35 33 36 78 37 72 38 74 39 34 40 77 41 71 42
REMARK SMILES IDX 70 43 35 45 61 46 44 47 60 48 45 49 48 50 59 51 75 52 46 53
REMARK SMILES IDX 47 54 58 56 76 57 49 58 36 59 37 60 42 61 38 62 39 63 41 64
REMARK SMILES IDX 43 65 40 66 62 67 63 68 68 69 64 70 65 71 67 72 69 73 66 74
REMARK SMILES IDX 50 75 51 76 56 77 52 78 53 79 55 80 57 81 54 82
REMARK H PARENT 74 44 48 55
REMARK Flexibility Score: inf
ROOT
ATOM      1  C   UNL A   1      32.334  27.418  23.140  1.00  0.00     0.202 C 
ENDROOT
BRANCH   1   2
ATOM      2  C   UNL A   1      32.105  25.915  23.314  1.00  0.00     0.261 C 
BRANCH   2   3
ATOM      3  O   UNL A   1      32.896  25.356  24.376  1.00  0.00    -0.463 OA
BRANCH   3   4
ATOM      4  C   UNL A   1      34.062  24.810  23.962  1.00  0.00     0.307 C 
ATOM      5  O   UNL A   1      34.399  24.693  22.786  1.00  0.00    -0.252 OA
BRANCH   4   6
ATOM      6  C   UNL A   1      34.987  24.376  25.059  1.00  0.00     0.147 C 
BRANCH   6   7
ATOM      7  C   UNL A   1      36.281  23.593  24.825  1.00  0.00     0.096 C 
ATOM      8  N   UNL A   1      36.021  22.120  24.716  1.00  0.00    -0.339 N 
ATOM      9  C   UNL A   1      37.192  21.246  24.710  1.00  0.00     0.120 C 
ATOM     10  C   UNL A   1      38.148  21.562  25.855  1.00  0.00     0.022 C 
ATOM     11  C   UNL A   1      37.322  23.918  25.909  1.00  0.00     0.026 C 
ATOM     12  C   UNL A   1      38.559  23.027  25.808  1.00  0.00     0.004 C 
BRANCH   8  13
ATOM     13  C   UNL A   1      34.834  21.558  25.180  1.00  0.00     0.228 C 
ATOM     14  O   UNL A   1      34.609  21.461  26.388  1.00  0.00    -0.274 OA
BRANCH  13  15
ATOM     15  C   UNL A   1      33.781  21.124  24.138  1.00  0.00     0.109 C 
ATOM     16  C   UNL A   1      34.264  18.558  24.524  1.00  0.00     0.039 C 
ATOM     17  C   UNL A   1      33.273  19.685  24.263  1.00  0.00     0.127 C 
ATOM     18  O   UNL A   1      32.237  19.734  25.265  1.00  0.00    -0.378 OA
ATOM     19  C   UNL A   1      31.652  21.045  25.216  1.00  0.00     0.161 C 
ATOM     20  C   UNL A   1      32.451  21.856  24.209  1.00  0.00     0.044 C 
ENDBRANCH  13  15
ENDBRANCH   8  13
ENDBRANCH   6   7
ENDBRANCH   4   6
ENDBRANCH   3   4
ENDBRANCH   2   3
ENDBRANCH   1   2
BRANCH   1  21
ATOM     21  O   UNL A   1      32.041  28.256  24.252  1.00  0.00    -0.374 OA
BRANCH  21  22
ATOM     22  C   UNL A   1      33.131  28.750  25.031  1.00  0.00     0.202 C 
BRANCH  22  23
ATOM     23  C   UNL A   1      32.922  28.847  26.550  1.00  0.00     0.261 C 
BRANCH  23  24
ATOM     24  O   UNL A   1      34.161  28.801  27.288  1.00  0.00    -0.460 OA
BRANCH  24  25
ATOM     25  C   UNL A   1      34.578  29.997  27.777  1.00  0.00     0.338 C 
ATOM     26  O   UNL A   1      33.899  30.983  27.999  1.00  0.00    -0.246 OA
BRANCH  25  27
ATOM     27  C   UNL A   1      35.989  29.914  28.196  1.00  0.00     0.060 A 
ATOM     28  C   UNL A   1      36.975  30.172  27.236  1.00  0.00     0.016 A 
ATOM     29  C   UNL A   1      36.338  29.457  29.467  1.00  0.00     0.016 A 
ATOM     30  C   UNL A   1      38.317  29.942  27.532  1.00  0.00     0.010 A 
ATOM     31  C   UNL A   1      37.686  29.211  29.757  1.00  0.00     0.010 A 
ATOM     32  C   UNL A   1      38.677  29.420  28.780  1.00  0.00    -0.014 A 
BRANCH  32  33
ATOM     33  C   UNL A   1      40.067  28.947  28.998  1.00  0.00     0.031 A 
ATOM     34  C   UNL A   1      41.049  29.860  29.681  1.00  0.00     0.074 A 
ATOM     35  C   UNL A   1      40.437  27.703  28.643  1.00  0.00     0.049 A 
ATOM     36  N   UNL A   1      42.318  29.670  29.941  1.00  0.00    -0.248 NA
ATOM     37  C   UNL A   1      40.529  31.159  30.138  1.00  0.00     0.031 C 
ATOM     38  C   UNL A   1      39.563  26.702  28.034  1.00  0.00     0.029 A 
ATOM     39  N   UNL A   1      41.651  27.072  28.747  1.00  0.00    -0.354 N 
ATOM     40  C   UNL A   1      42.746  30.820  30.594  1.00  0.00     0.074 A 
ATOM     41  C   UNL A   1      41.612  31.716  30.661  1.00  0.00     0.031 C 
ATOM     42  C   UNL A   1      40.273  25.583  27.809  1.00  0.00     0.029 A 
ATOM     43  C   UNL A   1      41.657  25.801  28.227  1.00  0.00     0.049 A 
ATOM     44  H   UNL A   1      42.443  27.491  29.155  1.00  0.00     0.167 HD
ATOM     45  C   UNL A   1      43.970  31.098  31.103  1.00  0.00     0.037 A 
ATOM     46  C   UNL A   1      42.671  24.925  28.084  1.00  0.00     0.037 A 
ATOM     47  C   UNL A   1      45.100  30.210  31.032  1.00  0.00     0.049 A 
ATOM     48  C   UNL A   1      44.048  25.304  28.564  1.00  0.00     0.074 A 
ATOM     49  C   UNL A   1      46.386  30.411  31.502  1.00  0.00     0.029 A 
ATOM     50  N   UNL A   1      45.077  28.951  30.452  1.00  0.00    -0.354 N 
ATOM     51  N   UNL A   1      44.442  26.394  29.177  1.00  0.00    -0.248 NA
ATOM     52  C   UNL A   1      45.123  24.329  28.329  1.00  0.00     0.031 C 
ATOM     53  C   UNL A   1      47.153  29.289  31.172  1.00  0.00     0.029 A 
ATOM     54  C   UNL A   1      46.332  28.370  30.538  1.00  0.00     0.049 A 
ATOM     55  H   UNL A   1      44.288  28.532  30.041  1.00  0.00     0.167 HD
ATOM     56  C   UNL A   1      45.797  26.219  29.433  1.00  0.00     0.074 A 
ATOM     57  C   UNL A   1      46.155  24.915  28.918  1.00  0.00     0.031 C 
ATOM     58  C   UNL A   1      46.668  27.062  30.040  1.00  0.00     0.037 A 
BRANCH  45  59
ATOM     59  C   UNL A   1      44.155  32.427  31.774  1.00  0.00     0.057 A 
ATOM     60  C   UNL A   1      44.546  33.565  31.057  1.00  0.00     0.134 A 
ATOM     61  C   UNL A   1      43.894  32.581  33.141  1.00  0.00     0.134 A 
ATOM     62  F   UNL A   1      44.825  33.481  29.748  1.00  0.00    -0.206 F 
ATOM     63  C   UNL A   1      44.683  34.807  31.680  1.00  0.00     0.040 A 
ATOM     64  C   UNL A   1      44.005  33.823  33.770  1.00  0.00     0.040 A 
ATOM     65  F   UNL A   1      43.513  31.532  33.885  1.00  0.00    -0.206 F 
ATOM     66  C   UNL A   1      44.404  34.940  33.038  1.00  0.00     0.006 A 
ENDBRANCH  45  59
BRANCH  46  67
ATOM     67  C   UNL A   1      42.442  23.607  27.437  1.00  0.00     0.057 A 
ATOM     68  C   UNL A   1      42.140  22.469  28.195  1.00  0.00     0.134 A 
ATOM     69  C   UNL A   1      42.578  23.442  26.054  1.00  0.00     0.134 A 
ATOM     70  F   UNL A   1      42.024  22.557  29.528  1.00  0.00    -0.206 F 
ATOM     71  C   UNL A   1      42.009  21.211  27.605  1.00  0.00     0.040 A 
ATOM     72  C   UNL A   1      42.422  22.195  25.447  1.00  0.00     0.040 A 
ATOM     73  F   UNL A   1      42.869  24.491  25.271  1.00  0.00    -0.206 F 
ATOM     74  C   UNL A   1      42.147  21.072  26.224  1.00  0.00     0.006 A 
ENDBRANCH  46  67
BRANCH  58  75
ATOM     75  C   UNL A   1      48.077  26.582  30.228  1.00  0.00     0.057 A 
ATOM     76  C   UNL A   1      48.447  25.771  31.308  1.00  0.00     0.134 A 
ATOM     77  C   UNL A   1      49.069  26.904  29.292  1.00  0.00     0.134 A 
ATOM     78  F   UNL A   1      47.548  25.436  32.246  1.00  0.00    -0.206 F 
ATOM     79  C   UNL A   1      49.758  25.316  31.464  1.00  0.00     0.040 A 
ATOM     80  C   UNL A   1      50.376  26.434  29.421  1.00  0.00     0.040 A 
ATOM     81  F   UNL A   1      48.779  27.669  28.228  1.00  0.00    -0.206 F 
ATOM     82  C   UNL A   1      50.725  25.642  30.514  1.00  0.00     0.006 A 
ENDBRANCH  58  75
ENDBRANCH  32  33
ENDBRANCH  25  27
ENDBRANCH  24  25
ENDBRANCH  23  24
ENDBRANCH  22  23
ENDBRANCH  21  22
ENDBRANCH   1  21
TORSDOF 17
ENDMDL
MODEL 3
REMARK VINA RESULT:     -10.1      3.978      7.642
REMARK SMILES C[C@H]1OCC[C@H]1C(=O)N1CCCC[C@@H]1CC(=O)OCCOCCOC(=O)c1ccc(-c2c3nc(c(-c4c(F)cccc4F)c4ccc([nH]4)c(-c4c(F)cccc4F)c4nc(c(-c5c(F)cccc5F)c5ccc2[nH]5)C=C4)C=C3)cc1
REMARK SMILES IDX 20 1 19 2 18 3 16 4 17 5 15 6 14 7 9 8 10 9 11 10 13 11
REMARK SMILES IDX 12 12 7 13 8 14 6 15 1 16 2 17 3 18 4 19 5 20 21 21 22 22
REMARK SMILES IDX 23 23 24 24 25 25 26 26 27 27 28 28 80 29 29 30 79 31 30 32
REMARK SMILES IDX 31 33 32 34 73 35 33 36 78 37 72 38 74 39 34 40 77 41 71 42
REMARK SMILES IDX 70 43 35 45 61 46 44 47 60 48 45 49 48 50 59 51 75 52 46 53
REMARK SMILES IDX 47 54 58 56 76 57 49 58 36 59 37 60 42 61 38 62 39 63 41 64
REMARK SMILES IDX 43 65 40 66 62 67 63 68 68 69 64 70 65 71 67 72 69 73 66 74
REMARK SMILES IDX 50 75 51 76 56 77 52 78 53 79 55 80 57 81 54 82
REMARK H PARENT 74 44 48 55
REMARK Flexibility Score: inf
ROOT
ATOM      1  C   UNL A   1      35.062  21.487  26.274  1.00  0.00     0.202 C 
ENDROOT
BRANCH   1   2
ATOM      2  C   UNL A   1      33.701  21.277  26.940  1.00  0.00     0.261 C 
BRANCH   2   3
ATOM      3  O   UNL A   1      33.288  22.413  27.719  1.00  0.00    -0.463 OA
BRANCH   3   4
ATOM      4  C   UNL A   1      32.311  23.149  27.139  1.00  0.00     0.307 C 
ATOM      5  O   UNL A   1      31.108  22.955  27.291  1.00  0.00    -0.252 OA
BRANCH   4   6
ATOM      6  C   UNL A   1      32.791  24.295  26.300  1.00  0.00     0.147 C 
BRANCH   6   7
ATOM      7  C   UNL A   1      33.311  24.148  24.869  1.00  0.00     0.096 C 
ATOM      8  N   UNL A   1      33.350  25.468  24.159  1.00  0.00    -0.339 N 
ATOM      9  C   UNL A   1      33.621  25.432  22.723  1.00  0.00     0.120 C 
ATOM     10  C   UNL A   1      32.727  24.432  21.997  1.00  0.00     0.022 C 
ATOM     11  C   UNL A   1      32.497  23.098  24.094  1.00  0.00     0.026 C 
ATOM     12  C   UNL A   1      32.875  23.050  22.615  1.00  0.00     0.004 C 
BRANCH   8  13
ATOM     13  C   UNL A   1      32.623  26.561  24.622  1.00  0.00     0.228 C 
ATOM     14  O   UNL A   1      31.396  26.595  24.520  1.00  0.00    -0.274 OA
BRANCH  13  15
ATOM     15  C   UNL A   1      33.393  27.697  25.330  1.00  0.00     0.109 C 
ATOM     16  C   UNL A   1      33.623  29.104  23.109  1.00  0.00     0.039 C 
ATOM     17  C   UNL A   1      33.392  29.050  24.613  1.00  0.00     0.127 C 
ATOM     18  O   UNL A   1      32.151  29.679  24.991  1.00  0.00    -0.378 OA
ATOM     19  C   UNL A   1      31.800  29.191  26.295  1.00  0.00     0.161 C 
ATOM     20  C   UNL A   1      32.826  28.134  26.671  1.00  0.00     0.044 C 
ENDBRANCH  13  15
ENDBRANCH   8  13
ENDBRANCH   6   7
ENDBRANCH   4   6
ENDBRANCH   3   4
ENDBRANCH   2   3
ENDBRANCH   1   2
BRANCH   1  21
ATOM     21  O   UNL A   1      35.284  20.842  25.025  1.00  0.00    -0.374 OA
BRANCH  21  22
ATOM     22  C   UNL A   1      36.133  19.694  24.998  1.00  0.00     0.202 C 
BRANCH  22  23
ATOM     23  C   UNL A   1      37.620  19.926  24.694  1.00  0.00     0.261 C 
BRANCH  23  24
ATOM     24  O   UNL A   1      38.146  21.102  25.343  1.00  0.00    -0.460 OA
BRANCH  24  25
ATOM     25  C   UNL A   1      39.276  20.897  26.066  1.00  0.00     0.338 C 
ATOM     26  O   UNL A   1      39.948  19.882  26.118  1.00  0.00    -0.246 OA
BRANCH  25  27
ATOM     27  C   UNL A   1      39.727  22.158  26.682  1.00  0.00     0.060 A 
ATOM     28  C   UNL A   1      39.181  23.355  26.200  1.00  0.00     0.016 A 
ATOM     29  C   UNL A   1      40.766  22.176  27.612  1.00  0.00     0.016 A 
ATOM     30  C   UNL A   1      39.694  24.578  26.625  1.00  0.00     0.010 A 
ATOM     31  C   UNL A   1      41.291  23.407  28.025  1.00  0.00     0.010 A 
ATOM     32  C   UNL A   1      40.781  24.611  27.507  1.00  0.00    -0.014 A 
BRANCH  32  33
ATOM     33  C   UNL A   1      41.476  25.899  27.758  1.00  0.00     0.031 A 
ATOM     34  C   UNL A   1      40.760  26.976  28.527  1.00  0.00     0.074 A 
ATOM     35  C   UNL A   1      42.745  26.088  27.354  1.00  0.00     0.049 A 
ATOM     36  N   UNL A   1      41.159  28.185  28.829  1.00  0.00    -0.248 NA
ATOM     37  C   UNL A   1      39.418  26.643  29.029  1.00  0.00     0.031 C 
ATOM     38  C   UNL A   1      43.567  25.100  26.658  1.00  0.00     0.029 A 
ATOM     39  N   UNL A   1      43.564  27.183  27.475  1.00  0.00    -0.354 N 
ATOM     40  C   UNL A   1      40.122  28.754  29.559  1.00  0.00     0.074 A 
ATOM     41  C   UNL A   1      39.062  27.772  29.625  1.00  0.00     0.031 C 
ATOM     42  C   UNL A   1      44.773  25.638  26.405  1.00  0.00     0.029 A 
ATOM     43  C   UNL A   1      44.795  27.017  26.891  1.00  0.00     0.049 A 
ATOM     44  H   UNL A   1      43.293  28.009  27.937  1.00  0.00     0.167 HD
ATOM     45  C   UNL A   1      40.063  29.980  30.132  1.00  0.00     0.037 A 
ATOM     46  C   UNL A   1      45.812  27.888  26.745  1.00  0.00     0.037 A 
ATOM     47  C   UNL A   1      41.114  30.960  30.062  1.00  0.00     0.049 A 
ATOM     48  C   UNL A   1      45.677  29.282  27.300  1.00  0.00     0.074 A 
ATOM     49  C   UNL A   1      41.140  32.238  30.595  1.00  0.00     0.029 A 
ATOM     50  N   UNL A   1      42.326  30.771  29.417  1.00  0.00    -0.354 N 
ATOM     51  N   UNL A   1      44.692  29.810  27.985  1.00  0.00    -0.248 NA
ATOM     52  C   UNL A   1      46.798  30.203  27.060  1.00  0.00     0.031 C 
ATOM     53  C   UNL A   1      42.352  32.836  30.239  1.00  0.00     0.029 A 
ATOM     54  C   UNL A   1      43.101  31.915  29.524  1.00  0.00     0.049 A 
ATOM     55  H   UNL A   1      42.597  29.947  28.952  1.00  0.00     0.167 HD
ATOM     56  C   UNL A   1      45.089  31.107  28.288  1.00  0.00     0.074 A 
ATOM     57  C   UNL A   1      46.409  31.283  27.720  1.00  0.00     0.031 C 
ATOM     58  C   UNL A   1      44.422  32.067  28.974  1.00  0.00     0.037 A 
BRANCH  45  59
ATOM     59  C   UNL A   1      38.812  30.336  30.879  1.00  0.00     0.057 A 
ATOM     60  C   UNL A   1      38.663  30.053  32.243  1.00  0.00     0.134 A 
ATOM     61  C   UNL A   1      37.765  31.012  30.240  1.00  0.00     0.134 A 
ATOM     62  F   UNL A   1      39.623  29.395  32.909  1.00  0.00    -0.206 F 
ATOM     63  C   UNL A   1      37.511  30.418  32.941  1.00  0.00     0.040 A 
ATOM     64  C   UNL A   1      36.618  31.404  30.934  1.00  0.00     0.040 A 
ATOM     65  F   UNL A   1      37.846  31.318  28.936  1.00  0.00    -0.206 F 
ATOM     66  C   UNL A   1      36.488  31.104  32.289  1.00  0.00     0.006 A 
ENDBRANCH  45  59
BRANCH  46  67
ATOM     67  C   UNL A   1      47.048  27.490  26.021  1.00  0.00     0.057 A 
ATOM     68  C   UNL A   1      48.179  27.036  26.711  1.00  0.00     0.134 A 
ATOM     69  C   UNL A   1      47.147  27.609  24.630  1.00  0.00     0.134 A 
ATOM     70  F   UNL A   1      48.155  26.926  28.047  1.00  0.00    -0.206 F 
ATOM     71  C   UNL A   1      49.370  26.742  26.046  1.00  0.00     0.040 A 
ATOM     72  C   UNL A   1      48.323  27.292  23.950  1.00  0.00     0.040 A 
ATOM     73  F   UNL A   1      46.100  28.041  23.910  1.00  0.00    -0.206 F 
ATOM     74  C   UNL A   1      49.444  26.867  24.660  1.00  0.00     0.006 A 
ENDBRANCH  46  67
BRANCH  58  75
ATOM     75  C   UNL A   1      45.126  33.374  29.195  1.00  0.00     0.057 A 
ATOM     76  C   UNL A   1      45.970  33.586  30.292  1.00  0.00     0.134 A 
ATOM     77  C   UNL A   1      44.987  34.421  28.274  1.00  0.00     0.134 A 
ATOM     78  F   UNL A   1      46.137  32.628  31.216  1.00  0.00    -0.206 F 
ATOM     79  C   UNL A   1      46.633  34.800  30.478  1.00  0.00     0.040 A 
ATOM     80  C   UNL A   1      45.666  35.630  28.435  1.00  0.00     0.040 A 
ATOM     81  F   UNL A   1      44.201  34.280  27.195  1.00  0.00    -0.206 F 
ATOM     82  C   UNL A   1      46.487  35.824  29.544  1.00  0.00     0.006 A 
ENDBRANCH  58  75
ENDBRANCH  32  33
ENDBRANCH  25  27
ENDBRANCH  24  25
ENDBRANCH  23  24
ENDBRANCH  22  23
ENDBRANCH  21  22
ENDBRANCH   1  21
TORSDOF 17
ENDMDL
