MODEL 1
REMARK VINA RESULT:     -10.3      0.000      0.000
REMARK SMILES CC[C@@](C)([NH2+]CC(=O)N[C@@H](C)c1ccc(F)cc1)C(=O)OCCOCCOC(=O)c1ccc(-c2c3nc(c(-c4c(F)cccc4F)c4ccc([nH]4)c(-c4c(F)cccc4F)c4nc(c(-c5c(F)cccc5F)c5ccc2[nH]5)C=C4)C=C3)cc1
REMARK SMILES IDX 22 1 21 2 19 3 20 4 3 5 4 6 2 7 1 8 5 9 6 12 7 13 8 14 9 15
REMARK SMILES IDX 10 17 11 18 12 19 13 20 18 21 14 22 17 23 15 24 16 25 23 26
REMARK SMILES IDX 24 27 25 28 26 29 27 30 28 31 29 32 30 33 31 34 83 35 32 36
REMARK SMILES IDX 82 37 33 38 34 39 35 40 76 41 36 42 81 43 75 44 77 45 37 46
REMARK SMILES IDX 80 47 74 48 73 49 38 51 64 52 47 53 63 54 48 55 51 56 62 57
REMARK SMILES IDX 78 58 49 59 50 60 61 62 79 63 52 64 39 65 40 66 45 67 41 68
REMARK SMILES IDX 42 69 44 70 46 71 43 72 65 73 66 74 71 75 67 76 68 77 70 78
REMARK SMILES IDX 72 79 69 80 53 81 54 82 59 83 55 84 56 85 58 86 60 87 57 88
REMARK H PARENT 5 10 5 11 9 16 77 50 51 61
REMARK Flexibility Score: inf
ROOT
ATOM      1  C   UNL A   1      34.125  26.138  25.501  1.00  0.00     0.261 C 
ENDROOT
BRANCH   1   2
ATOM      2  O   UNL A   1      34.530  24.861  24.992  1.00  0.00    -0.459 OA
BRANCH   2   3
ATOM      3  C   UNL A   1      34.070  23.729  25.610  1.00  0.00     0.367 C 
ATOM      4  O   UNL A   1      34.477  23.328  26.692  1.00  0.00    -0.245 OA
BRANCH   3   5
ATOM      5  C   UNL A   1      32.959  23.032  24.757  1.00  0.00     0.191 C 
ATOM      6  C   UNL A   1      32.788  23.502  23.302  1.00  0.00     0.092 C 
BRANCH   5   7
ATOM      7  C   UNL A   1      33.403  21.536  24.663  1.00  0.00     0.077 C 
ATOM      8  C   UNL A   1      32.232  20.547  24.522  1.00  0.00     0.011 C 
ENDBRANCH   5   7
BRANCH   5   9
ATOM      9  N   UNL A   1      31.620  23.158  25.412  1.00  0.00    -0.325 N 
ATOM     10  H   UNL A   1      31.779  23.424  26.384  1.00  0.00     0.347 HD
ATOM     11  H   UNL A   1      31.177  22.248  25.276  1.00  0.00     0.347 HD
BRANCH   9  12
ATOM     12  C   UNL A   1      30.657  24.139  24.832  1.00  0.00     0.362 C 
BRANCH  12  13
ATOM     13  C   UNL A   1      30.517  25.476  25.579  1.00  0.00     0.275 C 
ATOM     14  O   UNL A   1      30.936  25.595  26.734  1.00  0.00    -0.268 OA
ATOM     15  N   UNL A   1      29.937  26.575  24.987  1.00  0.00    -0.345 N 
ATOM     16  H   UNL A   1      30.169  27.442  25.389  1.00  0.00     0.164 HD
BRANCH  15  17
ATOM     17  C   UNL A   1      29.027  26.638  23.848  1.00  0.00     0.109 C 
ATOM     18  C   UNL A   1      27.579  26.329  24.254  1.00  0.00     0.036 C 
BRANCH  17  19
ATOM     19  C   UNL A   1      29.011  27.946  23.082  1.00  0.00    -0.026 A 
ATOM     20  C   UNL A   1      27.832  28.719  23.132  1.00  0.00     0.009 A 
ATOM     21  C   UNL A   1      30.157  28.508  22.511  1.00  0.00     0.009 A 
ATOM     22  C   UNL A   1      27.783  30.004  22.602  1.00  0.00     0.039 A 
ATOM     23  C   UNL A   1      30.115  29.810  22.002  1.00  0.00     0.039 A 
ATOM     24  C   UNL A   1      28.932  30.541  22.048  1.00  0.00     0.123 A 
ATOM     25  F   UNL A   1      28.909  31.797  21.584  1.00  0.00    -0.207 F 
ENDBRANCH  17  19
ENDBRANCH  15  17
ENDBRANCH  12  13
ENDBRANCH   9  12
ENDBRANCH   5   9
ENDBRANCH   3   5
ENDBRANCH   2   3
ENDBRANCH   1   2
BRANCH   1  26
ATOM     26  C   UNL A   1      33.698  27.090  24.376  1.00  0.00     0.202 C 
BRANCH  26  27
ATOM     27  O   UNL A   1      32.579  27.930  24.636  1.00  0.00    -0.374 OA
BRANCH  27  28
ATOM     28  C   UNL A   1      32.827  29.330  24.735  1.00  0.00     0.202 C 
BRANCH  28  29
ATOM     29  C   UNL A   1      31.899  30.162  25.632  1.00  0.00     0.261 C 
BRANCH  29  30
ATOM     30  O   UNL A   1      32.328  30.295  26.999  1.00  0.00    -0.460 OA
BRANCH  30  31
ATOM     31  C   UNL A   1      33.018  31.434  27.262  1.00  0.00     0.338 C 
ATOM     32  O   UNL A   1      32.598  32.577  27.247  1.00  0.00    -0.246 OA
BRANCH  31  33
ATOM     33  C   UNL A   1      34.402  31.129  27.664  1.00  0.00     0.060 A 
ATOM     34  C   UNL A   1      34.743  29.795  27.925  1.00  0.00     0.016 A 
ATOM     35  C   UNL A   1      35.295  32.159  27.963  1.00  0.00     0.016 A 
ATOM     36  C   UNL A   1      35.968  29.491  28.521  1.00  0.00     0.010 A 
ATOM     37  C   UNL A   1      36.518  31.852  28.569  1.00  0.00     0.010 A 
ATOM     38  C   UNL A   1      36.849  30.520  28.879  1.00  0.00    -0.014 A 
BRANCH  38  39
ATOM     39  C   UNL A   1      38.073  30.233  29.668  1.00  0.00     0.031 A 
ATOM     40  C   UNL A   1      39.108  29.291  29.118  1.00  0.00     0.074 A 
ATOM     41  C   UNL A   1      38.247  30.784  30.883  1.00  0.00     0.049 A 
ATOM     42  N   UNL A   1      40.170  28.794  29.701  1.00  0.00    -0.248 NA
ATOM     43  C   UNL A   1      38.925  28.848  27.726  1.00  0.00     0.031 C 
ATOM     44  C   UNL A   1      37.343  31.747  31.509  1.00  0.00     0.029 A 
ATOM     45  N   UNL A   1      39.235  30.589  31.818  1.00  0.00    -0.354 N 
ATOM     46  C   UNL A   1      40.771  27.972  28.756  1.00  0.00     0.074 A 
ATOM     47  C   UNL A   1      39.955  28.029  27.563  1.00  0.00     0.031 C 
ATOM     48  C   UNL A   1      37.800  32.034  32.739  1.00  0.00     0.029 A 
ATOM     49  C   UNL A   1      39.002  31.244  33.003  1.00  0.00     0.049 A 
ATOM     50  H   UNL A   1      40.031  30.033  31.655  1.00  0.00     0.167 HD
ATOM     51  C   UNL A   1      41.902  27.238  28.878  1.00  0.00     0.037 A 
ATOM     52  C   UNL A   1      39.657  31.179  34.180  1.00  0.00     0.037 A 
ATOM     53  C   UNL A   1      42.723  27.197  30.058  1.00  0.00     0.049 A 
ATOM     54  C   UNL A   1      40.865  30.292  34.316  1.00  0.00     0.074 A 
ATOM     55  C   UNL A   1      43.914  26.517  30.252  1.00  0.00     0.029 A 
ATOM     56  N   UNL A   1      42.437  27.852  31.245  1.00  0.00    -0.354 N 
ATOM     57  N   UNL A   1      41.437  29.534  33.412  1.00  0.00    -0.248 NA
ATOM     58  C   UNL A   1      41.514  30.241  35.635  1.00  0.00     0.031 C 
ATOM     59  C   UNL A   1      44.322  26.721  31.572  1.00  0.00     0.029 A 
ATOM     60  C   UNL A   1      43.410  27.564  32.186  1.00  0.00     0.049 A 
ATOM     61  H   UNL A   1      41.658  28.435  31.395  1.00  0.00     0.167 HD
ATOM     62  C   UNL A   1      42.517  28.932  34.046  1.00  0.00     0.074 A 
ATOM     63  C   UNL A   1      42.528  29.417  35.408  1.00  0.00     0.031 C 
ATOM     64  C   UNL A   1      43.416  28.055  33.539  1.00  0.00     0.037 A 
BRANCH  51  65
ATOM     65  C   UNL A   1      42.330  26.399  27.713  1.00  0.00     0.057 A 
ATOM     66  C   UNL A   1      43.118  26.950  26.694  1.00  0.00     0.134 A 
ATOM     67  C   UNL A   1      41.870  25.088  27.540  1.00  0.00     0.134 A 
ATOM     68  F   UNL A   1      43.582  28.205  26.796  1.00  0.00    -0.206 F 
ATOM     69  C   UNL A   1      43.419  26.233  25.536  1.00  0.00     0.040 A 
ATOM     70  C   UNL A   1      42.179  24.354  26.395  1.00  0.00     0.040 A 
ATOM     71  F   UNL A   1      41.114  24.504  28.483  1.00  0.00    -0.206 F 
ATOM     72  C   UNL A   1      42.947  24.931  25.382  1.00  0.00     0.006 A 
ENDBRANCH  51  65
BRANCH  52  73
ATOM     73  C   UNL A   1      39.148  31.947  35.344  1.00  0.00     0.057 A 
ATOM     74  C   UNL A   1      38.287  31.360  36.279  1.00  0.00     0.134 A 
ATOM     75  C   UNL A   1      39.507  33.283  35.546  1.00  0.00     0.134 A 
ATOM     76  F   UNL A   1      37.908  30.081  36.141  1.00  0.00    -0.206 F 
ATOM     77  C   UNL A   1      37.788  32.078  37.365  1.00  0.00     0.040 A 
ATOM     78  C   UNL A   1      39.033  34.008  36.642  1.00  0.00     0.040 A 
ATOM     79  F   UNL A   1      40.349  33.892  34.699  1.00  0.00    -0.206 F 
ATOM     80  C   UNL A   1      38.164  33.407  37.551  1.00  0.00     0.006 A 
ENDBRANCH  52  73
BRANCH  64  81
ATOM     81  C   UNL A   1      44.506  27.562  34.442  1.00  0.00     0.057 A 
ATOM     82  C   UNL A   1      44.317  26.420  35.232  1.00  0.00     0.134 A 
ATOM     83  C   UNL A   1      45.695  28.280  34.611  1.00  0.00     0.134 A 
ATOM     84  F   UNL A   1      43.194  25.697  35.125  1.00  0.00    -0.206 F 
ATOM     85  C   UNL A   1      45.264  26.025  36.178  1.00  0.00     0.040 A 
ATOM     86  C   UNL A   1      46.659  27.882  35.540  1.00  0.00     0.040 A 
ATOM     87  F   UNL A   1      45.938  29.376  33.877  1.00  0.00    -0.206 F 
ATOM     88  C   UNL A   1      46.439  26.758  36.335  1.00  0.00     0.006 A 
ENDBRANCH  64  81
ENDBRANCH  38  39
ENDBRANCH  31  33
ENDBRANCH  30  31
ENDBRANCH  29  30
ENDBRANCH  28  29
ENDBRANCH  27  28
ENDBRANCH  26  27
ENDBRANCH   1  26
TORSDOF 20
ENDMDL
MODEL 2
REMARK VINA RESULT:     -10.2      3.789      8.369
REMARK SMILES CC[C@@](C)([NH2+]CC(=O)N[C@@H](C)c1ccc(F)cc1)C(=O)OCCOCCOC(=O)c1ccc(-c2c3nc(c(-c4c(F)cccc4F)c4ccc([nH]4)c(-c4c(F)cccc4F)c4nc(c(-c5c(F)cccc5F)c5ccc2[nH]5)C=C4)C=C3)cc1
REMARK SMILES IDX 22 1 21 2 19 3 20 4 3 5 4 6 2 7 1 8 5 9 6 12 7 13 8 14 9 15
REMARK SMILES IDX 10 17 11 18 12 19 13 20 18 21 14 22 17 23 15 24 16 25 23 26
REMARK SMILES IDX 24 27 25 28 26 29 27 30 28 31 29 32 30 33 31 34 83 35 32 36
REMARK SMILES IDX 82 37 33 38 34 39 35 40 76 41 36 42 81 43 75 44 77 45 37 46
REMARK SMILES IDX 80 47 74 48 73 49 38 51 64 52 47 53 63 54 48 55 51 56 62 57
REMARK SMILES IDX 78 58 49 59 50 60 61 62 79 63 52 64 39 65 40 66 45 67 41 68
REMARK SMILES IDX 42 69 44 70 46 71 43 72 65 73 66 74 71 75 67 76 68 77 70 78
REMARK SMILES IDX 72 79 69 80 53 81 54 82 59 83 55 84 56 85 58 86 60 87 57 88
REMARK H PARENT 5 10 5 11 9 16 77 50 51 61
REMARK Flexibility Score: inf
ROOT
ATOM      1  C   UNL A   1      40.509  21.742  26.701  1.00  0.00     0.261 C 
ENDROOT
BRANCH   1   2
ATOM      2  O   UNL A   1      39.428  21.594  25.771  1.00  0.00    -0.459 OA
BRANCH   2   3
ATOM      3  C   UNL A   1      38.341  22.418  25.888  1.00  0.00     0.367 C 
ATOM      4  O   UNL A   1      38.380  23.533  26.391  1.00  0.00    -0.245 OA
BRANCH   3   5
ATOM      5  C   UNL A   1      37.059  21.751  25.288  1.00  0.00     0.191 C 
ATOM      6  C   UNL A   1      36.465  22.382  24.017  1.00  0.00     0.092 C 
BRANCH   5   7
ATOM      7  C   UNL A   1      37.511  20.315  24.868  1.00  0.00     0.077 C 
ATOM      8  C   UNL A   1      36.343  19.340  24.626  1.00  0.00     0.011 C 
ENDBRANCH   5   7
BRANCH   5   9
ATOM      9  N   UNL A   1      35.957  21.697  26.299  1.00  0.00    -0.325 N 
ATOM     10  H   UNL A   1      36.311  22.117  27.159  1.00  0.00     0.347 HD
ATOM     11  H   UNL A   1      35.713  20.709  26.365  1.00  0.00     0.347 HD
BRANCH   9  12
ATOM     12  C   UNL A   1      34.676  22.383  25.961  1.00  0.00     0.362 C 
BRANCH  12  13
ATOM     13  C   UNL A   1      33.440  21.951  26.768  1.00  0.00     0.275 C 
ATOM     14  O   UNL A   1      33.459  21.974  28.002  1.00  0.00    -0.268 OA
ATOM     15  N   UNL A   1      32.282  21.541  26.147  1.00  0.00    -0.345 N 
ATOM     16  H   UNL A   1      31.468  21.593  26.697  1.00  0.00     0.164 HD
BRANCH  15  17
ATOM     17  C   UNL A   1      32.089  21.040  24.790  1.00  0.00     0.109 C 
ATOM     18  C   UNL A   1      32.880  21.858  23.759  1.00  0.00     0.036 C 
BRANCH  17  19
ATOM     19  C   UNL A   1      32.433  19.581  24.567  1.00  0.00    -0.026 A 
ATOM     20  C   UNL A   1      32.529  19.127  23.234  1.00  0.00     0.009 A 
ATOM     21  C   UNL A   1      32.855  18.732  25.595  1.00  0.00     0.009 A 
ATOM     22  C   UNL A   1      33.000  17.855  22.932  1.00  0.00     0.039 A 
ATOM     23  C   UNL A   1      33.354  17.462  25.289  1.00  0.00     0.039 A 
ATOM     24  C   UNL A   1      33.418  17.035  23.966  1.00  0.00     0.123 A 
ATOM     25  F   UNL A   1      33.924  15.829  23.681  1.00  0.00    -0.207 F 
ENDBRANCH  17  19
ENDBRANCH  15  17
ENDBRANCH  12  13
ENDBRANCH   9  12
ENDBRANCH   5   9
ENDBRANCH   3   5
ENDBRANCH   2   3
ENDBRANCH   1   2
BRANCH   1  26
ATOM     26  C   UNL A   1      41.779  21.030  26.216  1.00  0.00     0.202 C 
BRANCH  26  27
ATOM     27  O   UNL A   1      42.641  21.770  25.358  1.00  0.00    -0.374 OA
BRANCH  27  28
ATOM     28  C   UNL A   1      44.015  21.848  25.729  1.00  0.00     0.202 C 
BRANCH  28  29
ATOM     29  C   UNL A   1      44.866  22.960  25.099  1.00  0.00     0.261 C 
BRANCH  29  30
ATOM     30  O   UNL A   1      45.341  23.961  26.018  1.00  0.00    -0.460 OA
BRANCH  30  31
ATOM     31  C   UNL A   1      45.131  25.239  25.614  1.00  0.00     0.338 C 
ATOM     32  O   UNL A   1      45.580  25.790  24.626  1.00  0.00    -0.246 OA
BRANCH  31  33
ATOM     33  C   UNL A   1      44.184  25.924  26.513  1.00  0.00     0.060 A 
ATOM     34  C   UNL A   1      44.355  27.295  26.743  1.00  0.00     0.016 A 
ATOM     35  C   UNL A   1      43.265  25.189  27.263  1.00  0.00     0.016 A 
ATOM     36  C   UNL A   1      43.628  27.929  27.753  1.00  0.00     0.010 A 
ATOM     37  C   UNL A   1      42.545  25.825  28.280  1.00  0.00     0.010 A 
ATOM     38  C   UNL A   1      42.744  27.192  28.551  1.00  0.00    -0.014 A 
BRANCH  38  39
ATOM     39  C   UNL A   1      42.096  27.807  29.736  1.00  0.00     0.031 A 
ATOM     40  C   UNL A   1      40.848  28.627  29.558  1.00  0.00     0.074 A 
ATOM     41  C   UNL A   1      42.634  27.662  30.961  1.00  0.00     0.049 A 
ATOM     42  N   UNL A   1      40.211  29.366  30.432  1.00  0.00    -0.248 NA
ATOM     43  C   UNL A   1      40.234  28.614  28.221  1.00  0.00     0.031 C 
ATOM     44  C   UNL A   1      43.813  26.856  31.273  1.00  0.00     0.029 A 
ATOM     45  N   UNL A   1      42.271  28.213  32.165  1.00  0.00    -0.354 N 
ATOM     46  C   UNL A   1      39.133  29.916  29.749  1.00  0.00     0.074 A 
ATOM     47  C   UNL A   1      39.205  29.434  28.386  1.00  0.00     0.031 C 
ATOM     48  C   UNL A   1      44.096  26.992  32.579  1.00  0.00     0.029 A 
ATOM     49  C   UNL A   1      43.147  27.925  33.184  1.00  0.00     0.049 A 
ATOM     50  H   UNL A   1      41.462  28.761  32.287  1.00  0.00     0.167 HD
ATOM     51  C   UNL A   1      38.175  30.747  30.220  1.00  0.00     0.037 A 
ATOM     52  C   UNL A   1      43.204  28.396  34.446  1.00  0.00     0.037 A 
ATOM     53  C   UNL A   1      38.095  31.211  31.579  1.00  0.00     0.049 A 
ATOM     54  C   UNL A   1      42.174  29.384  34.923  1.00  0.00     0.074 A 
ATOM     55  C   UNL A   1      37.128  32.018  32.154  1.00  0.00     0.029 A 
ATOM     56  N   UNL A   1      39.018  30.919  32.570  1.00  0.00    -0.354 N 
ATOM     57  N   UNL A   1      41.149  29.883  34.276  1.00  0.00    -0.248 NA
ATOM     58  C   UNL A   1      42.312  29.884  36.299  1.00  0.00     0.031 C 
ATOM     59  C   UNL A   1      37.493  32.255  33.483  1.00  0.00     0.029 A 
ATOM     60  C   UNL A   1      38.661  31.559  33.745  1.00  0.00     0.049 A 
ATOM     61  H   UNL A   1      39.808  30.343  32.456  1.00  0.00     0.167 HD
ATOM     62  C   UNL A   1      40.514  30.739  35.168  1.00  0.00     0.074 A 
ATOM     63  C   UNL A   1      41.262  30.687  36.405  1.00  0.00     0.031 C 
ATOM     64  C   UNL A   1      39.409  31.498  34.973  1.00  0.00     0.037 A 
BRANCH  51  65
ATOM     65  C   UNL A   1      37.128  31.233  29.264  1.00  0.00     0.057 A 
ATOM     66  C   UNL A   1      37.164  32.548  28.782  1.00  0.00     0.134 A 
ATOM     67  C   UNL A   1      36.027  30.443  28.914  1.00  0.00     0.134 A 
ATOM     68  F   UNL A   1      38.188  33.358  29.091  1.00  0.00    -0.206 F 
ATOM     69  C   UNL A   1      36.132  33.065  27.999  1.00  0.00     0.040 A 
ATOM     70  C   UNL A   1      34.997  30.943  28.116  1.00  0.00     0.040 A 
ATOM     71  F   UNL A   1      35.938  29.174  29.341  1.00  0.00    -0.206 F 
ATOM     72  C   UNL A   1      35.043  32.263  27.665  1.00  0.00     0.006 A 
ENDBRANCH  51  65
BRANCH  52  73
ATOM     73  C   UNL A   1      44.313  27.971  35.336  1.00  0.00     0.057 A 
ATOM     74  C   UNL A   1      44.221  26.803  36.103  1.00  0.00     0.134 A 
ATOM     75  C   UNL A   1      45.488  28.722  35.442  1.00  0.00     0.134 A 
ATOM     76  F   UNL A   1      43.120  26.040  36.044  1.00  0.00    -0.206 F 
ATOM     77  C   UNL A   1      45.249  26.406  36.957  1.00  0.00     0.040 A 
ATOM     78  C   UNL A   1      46.536  28.324  36.276  1.00  0.00     0.040 A 
ATOM     79  F   UNL A   1      45.647  29.835  34.711  1.00  0.00    -0.206 F 
ATOM     80  C   UNL A   1      46.414  27.167  37.043  1.00  0.00     0.006 A 
ENDBRANCH  52  73
BRANCH  64  81
ATOM     81  C   UNL A   1      38.916  32.332  36.118  1.00  0.00     0.057 A 
ATOM     82  C   UNL A   1      39.379  33.642  36.298  1.00  0.00     0.134 A 
ATOM     83  C   UNL A   1      38.073  31.799  37.099  1.00  0.00     0.134 A 
ATOM     84  F   UNL A   1      40.199  34.204  35.399  1.00  0.00    -0.206 F 
ATOM     85  C   UNL A   1      39.039  34.385  37.430  1.00  0.00     0.040 A 
ATOM     86  C   UNL A   1      37.710  32.539  38.226  1.00  0.00     0.040 A 
ATOM     87  F   UNL A   1      37.590  30.553  36.978  1.00  0.00    -0.206 F 
ATOM     88  C   UNL A   1      38.203  33.832  38.399  1.00  0.00     0.006 A 
ENDBRANCH  64  81
ENDBRANCH  38  39
ENDBRANCH  31  33
ENDBRANCH  30  31
ENDBRANCH  29  30
ENDBRANCH  28  29
ENDBRANCH  27  28
ENDBRANCH  26  27
ENDBRANCH   1  26
TORSDOF 20
ENDMDL
MODEL 3
REMARK VINA RESULT:     -10.0      2.949      7.410
REMARK SMILES CC[C@@](C)([NH2+]CC(=O)N[C@@H](C)c1ccc(F)cc1)C(=O)OCCOCCOC(=O)c1ccc(-c2c3nc(c(-c4c(F)cccc4F)c4ccc([nH]4)c(-c4c(F)cccc4F)c4nc(c(-c5c(F)cccc5F)c5ccc2[nH]5)C=C4)C=C3)cc1
REMARK SMILES IDX 22 1 21 2 19 3 20 4 3 5 4 6 2 7 1 8 5 9 6 12 7 13 8 14 9 15
REMARK SMILES IDX 10 17 11 18 12 19 13 20 18 21 14 22 17 23 15 24 16 25 23 26
REMARK SMILES IDX 24 27 25 28 26 29 27 30 28 31 29 32 30 33 31 34 83 35 32 36
REMARK SMILES IDX 82 37 33 38 34 39 35 40 76 41 36 42 81 43 75 44 77 45 37 46
REMARK SMILES IDX 80 47 74 48 73 49 38 51 64 52 47 53 63 54 48 55 51 56 62 57
REMARK SMILES IDX 78 58 49 59 50 60 61 62 79 63 52 64 39 65 40 66 45 67 41 68
REMARK SMILES IDX 42 69 44 70 46 71 43 72 65 73 66 74 71 75 67 76 68 77 70 78
REMARK SMILES IDX 72 79 69 80 53 81 54 82 59 83 55 84 56 85 58 86 60 87 57 88
REMARK H PARENT 5 10 5 11 9 16 77 50 51 61
REMARK Flexibility Score: inf
ROOT
ATOM      1  C   UNL A   1      38.346  22.417  25.776  1.00  0.00     0.261 C 
ENDROOT
BRANCH   1   2
ATOM      2  O   UNL A   1      37.634  21.864  24.662  1.00  0.00    -0.459 OA
BRANCH   2   3
ATOM      3  C   UNL A   1      36.786  20.811  24.878  1.00  0.00     0.367 C 
ATOM      4  O   UNL A   1      37.157  19.652  25.015  1.00  0.00    -0.245 OA
BRANCH   3   5
ATOM      5  C   UNL A   1      35.297  21.287  24.936  1.00  0.00     0.191 C 
ATOM      6  C   UNL A   1      34.209  20.233  24.664  1.00  0.00     0.092 C 
BRANCH   5   7
ATOM      7  C   UNL A   1      35.077  21.742  26.415  1.00  0.00     0.077 C 
ATOM      8  C   UNL A   1      35.054  23.271  26.598  1.00  0.00     0.011 C 
ENDBRANCH   5   7
BRANCH   5   9
ATOM      9  N   UNL A   1      35.054  22.413  23.981  1.00  0.00    -0.325 N 
ATOM     10  H   UNL A   1      35.717  22.310  23.213  1.00  0.00     0.347 HD
ATOM     11  H   UNL A   1      35.165  23.258  24.543  1.00  0.00     0.347 HD
BRANCH   9  12
ATOM     12  C   UNL A   1      33.693  22.530  23.383  1.00  0.00     0.362 C 
BRANCH  12  13
ATOM     13  C   UNL A   1      33.516  23.609  22.302  1.00  0.00     0.275 C 
ATOM     14  O   UNL A   1      33.664  23.330  21.108  1.00  0.00    -0.268 OA
ATOM     15  N   UNL A   1      33.178  24.904  22.624  1.00  0.00    -0.345 N 
ATOM     16  H   UNL A   1      32.780  25.430  21.894  1.00  0.00     0.164 HD
BRANCH  15  17
ATOM     17  C   UNL A   1      33.326  25.608  23.893  1.00  0.00     0.109 C 
ATOM     18  C   UNL A   1      33.654  27.095  23.689  1.00  0.00     0.036 C 
BRANCH  17  19
ATOM     19  C   UNL A   1      32.142  25.534  24.836  1.00  0.00    -0.026 A 
ATOM     20  C   UNL A   1      31.071  26.424  24.613  1.00  0.00     0.009 A 
ATOM     21  C   UNL A   1      31.975  24.506  25.769  1.00  0.00     0.009 A 
ATOM     22  C   UNL A   1      29.878  26.317  25.319  1.00  0.00     0.039 A 
ATOM     23  C   UNL A   1      30.766  24.382  26.460  1.00  0.00     0.039 A 
ATOM     24  C   UNL A   1      29.734  25.287  26.233  1.00  0.00     0.123 A 
ATOM     25  F   UNL A   1      28.570  25.143  26.878  1.00  0.00    -0.207 F 
ENDBRANCH  17  19
ENDBRANCH  15  17
ENDBRANCH  12  13
ENDBRANCH   9  12
ENDBRANCH   5   9
ENDBRANCH   3   5
ENDBRANCH   2   3
ENDBRANCH   1   2
BRANCH   1  26
ATOM     26  C   UNL A   1      39.389  21.437  26.329  1.00  0.00     0.202 C 
BRANCH  26  27
ATOM     27  O   UNL A   1      40.597  21.300  25.588  1.00  0.00    -0.374 OA
BRANCH  27  28
ATOM     28  C   UNL A   1      41.665  20.594  26.213  1.00  0.00     0.202 C 
BRANCH  28  29
ATOM     29  C   UNL A   1      43.101  21.017  25.872  1.00  0.00     0.261 C 
BRANCH  29  30
ATOM     30  O   UNL A   1      43.519  22.272  26.439  1.00  0.00    -0.460 OA
BRANCH  30  31
ATOM     31  C   UNL A   1      43.291  23.350  25.646  1.00  0.00     0.338 C 
ATOM     32  O   UNL A   1      43.474  23.442  24.446  1.00  0.00    -0.246 OA
BRANCH  31  33
ATOM     33  C   UNL A   1      42.691  24.452  26.420  1.00  0.00     0.060 A 
ATOM     34  C   UNL A   1      43.287  25.718  26.349  1.00  0.00     0.016 A 
ATOM     35  C   UNL A   1      41.679  24.197  27.345  1.00  0.00     0.016 A 
ATOM     36  C   UNL A   1      42.893  26.725  27.232  1.00  0.00     0.010 A 
ATOM     37  C   UNL A   1      41.292  25.205  28.234  1.00  0.00     0.010 A 
ATOM     38  C   UNL A   1      41.918  26.465  28.204  1.00  0.00    -0.014 A 
BRANCH  38  39
ATOM     39  C   UNL A   1      41.612  27.463  29.259  1.00  0.00     0.031 A 
ATOM     40  C   UNL A   1      42.377  27.435  30.553  1.00  0.00     0.074 A 
ATOM     41  C   UNL A   1      40.635  28.371  29.078  1.00  0.00     0.049 A 
ATOM     42  N   UNL A   1      42.172  28.116  31.653  1.00  0.00    -0.248 NA
ATOM     43  C   UNL A   1      43.528  26.519  30.621  1.00  0.00     0.031 C 
ATOM     44  C   UNL A   1      39.853  28.533  27.854  1.00  0.00     0.029 A 
ATOM     45  N   UNL A   1      40.120  29.310  29.937  1.00  0.00    -0.354 N 
ATOM     46  C   UNL A   1      43.153  27.702  32.544  1.00  0.00     0.074 A 
ATOM     47  C   UNL A   1      43.951  26.705  31.864  1.00  0.00     0.031 C 
ATOM     48  C   UNL A   1      38.932  29.491  28.053  1.00  0.00     0.029 A 
ATOM     49  C   UNL A   1      39.033  29.978  29.428  1.00  0.00     0.049 A 
ATOM     50  H   UNL A   1      40.492  29.487  30.832  1.00  0.00     0.167 HD
ATOM     51  C   UNL A   1      43.365  28.118  33.814  1.00  0.00     0.037 A 
ATOM     52  C   UNL A   1      38.188  30.848  30.017  1.00  0.00     0.037 A 
ATOM     53  C   UNL A   1      42.583  29.122  34.484  1.00  0.00     0.049 A 
ATOM     54  C   UNL A   1      38.395  31.234  31.456  1.00  0.00     0.074 A 
ATOM     55  C   UNL A   1      42.758  29.640  35.756  1.00  0.00     0.029 A 
ATOM     56  N   UNL A   1      41.474  29.753  33.942  1.00  0.00    -0.354 N 
ATOM     57  N   UNL A   1      39.337  30.853  32.284  1.00  0.00    -0.248 NA
ATOM     58  C   UNL A   1      37.419  32.162  32.049  1.00  0.00     0.031 C 
ATOM     59  C   UNL A   1      41.726  30.549  36.003  1.00  0.00     0.029 A 
ATOM     60  C   UNL A   1      40.935  30.629  34.868  1.00  0.00     0.049 A 
ATOM     61  H   UNL A   1      41.123  29.600  33.036  1.00  0.00     0.167 HD
ATOM     62  C   UNL A   1      39.077  31.503  33.484  1.00  0.00     0.074 A 
ATOM     63  C   UNL A   1      37.895  32.311  33.278  1.00  0.00     0.031 C 
ATOM     64  C   UNL A   1      39.761  31.433  34.652  1.00  0.00     0.037 A 
BRANCH  51  65
ATOM     65  C   UNL A   1      44.482  27.487  34.589  1.00  0.00     0.057 A 
ATOM     66  C   UNL A   1      45.775  28.024  34.531  1.00  0.00     0.134 A 
ATOM     67  C   UNL A   1      44.307  26.291  35.293  1.00  0.00     0.134 A 
ATOM     68  F   UNL A   1      46.010  29.164  33.864  1.00  0.00    -0.206 F 
ATOM     69  C   UNL A   1      46.858  27.382  35.134  1.00  0.00     0.040 A 
ATOM     70  C   UNL A   1      45.378  25.649  35.914  1.00  0.00     0.040 A 
ATOM     71  F   UNL A   1      43.091  25.730  35.387  1.00  0.00    -0.206 F 
ATOM     72  C   UNL A   1      46.662  26.189  35.826  1.00  0.00     0.006 A 
ENDBRANCH  51  65
BRANCH  52  73
ATOM     73  C   UNL A   1      37.032  31.378  29.251  1.00  0.00     0.057 A 
ATOM     74  C   UNL A   1      37.056  32.665  28.699  1.00  0.00     0.134 A 
ATOM     75  C   UNL A   1      35.879  30.613  29.054  1.00  0.00     0.134 A 
ATOM     76  F   UNL A   1      38.135  33.447  28.852  1.00  0.00    -0.206 F 
ATOM     77  C   UNL A   1      35.968  33.180  27.995  1.00  0.00     0.040 A 
ATOM     78  C   UNL A   1      34.790  31.107  28.331  1.00  0.00     0.040 A 
ATOM     79  F   UNL A   1      35.807  29.363  29.535  1.00  0.00    -0.206 F 
ATOM     80  C   UNL A   1      34.831  32.397  27.806  1.00  0.00     0.006 A 
ENDBRANCH  52  73
BRANCH  64  81
ATOM     81  C   UNL A   1      39.272  32.257  35.806  1.00  0.00     0.057 A 
ATOM     82  C   UNL A   1      38.334  31.738  36.707  1.00  0.00     0.134 A 
ATOM     83  C   UNL A   1      39.646  33.597  35.955  1.00  0.00     0.134 A 
ATOM     84  F   UNL A   1      37.927  30.464  36.608  1.00  0.00    -0.206 F 
ATOM     85  C   UNL A   1      37.765  32.532  37.704  1.00  0.00     0.040 A 
ATOM     86  C   UNL A   1      39.098  34.396  36.962  1.00  0.00     0.040 A 
ATOM     87  F   UNL A   1      40.546  34.149  35.129  1.00  0.00    -0.206 F 
ATOM     88  C   UNL A   1      38.146  33.866  37.832  1.00  0.00     0.006 A 
ENDBRANCH  64  81
ENDBRANCH  38  39
ENDBRANCH  31  33
ENDBRANCH  30  31
ENDBRANCH  29  30
ENDBRANCH  28  29
ENDBRANCH  27  28
ENDBRANCH  26  27
ENDBRANCH   1  26
TORSDOF 20
ENDMDL
