MODEL 1
REMARK VINA RESULT:     -12.3      0.000      0.000
REMARK SMILES CC1(C)[C@H](C(=O)N(Cc2ccccc2)Cc2ccccc2)CC[C@@]1(C)C(=O)OCCOCCOC(=O)c1ccc(-c2c3nc(c(-c4c(F)cccc4F)c4ccc([nH]4)c(-c4c(F)cccc4F)c4nc(c(-c5c(F)cccc5F)c5ccc2[nH]5)C=C4)C=C3)cc1
REMARK SMILES IDX 30 1 29 2 28 3 26 4 27 5 24 6 1 7 2 8 3 9 4 10 22 11 23 12
REMARK SMILES IDX 25 13 5 14 6 15 7 16 8 17 9 18 10 19 14 20 11 21 13 22 12 23
REMARK SMILES IDX 15 24 16 25 17 26 21 27 18 28 20 29 19 30 31 31 32 32 33 33
REMARK SMILES IDX 34 34 35 35 36 36 37 37 38 38 90 39 39 40 89 41 40 42 41 43
REMARK SMILES IDX 42 44 83 45 43 46 88 47 82 48 84 49 44 50 87 51 81 52 80 53
REMARK SMILES IDX 45 55 71 56 54 57 70 58 55 59 58 60 69 61 85 62 56 63 57 64
REMARK SMILES IDX 68 66 86 67 59 68 46 69 47 70 52 71 48 72 49 73 51 74 53 75
REMARK SMILES IDX 50 76 72 77 73 78 78 79 74 80 75 81 77 82 79 83 76 84 60 85
REMARK SMILES IDX 61 86 66 87 62 88 63 89 65 90 67 91 64 92
REMARK H PARENT 84 54 58 65
REMARK Flexibility Score: inf
ROOT
ATOM      1  C   UNL A   1      40.888  21.251  27.073  1.00  0.00     0.202 C 
ENDROOT
BRANCH   1   2
ATOM      2  C   UNL A   1      39.982  22.086  26.162  1.00  0.00     0.261 C 
BRANCH   2   3
ATOM      3  O   UNL A   1      38.587  21.735  26.236  1.00  0.00    -0.463 OA
BRANCH   3   4
ATOM      4  C   UNL A   1      37.744  22.680  25.752  1.00  0.00     0.312 C 
ATOM      5  O   UNL A   1      37.848  23.871  26.034  1.00  0.00    -0.252 OA
BRANCH   4   6
ATOM      6  C   UNL A   1      36.586  22.123  24.895  1.00  0.00     0.071 C 
ATOM      7  C   UNL A   1      34.784  22.902  26.778  1.00  0.00     0.013 C 
ATOM      8  C   UNL A   1      35.062  22.286  25.397  1.00  0.00    -0.008 C 
ATOM      9  C   UNL A   1      34.376  20.927  25.492  1.00  0.00     0.013 C 
ATOM     10  C   UNL A   1      34.430  23.231  24.334  1.00  0.00     0.085 C 
ATOM     11  C   UNL A   1      35.212  23.056  23.050  1.00  0.00     0.015 C 
ATOM     12  C   UNL A   1      36.646  22.859  23.525  1.00  0.00     0.020 C 
ATOM     13  C   UNL A   1      36.993  20.641  24.631  1.00  0.00     0.024 C 
BRANCH  10  14
ATOM     14  C   UNL A   1      32.903  23.437  24.194  1.00  0.00     0.226 C 
ATOM     15  O   UNL A   1      32.343  22.620  23.441  1.00  0.00    -0.275 OA
ATOM     16  N   UNL A   1      32.139  24.427  24.810  1.00  0.00    -0.334 N 
BRANCH  16  17
ATOM     17  C   UNL A   1      32.438  25.082  26.109  1.00  0.00     0.155 C 
BRANCH  17  18
ATOM     18  C   UNL A   1      32.611  26.596  26.137  1.00  0.00    -0.029 A 
ATOM     19  C   UNL A   1      31.679  27.470  26.700  1.00  0.00     0.005 A 
ATOM     20  C   UNL A   1      33.761  27.179  25.567  1.00  0.00     0.005 A 
ATOM     21  C   UNL A   1      31.794  28.856  26.562  1.00  0.00     0.000 A 
ATOM     22  C   UNL A   1      33.873  28.564  25.403  1.00  0.00     0.000 A 
ATOM     23  C   UNL A   1      32.875  29.403  25.881  1.00  0.00     0.000 A 
ENDBRANCH  17  18
ENDBRANCH  16  17
BRANCH  16  24
ATOM     24  C   UNL A   1      30.727  24.492  24.365  1.00  0.00     0.155 C 
BRANCH  24  25
ATOM     25  C   UNL A   1      30.264  25.814  23.766  1.00  0.00    -0.029 A 
ATOM     26  C   UNL A   1      31.159  26.575  22.991  1.00  0.00     0.005 A 
ATOM     27  C   UNL A   1      29.002  26.366  24.027  1.00  0.00     0.005 A 
ATOM     28  C   UNL A   1      30.785  27.810  22.453  1.00  0.00     0.000 A 
ATOM     29  C   UNL A   1      28.631  27.608  23.503  1.00  0.00     0.000 A 
ATOM     30  C   UNL A   1      29.519  28.326  22.710  1.00  0.00     0.000 A 
ENDBRANCH  24  25
ENDBRANCH  16  24
ENDBRANCH  10  14
ENDBRANCH   4   6
ENDBRANCH   3   4
ENDBRANCH   2   3
ENDBRANCH   1   2
BRANCH   1  31
ATOM     31  O   UNL A   1      42.290  21.494  27.041  1.00  0.00    -0.374 OA
BRANCH  31  32
ATOM     32  C   UNL A   1      43.012  21.027  25.902  1.00  0.00     0.202 C 
BRANCH  32  33
ATOM     33  C   UNL A   1      44.085  21.971  25.330  1.00  0.00     0.261 C 
BRANCH  33  34
ATOM     34  O   UNL A   1      43.509  23.178  24.784  1.00  0.00    -0.460 OA
BRANCH  34  35
ATOM     35  C   UNL A   1      44.171  24.316  25.093  1.00  0.00     0.338 C 
ATOM     36  O   UNL A   1      45.239  24.697  24.626  1.00  0.00    -0.246 OA
BRANCH  35  37
ATOM     37  C   UNL A   1      43.331  25.201  25.921  1.00  0.00     0.060 A 
ATOM     38  C   UNL A   1      43.912  26.405  26.342  1.00  0.00     0.016 A 
ATOM     39  C   UNL A   1      42.054  24.843  26.363  1.00  0.00     0.016 A 
ATOM     40  C   UNL A   1      43.256  27.215  27.264  1.00  0.00     0.010 A 
ATOM     41  C   UNL A   1      41.398  25.660  27.298  1.00  0.00     0.010 A 
ATOM     42  C   UNL A   1      42.019  26.823  27.792  1.00  0.00    -0.014 A 
BRANCH  42  43
ATOM     43  C   UNL A   1      41.493  27.560  28.972  1.00  0.00     0.031 A 
ATOM     44  C   UNL A   1      42.226  27.463  30.286  1.00  0.00     0.074 A 
ATOM     45  C   UNL A   1      40.448  28.401  28.852  1.00  0.00     0.049 A 
ATOM     46  N   UNL A   1      42.002  28.096  31.410  1.00  0.00    -0.248 NA
ATOM     47  C   UNL A   1      43.368  26.538  30.337  1.00  0.00     0.031 C 
ATOM     48  C   UNL A   1      39.683  28.626  27.626  1.00  0.00     0.029 A 
ATOM     49  N   UNL A   1      39.864  29.238  29.771  1.00  0.00    -0.354 N 
ATOM     50  C   UNL A   1      42.969  27.642  32.300  1.00  0.00     0.074 A 
ATOM     51  C   UNL A   1      43.764  26.660  31.596  1.00  0.00     0.031 C 
ATOM     52  C   UNL A   1      38.739  29.553  27.867  1.00  0.00     0.029 A 
ATOM     53  C   UNL A   1      38.813  29.964  29.267  1.00  0.00     0.049 A 
ATOM     54  H   UNL A   1      40.170  29.310  30.704  1.00  0.00     0.167 HD
ATOM     55  C   UNL A   1      43.184  28.016  33.585  1.00  0.00     0.037 A 
ATOM     56  C   UNL A   1      37.999  30.854  29.869  1.00  0.00     0.037 A 
ATOM     57  C   UNL A   1      42.406  29.004  34.287  1.00  0.00     0.049 A 
ATOM     58  C   UNL A   1      38.216  31.196  31.321  1.00  0.00     0.074 A 
ATOM     59  C   UNL A   1      42.574  29.474  35.577  1.00  0.00     0.029 A 
ATOM     60  N   UNL A   1      41.307  29.665  33.760  1.00  0.00    -0.354 N 
ATOM     61  N   UNL A   1      39.160  30.792  32.135  1.00  0.00    -0.248 NA
ATOM     62  C   UNL A   1      37.253  32.123  31.934  1.00  0.00     0.031 C 
ATOM     63  C   UNL A   1      41.541  30.375  35.854  1.00  0.00     0.029 A 
ATOM     64  C   UNL A   1      40.765  30.511  34.715  1.00  0.00     0.049 A 
ATOM     65  H   UNL A   1      40.964  29.551  32.845  1.00  0.00     0.167 HD
ATOM     66  C   UNL A   1      38.923  31.437  33.344  1.00  0.00     0.074 A 
ATOM     67  C   UNL A   1      37.759  32.274  33.150  1.00  0.00     0.031 C 
ATOM     68  C   UNL A   1      39.608  31.345  34.510  1.00  0.00     0.037 A 
BRANCH  55  69
ATOM     69  C   UNL A   1      44.291  27.333  34.336  1.00  0.00     0.057 A 
ATOM     70  C   UNL A   1      45.562  27.905  34.472  1.00  0.00     0.134 A 
ATOM     71  C   UNL A   1      44.060  26.112  34.982  1.00  0.00     0.134 A 
ATOM     72  F   UNL A   1      45.853  29.068  33.869  1.00  0.00    -0.206 F 
ATOM     73  C   UNL A   1      46.568  27.279  35.211  1.00  0.00     0.040 A 
ATOM     74  C   UNL A   1      45.049  25.489  35.745  1.00  0.00     0.040 A 
ATOM     75  F   UNL A   1      42.862  25.512  34.898  1.00  0.00    -0.206 F 
ATOM     76  C   UNL A   1      46.309  26.072  35.857  1.00  0.00     0.006 A 
ENDBRANCH  55  69
BRANCH  56  77
ATOM     77  C   UNL A   1      36.884  31.484  29.113  1.00  0.00     0.057 A 
ATOM     78  C   UNL A   1      36.956  32.814  28.680  1.00  0.00     0.134 A 
ATOM     79  C   UNL A   1      35.698  30.787  28.851  1.00  0.00     0.134 A 
ATOM     80  F   UNL A   1      38.054  33.544  28.924  1.00  0.00    -0.206 F 
ATOM     81  C   UNL A   1      35.882  33.434  28.038  1.00  0.00     0.040 A 
ATOM     82  C   UNL A   1      34.628  31.385  28.185  1.00  0.00     0.040 A 
ATOM     83  F   UNL A   1      35.562  29.510  29.243  1.00  0.00    -0.206 F 
ATOM     84  C   UNL A   1      34.715  32.717  27.787  1.00  0.00     0.006 A 
ENDBRANCH  56  77
BRANCH  68  85
ATOM     85  C   UNL A   1      39.140  32.198  35.655  1.00  0.00     0.057 A 
ATOM     86  C   UNL A   1      38.262  31.711  36.633  1.00  0.00     0.134 A 
ATOM     87  C   UNL A   1      39.594  33.516  35.797  1.00  0.00     0.134 A 
ATOM     88  F   UNL A   1      37.779  30.461  36.551  1.00  0.00    -0.206 F 
ATOM     89  C   UNL A   1      37.827  32.513  37.689  1.00  0.00     0.040 A 
ATOM     90  C   UNL A   1      39.191  34.317  36.867  1.00  0.00     0.040 A 
ATOM     91  F   UNL A   1      40.446  34.044  34.904  1.00  0.00    -0.206 F 
ATOM     92  C   UNL A   1      38.298  33.819  37.812  1.00  0.00     0.006 A 
ENDBRANCH  68  85
ENDBRANCH  42  43
ENDBRANCH  35  37
ENDBRANCH  34  35
ENDBRANCH  33  34
ENDBRANCH  32  33
ENDBRANCH  31  32
ENDBRANCH   1  31
TORSDOF 19
ENDMDL
MODEL 2
REMARK VINA RESULT:     -12.1      0.389      5.912
REMARK SMILES CC1(C)[C@H](C(=O)N(Cc2ccccc2)Cc2ccccc2)CC[C@@]1(C)C(=O)OCCOCCOC(=O)c1ccc(-c2c3nc(c(-c4c(F)cccc4F)c4ccc([nH]4)c(-c4c(F)cccc4F)c4nc(c(-c5c(F)cccc5F)c5ccc2[nH]5)C=C4)C=C3)cc1
REMARK SMILES IDX 30 1 29 2 28 3 26 4 27 5 24 6 1 7 2 8 3 9 4 10 22 11 23 12
REMARK SMILES IDX 25 13 5 14 6 15 7 16 8 17 9 18 10 19 14 20 11 21 13 22 12 23
REMARK SMILES IDX 15 24 16 25 17 26 21 27 18 28 20 29 19 30 31 31 32 32 33 33
REMARK SMILES IDX 34 34 35 35 36 36 37 37 38 38 90 39 39 40 89 41 40 42 41 43
REMARK SMILES IDX 42 44 83 45 43 46 88 47 82 48 84 49 44 50 87 51 81 52 80 53
REMARK SMILES IDX 45 55 71 56 54 57 70 58 55 59 58 60 69 61 85 62 56 63 57 64
REMARK SMILES IDX 68 66 86 67 59 68 46 69 47 70 52 71 48 72 49 73 51 74 53 75
REMARK SMILES IDX 50 76 72 77 73 78 78 79 74 80 75 81 77 82 79 83 76 84 60 85
REMARK SMILES IDX 61 86 66 87 62 88 63 89 65 90 67 91 64 92
REMARK H PARENT 84 54 58 65
REMARK Flexibility Score: inf
ROOT
ATOM      1  C   UNL A   1      41.029  20.829  26.519  1.00  0.00     0.202 C 
ENDROOT
BRANCH   1   2
ATOM      2  C   UNL A   1      40.035  21.928  26.128  1.00  0.00     0.261 C 
BRANCH   2   3
ATOM      3  O   UNL A   1      38.655  21.516  26.169  1.00  0.00    -0.463 OA
BRANCH   3   4
ATOM      4  C   UNL A   1      37.773  22.466  25.774  1.00  0.00     0.312 C 
ATOM      5  O   UNL A   1      37.856  23.639  26.130  1.00  0.00    -0.252 OA
BRANCH   4   6
ATOM      6  C   UNL A   1      36.603  21.935  24.918  1.00  0.00     0.071 C 
ATOM      7  C   UNL A   1      34.826  22.688  26.833  1.00  0.00     0.013 C 
ATOM      8  C   UNL A   1      35.085  22.098  25.437  1.00  0.00    -0.008 C 
ATOM      9  C   UNL A   1      34.390  20.742  25.513  1.00  0.00     0.013 C 
ATOM     10  C   UNL A   1      34.450  23.068  24.400  1.00  0.00     0.085 C 
ATOM     11  C   UNL A   1      35.218  22.913  23.105  1.00  0.00     0.015 C 
ATOM     12  C   UNL A   1      36.655  22.697  23.561  1.00  0.00     0.020 C 
ATOM     13  C   UNL A   1      36.997  20.455  24.620  1.00  0.00     0.024 C 
BRANCH  10  14
ATOM     14  C   UNL A   1      32.923  23.287  24.279  1.00  0.00     0.226 C 
ATOM     15  O   UNL A   1      32.339  22.443  23.576  1.00  0.00    -0.275 OA
ATOM     16  N   UNL A   1      32.183  24.315  24.862  1.00  0.00    -0.334 N 
BRANCH  16  17
ATOM     17  C   UNL A   1      32.515  25.026  26.122  1.00  0.00     0.155 C 
BRANCH  17  18
ATOM     18  C   UNL A   1      32.621  26.547  26.093  1.00  0.00    -0.029 A 
ATOM     19  C   UNL A   1      31.755  27.394  26.786  1.00  0.00     0.005 A 
ATOM     20  C   UNL A   1      33.634  27.162  25.330  1.00  0.00     0.005 A 
ATOM     21  C   UNL A   1      31.782  28.780  26.605  1.00  0.00     0.000 A 
ATOM     22  C   UNL A   1      33.654  28.546  25.124  1.00  0.00     0.000 A 
ATOM     23  C   UNL A   1      32.710  29.354  25.745  1.00  0.00     0.000 A 
ENDBRANCH  17  18
ENDBRANCH  16  17
BRANCH  16  24
ATOM     24  C   UNL A   1      30.764  24.378  24.441  1.00  0.00     0.155 C 
BRANCH  24  25
ATOM     25  C   UNL A   1      30.292  25.695  23.838  1.00  0.00    -0.029 A 
ATOM     26  C   UNL A   1      31.106  26.361  22.904  1.00  0.00     0.005 A 
ATOM     27  C   UNL A   1      29.111  26.335  24.243  1.00  0.00     0.005 A 
ATOM     28  C   UNL A   1      30.725  27.589  22.355  1.00  0.00     0.000 A 
ATOM     29  C   UNL A   1      28.736  27.571  23.706  1.00  0.00     0.000 A 
ATOM     30  C   UNL A   1      29.539  28.194  22.756  1.00  0.00     0.000 A 
ENDBRANCH  24  25
ENDBRANCH  16  24
ENDBRANCH  10  14
ENDBRANCH   4   6
ENDBRANCH   3   4
ENDBRANCH   2   3
ENDBRANCH   1   2
BRANCH   1  31
ATOM     31  O   UNL A   1      42.384  21.195  26.754  1.00  0.00    -0.374 OA
BRANCH  31  32
ATOM     32  C   UNL A   1      43.340  20.860  25.749  1.00  0.00     0.202 C 
BRANCH  32  33
ATOM     33  C   UNL A   1      43.839  22.013  24.859  1.00  0.00     0.261 C 
BRANCH  33  34
ATOM     34  O   UNL A   1      43.029  23.200  25.004  1.00  0.00    -0.460 OA
BRANCH  34  35
ATOM     35  C   UNL A   1      43.722  24.341  25.215  1.00  0.00     0.338 C 
ATOM     36  O   UNL A   1      44.735  24.707  24.628  1.00  0.00    -0.246 OA
BRANCH  35  37
ATOM     37  C   UNL A   1      42.978  25.248  26.110  1.00  0.00     0.060 A 
ATOM     38  C   UNL A   1      43.481  26.548  26.244  1.00  0.00     0.016 A 
ATOM     39  C   UNL A   1      41.884  24.832  26.873  1.00  0.00     0.016 A 
ATOM     40  C   UNL A   1      42.946  27.412  27.195  1.00  0.00     0.010 A 
ATOM     41  C   UNL A   1      41.350  25.704  27.836  1.00  0.00     0.010 A 
ATOM     42  C   UNL A   1      41.912  26.979  28.037  1.00  0.00    -0.014 A 
BRANCH  42  43
ATOM     43  C   UNL A   1      41.567  27.819  29.215  1.00  0.00     0.031 A 
ATOM     44  C   UNL A   1      40.357  28.715  29.151  1.00  0.00     0.074 A 
ATOM     45  C   UNL A   1      42.248  27.700  30.371  1.00  0.00     0.049 A 
ATOM     46  N   UNL A   1      39.819  29.454  30.089  1.00  0.00    -0.248 NA
ATOM     47  C   UNL A   1      39.652  28.781  27.861  1.00  0.00     0.031 C 
ATOM     48  C   UNL A   1      43.407  26.834  30.582  1.00  0.00     0.029 A 
ATOM     49  N   UNL A   1      42.049  28.298  31.591  1.00  0.00    -0.354 N 
ATOM     50  C   UNL A   1      38.721  30.073  29.503  1.00  0.00     0.074 A 
ATOM     51  C   UNL A   1      38.684  29.647  28.121  1.00  0.00     0.031 C 
ATOM     52  C   UNL A   1      43.806  26.945  31.861  1.00  0.00     0.029 A 
ATOM     53  C   UNL A   1      42.953  27.910  32.550  1.00  0.00     0.049 A 
ATOM     54  H   UNL A   1      41.326  28.944  31.762  1.00  0.00     0.167 HD
ATOM     55  C   UNL A   1      37.818  30.912  30.066  1.00  0.00     0.037 A 
ATOM     56  C   UNL A   1      43.081  28.297  33.835  1.00  0.00     0.037 A 
ATOM     57  C   UNL A   1      37.840  31.326  31.445  1.00  0.00     0.049 A 
ATOM     58  C   UNL A   1      42.104  29.288  34.414  1.00  0.00     0.074 A 
ATOM     59  C   UNL A   1      36.944  32.144  32.112  1.00  0.00     0.029 A 
ATOM     60  N   UNL A   1      38.812  30.964  32.363  1.00  0.00    -0.354 N 
ATOM     61  N   UNL A   1      41.047  29.831  33.860  1.00  0.00    -0.248 NA
ATOM     62  C   UNL A   1      42.340  29.717  35.800  1.00  0.00     0.031 C 
ATOM     63  C   UNL A   1      37.408  32.326  33.419  1.00  0.00     0.029 A 
ATOM     64  C   UNL A   1      38.559  31.573  33.582  1.00  0.00     0.049 A 
ATOM     65  H   UNL A   1      39.570  30.364  32.178  1.00  0.00     0.167 HD
ATOM     66  C   UNL A   1      40.476  30.638  34.838  1.00  0.00     0.074 A 
ATOM     67  C   UNL A   1      41.293  30.499  36.024  1.00  0.00     0.031 C 
ATOM     68  C   UNL A   1      39.375  31.424  34.760  1.00  0.00     0.037 A 
BRANCH  55  69
ATOM     69  C   UNL A   1      36.736  31.468  29.185  1.00  0.00     0.057 A 
ATOM     70  C   UNL A   1      35.625  30.708  28.800  1.00  0.00     0.134 A 
ATOM     71  C   UNL A   1      36.782  32.804  28.765  1.00  0.00     0.134 A 
ATOM     72  F   UNL A   1      35.524  29.419  29.157  1.00  0.00    -0.206 F 
ATOM     73  C   UNL A   1      34.604  31.253  28.016  1.00  0.00     0.040 A 
ATOM     74  C   UNL A   1      35.756  33.368  28.005  1.00  0.00     0.040 A 
ATOM     75  F   UNL A   1      37.815  33.590  29.105  1.00  0.00    -0.206 F 
ATOM     76  C   UNL A   1      34.666  32.589  27.624  1.00  0.00     0.006 A 
ENDBRANCH  55  69
BRANCH  56  77
ATOM     77  C   UNL A   1      44.187  27.762  34.674  1.00  0.00     0.057 A 
ATOM     78  C   UNL A   1      44.021  26.609  35.451  1.00  0.00     0.134 A 
ATOM     79  C   UNL A   1      45.419  28.422  34.758  1.00  0.00     0.134 A 
ATOM     80  F   UNL A   1      42.854  25.947  35.435  1.00  0.00    -0.206 F 
ATOM     81  C   UNL A   1      45.028  26.146  36.299  1.00  0.00     0.040 A 
ATOM     82  C   UNL A   1      46.445  27.954  35.580  1.00  0.00     0.040 A 
ATOM     83  F   UNL A   1      45.642  29.535  34.043  1.00  0.00    -0.206 F 
ATOM     84  C   UNL A   1      46.247  26.819  36.362  1.00  0.00     0.006 A 
ENDBRANCH  56  77
BRANCH  68  85
ATOM     85  C   UNL A   1      38.966  32.165  36.001  1.00  0.00     0.057 A 
ATOM     86  C   UNL A   1      38.161  31.578  36.986  1.00  0.00     0.134 A 
ATOM     87  C   UNL A   1      39.406  33.477  36.227  1.00  0.00     0.134 A 
ATOM     88  F   UNL A   1      37.695  30.329  36.827  1.00  0.00    -0.206 F 
ATOM     89  C   UNL A   1      37.780  32.277  38.133  1.00  0.00     0.040 A 
ATOM     90  C   UNL A   1      39.058  34.175  37.385  1.00  0.00     0.040 A 
ATOM     91  F   UNL A   1      40.190  34.097  35.333  1.00  0.00    -0.206 F 
ATOM     92  C   UNL A   1      38.236  33.578  38.338  1.00  0.00     0.006 A 
ENDBRANCH  68  85
ENDBRANCH  42  43
ENDBRANCH  35  37
ENDBRANCH  34  35
ENDBRANCH  33  34
ENDBRANCH  32  33
ENDBRANCH  31  32
ENDBRANCH   1  31
TORSDOF 19
ENDMDL
MODEL 3
REMARK VINA RESULT:     -12.0      2.744      8.291
REMARK SMILES CC1(C)[C@H](C(=O)N(Cc2ccccc2)Cc2ccccc2)CC[C@@]1(C)C(=O)OCCOCCOC(=O)c1ccc(-c2c3nc(c(-c4c(F)cccc4F)c4ccc([nH]4)c(-c4c(F)cccc4F)c4nc(c(-c5c(F)cccc5F)c5ccc2[nH]5)C=C4)C=C3)cc1
REMARK SMILES IDX 30 1 29 2 28 3 26 4 27 5 24 6 1 7 2 8 3 9 4 10 22 11 23 12
REMARK SMILES IDX 25 13 5 14 6 15 7 16 8 17 9 18 10 19 14 20 11 21 13 22 12 23
REMARK SMILES IDX 15 24 16 25 17 26 21 27 18 28 20 29 19 30 31 31 32 32 33 33
REMARK SMILES IDX 34 34 35 35 36 36 37 37 38 38 90 39 39 40 89 41 40 42 41 43
REMARK SMILES IDX 42 44 83 45 43 46 88 47 82 48 84 49 44 50 87 51 81 52 80 53
REMARK SMILES IDX 45 55 71 56 54 57 70 58 55 59 58 60 69 61 85 62 56 63 57 64
REMARK SMILES IDX 68 66 86 67 59 68 46 69 47 70 52 71 48 72 49 73 51 74 53 75
REMARK SMILES IDX 50 76 72 77 73 78 78 79 74 80 75 81 77 82 79 83 76 84 60 85
REMARK SMILES IDX 61 86 66 87 62 88 63 89 65 90 67 91 64 92
REMARK H PARENT 84 54 58 65
REMARK Flexibility Score: inf
ROOT
ATOM      1  C   UNL A   1      33.372  29.310  25.857  1.00  0.00     0.202 C 
ENDROOT
BRANCH   1   2
ATOM      2  C   UNL A   1      33.867  28.758  24.516  1.00  0.00     0.261 C 
BRANCH   2   3
ATOM      3  O   UNL A   1      33.478  27.395  24.260  1.00  0.00    -0.463 OA
BRANCH   3   4
ATOM      4  C   UNL A   1      32.236  27.255  23.734  1.00  0.00     0.312 C 
ATOM      5  O   UNL A   1      31.775  28.033  22.903  1.00  0.00    -0.252 OA
BRANCH   4   6
ATOM      6  C   UNL A   1      31.417  26.093  24.335  1.00  0.00     0.071 C 
ATOM      7  C   UNL A   1      32.842  24.297  22.872  1.00  0.00     0.013 C 
ATOM      8  C   UNL A   1      31.764  24.569  23.935  1.00  0.00    -0.008 C 
ATOM      9  C   UNL A   1      30.539  23.869  23.355  1.00  0.00     0.013 C 
ATOM     10  C   UNL A   1      32.265  23.948  25.271  1.00  0.00     0.085 C 
ATOM     11  C   UNL A   1      31.628  24.730  26.399  1.00  0.00     0.015 C 
ATOM     12  C   UNL A   1      31.605  26.161  25.879  1.00  0.00     0.020 C 
ATOM     13  C   UNL A   1      29.936  26.485  24.041  1.00  0.00     0.024 C 
BRANCH  10  14
ATOM     14  C   UNL A   1      32.419  22.424  25.483  1.00  0.00     0.226 C 
ATOM     15  O   UNL A   1      31.389  21.856  25.887  1.00  0.00    -0.275 OA
ATOM     16  N   UNL A   1      33.573  21.669  25.275  1.00  0.00    -0.334 N 
BRANCH  16  17
ATOM     17  C   UNL A   1      34.655  21.975  24.306  1.00  0.00     0.155 C 
BRANCH  17  18
ATOM     18  C   UNL A   1      36.044  22.299  24.844  1.00  0.00    -0.029 A 
ATOM     19  C   UNL A   1      37.085  21.370  24.907  1.00  0.00     0.005 A 
ATOM     20  C   UNL A   1      36.324  23.597  25.318  1.00  0.00     0.005 A 
ATOM     21  C   UNL A   1      38.289  21.659  25.555  1.00  0.00     0.000 A 
ATOM     22  C   UNL A   1      37.518  23.888  25.989  1.00  0.00     0.000 A 
ATOM     23  C   UNL A   1      38.492  22.908  26.128  1.00  0.00     0.000 A 
ENDBRANCH  17  18
ENDBRANCH  16  17
BRANCH  16  24
ATOM     24  C   UNL A   1      33.484  20.259  25.720  1.00  0.00     0.155 C 
BRANCH  24  25
ATOM     25  C   UNL A   1      33.499  19.199  24.626  1.00  0.00    -0.029 A 
ATOM     26  C   UNL A   1      32.449  19.154  23.690  1.00  0.00     0.005 A 
ATOM     27  C   UNL A   1      34.473  18.192  24.558  1.00  0.00     0.005 A 
ATOM     28  C   UNL A   1      32.408  18.175  22.693  1.00  0.00     0.000 A 
ATOM     29  C   UNL A   1      34.425  17.203  23.570  1.00  0.00     0.000 A 
ATOM     30  C   UNL A   1      33.397  17.199  22.633  1.00  0.00     0.000 A 
ENDBRANCH  24  25
ENDBRANCH  16  24
ENDBRANCH  10  14
ENDBRANCH   4   6
ENDBRANCH   3   4
ENDBRANCH   2   3
ENDBRANCH   1   2
BRANCH   1  31
ATOM     31  O   UNL A   1      32.938  30.665  25.912  1.00  0.00    -0.374 OA
BRANCH  31  32
ATOM     32  C   UNL A   1      31.716  30.935  26.598  1.00  0.00     0.202 C 
BRANCH  32  33
ATOM     33  C   UNL A   1      31.483  32.390  27.046  1.00  0.00     0.261 C 
BRANCH  33  34
ATOM     34  O   UNL A   1      32.672  33.198  26.905  1.00  0.00    -0.460 OA
BRANCH  34  35
ATOM     35  C   UNL A   1      33.238  33.589  28.068  1.00  0.00     0.338 C 
ATOM     36  O   UNL A   1      32.712  34.251  28.957  1.00  0.00    -0.246 OA
BRANCH  35  37
ATOM     37  C   UNL A   1      34.537  32.921  28.270  1.00  0.00     0.060 A 
ATOM     38  C   UNL A   1      34.499  31.607  28.756  1.00  0.00     0.016 A 
ATOM     39  C   UNL A   1      35.761  33.569  28.088  1.00  0.00     0.016 A 
ATOM     40  C   UNL A   1      35.674  30.967  29.138  1.00  0.00     0.010 A 
ATOM     41  C   UNL A   1      36.945  32.922  28.479  1.00  0.00     0.010 A 
ATOM     42  C   UNL A   1      36.901  31.637  29.054  1.00  0.00    -0.014 A 
BRANCH  42  43
ATOM     43  C   UNL A   1      38.080  31.033  29.731  1.00  0.00     0.031 A 
ATOM     44  C   UNL A   1      38.330  31.340  31.185  1.00  0.00     0.074 A 
ATOM     45  C   UNL A   1      38.851  30.128  29.098  1.00  0.00     0.049 A 
ATOM     46  N   UNL A   1      39.235  30.848  31.994  1.00  0.00    -0.248 NA
ATOM     47  C   UNL A   1      37.437  32.324  31.815  1.00  0.00     0.031 C 
ATOM     48  C   UNL A   1      38.687  29.705  27.708  1.00  0.00     0.029 A 
ATOM     49  N   UNL A   1      39.915  29.388  29.551  1.00  0.00    -0.354 N 
ATOM     50  C   UNL A   1      39.023  31.466  33.222  1.00  0.00     0.074 A 
ATOM     51  C   UNL A   1      37.923  32.389  33.046  1.00  0.00     0.031 C 
ATOM     52  C   UNL A   1      39.609  28.768  27.427  1.00  0.00     0.029 A 
ATOM     53  C   UNL A   1      40.446  28.546  28.604  1.00  0.00     0.049 A 
ATOM     54  H   UNL A   1      40.265  29.455  30.469  1.00  0.00     0.167 HD
ATOM     55  C   UNL A   1      39.676  31.275  34.393  1.00  0.00     0.037 A 
ATOM     56  C   UNL A   1      41.492  27.700  28.677  1.00  0.00     0.037 A 
ATOM     57  C   UNL A   1      40.761  30.346  34.579  1.00  0.00     0.049 A 
ATOM     58  C   UNL A   1      42.247  27.562  29.974  1.00  0.00     0.074 A 
ATOM     59  C   UNL A   1      41.459  30.058  35.739  1.00  0.00     0.029 A 
ATOM     60  N   UNL A   1      41.312  29.563  33.576  1.00  0.00    -0.354 N 
ATOM     61  N   UNL A   1      42.008  28.120  31.136  1.00  0.00    -0.248 NA
ATOM     62  C   UNL A   1      43.418  26.673  29.967  1.00  0.00     0.031 C 
ATOM     63  C   UNL A   1      42.472  29.146  35.426  1.00  0.00     0.029 A 
ATOM     64  C   UNL A   1      42.366  28.821  34.084  1.00  0.00     0.049 A 
ATOM     65  H   UNL A   1      41.001  29.539  32.643  1.00  0.00     0.167 HD
ATOM     66  C   UNL A   1      42.976  27.625  32.003  1.00  0.00     0.074 A 
ATOM     67  C   UNL A   1      43.794  26.708  31.238  1.00  0.00     0.031 C 
ATOM     68  C   UNL A   1      43.171  27.905  33.315  1.00  0.00     0.037 A 
BRANCH  55  69
ATOM     69  C   UNL A   1      39.259  32.108  35.571  1.00  0.00     0.057 A 
ATOM     70  C   UNL A   1      39.705  33.423  35.748  1.00  0.00     0.134 A 
ATOM     71  C   UNL A   1      38.349  31.603  36.508  1.00  0.00     0.134 A 
ATOM     72  F   UNL A   1      40.586  33.965  34.894  1.00  0.00    -0.206 F 
ATOM     73  C   UNL A   1      39.273  34.201  36.825  1.00  0.00     0.040 A 
ATOM     74  C   UNL A   1      37.889  32.378  37.574  1.00  0.00     0.040 A 
ATOM     75  F   UNL A   1      37.876  30.352  36.394  1.00  0.00    -0.206 F 
ATOM     76  C   UNL A   1      38.356  33.680  37.737  1.00  0.00     0.006 A 
ENDBRANCH  55  69
BRANCH  56  77
ATOM     77  C   UNL A   1      41.910  26.917  27.483  1.00  0.00     0.057 A 
ATOM     78  C   UNL A   1      41.457  25.609  27.274  1.00  0.00     0.134 A 
ATOM     79  C   UNL A   1      42.815  27.441  26.552  1.00  0.00     0.134 A 
ATOM     80  F   UNL A   1      40.610  25.041  28.144  1.00  0.00    -0.206 F 
ATOM     81  C   UNL A   1      41.906  24.843  26.197  1.00  0.00     0.040 A 
ATOM     82  C   UNL A   1      43.251  26.697  25.455  1.00  0.00     0.040 A 
ATOM     83  F   UNL A   1      43.292  28.687  26.697  1.00  0.00    -0.206 F 
ATOM     84  C   UNL A   1      42.804  25.389  25.282  1.00  0.00     0.006 A 
ENDBRANCH  56  77
BRANCH  68  85
ATOM     85  C   UNL A   1      44.287  27.186  34.017  1.00  0.00     0.057 A 
ATOM     86  C   UNL A   1      45.577  27.726  34.110  1.00  0.00     0.134 A 
ATOM     87  C   UNL A   1      44.063  25.946  34.630  1.00  0.00     0.134 A 
ATOM     88  F   UNL A   1      45.863  28.905  33.534  1.00  0.00    -0.206 F 
ATOM     89  C   UNL A   1      46.610  27.046  34.757  1.00  0.00     0.040 A 
ATOM     90  C   UNL A   1      45.080  25.271  35.308  1.00  0.00     0.040 A 
ATOM     91  F   UNL A   1      42.850  25.374  34.591  1.00  0.00    -0.206 F 
ATOM     92  C   UNL A   1      46.360  25.817  35.365  1.00  0.00     0.006 A 
ENDBRANCH  68  85
ENDBRANCH  42  43
ENDBRANCH  35  37
ENDBRANCH  34  35
ENDBRANCH  33  34
ENDBRANCH  32  33
ENDBRANCH  31  32
ENDBRANCH   1  31
TORSDOF 19
ENDMDL
