MODEL 1
REMARK VINA RESULT:     -10.0      0.000      0.000
REMARK SMILES CCC(CC)[C@@H](C(=O)OCCOCCOC(=O)c1ccc(-c2c3nc(c(-c4c(F)cccc4F)c4ccc([nH]4)c(-c4c(F)cccc4F)c4nc(c(-c5c(F)cccc5F)c5ccc2[nH]5)C=C4)C=C3)cc1)S(=O)(=O)c1cccc(OC)c1
REMARK SMILES IDX 11 1 10 2 9 3 7 4 8 5 6 6 3 7 2 8 1 9 4 10 5 11 72 12 73 13
REMARK SMILES IDX 74 14 75 15 76 16 82 17 77 18 79 19 78 20 80 21 81 22 12 23
REMARK SMILES IDX 13 24 14 25 15 26 16 27 17 28 18 29 19 30 71 31 20 32 70 33
REMARK SMILES IDX 21 34 22 35 23 36 64 37 24 38 69 39 63 40 65 41 25 42 68 43
REMARK SMILES IDX 62 44 61 45 26 47 52 48 35 49 51 50 36 51 39 52 50 53 66 54
REMARK SMILES IDX 37 55 38 56 49 58 67 59 40 60 27 61 28 62 33 63 29 64 30 65
REMARK SMILES IDX 32 66 34 67 31 68 53 69 54 70 59 71 55 72 56 73 58 74 60 75
REMARK SMILES IDX 57 76 41 77 42 78 47 79 43 80 44 81 46 82 48 83 45 84
REMARK H PARENT 65 46 39 57
REMARK Flexibility Score: inf
ROOT
ATOM      1  C   UNL A   1      31.965  29.112  25.920  1.00  0.00     0.202 C 
ENDROOT
BRANCH   1   2
ATOM      2  C   UNL A   1      31.422  29.322  24.497  1.00  0.00     0.261 C 
BRANCH   2   3
ATOM      3  O   UNL A   1      32.021  28.406  23.550  1.00  0.00    -0.462 OA
BRANCH   3   4
ATOM      4  C   UNL A   1      31.185  27.873  22.618  1.00  0.00     0.325 C 
ATOM      5  O   UNL A   1      30.396  28.567  21.995  1.00  0.00    -0.251 OA
BRANCH   4   6
ATOM      6  C   UNL A   1      31.381  26.364  22.455  1.00  0.00     0.226 C 
BRANCH   6   7
ATOM      7  C   UNL A   1      30.974  25.437  23.679  1.00  0.00     0.018 C 
BRANCH   7   8
ATOM      8  C   UNL A   1      29.819  25.994  24.566  1.00  0.00     0.002 C 
ATOM      9  C   UNL A   1      29.951  25.705  26.063  1.00  0.00     0.004 C 
ENDBRANCH   7   8
BRANCH   7  10
ATOM     10  C   UNL A   1      30.639  23.972  23.274  1.00  0.00     0.002 C 
ATOM     11  C   UNL A   1      31.235  22.900  24.174  1.00  0.00     0.004 C 
ENDBRANCH   7  10
ENDBRANCH   6   7
BRANCH   6  12
ATOM     12  S   UNL A   1      33.136  26.161  21.949  1.00  0.00     0.192 S 
ATOM     13  O   UNL A   1      33.214  25.294  20.787  1.00  0.00    -0.223 OA
ATOM     14  O   UNL A   1      33.768  27.463  21.839  1.00  0.00    -0.223 OA
BRANCH  12  15
ATOM     15  C   UNL A   1      33.947  25.263  23.277  1.00  0.00     0.071 A 
ATOM     16  C   UNL A   1      34.007  25.837  24.552  1.00  0.00     0.020 A 
ATOM     17  C   UNL A   1      34.451  23.973  23.056  1.00  0.00     0.066 A 
ATOM     18  C   UNL A   1      34.647  25.162  25.588  1.00  0.00     0.005 A 
ATOM     19  C   UNL A   1      35.072  23.287  24.105  1.00  0.00     0.120 A 
ATOM     20  C   UNL A   1      35.182  23.896  25.360  1.00  0.00     0.046 A 
BRANCH  19  21
ATOM     21  O   UNL A   1      35.628  22.040  24.042  1.00  0.00    -0.497 OA
ATOM     22  C   UNL A   1      36.962  21.901  24.514  1.00  0.00     0.278 C 
ENDBRANCH  19  21
ENDBRANCH  12  15
ENDBRANCH   6  12
ENDBRANCH   4   6
ENDBRANCH   3   4
ENDBRANCH   2   3
ENDBRANCH   1   2
BRANCH   1  23
ATOM     23  O   UNL A   1      32.645  30.229  26.499  1.00  0.00    -0.374 OA
BRANCH  23  24
ATOM     24  C   UNL A   1      33.855  29.956  27.201  1.00  0.00     0.202 C 
BRANCH  24  25
ATOM     25  C   UNL A   1      34.524  31.143  27.891  1.00  0.00     0.261 C 
BRANCH  25  26
ATOM     26  O   UNL A   1      35.349  30.696  28.974  1.00  0.00    -0.460 OA
BRANCH  26  27
ATOM     27  C   UNL A   1      36.514  31.374  29.064  1.00  0.00     0.338 C 
ATOM     28  O   UNL A   1      36.665  32.553  29.357  1.00  0.00    -0.246 OA
BRANCH  27  29
ATOM     29  C   UNL A   1      37.654  30.459  28.902  1.00  0.00     0.060 A 
ATOM     30  C   UNL A   1      38.419  30.210  30.046  1.00  0.00     0.016 A 
ATOM     31  C   UNL A   1      38.022  29.923  27.664  1.00  0.00     0.016 A 
ATOM     32  C   UNL A   1      39.615  29.517  29.939  1.00  0.00     0.010 A 
ATOM     33  C   UNL A   1      39.225  29.219  27.558  1.00  0.00     0.010 A 
ATOM     34  C   UNL A   1      40.053  29.074  28.684  1.00  0.00    -0.014 A 
BRANCH  34  35
ATOM     35  C   UNL A   1      41.470  28.666  28.553  1.00  0.00     0.031 A 
ATOM     36  C   UNL A   1      41.777  27.234  28.207  1.00  0.00     0.074 A 
ATOM     37  C   UNL A   1      42.453  29.580  28.619  1.00  0.00     0.049 A 
ATOM     38  N   UNL A   1      42.926  26.676  27.927  1.00  0.00    -0.248 NA
ATOM     39  C   UNL A   1      40.633  26.307  28.166  1.00  0.00     0.031 C 
ATOM     40  C   UNL A   1      42.267  31.000  28.910  1.00  0.00     0.029 A 
ATOM     41  N   UNL A   1      43.802  29.447  28.420  1.00  0.00    -0.354 N 
ATOM     42  C   UNL A   1      42.643  25.339  27.673  1.00  0.00     0.074 A 
ATOM     43  C   UNL A   1      41.223  25.158  27.874  1.00  0.00     0.031 C 
ATOM     44  C   UNL A   1      43.463  31.613  28.860  1.00  0.00     0.029 A 
ATOM     45  C   UNL A   1      44.493  30.626  28.547  1.00  0.00     0.049 A 
ATOM     46  H   UNL A   1      44.235  28.588  28.207  1.00  0.00     0.167 HD
ATOM     47  C   UNL A   1      43.488  24.354  27.287  1.00  0.00     0.037 A 
ATOM     48  C   UNL A   1      45.810  30.875  28.417  1.00  0.00     0.037 A 
ATOM     49  C   UNL A   1      44.898  24.539  27.081  1.00  0.00     0.049 A 
ATOM     50  C   UNL A   1      46.735  29.753  28.031  1.00  0.00     0.074 A 
ATOM     51  C   UNL A   1      45.842  23.609  26.681  1.00  0.00     0.029 A 
ATOM     52  N   UNL A   1      45.569  25.738  27.261  1.00  0.00    -0.354 N 
ATOM     53  N   UNL A   1      46.453  28.500  27.766  1.00  0.00    -0.248 NA
ATOM     54  C   UNL A   1      48.161  30.085  27.912  1.00  0.00     0.031 C 
ATOM     55  C   UNL A   1      47.092  24.238  26.660  1.00  0.00     0.029 A 
ATOM     56  C   UNL A   1      46.918  25.570  27.001  1.00  0.00     0.049 A 
ATOM     57  H   UNL A   1      45.147  26.585  27.534  1.00  0.00     0.167 HD
ATOM     58  C   UNL A   1      47.659  27.901  27.426  1.00  0.00     0.074 A 
ATOM     59  C   UNL A   1      48.671  28.933  27.500  1.00  0.00     0.031 C 
ATOM     60  C   UNL A   1      47.908  26.613  27.082  1.00  0.00     0.037 A 
BRANCH  47  61
ATOM     61  C   UNL A   1      42.902  22.987  27.085  1.00  0.00     0.057 A 
ATOM     62  C   UNL A   1      42.587  22.149  28.163  1.00  0.00     0.134 A 
ATOM     63  C   UNL A   1      42.637  22.509  25.796  1.00  0.00     0.134 A 
ATOM     64  F   UNL A   1      42.834  22.540  29.423  1.00  0.00    -0.206 F 
ATOM     65  C   UNL A   1      42.051  20.875  27.965  1.00  0.00     0.040 A 
ATOM     66  C   UNL A   1      42.079  21.247  25.586  1.00  0.00     0.040 A 
ATOM     67  F   UNL A   1      42.916  23.261  24.721  1.00  0.00    -0.206 F 
ATOM     68  C   UNL A   1      41.790  20.424  26.672  1.00  0.00     0.006 A 
ENDBRANCH  47  61
BRANCH  48  69
ATOM     69  C   UNL A   1      46.331  32.245  28.648  1.00  0.00     0.057 A 
ATOM     70  C   UNL A   1      46.712  32.674  29.924  1.00  0.00     0.134 A 
ATOM     71  C   UNL A   1      46.443  33.164  27.597  1.00  0.00     0.134 A 
ATOM     72  F   UNL A   1      46.610  31.847  30.974  1.00  0.00    -0.206 F 
ATOM     73  C   UNL A   1      47.170  33.974  30.151  1.00  0.00     0.040 A 
ATOM     74  C   UNL A   1      46.920  34.458  27.805  1.00  0.00     0.040 A 
ATOM     75  F   UNL A   1      46.096  32.812  26.350  1.00  0.00    -0.206 F 
ATOM     76  C   UNL A   1      47.278  34.869  29.088  1.00  0.00     0.006 A 
ENDBRANCH  48  69
BRANCH  60  77
ATOM     77  C   UNL A   1      49.326  26.262  26.736  1.00  0.00     0.057 A 
ATOM     78  C   UNL A   1      50.211  25.741  27.689  1.00  0.00     0.134 A 
ATOM     79  C   UNL A   1      49.804  26.427  25.430  1.00  0.00     0.134 A 
ATOM     80  F   UNL A   1      49.817  25.570  28.960  1.00  0.00    -0.206 F 
ATOM     81  C   UNL A   1      51.530  25.426  27.362  1.00  0.00     0.040 A 
ATOM     82  C   UNL A   1      51.112  26.091  25.085  1.00  0.00     0.040 A 
ATOM     83  F   UNL A   1      49.004  26.911  24.468  1.00  0.00    -0.206 F 
ATOM     84  C   UNL A   1      51.983  25.596  26.054  1.00  0.00     0.006 A 
ENDBRANCH  60  77
ENDBRANCH  34  35
ENDBRANCH  27  29
ENDBRANCH  26  27
ENDBRANCH  25  26
ENDBRANCH  24  25
ENDBRANCH  23  24
ENDBRANCH   1  23
TORSDOF 20
ENDMDL
MODEL 2
REMARK VINA RESULT:     -10.0      1.550      2.117
REMARK SMILES CCC(CC)[C@@H](C(=O)OCCOCCOC(=O)c1ccc(-c2c3nc(c(-c4c(F)cccc4F)c4ccc([nH]4)c(-c4c(F)cccc4F)c4nc(c(-c5c(F)cccc5F)c5ccc2[nH]5)C=C4)C=C3)cc1)S(=O)(=O)c1cccc(OC)c1
REMARK SMILES IDX 11 1 10 2 9 3 7 4 8 5 6 6 3 7 2 8 1 9 4 10 5 11 72 12 73 13
REMARK SMILES IDX 74 14 75 15 76 16 82 17 77 18 79 19 78 20 80 21 81 22 12 23
REMARK SMILES IDX 13 24 14 25 15 26 16 27 17 28 18 29 19 30 71 31 20 32 70 33
REMARK SMILES IDX 21 34 22 35 23 36 64 37 24 38 69 39 63 40 65 41 25 42 68 43
REMARK SMILES IDX 62 44 61 45 26 47 52 48 35 49 51 50 36 51 39 52 50 53 66 54
REMARK SMILES IDX 37 55 38 56 49 58 67 59 40 60 27 61 28 62 33 63 29 64 30 65
REMARK SMILES IDX 32 66 34 67 31 68 53 69 54 70 59 71 55 72 56 73 58 74 60 75
REMARK SMILES IDX 57 76 41 77 42 78 47 79 43 80 44 81 46 82 48 83 45 84
REMARK H PARENT 65 46 39 57
REMARK Flexibility Score: inf
ROOT
ATOM      1  C   UNL A   1      31.877  29.705  26.871  1.00  0.00     0.202 C 
ENDROOT
BRANCH   1   2
ATOM      2  C   UNL A   1      31.801  28.269  27.416  1.00  0.00     0.261 C 
BRANCH   2   3
ATOM      3  O   UNL A   1      32.355  27.308  26.487  1.00  0.00    -0.462 OA
BRANCH   3   4
ATOM      4  C   UNL A   1      31.571  26.236  26.190  1.00  0.00     0.325 C 
ATOM      5  O   UNL A   1      30.389  26.204  26.498  1.00  0.00    -0.251 OA
BRANCH   4   6
ATOM      6  C   UNL A   1      32.337  25.146  25.436  1.00  0.00     0.226 C 
BRANCH   6   7
ATOM      7  C   UNL A   1      32.273  25.173  23.849  1.00  0.00     0.018 C 
BRANCH   7   8
ATOM      8  C   UNL A   1      31.944  26.565  23.230  1.00  0.00     0.002 C 
ATOM      9  C   UNL A   1      33.068  27.190  22.400  1.00  0.00     0.004 C 
ENDBRANCH   7   8
BRANCH   7  10
ATOM     10  C   UNL A   1      33.545  24.600  23.159  1.00  0.00     0.002 C 
ATOM     11  C   UNL A   1      33.290  23.485  22.156  1.00  0.00     0.004 C 
ENDBRANCH   7  10
ENDBRANCH   6   7
BRANCH   6  12
ATOM     12  S   UNL A   1      31.749  23.561  26.156  1.00  0.00     0.192 S 
ATOM     13  O   UNL A   1      31.793  23.636  27.605  1.00  0.00    -0.223 OA
ATOM     14  O   UNL A   1      30.481  23.191  25.556  1.00  0.00    -0.223 OA
BRANCH  12  15
ATOM     15  C   UNL A   1      32.961  22.317  25.700  1.00  0.00     0.071 A 
ATOM     16  C   UNL A   1      32.553  21.211  24.944  1.00  0.00     0.020 A 
ATOM     17  C   UNL A   1      34.312  22.485  26.037  1.00  0.00     0.066 A 
ATOM     18  C   UNL A   1      33.477  20.229  24.597  1.00  0.00     0.005 A 
ATOM     19  C   UNL A   1      35.242  21.508  25.667  1.00  0.00     0.120 A 
ATOM     20  C   UNL A   1      34.813  20.377  24.964  1.00  0.00     0.046 A 
BRANCH  19  21
ATOM     21  O   UNL A   1      36.582  21.518  25.938  1.00  0.00    -0.497 OA
ATOM     22  C   UNL A   1      37.467  21.551  24.827  1.00  0.00     0.278 C 
ENDBRANCH  19  21
ENDBRANCH  12  15
ENDBRANCH   6  12
ENDBRANCH   4   6
ENDBRANCH   3   4
ENDBRANCH   2   3
ENDBRANCH   1   2
BRANCH   1  23
ATOM     23  O   UNL A   1      33.167  30.320  26.913  1.00  0.00    -0.374 OA
BRANCH  23  24
ATOM     24  C   UNL A   1      33.242  31.625  27.480  1.00  0.00     0.202 C 
BRANCH  24  25
ATOM     25  C   UNL A   1      34.397  31.881  28.447  1.00  0.00     0.261 C 
BRANCH  25  26
ATOM     26  O   UNL A   1      35.126  30.672  28.692  1.00  0.00    -0.460 OA
BRANCH  26  27
ATOM     27  C   UNL A   1      36.089  30.817  29.629  1.00  0.00     0.338 C 
ATOM     28  O   UNL A   1      36.012  31.439  30.681  1.00  0.00    -0.246 OA
BRANCH  27  29
ATOM     29  C   UNL A   1      37.256  29.986  29.298  1.00  0.00     0.060 A 
ATOM     30  C   UNL A   1      37.930  29.403  30.376  1.00  0.00     0.016 A 
ATOM     31  C   UNL A   1      37.734  29.842  27.991  1.00  0.00     0.016 A 
ATOM     32  C   UNL A   1      39.145  28.767  30.167  1.00  0.00     0.010 A 
ATOM     33  C   UNL A   1      38.955  29.195  27.782  1.00  0.00     0.010 A 
ATOM     34  C   UNL A   1      39.692  28.717  28.879  1.00  0.00    -0.014 A 
BRANCH  34  35
ATOM     35  C   UNL A   1      41.123  28.359  28.751  1.00  0.00     0.031 A 
ATOM     36  C   UNL A   1      41.479  26.950  28.359  1.00  0.00     0.074 A 
ATOM     37  C   UNL A   1      42.075  29.300  28.862  1.00  0.00     0.049 A 
ATOM     38  N   UNL A   1      42.649  26.439  28.073  1.00  0.00    -0.248 NA
ATOM     39  C   UNL A   1      40.367  25.990  28.270  1.00  0.00     0.031 C 
ATOM     40  C   UNL A   1      41.841  30.703  29.201  1.00  0.00     0.029 A 
ATOM     41  N   UNL A   1      43.430  29.218  28.675  1.00  0.00    -0.354 N 
ATOM     42  C   UNL A   1      42.412  25.104  27.769  1.00  0.00     0.074 A 
ATOM     43  C   UNL A   1      40.997  24.872  27.944  1.00  0.00     0.031 C 
ATOM     44  C   UNL A   1      43.016  31.355  29.188  1.00  0.00     0.029 A 
ATOM     45  C   UNL A   1      44.081  30.412  28.852  1.00  0.00     0.049 A 
ATOM     46  H   UNL A   1      43.892  28.381  28.437  1.00  0.00     0.167 HD
ATOM     47  C   UNL A   1      43.292  24.161  27.358  1.00  0.00     0.037 A 
ATOM     48  C   UNL A   1      45.391  30.707  28.749  1.00  0.00     0.037 A 
ATOM     49  C   UNL A   1      44.699  24.398  27.176  1.00  0.00     0.049 A 
ATOM     50  C   UNL A   1      46.356  29.630  28.334  1.00  0.00     0.074 A 
ATOM     51  C   UNL A   1      45.676  23.513  26.756  1.00  0.00     0.029 A 
ATOM     52  N   UNL A   1      45.329  25.611  27.408  1.00  0.00    -0.354 N 
ATOM     53  N   UNL A   1      46.117  28.379  28.021  1.00  0.00    -0.248 NA
ATOM     54  C   UNL A   1      47.771  30.011  28.245  1.00  0.00     0.031 C 
ATOM     55  C   UNL A   1      46.905  24.182  26.773  1.00  0.00     0.029 A 
ATOM     56  C   UNL A   1      46.685  25.495  27.159  1.00  0.00     0.049 A 
ATOM     57  H   UNL A   1      44.876  26.434  27.705  1.00  0.00     0.167 HD
ATOM     58  C   UNL A   1      47.345  27.831  27.675  1.00  0.00     0.074 A 
ATOM     59  C   UNL A   1      48.323  28.892  27.799  1.00  0.00     0.031 C 
ATOM     60  C   UNL A   1      47.640  26.565  27.289  1.00  0.00     0.037 A 
BRANCH  47  61
ATOM     61  C   UNL A   1      42.754  22.785  27.100  1.00  0.00     0.057 A 
ATOM     62  C   UNL A   1      42.449  21.900  28.143  1.00  0.00     0.134 A 
ATOM     63  C   UNL A   1      42.523  22.343  25.791  1.00  0.00     0.134 A 
ATOM     64  F   UNL A   1      42.664  22.254  29.420  1.00  0.00    -0.206 F 
ATOM     65  C   UNL A   1      41.956  20.618  27.894  1.00  0.00     0.040 A 
ATOM     66  C   UNL A   1      42.009  21.073  25.530  1.00  0.00     0.040 A 
ATOM     67  F   UNL A   1      42.794  23.140  24.747  1.00  0.00    -0.206 F 
ATOM     68  C   UNL A   1      41.729  20.204  26.582  1.00  0.00     0.006 A 
ENDBRANCH  47  61
BRANCH  48  69
ATOM     69  C   UNL A   1      45.865  32.084  29.034  1.00  0.00     0.057 A 
ATOM     70  C   UNL A   1      46.212  32.481  30.330  1.00  0.00     0.134 A 
ATOM     71  C   UNL A   1      45.964  33.041  28.017  1.00  0.00     0.134 A 
ATOM     72  F   UNL A   1      46.119  31.615  31.350  1.00  0.00    -0.206 F 
ATOM     73  C   UNL A   1      46.625  33.785  30.609  1.00  0.00     0.040 A 
ATOM     74  C   UNL A   1      46.398  34.342  28.277  1.00  0.00     0.040 A 
ATOM     75  F   UNL A   1      45.648  32.722  26.754  1.00  0.00    -0.206 F 
ATOM     76  C   UNL A   1      46.722  34.719  29.579  1.00  0.00     0.006 A 
ENDBRANCH  48  69
BRANCH  60  77
ATOM     77  C   UNL A   1      49.072  26.272  26.949  1.00  0.00     0.057 A 
ATOM     78  C   UNL A   1      49.992  25.860  27.921  1.00  0.00     0.134 A 
ATOM     79  C   UNL A   1      49.529  26.383  25.630  1.00  0.00     0.134 A 
ATOM     80  F   UNL A   1      49.619  25.745  29.205  1.00  0.00    -0.206 F 
ATOM     81  C   UNL A   1      51.324  25.598  27.598  1.00  0.00     0.040 A 
ATOM     82  C   UNL A   1      50.852  26.099  25.291  1.00  0.00     0.040 A 
ATOM     83  F   UNL A   1      48.696  26.763  24.649  1.00  0.00    -0.206 F 
ATOM     84  C   UNL A   1      51.756  25.712  26.277  1.00  0.00     0.006 A 
ENDBRANCH  60  77
ENDBRANCH  34  35
ENDBRANCH  27  29
ENDBRANCH  26  27
ENDBRANCH  25  26
ENDBRANCH  24  25
ENDBRANCH  23  24
ENDBRANCH   1  23
TORSDOF 20
ENDMDL
MODEL 3
REMARK VINA RESULT:      -9.9      4.691      8.291
REMARK SMILES CCC(CC)[C@@H](C(=O)OCCOCCOC(=O)c1ccc(-c2c3nc(c(-c4c(F)cccc4F)c4ccc([nH]4)c(-c4c(F)cccc4F)c4nc(c(-c5c(F)cccc5F)c5ccc2[nH]5)C=C4)C=C3)cc1)S(=O)(=O)c1cccc(OC)c1
REMARK SMILES IDX 11 1 10 2 9 3 7 4 8 5 6 6 3 7 2 8 1 9 4 10 5 11 72 12 73 13
REMARK SMILES IDX 74 14 75 15 76 16 82 17 77 18 79 19 78 20 80 21 81 22 12 23
REMARK SMILES IDX 13 24 14 25 15 26 16 27 17 28 18 29 19 30 71 31 20 32 70 33
REMARK SMILES IDX 21 34 22 35 23 36 64 37 24 38 69 39 63 40 65 41 25 42 68 43
REMARK SMILES IDX 62 44 61 45 26 47 52 48 35 49 51 50 36 51 39 52 50 53 66 54
REMARK SMILES IDX 37 55 38 56 49 58 67 59 40 60 27 61 28 62 33 63 29 64 30 65
REMARK SMILES IDX 32 66 34 67 31 68 53 69 54 70 59 71 55 72 56 73 58 74 60 75
REMARK SMILES IDX 57 76 41 77 42 78 47 79 43 80 44 81 46 82 48 83 45 84
REMARK H PARENT 65 46 39 57
REMARK Flexibility Score: inf
ROOT
ATOM      1  C   UNL A   1      31.819  29.202  25.364  1.00  0.00     0.202 C 
ENDROOT
BRANCH   1   2
ATOM      2  C   UNL A   1      31.806  28.205  26.534  1.00  0.00     0.261 C 
BRANCH   2   3
ATOM      3  O   UNL A   1      32.375  26.927  26.161  1.00  0.00    -0.462 OA
BRANCH   3   4
ATOM      4  C   UNL A   1      31.501  25.891  26.040  1.00  0.00     0.325 C 
ATOM      5  O   UNL A   1      30.375  25.947  26.509  1.00  0.00    -0.251 OA
BRANCH   4   6
ATOM      6  C   UNL A   1      32.094  24.719  25.254  1.00  0.00     0.226 C 
BRANCH   6   7
ATOM      7  C   UNL A   1      31.719  24.607  23.715  1.00  0.00     0.018 C 
BRANCH   7   8
ATOM      8  C   UNL A   1      30.770  25.725  23.189  1.00  0.00     0.002 C 
ATOM      9  C   UNL A   1      31.449  26.821  22.363  1.00  0.00     0.004 C 
ENDBRANCH   7   8
BRANCH   7  10
ATOM     10  C   UNL A   1      32.954  24.506  22.773  1.00  0.00     0.002 C 
ATOM     11  C   UNL A   1      33.240  23.115  22.229  1.00  0.00     0.004 C 
ENDBRANCH   7  10
ENDBRANCH   6   7
BRANCH   6  12
ATOM     12  S   UNL A   1      31.647  23.220  26.219  1.00  0.00     0.192 S 
ATOM     13  O   UNL A   1      32.024  23.401  27.609  1.00  0.00    -0.223 OA
ATOM     14  O   UNL A   1      30.266  22.862  25.955  1.00  0.00    -0.223 OA
BRANCH  12  15
ATOM     15  C   UNL A   1      32.690  21.893  25.605  1.00  0.00     0.071 A 
ATOM     16  C   UNL A   1      34.080  22.007  25.722  1.00  0.00     0.020 A 
ATOM     17  C   UNL A   1      32.117  20.727  25.078  1.00  0.00     0.066 A 
ATOM     18  C   UNL A   1      34.903  20.994  25.236  1.00  0.00     0.005 A 
ATOM     19  C   UNL A   1      32.945  19.701  24.612  1.00  0.00     0.120 A 
ATOM     20  C   UNL A   1      34.335  19.851  24.679  1.00  0.00     0.046 A 
BRANCH  19  21
ATOM     21  O   UNL A   1      32.540  18.520  24.056  1.00  0.00    -0.497 OA
ATOM     22  C   UNL A   1      33.555  17.639  23.594  1.00  0.00     0.278 C 
ENDBRANCH  19  21
ENDBRANCH  12  15
ENDBRANCH   6  12
ENDBRANCH   4   6
ENDBRANCH   3   4
ENDBRANCH   2   3
ENDBRANCH   1   2
BRANCH   1  23
ATOM     23  O   UNL A   1      31.785  30.586  25.724  1.00  0.00    -0.374 OA
BRANCH  23  24
ATOM     24  C   UNL A   1      32.082  30.909  27.079  1.00  0.00     0.202 C 
BRANCH  24  25
ATOM     25  C   UNL A   1      33.445  31.546  27.343  1.00  0.00     0.261 C 
BRANCH  25  26
ATOM     26  O   UNL A   1      33.424  32.939  27.006  1.00  0.00    -0.460 OA
BRANCH  26  27
ATOM     27  C   UNL A   1      33.391  33.744  28.091  1.00  0.00     0.338 C 
ATOM     28  O   UNL A   1      32.510  34.536  28.400  1.00  0.00    -0.246 OA
BRANCH  27  29
ATOM     29  C   UNL A   1      34.521  33.447  28.984  1.00  0.00     0.060 A 
ATOM     30  C   UNL A   1      35.775  33.912  28.576  1.00  0.00     0.016 A 
ATOM     31  C   UNL A   1      34.386  32.669  30.139  1.00  0.00     0.016 A 
ATOM     32  C   UNL A   1      36.915  33.511  29.257  1.00  0.00     0.010 A 
ATOM     33  C   UNL A   1      35.535  32.272  30.829  1.00  0.00     0.010 A 
ATOM     34  C   UNL A   1      36.803  32.639  30.347  1.00  0.00    -0.014 A 
BRANCH  34  35
ATOM     35  C   UNL A   1      38.033  31.961  30.815  1.00  0.00     0.031 A 
ATOM     36  C   UNL A   1      38.537  32.263  32.201  1.00  0.00     0.074 A 
ATOM     37  C   UNL A   1      38.614  31.007  30.068  1.00  0.00     0.049 A 
ATOM     38  N   UNL A   1      39.518  31.708  32.866  1.00  0.00    -0.248 NA
ATOM     39  C   UNL A   1      37.839  33.328  32.938  1.00  0.00     0.031 C 
ATOM     40  C   UNL A   1      38.188  30.607  28.728  1.00  0.00     0.029 A 
ATOM     41  N   UNL A   1      39.676  30.187  30.346  1.00  0.00    -0.354 N 
ATOM     42  C   UNL A   1      39.549  32.353  34.097  1.00  0.00     0.074 A 
ATOM     43  C   UNL A   1      38.521  33.368  34.072  1.00  0.00     0.031 C 
ATOM     44  C   UNL A   1      38.977  29.606  28.303  1.00  0.00     0.029 A 
ATOM     45  C   UNL A   1      39.967  29.306  29.334  1.00  0.00     0.049 A 
ATOM     46  H   UNL A   1      40.181  30.225  31.190  1.00  0.00     0.167 HD
ATOM     47  C   UNL A   1      40.350  32.108  35.160  1.00  0.00     0.037 A 
ATOM     48  C   UNL A   1      40.924  28.363  29.258  1.00  0.00     0.037 A 
ATOM     49  C   UNL A   1      41.367  31.092  35.184  1.00  0.00     0.049 A 
ATOM     50  C   UNL A   1      41.832  28.139  30.437  1.00  0.00     0.074 A 
ATOM     51  C   UNL A   1      42.227  30.755  36.214  1.00  0.00     0.029 A 
ATOM     52  N   UNL A   1      41.661  30.248  34.124  1.00  0.00    -0.354 N 
ATOM     53  N   UNL A   1      41.834  28.735  31.605  1.00  0.00    -0.248 NA
ATOM     54  C   UNL A   1      42.860  27.100  30.291  1.00  0.00     0.031 C 
ATOM     55  C   UNL A   1      43.070  29.734  35.761  1.00  0.00     0.029 A 
ATOM     56  C   UNL A   1      42.703  29.404  34.466  1.00  0.00     0.049 A 
ATOM     57  H   UNL A   1      41.196  30.250  33.256  1.00  0.00     0.167 HD
ATOM     58  C   UNL A   1      42.844  28.129  32.341  1.00  0.00     0.074 A 
ATOM     59  C   UNL A   1      43.420  27.106  31.493  1.00  0.00     0.031 C 
ATOM     60  C   UNL A   1      43.260  28.393  33.604  1.00  0.00     0.037 A 
BRANCH  47  61
ATOM     61  C   UNL A   1      40.165  32.971  36.373  1.00  0.00     0.057 A 
ATOM     62  C   UNL A   1      39.206  32.677  37.352  1.00  0.00     0.134 A 
ATOM     63  C   UNL A   1      40.966  34.102  36.573  1.00  0.00     0.134 A 
ATOM     64  F   UNL A   1      38.394  31.618  37.212  1.00  0.00    -0.206 F 
ATOM     65  C   UNL A   1      39.035  33.491  38.474  1.00  0.00     0.040 A 
ATOM     66  C   UNL A   1      40.820  34.910  37.702  1.00  0.00     0.040 A 
ATOM     67  F   UNL A   1      41.902  34.440  35.674  1.00  0.00    -0.206 F 
ATOM     68  C   UNL A   1      39.848  34.608  38.653  1.00  0.00     0.006 A 
ENDBRANCH  47  61
BRANCH  48  69
ATOM     69  C   UNL A   1      41.069  27.553  28.023  1.00  0.00     0.057 A 
ATOM     70  C   UNL A   1      41.855  27.991  26.952  1.00  0.00     0.134 A 
ATOM     71  C   UNL A   1      40.409  26.326  27.880  1.00  0.00     0.134 A 
ATOM     72  F   UNL A   1      42.497  29.167  27.022  1.00  0.00    -0.206 F 
ATOM     73  C   UNL A   1      41.966  27.249  25.775  1.00  0.00     0.040 A 
ATOM     74  C   UNL A   1      40.529  25.562  26.718  1.00  0.00     0.040 A 
ATOM     75  F   UNL A   1      39.643  25.850  28.872  1.00  0.00    -0.206 F 
ATOM     76  C   UNL A   1      41.304  26.028  25.658  1.00  0.00     0.006 A 
ENDBRANCH  48  69
BRANCH  60  77
ATOM     77  C   UNL A   1      44.371  27.543  34.148  1.00  0.00     0.057 A 
ATOM     78  C   UNL A   1      45.714  27.931  34.049  1.00  0.00     0.134 A 
ATOM     79  C   UNL A   1      44.092  26.333  34.796  1.00  0.00     0.134 A 
ATOM     80  F   UNL A   1      46.047  29.074  33.431  1.00  0.00    -0.206 F 
ATOM     81  C   UNL A   1      46.741  27.131  34.550  1.00  0.00     0.040 A 
ATOM     82  C   UNL A   1      45.110  25.538  35.323  1.00  0.00     0.040 A 
ATOM     83  F   UNL A   1      42.827  25.909  34.933  1.00  0.00    -0.206 F 
ATOM     84  C   UNL A   1      46.440  25.931  35.194  1.00  0.00     0.006 A 
ENDBRANCH  60  77
ENDBRANCH  34  35
ENDBRANCH  27  29
ENDBRANCH  26  27
ENDBRANCH  25  26
ENDBRANCH  24  25
ENDBRANCH  23  24
ENDBRANCH   1  23
TORSDOF 20
ENDMDL
