MODEL 1
REMARK VINA RESULT:     -11.2      0.000      0.000
REMARK SMILES CC[C@@]1(C(=O)OCCOCCOC(=O)c2ccc(-c3c4nc(c(-c5c(F)cccc5F)c5ccc([nH]5)c(-c5c(F)cccc5F)c5nc(c(-c6c(F)cccc6F)c6ccc3[nH]6)C=C5)C=C4)cc2)CCC[N@@H+](Cc2ccc(C3CC3)cc2)C1
REMARK SMILES IDX 8 1 7 2 6 3 4 4 5 5 3 6 69 7 83 8 70 9 72 10 71 11 2 13 1 14
REMARK SMILES IDX 73 15 74 16 75 17 82 18 76 19 81 20 77 21 78 22 79 23 80 24
REMARK SMILES IDX 9 25 10 26 11 27 12 28 13 29 14 30 15 31 16 32 68 33 17 34
REMARK SMILES IDX 67 35 18 36 19 37 20 38 61 39 21 40 66 41 60 42 62 43 22 44
REMARK SMILES IDX 65 45 59 46 58 47 23 49 49 50 32 51 48 52 33 53 36 54 47 55
REMARK SMILES IDX 63 56 34 57 35 58 46 60 64 61 37 62 24 63 25 64 30 65 26 66
REMARK SMILES IDX 27 67 29 68 31 69 28 70 50 71 51 72 56 73 52 74 53 75 55 76
REMARK SMILES IDX 57 77 54 78 38 79 39 80 44 81 40 82 41 83 43 84 45 85 42 86
REMARK H PARENT 72 12 62 48 36 59
REMARK Flexibility Score: inf
ROOT
ATOM      1  C   UNL A   1      32.007  29.575  26.212  1.00  0.00     0.202 C 
ENDROOT
BRANCH   1   2
ATOM      2  C   UNL A   1      32.157  28.271  27.007  1.00  0.00     0.261 C 
BRANCH   2   3
ATOM      3  O   UNL A   1      31.930  27.124  26.172  1.00  0.00    -0.463 OA
BRANCH   3   4
ATOM      4  C   UNL A   1      33.075  26.527  25.756  1.00  0.00     0.317 C 
ATOM      5  O   UNL A   1      34.172  27.063  25.862  1.00  0.00    -0.251 OA
BRANCH   4   6
ATOM      6  C   UNL A   1      32.848  25.114  25.192  1.00  0.00     0.117 C 
ATOM      7  C   UNL A   1      33.765  24.917  23.947  1.00  0.00     0.030 C 
ATOM      8  C   UNL A   1      31.391  25.066  24.726  1.00  0.00     0.281 C 
ATOM      9  C   UNL A   1      33.421  25.831  22.773  1.00  0.00     0.063 C 
ATOM     10  N   UNL A   1      31.109  26.085  23.708  1.00  0.00    -0.330 N 
ATOM     11  C   UNL A   1      31.918  25.893  22.495  1.00  0.00     0.262 C 
ATOM     12  H   UNL A   1      31.398  26.977  24.107  1.00  0.00     0.348 HD
BRANCH   6  13
ATOM     13  C   UNL A   1      33.159  23.897  26.137  1.00  0.00     0.021 C 
ATOM     14  C   UNL A   1      34.595  23.536  26.491  1.00  0.00     0.005 C 
ENDBRANCH   6  13
BRANCH  10  15
ATOM     15  C   UNL A   1      29.670  26.239  23.427  1.00  0.00     0.299 C 
BRANCH  15  16
ATOM     16  C   UNL A   1      29.166  27.662  23.496  1.00  0.00     0.006 A 
ATOM     17  C   UNL A   1      30.065  28.728  23.580  1.00  0.00     0.010 A 
ATOM     18  C   UNL A   1      27.804  27.944  23.349  1.00  0.00     0.010 A 
ATOM     19  C   UNL A   1      29.616  30.040  23.411  1.00  0.00     0.004 A 
ATOM     20  C   UNL A   1      27.371  29.253  23.146  1.00  0.00     0.004 A 
ATOM     21  C   UNL A   1      28.269  30.334  23.141  1.00  0.00    -0.045 A 
BRANCH  21  22
ATOM     22  C   UNL A   1      27.849  31.757  22.843  1.00  0.00     0.019 C 
ATOM     23  C   UNL A   1      28.849  32.890  22.825  1.00  0.00     0.009 C 
ATOM     24  C   UNL A   1      28.235  32.410  21.539  1.00  0.00     0.009 C 
ENDBRANCH  21  22
ENDBRANCH  15  16
ENDBRANCH  10  15
ENDBRANCH   4   6
ENDBRANCH   3   4
ENDBRANCH   2   3
ENDBRANCH   1   2
BRANCH   1  25
ATOM     25  O   UNL A   1      32.156  30.808  26.918  1.00  0.00    -0.374 OA
BRANCH  25  26
ATOM     26  C   UNL A   1      31.338  31.903  26.505  1.00  0.00     0.202 C 
BRANCH  26  27
ATOM     27  C   UNL A   1      31.889  33.308  26.755  1.00  0.00     0.261 C 
BRANCH  27  28
ATOM     28  O   UNL A   1      32.335  33.446  28.115  1.00  0.00    -0.460 OA
BRANCH  28  29
ATOM     29  C   UNL A   1      33.412  34.248  28.269  1.00  0.00     0.338 C 
ATOM     30  O   UNL A   1      33.417  35.467  28.364  1.00  0.00    -0.246 OA
BRANCH  29  31
ATOM     31  C   UNL A   1      34.613  33.428  28.527  1.00  0.00     0.060 A 
ATOM     32  C   UNL A   1      34.405  32.126  29.007  1.00  0.00     0.016 A 
ATOM     33  C   UNL A   1      35.908  33.911  28.332  1.00  0.00     0.016 A 
ATOM     34  C   UNL A   1      35.487  31.332  29.367  1.00  0.00     0.010 A 
ATOM     35  C   UNL A   1      36.996  33.116  28.704  1.00  0.00     0.010 A 
ATOM     36  C   UNL A   1      36.786  31.843  29.268  1.00  0.00    -0.014 A 
BRANCH  36  37
ATOM     37  C   UNL A   1      37.897  31.124  29.936  1.00  0.00     0.031 A 
ATOM     38  C   UNL A   1      38.166  31.409  31.389  1.00  0.00     0.074 A 
ATOM     39  C   UNL A   1      38.625  30.203  29.283  1.00  0.00     0.049 A 
ATOM     40  N   UNL A   1      39.101  30.935  32.170  1.00  0.00    -0.248 NA
ATOM     41  C   UNL A   1      37.256  32.360  32.048  1.00  0.00     0.031 C 
ATOM     42  C   UNL A   1      38.428  29.799  27.892  1.00  0.00     0.029 A 
ATOM     43  N   UNL A   1      39.683  29.441  29.710  1.00  0.00    -0.354 N 
ATOM     44  C   UNL A   1      38.900  31.537  33.406  1.00  0.00     0.074 A 
ATOM     45  C   UNL A   1      37.776  32.435  33.264  1.00  0.00     0.031 C 
ATOM     46  C   UNL A   1      39.346  28.870  27.575  1.00  0.00     0.029 A 
ATOM     47  C   UNL A   1      40.216  28.643  28.729  1.00  0.00     0.049 A 
ATOM     48  H   UNL A   1      40.028  29.466  30.632  1.00  0.00     0.167 HD
ATOM     49  C   UNL A   1      39.585  31.351  34.559  1.00  0.00     0.037 A 
ATOM     50  C   UNL A   1      41.298  27.840  28.753  1.00  0.00     0.037 A 
ATOM     51  C   UNL A   1      40.699  30.451  34.700  1.00  0.00     0.049 A 
ATOM     52  C   UNL A   1      42.095  27.711  30.026  1.00  0.00     0.074 A 
ATOM     53  C   UNL A   1      41.445  30.175  35.832  1.00  0.00     0.029 A 
ATOM     54  N   UNL A   1      41.233  29.687  33.673  1.00  0.00    -0.354 N 
ATOM     55  N   UNL A   1      41.886  28.266  31.196  1.00  0.00    -0.248 NA
ATOM     56  C   UNL A   1      43.279  26.840  29.983  1.00  0.00     0.031 C 
ATOM     57  C   UNL A   1      42.469  29.294  35.476  1.00  0.00     0.029 A 
ATOM     58  C   UNL A   1      42.320  28.966  34.138  1.00  0.00     0.049 A 
ATOM     59  H   UNL A   1      40.890  29.662  32.750  1.00  0.00     0.167 HD
ATOM     60  C   UNL A   1      42.888  27.788  32.031  1.00  0.00     0.074 A 
ATOM     61  C   UNL A   1      43.699  26.889  31.239  1.00  0.00     0.031 C 
ATOM     62  C   UNL A   1      43.114  28.066  33.340  1.00  0.00     0.037 A 
BRANCH  49  63
ATOM     63  C   UNL A   1      39.169  32.161  35.753  1.00  0.00     0.057 A 
ATOM     64  C   UNL A   1      38.313  31.651  36.737  1.00  0.00     0.134 A 
ATOM     65  C   UNL A   1      39.664  33.458  35.937  1.00  0.00     0.134 A 
ATOM     66  F   UNL A   1      37.791  30.421  36.615  1.00  0.00    -0.206 F 
ATOM     67  C   UNL A   1      37.944  32.412  37.848  1.00  0.00     0.040 A 
ATOM     68  C   UNL A   1      39.326  34.217  37.057  1.00  0.00     0.040 A 
ATOM     69  F   UNL A   1      40.492  34.006  35.034  1.00  0.00    -0.206 F 
ATOM     70  C   UNL A   1      38.458  33.697  38.015  1.00  0.00     0.006 A 
ENDBRANCH  49  63
BRANCH  50  71
ATOM     71  C   UNL A   1      41.710  27.109  27.528  1.00  0.00     0.057 A 
ATOM     72  C   UNL A   1      41.336  25.777  27.313  1.00  0.00     0.134 A 
ATOM     73  C   UNL A   1      42.510  27.718  26.552  1.00  0.00     0.134 A 
ATOM     74  F   UNL A   1      40.591  25.131  28.221  1.00  0.00    -0.206 F 
ATOM     75  C   UNL A   1      41.759  25.071  26.185  1.00  0.00     0.040 A 
ATOM     76  C   UNL A   1      42.916  27.033  25.406  1.00  0.00     0.040 A 
ATOM     77  F   UNL A   1      42.903  28.992  26.698  1.00  0.00    -0.206 F 
ATOM     78  C   UNL A   1      42.547  25.702  25.224  1.00  0.00     0.006 A 
ENDBRANCH  50  71
BRANCH  62  79
ATOM     79  C   UNL A   1      44.257  27.361  34.014  1.00  0.00     0.057 A 
ATOM     80  C   UNL A   1      45.536  27.923  34.095  1.00  0.00     0.134 A 
ATOM     81  C   UNL A   1      44.056  26.122  34.639  1.00  0.00     0.134 A 
ATOM     82  F   UNL A   1      45.800  29.102  33.510  1.00  0.00    -0.206 F 
ATOM     83  C   UNL A   1      46.581  27.271  34.753  1.00  0.00     0.040 A 
ATOM     84  C   UNL A   1      45.084  25.474  35.326  1.00  0.00     0.040 A 
ATOM     85  F   UNL A   1      42.852  25.530  34.610  1.00  0.00    -0.206 F 
ATOM     86  C   UNL A   1      46.353  26.046  35.379  1.00  0.00     0.006 A 
ENDBRANCH  62  79
ENDBRANCH  36  37
ENDBRANCH  29  31
ENDBRANCH  28  29
ENDBRANCH  27  28
ENDBRANCH  26  27
ENDBRANCH  25  26
ENDBRANCH   1  25
TORSDOF 18
ENDMDL
MODEL 2
REMARK VINA RESULT:     -10.9      4.105      7.713
REMARK SMILES CC[C@@]1(C(=O)OCCOCCOC(=O)c2ccc(-c3c4nc(c(-c5c(F)cccc5F)c5ccc([nH]5)c(-c5c(F)cccc5F)c5nc(c(-c6c(F)cccc6F)c6ccc3[nH]6)C=C5)C=C4)cc2)CCC[N@@H+](Cc2ccc(C3CC3)cc2)C1
REMARK SMILES IDX 8 1 7 2 6 3 4 4 5 5 3 6 69 7 83 8 70 9 72 10 71 11 2 13 1 14
REMARK SMILES IDX 73 15 74 16 75 17 82 18 76 19 81 20 77 21 78 22 79 23 80 24
REMARK SMILES IDX 9 25 10 26 11 27 12 28 13 29 14 30 15 31 16 32 68 33 17 34
REMARK SMILES IDX 67 35 18 36 19 37 20 38 61 39 21 40 66 41 60 42 62 43 22 44
REMARK SMILES IDX 65 45 59 46 58 47 23 49 49 50 32 51 48 52 33 53 36 54 47 55
REMARK SMILES IDX 63 56 34 57 35 58 46 60 64 61 37 62 24 63 25 64 30 65 26 66
REMARK SMILES IDX 27 67 29 68 31 69 28 70 50 71 51 72 56 73 52 74 53 75 55 76
REMARK SMILES IDX 57 77 54 78 38 79 39 80 44 81 40 82 41 83 43 84 45 85 42 86
REMARK H PARENT 72 12 62 48 36 59
REMARK Flexibility Score: inf
ROOT
ATOM      1  C   UNL A   1      34.347  23.535  23.231  1.00  0.00     0.202 C 
ENDROOT
BRANCH   1   2
ATOM      2  C   UNL A   1      33.169  23.878  22.309  1.00  0.00     0.261 C 
BRANCH   2   3
ATOM      3  O   UNL A   1      32.378  24.946  22.853  1.00  0.00    -0.463 OA
BRANCH   3   4
ATOM      4  C   UNL A   1      32.708  26.165  22.359  1.00  0.00     0.317 C 
ATOM      5  O   UNL A   1      33.540  26.311  21.471  1.00  0.00    -0.251 OA
BRANCH   4   6
ATOM      6  C   UNL A   1      31.904  27.313  22.994  1.00  0.00     0.117 C 
ATOM      7  C   UNL A   1      32.838  28.549  23.159  1.00  0.00     0.030 C 
ATOM      8  C   UNL A   1      31.496  26.831  24.389  1.00  0.00     0.281 C 
ATOM      9  C   UNL A   1      33.988  28.332  24.139  1.00  0.00     0.063 C 
ATOM     10  N   UNL A   1      32.664  26.494  25.213  1.00  0.00    -0.330 N 
ATOM     11  C   UNL A   1      33.537  27.656  25.435  1.00  0.00     0.262 C 
ATOM     12  H   UNL A   1      33.211  25.823  24.674  1.00  0.00     0.348 HD
BRANCH   6  13
ATOM     13  C   UNL A   1      30.647  27.839  22.211  1.00  0.00     0.021 C 
ATOM     14  C   UNL A   1      30.301  29.322  22.204  1.00  0.00     0.005 C 
ENDBRANCH   6  13
BRANCH  10  15
ATOM     15  C   UNL A   1      32.309  25.789  26.458  1.00  0.00     0.299 C 
BRANCH  15  16
ATOM     16  C   UNL A   1      32.312  24.281  26.348  1.00  0.00     0.006 A 
ATOM     17  C   UNL A   1      31.177  23.603  25.897  1.00  0.00     0.010 A 
ATOM     18  C   UNL A   1      33.484  23.552  26.571  1.00  0.00     0.010 A 
ATOM     19  C   UNL A   1      31.252  22.245  25.576  1.00  0.00     0.004 A 
ATOM     20  C   UNL A   1      33.558  22.207  26.215  1.00  0.00     0.004 A 
ATOM     21  C   UNL A   1      32.454  21.524  25.679  1.00  0.00    -0.045 A 
BRANCH  21  22
ATOM     22  C   UNL A   1      32.519  20.089  25.204  1.00  0.00     0.019 C 
ATOM     23  C   UNL A   1      32.736  19.746  23.748  1.00  0.00     0.009 C 
ATOM     24  C   UNL A   1      33.828  19.493  24.750  1.00  0.00     0.009 C 
ENDBRANCH  21  22
ENDBRANCH  15  16
ENDBRANCH  10  15
ENDBRANCH   4   6
ENDBRANCH   3   4
ENDBRANCH   2   3
ENDBRANCH   1   2
BRANCH   1  25
ATOM     25  O   UNL A   1      35.522  22.982  22.635  1.00  0.00    -0.374 OA
BRANCH  25  26
ATOM     26  C   UNL A   1      36.696  22.908  23.446  1.00  0.00     0.202 C 
BRANCH  26  27
ATOM     27  C   UNL A   1      36.898  21.622  24.250  1.00  0.00     0.261 C 
BRANCH  27  28
ATOM     28  O   UNL A   1      37.270  21.923  25.606  1.00  0.00    -0.460 OA
BRANCH  28  29
ATOM     29  C   UNL A   1      38.536  21.572  25.927  1.00  0.00     0.338 C 
ATOM     30  O   UNL A   1      39.124  20.552  25.597  1.00  0.00    -0.246 OA
BRANCH  29  31
ATOM     31  C   UNL A   1      39.220  22.708  26.574  1.00  0.00     0.060 A 
ATOM     32  C   UNL A   1      38.655  23.979  26.395  1.00  0.00     0.016 A 
ATOM     33  C   UNL A   1      40.392  22.553  27.319  1.00  0.00     0.016 A 
ATOM     34  C   UNL A   1      39.298  25.108  26.891  1.00  0.00     0.010 A 
ATOM     35  C   UNL A   1      41.043  23.689  27.808  1.00  0.00     0.010 A 
ATOM     36  C   UNL A   1      40.524  24.973  27.553  1.00  0.00    -0.014 A 
BRANCH  36  37
ATOM     37  C   UNL A   1      41.348  26.180  27.798  1.00  0.00     0.031 A 
ATOM     38  C   UNL A   1      40.743  27.316  28.579  1.00  0.00     0.074 A 
ATOM     39  C   UNL A   1      42.623  26.252  27.379  1.00  0.00     0.049 A 
ATOM     40  N   UNL A   1      41.254  28.480  28.884  1.00  0.00    -0.248 NA
ATOM     41  C   UNL A   1      39.376  27.109  29.083  1.00  0.00     0.031 C 
ATOM     42  C   UNL A   1      43.338  25.199  26.662  1.00  0.00     0.029 A 
ATOM     43  N   UNL A   1      43.540  27.265  27.498  1.00  0.00    -0.354 N 
ATOM     44  C   UNL A   1      40.269  29.147  29.601  1.00  0.00     0.074 A 
ATOM     45  C   UNL A   1      39.120  28.272  29.660  1.00  0.00     0.031 C 
ATOM     46  C   UNL A   1      44.584  25.626  26.392  1.00  0.00     0.029 A 
ATOM     47  C   UNL A   1      44.738  26.994  26.884  1.00  0.00     0.049 A 
ATOM     48  H   UNL A   1      43.356  28.106  27.975  1.00  0.00     0.167 HD
ATOM     49  C   UNL A   1      40.322  30.375  30.169  1.00  0.00     0.037 A 
ATOM     50  C   UNL A   1      45.825  27.773  26.718  1.00  0.00     0.037 A 
ATOM     51  C   UNL A   1      41.470  31.241  30.117  1.00  0.00     0.049 A 
ATOM     52  C   UNL A   1      45.830  29.168  27.289  1.00  0.00     0.074 A 
ATOM     53  C   UNL A   1      41.630  32.494  30.680  1.00  0.00     0.029 A 
ATOM     54  N   UNL A   1      42.652  30.947  29.453  1.00  0.00    -0.354 N 
ATOM     55  N   UNL A   1      44.904  29.783  27.985  1.00  0.00    -0.248 NA
ATOM     56  C   UNL A   1      47.035  29.978  27.053  1.00  0.00     0.031 C 
ATOM     57  C   UNL A   1      42.883  32.985  30.304  1.00  0.00     0.029 A 
ATOM     58  C   UNL A   1      43.532  32.010  29.565  1.00  0.00     0.049 A 
ATOM     59  H   UNL A   1      42.837  30.106  28.974  1.00  0.00     0.167 HD
ATOM     60  C   UNL A   1      45.426  31.034  28.296  1.00  0.00     0.074 A 
ATOM     61  C   UNL A   1      46.754  31.086  27.723  1.00  0.00     0.031 C 
ATOM     62  C   UNL A   1      44.856  32.046  28.997  1.00  0.00     0.037 A 
BRANCH  49  63
ATOM     63  C   UNL A   1      39.090  30.870  30.871  1.00  0.00     0.057 A 
ATOM     64  C   UNL A   1      38.067  31.546  30.194  1.00  0.00     0.134 A 
ATOM     65  C   UNL A   1      38.910  30.632  32.240  1.00  0.00     0.134 A 
ATOM     66  F   UNL A   1      38.183  31.820  28.886  1.00  0.00    -0.206 F 
ATOM     67  C   UNL A   1      36.923  31.990  30.858  1.00  0.00     0.040 A 
ATOM     68  C   UNL A   1      37.757  31.044  32.908  1.00  0.00     0.040 A 
ATOM     69  F   UNL A   1      39.849  29.986  32.948  1.00  0.00    -0.206 F 
ATOM     70  C   UNL A   1      36.761  31.731  32.218  1.00  0.00     0.006 A 
ENDBRANCH  49  63
BRANCH  50  71
ATOM     71  C   UNL A   1      46.995  27.264  25.959  1.00  0.00     0.057 A 
ATOM     72  C   UNL A   1      48.041  26.589  26.599  1.00  0.00     0.134 A 
ATOM     73  C   UNL A   1      47.110  27.465  24.578  1.00  0.00     0.134 A 
ATOM     74  F   UNL A   1      48.003  26.386  27.924  1.00  0.00    -0.206 F 
ATOM     75  C   UNL A   1      49.166  26.148  25.898  1.00  0.00     0.040 A 
ATOM     76  C   UNL A   1      48.214  27.005  23.859  1.00  0.00     0.040 A 
ATOM     77  F   UNL A   1      46.142  28.105  23.904  1.00  0.00    -0.206 F 
ATOM     78  C   UNL A   1      49.251  26.351  24.522  1.00  0.00     0.006 A 
ENDBRANCH  50  71
BRANCH  62  79
ATOM     79  C   UNL A   1      45.679  33.283  29.225  1.00  0.00     0.057 A 
ATOM     80  C   UNL A   1      46.534  33.417  30.325  1.00  0.00     0.134 A 
ATOM     81  C   UNL A   1      45.654  34.332  28.296  1.00  0.00     0.134 A 
ATOM     82  F   UNL A   1      46.600  32.453  31.257  1.00  0.00    -0.206 F 
ATOM     83  C   UNL A   1      47.318  34.558  30.507  1.00  0.00     0.040 A 
ATOM     84  C   UNL A   1      46.455  35.465  28.450  1.00  0.00     0.040 A 
ATOM     85  F   UNL A   1      44.865  34.266  27.213  1.00  0.00    -0.206 F 
ATOM     86  C   UNL A   1      47.286  35.582  29.562  1.00  0.00     0.006 A 
ENDBRANCH  62  79
ENDBRANCH  36  37
ENDBRANCH  29  31
ENDBRANCH  28  29
ENDBRANCH  27  28
ENDBRANCH  26  27
ENDBRANCH  25  26
ENDBRANCH   1  25
TORSDOF 18
ENDMDL
MODEL 3
REMARK VINA RESULT:     -10.8      1.743      4.537
REMARK SMILES CC[C@@]1(C(=O)OCCOCCOC(=O)c2ccc(-c3c4nc(c(-c5c(F)cccc5F)c5ccc([nH]5)c(-c5c(F)cccc5F)c5nc(c(-c6c(F)cccc6F)c6ccc3[nH]6)C=C5)C=C4)cc2)CCC[N@@H+](Cc2ccc(C3CC3)cc2)C1
REMARK SMILES IDX 8 1 7 2 6 3 4 4 5 5 3 6 69 7 83 8 70 9 72 10 71 11 2 13 1 14
REMARK SMILES IDX 73 15 74 16 75 17 82 18 76 19 81 20 77 21 78 22 79 23 80 24
REMARK SMILES IDX 9 25 10 26 11 27 12 28 13 29 14 30 15 31 16 32 68 33 17 34
REMARK SMILES IDX 67 35 18 36 19 37 20 38 61 39 21 40 66 41 60 42 62 43 22 44
REMARK SMILES IDX 65 45 59 46 58 47 23 49 49 50 32 51 48 52 33 53 36 54 47 55
REMARK SMILES IDX 63 56 34 57 35 58 46 60 64 61 37 62 24 63 25 64 30 65 26 66
REMARK SMILES IDX 27 67 29 68 31 69 28 70 50 71 51 72 56 73 52 74 53 75 55 76
REMARK SMILES IDX 57 77 54 78 38 79 39 80 44 81 40 82 41 83 43 84 45 85 42 86
REMARK H PARENT 72 12 62 48 36 59
REMARK Flexibility Score: inf
ROOT
ATOM      1  C   UNL A   1      32.532  29.918  26.006  1.00  0.00     0.202 C 
ENDROOT
BRANCH   1   2
ATOM      2  C   UNL A   1      31.999  28.484  26.132  1.00  0.00     0.261 C 
BRANCH   2   3
ATOM      3  O   UNL A   1      32.188  27.751  24.911  1.00  0.00    -0.463 OA
BRANCH   3   4
ATOM      4  C   UNL A   1      32.771  26.540  25.096  1.00  0.00     0.317 C 
ATOM      5  O   UNL A   1      33.676  26.362  25.903  1.00  0.00    -0.251 OA
BRANCH   4   6
ATOM      6  C   UNL A   1      32.148  25.431  24.230  1.00  0.00     0.117 C 
ATOM      7  C   UNL A   1      30.599  25.481  24.390  1.00  0.00     0.030 C 
ATOM      8  C   UNL A   1      32.647  24.104  24.807  1.00  0.00     0.281 C 
ATOM      9  C   UNL A   1      30.109  25.154  25.799  1.00  0.00     0.063 C 
ATOM     10  N   UNL A   1      32.264  23.942  26.216  1.00  0.00    -0.330 N 
ATOM     11  C   UNL A   1      30.805  23.928  26.394  1.00  0.00     0.262 C 
ATOM     12  H   UNL A   1      32.604  24.772  26.702  1.00  0.00     0.348 HD
BRANCH   6  13
ATOM     13  C   UNL A   1      32.412  25.485  22.682  1.00  0.00     0.021 C 
ATOM     14  C   UNL A   1      32.962  24.270  21.946  1.00  0.00     0.005 C 
ENDBRANCH   6  13
BRANCH  10  15
ATOM     15  C   UNL A   1      32.940  22.809  26.873  1.00  0.00     0.299 C 
BRANCH  15  16
ATOM     16  C   UNL A   1      33.306  21.673  25.945  1.00  0.00     0.006 A 
ATOM     17  C   UNL A   1      34.646  21.364  25.699  1.00  0.00     0.010 A 
ATOM     18  C   UNL A   1      32.318  20.835  25.419  1.00  0.00     0.010 A 
ATOM     19  C   UNL A   1      34.984  20.183  25.035  1.00  0.00     0.004 A 
ATOM     20  C   UNL A   1      32.666  19.641  24.789  1.00  0.00     0.004 A 
ATOM     21  C   UNL A   1      34.008  19.268  24.607  1.00  0.00    -0.045 A 
BRANCH  21  22
ATOM     22  C   UNL A   1      34.424  17.944  24.002  1.00  0.00     0.019 C 
ATOM     23  C   UNL A   1      34.259  16.644  24.755  1.00  0.00     0.009 C 
ATOM     24  C   UNL A   1      33.383  16.941  23.570  1.00  0.00     0.009 C 
ENDBRANCH  21  22
ENDBRANCH  15  16
ENDBRANCH  10  15
ENDBRANCH   4   6
ENDBRANCH   3   4
ENDBRANCH   2   3
ENDBRANCH   1   2
BRANCH   1  25
ATOM     25  O   UNL A   1      32.186  30.850  27.031  1.00  0.00    -0.374 OA
BRANCH  25  26
ATOM     26  C   UNL A   1      31.414  31.990  26.648  1.00  0.00     0.202 C 
BRANCH  26  27
ATOM     27  C   UNL A   1      32.081  33.358  26.804  1.00  0.00     0.261 C 
BRANCH  27  28
ATOM     28  O   UNL A   1      32.334  33.647  28.189  1.00  0.00    -0.460 OA
BRANCH  28  29
ATOM     29  C   UNL A   1      33.420  34.422  28.407  1.00  0.00     0.338 C 
ATOM     30  O   UNL A   1      33.442  35.635  28.559  1.00  0.00    -0.246 OA
BRANCH  29  31
ATOM     31  C   UNL A   1      34.600  33.570  28.655  1.00  0.00     0.060 A 
ATOM     32  C   UNL A   1      34.367  32.307  29.220  1.00  0.00     0.016 A 
ATOM     33  C   UNL A   1      35.901  33.988  28.369  1.00  0.00     0.016 A 
ATOM     34  C   UNL A   1      35.436  31.491  29.573  1.00  0.00     0.010 A 
ATOM     35  C   UNL A   1      36.975  33.171  28.735  1.00  0.00     0.010 A 
ATOM     36  C   UNL A   1      36.746  31.943  29.382  1.00  0.00    -0.014 A 
BRANCH  36  37
ATOM     37  C   UNL A   1      37.862  31.219  30.037  1.00  0.00     0.031 A 
ATOM     38  C   UNL A   1      38.147  31.500  31.488  1.00  0.00     0.074 A 
ATOM     39  C   UNL A   1      38.579  30.295  29.375  1.00  0.00     0.049 A 
ATOM     40  N   UNL A   1      39.088  31.021  32.259  1.00  0.00    -0.248 NA
ATOM     41  C   UNL A   1      37.248  32.454  32.159  1.00  0.00     0.031 C 
ATOM     42  C   UNL A   1      38.365  29.894  27.987  1.00  0.00     0.029 A 
ATOM     43  N   UNL A   1      39.639  29.528  29.791  1.00  0.00    -0.354 N 
ATOM     44  C   UNL A   1      38.903  31.623  33.497  1.00  0.00     0.074 A 
ATOM     45  C   UNL A   1      37.781  32.525  33.368  1.00  0.00     0.031 C 
ATOM     46  C   UNL A   1      39.276  28.961  27.659  1.00  0.00     0.029 A 
ATOM     47  C   UNL A   1      40.157  28.729  28.803  1.00  0.00     0.049 A 
ATOM     48  H   UNL A   1      39.993  29.551  30.709  1.00  0.00     0.167 HD
ATOM     49  C   UNL A   1      39.600  31.432  34.643  1.00  0.00     0.037 A 
ATOM     50  C   UNL A   1      41.236  27.922  28.815  1.00  0.00     0.037 A 
ATOM     51  C   UNL A   1      40.711  30.527  34.771  1.00  0.00     0.049 A 
ATOM     52  C   UNL A   1      42.046  27.788  30.079  1.00  0.00     0.074 A 
ATOM     53  C   UNL A   1      41.468  30.247  35.895  1.00  0.00     0.029 A 
ATOM     54  N   UNL A   1      41.231  29.763  33.737  1.00  0.00    -0.354 N 
ATOM     55  N   UNL A   1      41.852  28.343  31.251  1.00  0.00    -0.248 NA
ATOM     56  C   UNL A   1      43.226  26.913  30.021  1.00  0.00     0.031 C 
ATOM     57  C   UNL A   1      42.485  29.362  35.526  1.00  0.00     0.029 A 
ATOM     58  C   UNL A   1      42.321  29.037  34.189  1.00  0.00     0.049 A 
ATOM     59  H   UNL A   1      40.878  29.740  32.818  1.00  0.00     0.167 HD
ATOM     60  C   UNL A   1      42.861  27.860  32.075  1.00  0.00     0.074 A 
ATOM     61  C   UNL A   1      43.660  26.958  31.273  1.00  0.00     0.031 C 
ATOM     62  C   UNL A   1      43.102  28.135  33.382  1.00  0.00     0.037 A 
BRANCH  49  63
ATOM     63  C   UNL A   1      39.200  32.242  35.842  1.00  0.00     0.057 A 
ATOM     64  C   UNL A   1      39.686  33.537  36.062  1.00  0.00     0.134 A 
ATOM     65  C   UNL A   1      38.286  31.729  36.772  1.00  0.00     0.134 A 
ATOM     66  F   UNL A   1      40.575  34.083  35.219  1.00  0.00    -0.206 F 
ATOM     67  C   UNL A   1      39.296  34.283  37.177  1.00  0.00     0.040 A 
ATOM     68  C   UNL A   1      37.867  32.475  37.873  1.00  0.00     0.040 A 
ATOM     69  F   UNL A   1      37.779  30.496  36.619  1.00  0.00    -0.206 F 
ATOM     70  C   UNL A   1      38.376  33.755  38.082  1.00  0.00     0.006 A 
ENDBRANCH  49  63
BRANCH  50  71
ATOM     71  C   UNL A   1      41.632  27.192  27.584  1.00  0.00     0.057 A 
ATOM     72  C   UNL A   1      41.198  25.883  27.342  1.00  0.00     0.134 A 
ATOM     73  C   UNL A   1      42.477  27.775  26.631  1.00  0.00     0.134 A 
ATOM     74  F   UNL A   1      40.408  25.259  28.228  1.00  0.00    -0.206 F 
ATOM     75  C   UNL A   1      41.604  25.174  26.209  1.00  0.00     0.040 A 
ATOM     76  C   UNL A   1      42.867  27.090  25.480  1.00  0.00     0.040 A 
ATOM     77  F   UNL A   1      42.928  29.027  26.803  1.00  0.00    -0.206 F 
ATOM     78  C   UNL A   1      42.437  25.782  25.271  1.00  0.00     0.006 A 
ENDBRANCH  50  71
BRANCH  62  79
ATOM     79  C   UNL A   1      44.249  27.424  34.042  1.00  0.00     0.057 A 
ATOM     80  C   UNL A   1      44.097  26.174  34.656  1.00  0.00     0.134 A 
ATOM     81  C   UNL A   1      45.537  27.976  34.014  1.00  0.00     0.134 A 
ATOM     82  F   UNL A   1      42.889  25.594  34.727  1.00  0.00    -0.206 F 
ATOM     83  C   UNL A   1      45.178  25.509  35.238  1.00  0.00     0.040 A 
ATOM     84  C   UNL A   1      46.632  27.307  34.565  1.00  0.00     0.040 A 
ATOM     85  F   UNL A   1      45.758  29.165  33.433  1.00  0.00    -0.206 F 
ATOM     86  C   UNL A   1      46.452  26.072  35.184  1.00  0.00     0.006 A 
ENDBRANCH  62  79
ENDBRANCH  36  37
ENDBRANCH  29  31
ENDBRANCH  28  29
ENDBRANCH  27  28
ENDBRANCH  26  27
ENDBRANCH  25  26
ENDBRANCH   1  25
TORSDOF 18
ENDMDL
