MODEL 1
REMARK VINA RESULT:      -9.9      0.000      0.000
REMARK SMILES O=C(OCCOCCOC(=O)c1cc(-c2ccc(Cl)cc2)nc2c3c(C4CC4)cc(C(F)(F)F)nc3nn12)c1ccc(-c2c3nc(c(-c4c(F)cccc4F)c4ccc([nH]4)c(-c4c(F)cccc4F)c4nc(c(-c5c(F)cccc5F)c5ccc2[nH]5)C=C4)C=C3)cc1
REMARK SMILES IDX 5 1 4 2 3 3 2 4 1 5 39 6 40 7 92 8 41 9 91 10 42 11 43 12
REMARK SMILES IDX 44 13 85 14 45 15 90 16 84 17 86 18 46 19 89 20 83 21 82 22
REMARK SMILES IDX 47 24 73 25 56 26 72 27 57 28 60 29 71 30 87 31 58 32 59 33
REMARK SMILES IDX 70 35 88 36 61 37 48 38 49 39 54 40 50 41 51 42 53 43 55 44
REMARK SMILES IDX 52 45 74 46 75 47 80 48 76 49 77 50 79 51 81 52 78 53 62 54
REMARK SMILES IDX 63 55 68 56 64 57 65 58 67 59 69 60 66 61 6 62 7 63 8 64
REMARK SMILES IDX 9 65 10 66 11 67 12 68 13 69 38 70 14 71 23 72 37 73 22 74
REMARK SMILES IDX 24 75 36 76 25 77 35 78 29 79 30 80 15 81 16 82 21 83 17 84
REMARK SMILES IDX 20 85 18 86 19 87 26 88 27 89 28 90 31 91 32 92 33 93 34 94
REMARK H PARENT 86 23 60 34
REMARK Flexibility Score: inf
ROOT
ATOM      1  C   UNL A   1      49.015  30.779  27.209  1.00  0.00     0.202 C 
ENDROOT
BRANCH   1   2
ATOM      2  C   UNL A   1      49.119  32.287  27.407  1.00  0.00     0.261 C 
BRANCH   2   3
ATOM      3  O   UNL A   1      47.897  32.799  27.943  1.00  0.00    -0.460 OA
BRANCH   3   4
ATOM      4  C   UNL A   1      47.587  32.565  29.246  1.00  0.00     0.338 C 
ATOM      5  O   UNL A   1      48.329  32.911  30.157  1.00  0.00    -0.246 OA
BRANCH   4   6
ATOM      6  C   UNL A   1      46.207  32.110  29.534  1.00  0.00     0.060 A 
ATOM      7  C   UNL A   1      45.688  31.877  30.820  1.00  0.00     0.016 A 
ATOM      8  C   UNL A   1      45.391  31.956  28.425  1.00  0.00     0.016 A 
ATOM      9  C   UNL A   1      44.371  31.489  31.006  1.00  0.00     0.010 A 
ATOM     10  C   UNL A   1      44.076  31.561  28.610  1.00  0.00     0.010 A 
ATOM     11  C   UNL A   1      43.547  31.366  29.900  1.00  0.00    -0.014 A 
BRANCH  11  12
ATOM     12  C   UNL A   1      42.098  31.226  30.142  1.00  0.00     0.031 A 
ATOM     13  C   UNL A   1      41.789  30.099  31.066  1.00  0.00     0.074 A 
ATOM     14  C   UNL A   1      41.246  32.256  29.962  1.00  0.00     0.049 A 
ATOM     15  N   UNL A   1      41.982  30.271  32.339  1.00  0.00    -0.248 NA
ATOM     16  C   UNL A   1      41.711  28.690  30.676  1.00  0.00     0.031 C 
ATOM     17  C   UNL A   1      41.685  33.661  29.950  1.00  0.00     0.029 A 
ATOM     18  N   UNL A   1      39.873  32.335  29.995  1.00  0.00    -0.354 N 
ATOM     19  C   UNL A   1      42.252  29.039  32.884  1.00  0.00     0.074 A 
ATOM     20  C   UNL A   1      41.959  28.072  31.848  1.00  0.00     0.031 C 
ATOM     21  C   UNL A   1      40.622  34.445  30.213  1.00  0.00     0.029 A 
ATOM     22  C   UNL A   1      39.417  33.619  30.299  1.00  0.00     0.049 A 
ATOM     23  H   UNL A   1      39.277  31.570  29.823  1.00  0.00     0.167 HD
ATOM     24  C   UNL A   1      42.816  28.927  34.115  1.00  0.00     0.037 A 
ATOM     25  C   UNL A   1      38.416  33.867  31.190  1.00  0.00     0.037 A 
ATOM     26  C   UNL A   1      43.276  30.156  34.708  1.00  0.00     0.049 A 
ATOM     27  C   UNL A   1      39.055  33.449  32.495  1.00  0.00     0.074 A 
ATOM     28  C   UNL A   1      44.483  30.795  34.910  1.00  0.00     0.029 A 
ATOM     29  N   UNL A   1      42.337  31.046  35.170  1.00  0.00    -0.354 N 
ATOM     30  N   UNL A   1      39.964  34.111  33.159  1.00  0.00    -0.248 NA
ATOM     31  C   UNL A   1      38.882  32.063  32.929  1.00  0.00     0.031 C 
ATOM     32  C   UNL A   1      44.163  32.187  35.041  1.00  0.00     0.029 A 
ATOM     33  C   UNL A   1      42.784  32.312  34.875  1.00  0.00     0.049 A 
ATOM     34  H   UNL A   1      41.498  30.818  35.629  1.00  0.00     0.167 HD
ATOM     35  C   UNL A   1      40.651  33.157  33.917  1.00  0.00     0.074 A 
ATOM     36  C   UNL A   1      39.881  31.938  33.793  1.00  0.00     0.031 C 
ATOM     37  C   UNL A   1      41.898  33.373  34.439  1.00  0.00     0.037 A 
BRANCH  24  38
ATOM     38  C   UNL A   1      42.786  27.703  34.925  1.00  0.00     0.057 A 
ATOM     39  C   UNL A   1      41.859  27.422  35.925  1.00  0.00     0.134 A 
ATOM     40  C   UNL A   1      43.625  26.669  34.486  1.00  0.00     0.134 A 
ATOM     41  F   UNL A   1      41.024  28.368  36.374  1.00  0.00    -0.206 F 
ATOM     42  C   UNL A   1      41.750  26.127  36.445  1.00  0.00     0.040 A 
ATOM     43  C   UNL A   1      43.516  25.376  34.983  1.00  0.00     0.040 A 
ATOM     44  F   UNL A   1      44.523  26.899  33.513  1.00  0.00    -0.206 F 
ATOM     45  C   UNL A   1      42.565  25.100  35.959  1.00  0.00     0.006 A 
ENDBRANCH  24  38
BRANCH  25  46
ATOM     46  C   UNL A   1      37.038  33.431  30.796  1.00  0.00     0.057 A 
ATOM     47  C   UNL A   1      35.983  33.211  31.692  1.00  0.00     0.134 A 
ATOM     48  C   UNL A   1      36.730  33.244  29.436  1.00  0.00     0.134 A 
ATOM     49  F   UNL A   1      36.102  33.507  32.994  1.00  0.00    -0.206 F 
ATOM     50  C   UNL A   1      34.761  32.666  31.285  1.00  0.00     0.040 A 
ATOM     51  C   UNL A   1      35.504  32.727  29.009  1.00  0.00     0.040 A 
ATOM     52  F   UNL A   1      37.620  33.561  28.483  1.00  0.00    -0.206 F 
ATOM     53  C   UNL A   1      34.527  32.400  29.941  1.00  0.00     0.006 A 
ENDBRANCH  25  46
BRANCH  37  54
ATOM     54  C   UNL A   1      42.400  34.773  34.270  1.00  0.00     0.057 A 
ATOM     55  C   UNL A   1      43.205  35.160  33.189  1.00  0.00     0.134 A 
ATOM     56  C   UNL A   1      42.027  35.775  35.177  1.00  0.00     0.134 A 
ATOM     57  F   UNL A   1      43.595  34.272  32.260  1.00  0.00    -0.206 F 
ATOM     58  C   UNL A   1      43.629  36.483  33.026  1.00  0.00     0.040 A 
ATOM     59  C   UNL A   1      42.413  37.104  35.004  1.00  0.00     0.040 A 
ATOM     60  F   UNL A   1      41.273  35.476  36.248  1.00  0.00    -0.206 F 
ATOM     61  C   UNL A   1      43.222  37.462  33.928  1.00  0.00     0.006 A 
ENDBRANCH  37  54
ENDBRANCH  11  12
ENDBRANCH   4   6
ENDBRANCH   3   4
ENDBRANCH   2   3
ENDBRANCH   1   2
BRANCH   1  62
ATOM     62  O   UNL A   1      47.847  30.387  26.494  1.00  0.00    -0.374 OA
BRANCH  62  63
ATOM     63  C   UNL A   1      47.212  29.186  26.922  1.00  0.00     0.202 C 
BRANCH  63  64
ATOM     64  C   UNL A   1      47.838  27.993  26.210  1.00  0.00     0.261 C 
BRANCH  64  65
ATOM     65  O   UNL A   1      46.832  26.994  26.005  1.00  0.00    -0.459 OA
BRANCH  65  66
ATOM     66  C   UNL A   1      45.834  27.252  25.126  1.00  0.00     0.357 C 
ATOM     67  O   UNL A   1      45.923  27.822  24.043  1.00  0.00    -0.244 OA
BRANCH  66  68
ATOM     68  C   UNL A   1      44.627  26.536  25.585  1.00  0.00     0.154 A 
ATOM     69  C   UNL A   1      43.665  27.214  26.235  1.00  0.00     0.065 A 
ATOM     70  N   UNL A   1      44.464  25.189  25.301  1.00  0.00    -0.205 N 
ATOM     71  C   UNL A   1      42.412  26.446  26.494  1.00  0.00     0.075 A 
ATOM     72  C   UNL A   1      43.317  24.496  25.728  1.00  0.00     0.166 A 
ATOM     73  N   UNL A   1      45.346  24.395  24.661  1.00  0.00    -0.145 NA
ATOM     74  N   UNL A   1      42.252  25.169  26.284  1.00  0.00    -0.228 NA
ATOM     75  C   UNL A   1      43.610  23.166  25.478  1.00  0.00     0.069 A 
ATOM     76  C   UNL A   1      44.857  23.179  24.794  1.00  0.00     0.184 A 
ATOM     77  C   UNL A   1      42.881  22.023  25.832  1.00  0.00    -0.028 A 
ATOM     78  N   UNL A   1      45.493  22.069  24.375  1.00  0.00    -0.222 NA
ATOM     79  C   UNL A   1      43.592  20.873  25.406  1.00  0.00     0.038 A 
ATOM     80  C   UNL A   1      44.840  20.923  24.716  1.00  0.00     0.147 A 
BRANCH  71  81
ATOM     81  C   UNL A   1      41.296  27.269  27.017  1.00  0.00     0.000 A 
ATOM     82  C   UNL A   1      41.226  28.619  26.666  1.00  0.00     0.012 A 
ATOM     83  C   UNL A   1      40.300  26.690  27.815  1.00  0.00     0.012 A 
ATOM     84  C   UNL A   1      40.148  29.392  27.106  1.00  0.00     0.021 A 
ATOM     85  C   UNL A   1      39.224  27.471  28.256  1.00  0.00     0.021 A 
ATOM     86  C   UNL A   1      39.152  28.817  27.897  1.00  0.00     0.041 A 
ATOM     87  Cl  UNL A   1      37.825  29.776  28.429  1.00  0.00    -0.084 Cl
ENDBRANCH  71  81
BRANCH  77  88
ATOM     88  C   UNL A   1      41.613  22.075  26.620  1.00  0.00     0.020 C 
ATOM     89  C   UNL A   1      41.153  20.931  27.489  1.00  0.00     0.009 C 
ATOM     90  C   UNL A   1      41.713  22.167  28.127  1.00  0.00     0.009 C 
ENDBRANCH  77  88
BRANCH  80  91
ATOM     91  C   UNL A   1      45.553  19.627  24.349  1.00  0.00     0.433 C 
ATOM     92  F   UNL A   1      46.898  19.784  24.201  1.00  0.00    -0.165 F 
ATOM     93  F   UNL A   1      45.387  18.651  25.287  1.00  0.00    -0.165 F 
ATOM     94  F   UNL A   1      45.116  19.082  23.177  1.00  0.00    -0.165 F 
ENDBRANCH  80  91
ENDBRANCH  66  68
ENDBRANCH  65  66
ENDBRANCH  64  65
ENDBRANCH  63  64
ENDBRANCH  62  63
ENDBRANCH   1  62
TORSDOF 17
ENDMDL
MODEL 2
REMARK VINA RESULT:      -9.9      3.905     11.536
REMARK SMILES O=C(OCCOCCOC(=O)c1cc(-c2ccc(Cl)cc2)nc2c3c(C4CC4)cc(C(F)(F)F)nc3nn12)c1ccc(-c2c3nc(c(-c4c(F)cccc4F)c4ccc([nH]4)c(-c4c(F)cccc4F)c4nc(c(-c5c(F)cccc5F)c5ccc2[nH]5)C=C4)C=C3)cc1
REMARK SMILES IDX 5 1 4 2 3 3 2 4 1 5 39 6 40 7 92 8 41 9 91 10 42 11 43 12
REMARK SMILES IDX 44 13 85 14 45 15 90 16 84 17 86 18 46 19 89 20 83 21 82 22
REMARK SMILES IDX 47 24 73 25 56 26 72 27 57 28 60 29 71 30 87 31 58 32 59 33
REMARK SMILES IDX 70 35 88 36 61 37 48 38 49 39 54 40 50 41 51 42 53 43 55 44
REMARK SMILES IDX 52 45 74 46 75 47 80 48 76 49 77 50 79 51 81 52 78 53 62 54
REMARK SMILES IDX 63 55 68 56 64 57 65 58 67 59 69 60 66 61 6 62 7 63 8 64
REMARK SMILES IDX 9 65 10 66 11 67 12 68 13 69 38 70 14 71 23 72 37 73 22 74
REMARK SMILES IDX 24 75 36 76 25 77 35 78 29 79 30 80 15 81 16 82 21 83 17 84
REMARK SMILES IDX 20 85 18 86 19 87 26 88 27 89 28 90 31 91 32 92 33 93 34 94
REMARK H PARENT 86 23 60 34
REMARK Flexibility Score: inf
ROOT
ATOM      1  C   UNL A   1      41.340  33.064  37.127  1.00  0.00     0.202 C 
ENDROOT
BRANCH   1   2
ATOM      2  C   UNL A   1      42.626  32.305  36.820  1.00  0.00     0.261 C 
BRANCH   2   3
ATOM      3  O   UNL A   1      42.454  31.493  35.656  1.00  0.00    -0.460 OA
BRANCH   3   4
ATOM      4  C   UNL A   1      42.478  30.138  35.774  1.00  0.00     0.338 C 
ATOM      5  O   UNL A   1      42.186  29.578  36.824  1.00  0.00    -0.246 OA
BRANCH   4   6
ATOM      6  C   UNL A   1      42.620  29.360  34.523  1.00  0.00     0.060 A 
ATOM      7  C   UNL A   1      41.675  28.441  34.034  1.00  0.00     0.016 A 
ATOM      8  C   UNL A   1      43.768  29.620  33.791  1.00  0.00     0.016 A 
ATOM      9  C   UNL A   1      41.866  27.781  32.832  1.00  0.00     0.010 A 
ATOM     10  C   UNL A   1      43.963  28.954  32.591  1.00  0.00     0.010 A 
ATOM     11  C   UNL A   1      42.997  28.065  32.084  1.00  0.00    -0.014 A 
BRANCH  11  12
ATOM     12  C   UNL A   1      43.041  27.564  30.697  1.00  0.00     0.031 A 
ATOM     13  C   UNL A   1      42.997  28.669  29.699  1.00  0.00     0.074 A 
ATOM     14  C   UNL A   1      43.549  26.351  30.397  1.00  0.00     0.049 A 
ATOM     15  N   UNL A   1      44.080  29.354  29.484  1.00  0.00    -0.248 NA
ATOM     16  C   UNL A   1      41.781  29.354  29.258  1.00  0.00     0.031 C 
ATOM     17  C   UNL A   1      44.470  25.629  31.289  1.00  0.00     0.029 A 
ATOM     18  N   UNL A   1      43.581  25.627  29.227  1.00  0.00    -0.354 N 
ATOM     19  C   UNL A   1      43.699  30.611  29.080  1.00  0.00     0.074 A 
ATOM     20  C   UNL A   1      42.274  30.536  28.838  1.00  0.00     0.031 C 
ATOM     21  C   UNL A   1      45.145  24.718  30.563  1.00  0.00     0.029 A 
ATOM     22  C   UNL A   1      44.633  24.711  29.192  1.00  0.00     0.049 A 
ATOM     23  H   UNL A   1      42.931  25.743  28.495  1.00  0.00     0.167 HD
ATOM     24  C   UNL A   1      44.576  31.647  29.098  1.00  0.00     0.037 A 
ATOM     25  C   UNL A   1      45.436  24.534  28.106  1.00  0.00     0.037 A 
ATOM     26  C   UNL A   1      45.842  31.387  29.734  1.00  0.00     0.049 A 
ATOM     27  C   UNL A   1      46.174  25.853  28.051  1.00  0.00     0.074 A 
ATOM     28  C   UNL A   1      46.451  31.679  30.938  1.00  0.00     0.029 A 
ATOM     29  N   UNL A   1      46.742  30.577  29.084  1.00  0.00    -0.354 N 
ATOM     30  N   UNL A   1      47.138  26.235  28.845  1.00  0.00    -0.248 NA
ATOM     31  C   UNL A   1      45.594  26.929  27.248  1.00  0.00     0.031 C 
ATOM     32  C   UNL A   1      47.448  30.662  31.120  1.00  0.00     0.029 A 
ATOM     33  C   UNL A   1      47.358  29.796  30.031  1.00  0.00     0.049 A 
ATOM     34  H   UNL A   1      46.913  30.560  28.115  1.00  0.00     0.167 HD
ATOM     35  C   UNL A   1      47.113  27.633  28.828  1.00  0.00     0.074 A 
ATOM     36  C   UNL A   1      46.199  27.990  27.764  1.00  0.00     0.031 C 
ATOM     37  C   UNL A   1      47.690  28.403  29.802  1.00  0.00     0.037 A 
BRANCH  24  38
ATOM     38  C   UNL A   1      44.392  32.895  28.346  1.00  0.00     0.057 A 
ATOM     39  C   UNL A   1      44.527  33.031  26.967  1.00  0.00     0.134 A 
ATOM     40  C   UNL A   1      43.820  33.954  29.066  1.00  0.00     0.134 A 
ATOM     41  F   UNL A   1      45.055  32.047  26.227  1.00  0.00    -0.206 F 
ATOM     42  C   UNL A   1      44.067  34.185  26.322  1.00  0.00     0.040 A 
ATOM     43  C   UNL A   1      43.346  35.097  28.435  1.00  0.00     0.040 A 
ATOM     44  F   UNL A   1      43.660  33.853  30.397  1.00  0.00    -0.206 F 
ATOM     45  C   UNL A   1      43.459  35.209  27.054  1.00  0.00     0.006 A 
ENDBRANCH  24  38
BRANCH  25  46
ATOM     46  C   UNL A   1      44.809  23.915  26.895  1.00  0.00     0.057 A 
ATOM     47  C   UNL A   1      45.273  24.080  25.582  1.00  0.00     0.134 A 
ATOM     48  C   UNL A   1      43.687  23.080  27.042  1.00  0.00     0.134 A 
ATOM     49  F   UNL A   1      46.422  24.720  25.325  1.00  0.00    -0.206 F 
ATOM     50  C   UNL A   1      44.565  23.599  24.476  1.00  0.00     0.040 A 
ATOM     51  C   UNL A   1      42.984  22.568  25.949  1.00  0.00     0.040 A 
ATOM     52  F   UNL A   1      43.243  22.740  28.263  1.00  0.00    -0.206 F 
ATOM     53  C   UNL A   1      43.402  22.859  24.657  1.00  0.00     0.006 A 
ENDBRANCH  25  46
BRANCH  37  54
ATOM     54  C   UNL A   1      48.491  27.630  30.802  1.00  0.00     0.057 A 
ATOM     55  C   UNL A   1      49.838  27.295  30.593  1.00  0.00     0.134 A 
ATOM     56  C   UNL A   1      47.925  27.257  32.029  1.00  0.00     0.134 A 
ATOM     57  F   UNL A   1      50.468  27.629  29.457  1.00  0.00    -0.206 F 
ATOM     58  C   UNL A   1      50.582  26.608  31.558  1.00  0.00     0.040 A 
ATOM     59  C   UNL A   1      48.669  26.605  33.014  1.00  0.00     0.040 A 
ATOM     60  F   UNL A   1      46.636  27.526  32.293  1.00  0.00    -0.206 F 
ATOM     61  C   UNL A   1      50.000  26.273  32.778  1.00  0.00     0.006 A 
ENDBRANCH  37  54
ENDBRANCH  11  12
ENDBRANCH   4   6
ENDBRANCH   3   4
ENDBRANCH   2   3
ENDBRANCH   1   2
BRANCH   1  62
ATOM     62  O   UNL A   1      40.234  32.206  37.394  1.00  0.00    -0.374 OA
BRANCH  62  63
ATOM     63  C   UNL A   1      38.967  32.628  36.898  1.00  0.00     0.202 C 
BRANCH  63  64
ATOM     64  C   UNL A   1      38.453  31.619  35.879  1.00  0.00     0.261 C 
BRANCH  64  65
ATOM     65  O   UNL A   1      39.380  31.548  34.788  1.00  0.00    -0.459 OA
BRANCH  65  66
ATOM     66  C   UNL A   1      39.421  32.576  33.907  1.00  0.00     0.357 C 
ATOM     67  O   UNL A   1      40.165  33.550  33.932  1.00  0.00    -0.244 OA
BRANCH  66  68
ATOM     68  C   UNL A   1      38.553  32.229  32.763  1.00  0.00     0.154 A 
ATOM     69  C   UNL A   1      38.903  31.214  31.953  1.00  0.00     0.065 A 
ATOM     70  N   UNL A   1      37.362  32.909  32.558  1.00  0.00    -0.205 N 
ATOM     71  C   UNL A   1      37.876  30.826  30.943  1.00  0.00     0.075 A 
ATOM     72  C   UNL A   1      36.524  32.585  31.477  1.00  0.00     0.166 A 
ATOM     73  N   UNL A   1      36.895  33.940  33.290  1.00  0.00    -0.145 NA
ATOM     74  N   UNL A   1      36.774  31.478  30.697  1.00  0.00    -0.228 NA
ATOM     75  C   UNL A   1      35.582  33.599  31.460  1.00  0.00     0.069 A 
ATOM     76  C   UNL A   1      35.850  34.379  32.620  1.00  0.00     0.184 A 
ATOM     77  C   UNL A   1      34.584  33.859  30.511  1.00  0.00    -0.028 A 
ATOM     78  N   UNL A   1      35.147  35.474  32.965  1.00  0.00    -0.222 NA
ATOM     79  C   UNL A   1      33.885  35.033  30.887  1.00  0.00     0.038 A 
ATOM     80  C   UNL A   1      34.177  35.788  32.062  1.00  0.00     0.147 A 
BRANCH  71  81
ATOM     81  C   UNL A   1      38.193  29.578  30.208  1.00  0.00     0.000 A 
ATOM     82  C   UNL A   1      38.111  29.571  28.814  1.00  0.00     0.012 A 
ATOM     83  C   UNL A   1      38.612  28.434  30.901  1.00  0.00     0.012 A 
ATOM     84  C   UNL A   1      38.462  28.418  28.107  1.00  0.00     0.021 A 
ATOM     85  C   UNL A   1      38.958  27.279  30.187  1.00  0.00     0.021 A 
ATOM     86  C   UNL A   1      38.884  27.279  28.793  1.00  0.00     0.041 A 
ATOM     87  Cl  UNL A   1      39.319  25.865  27.913  1.00  0.00    -0.084 Cl
ENDBRANCH  71  81
BRANCH  77  88
ATOM     88  C   UNL A   1      34.405  33.043  29.273  1.00  0.00     0.020 C 
ATOM     89  C   UNL A   1      33.667  33.562  28.062  1.00  0.00     0.009 C 
ATOM     90  C   UNL A   1      35.163  33.457  28.030  1.00  0.00     0.009 C 
ENDBRANCH  77  88
BRANCH  80  91
ATOM     91  C   UNL A   1      33.403  37.069  32.349  1.00  0.00     0.433 C 
ATOM     92  F   UNL A   1      33.198  37.827  31.235  1.00  0.00    -0.165 F 
ATOM     93  F   UNL A   1      32.168  36.831  32.877  1.00  0.00    -0.165 F 
ATOM     94  F   UNL A   1      34.027  37.890  33.242  1.00  0.00    -0.165 F 
ENDBRANCH  80  91
ENDBRANCH  66  68
ENDBRANCH  65  66
ENDBRANCH  64  65
ENDBRANCH  63  64
ENDBRANCH  62  63
ENDBRANCH   1  62
TORSDOF 17
ENDMDL
MODEL 3
REMARK VINA RESULT:      -9.7      3.722     11.594
REMARK SMILES O=C(OCCOCCOC(=O)c1cc(-c2ccc(Cl)cc2)nc2c3c(C4CC4)cc(C(F)(F)F)nc3nn12)c1ccc(-c2c3nc(c(-c4c(F)cccc4F)c4ccc([nH]4)c(-c4c(F)cccc4F)c4nc(c(-c5c(F)cccc5F)c5ccc2[nH]5)C=C4)C=C3)cc1
REMARK SMILES IDX 5 1 4 2 3 3 2 4 1 5 39 6 40 7 92 8 41 9 91 10 42 11 43 12
REMARK SMILES IDX 44 13 85 14 45 15 90 16 84 17 86 18 46 19 89 20 83 21 82 22
REMARK SMILES IDX 47 24 73 25 56 26 72 27 57 28 60 29 71 30 87 31 58 32 59 33
REMARK SMILES IDX 70 35 88 36 61 37 48 38 49 39 54 40 50 41 51 42 53 43 55 44
REMARK SMILES IDX 52 45 74 46 75 47 80 48 76 49 77 50 79 51 81 52 78 53 62 54
REMARK SMILES IDX 63 55 68 56 64 57 65 58 67 59 69 60 66 61 6 62 7 63 8 64
REMARK SMILES IDX 9 65 10 66 11 67 12 68 13 69 38 70 14 71 23 72 37 73 22 74
REMARK SMILES IDX 24 75 36 76 25 77 35 78 29 79 30 80 15 81 16 82 21 83 17 84
REMARK SMILES IDX 20 85 18 86 19 87 26 88 27 89 28 90 31 91 32 92 33 93 34 94
REMARK H PARENT 86 23 60 34
REMARK Flexibility Score: inf
ROOT
ATOM      1  C   UNL A   1      42.153  33.568  35.721  1.00  0.00     0.202 C 
ENDROOT
BRANCH   1   2
ATOM      2  C   UNL A   1      42.021  33.985  34.261  1.00  0.00     0.261 C 
BRANCH   2   3
ATOM      3  O   UNL A   1      42.258  32.866  33.405  1.00  0.00    -0.460 OA
BRANCH   3   4
ATOM      4  C   UNL A   1      41.332  32.530  32.467  1.00  0.00     0.338 C 
ATOM      5  O   UNL A   1      40.315  33.193  32.300  1.00  0.00    -0.246 OA
BRANCH   4   6
ATOM      6  C   UNL A   1      41.718  31.490  31.486  1.00  0.00     0.060 A 
ATOM      7  C   UNL A   1      41.015  31.196  30.305  1.00  0.00     0.016 A 
ATOM      8  C   UNL A   1      42.890  30.809  31.776  1.00  0.00     0.016 A 
ATOM      9  C   UNL A   1      41.466  30.232  29.419  1.00  0.00     0.010 A 
ATOM     10  C   UNL A   1      43.337  29.839  30.894  1.00  0.00     0.010 A 
ATOM     11  C   UNL A   1      42.654  29.574  29.692  1.00  0.00    -0.014 A 
BRANCH  11  12
ATOM     12  C   UNL A   1      43.248  28.763  28.613  1.00  0.00     0.031 A 
ATOM     13  C   UNL A   1      44.323  29.494  27.886  1.00  0.00     0.074 A 
ATOM     14  C   UNL A   1      43.181  27.415  28.620  1.00  0.00     0.049 A 
ATOM     15  N   UNL A   1      45.490  29.599  28.447  1.00  0.00    -0.248 NA
ATOM     16  C   UNL A   1      44.100  30.477  26.824  1.00  0.00     0.031 C 
ATOM     17  C   UNL A   1      42.930  26.635  29.842  1.00  0.00     0.029 A 
ATOM     18  N   UNL A   1      43.535  26.468  27.686  1.00  0.00    -0.354 N 
ATOM     19  C   UNL A   1      46.070  30.753  27.978  1.00  0.00     0.074 A 
ATOM     20  C   UNL A   1      45.231  31.206  26.888  1.00  0.00     0.031 C 
ATOM     21  C   UNL A   1      43.364  25.376  29.645  1.00  0.00     0.029 A 
ATOM     22  C   UNL A   1      43.816  25.227  28.261  1.00  0.00     0.049 A 
ATOM     23  H   UNL A   1      43.585  26.647  26.718  1.00  0.00     0.167 HD
ATOM     24  C   UNL A   1      47.134  31.310  28.612  1.00  0.00     0.037 A 
ATOM     25  C   UNL A   1      44.892  24.468  27.914  1.00  0.00     0.037 A 
ATOM     26  C   UNL A   1      47.479  30.729  29.885  1.00  0.00     0.049 A 
ATOM     27  C   UNL A   1      46.040  25.311  28.423  1.00  0.00     0.074 A 
ATOM     28  C   UNL A   1      47.324  31.045  31.219  1.00  0.00     0.029 A 
ATOM     29  N   UNL A   1      48.066  29.487  29.894  1.00  0.00    -0.354 N 
ATOM     30  N   UNL A   1      46.400  25.457  29.671  1.00  0.00    -0.248 NA
ATOM     31  C   UNL A   1      46.634  26.285  27.508  1.00  0.00     0.031 C 
ATOM     32  C   UNL A   1      47.394  29.795  31.920  1.00  0.00     0.029 A 
ATOM     33  C   UNL A   1      47.553  28.793  30.963  1.00  0.00     0.049 A 
ATOM     34  H   UNL A   1      48.733  29.155  29.251  1.00  0.00     0.167 HD
ATOM     35  C   UNL A   1      47.059  26.689  29.735  1.00  0.00     0.074 A 
ATOM     36  C   UNL A   1      47.240  27.101  28.359  1.00  0.00     0.031 C 
ATOM     37  C   UNL A   1      47.243  27.378  30.903  1.00  0.00     0.037 A 
BRANCH  24  38
ATOM     38  C   UNL A   1      48.040  32.286  27.997  1.00  0.00     0.057 A 
ATOM     39  C   UNL A   1      49.095  31.979  27.142  1.00  0.00     0.134 A 
ATOM     40  C   UNL A   1      47.654  33.629  28.119  1.00  0.00     0.134 A 
ATOM     41  F   UNL A   1      49.500  30.712  26.977  1.00  0.00    -0.206 F 
ATOM     42  C   UNL A   1      49.722  32.986  26.399  1.00  0.00     0.040 A 
ATOM     43  C   UNL A   1      48.257  34.635  27.376  1.00  0.00     0.040 A 
ATOM     44  F   UNL A   1      46.630  33.963  28.923  1.00  0.00    -0.206 F 
ATOM     45  C   UNL A   1      49.289  34.311  26.502  1.00  0.00     0.006 A 
ENDBRANCH  24  38
BRANCH  25  46
ATOM     46  C   UNL A   1      44.884  23.871  26.541  1.00  0.00     0.057 A 
ATOM     47  C   UNL A   1      46.030  23.600  25.780  1.00  0.00     0.134 A 
ATOM     48  C   UNL A   1      43.661  23.516  25.944  1.00  0.00     0.134 A 
ATOM     49  F   UNL A   1      47.258  23.744  26.297  1.00  0.00    -0.206 F 
ATOM     50  C   UNL A   1      45.959  23.178  24.449  1.00  0.00     0.040 A 
ATOM     51  C   UNL A   1      43.573  23.066  24.624  1.00  0.00     0.040 A 
ATOM     52  F   UNL A   1      42.513  23.600  26.635  1.00  0.00    -0.206 F 
ATOM     53  C   UNL A   1      44.724  22.932  23.859  1.00  0.00     0.006 A 
ENDBRANCH  25  46
BRANCH  37  54
ATOM     54  C   UNL A   1      46.826  26.629  32.130  1.00  0.00     0.057 A 
ATOM     55  C   UNL A   1      47.675  25.727  32.788  1.00  0.00     0.134 A 
ATOM     56  C   UNL A   1      45.568  26.855  32.705  1.00  0.00     0.134 A 
ATOM     57  F   UNL A   1      48.905  25.464  32.320  1.00  0.00    -0.206 F 
ATOM     58  C   UNL A   1      47.282  25.068  33.958  1.00  0.00     0.040 A 
ATOM     59  C   UNL A   1      45.180  26.232  33.893  1.00  0.00     0.040 A 
ATOM     60  F   UNL A   1      44.693  27.691  32.122  1.00  0.00    -0.206 F 
ATOM     61  C   UNL A   1      46.036  25.331  34.520  1.00  0.00     0.006 A 
ENDBRANCH  37  54
ENDBRANCH  11  12
ENDBRANCH   4   6
ENDBRANCH   3   4
ENDBRANCH   2   3
ENDBRANCH   1   2
BRANCH   1  62
ATOM     62  O   UNL A   1      41.235  32.545  36.097  1.00  0.00    -0.374 OA
BRANCH  62  63
ATOM     63  C   UNL A   1      40.306  32.870  37.126  1.00  0.00     0.202 C 
BRANCH  63  64
ATOM     64  C   UNL A   1      38.891  32.870  36.558  1.00  0.00     0.261 C 
BRANCH  64  65
ATOM     65  O   UNL A   1      38.912  32.263  35.261  1.00  0.00    -0.459 OA
BRANCH  65  66
ATOM     66  C   UNL A   1      38.178  31.142  35.059  1.00  0.00     0.357 C 
ATOM     67  O   UNL A   1      37.790  30.343  35.905  1.00  0.00    -0.244 OA
BRANCH  66  68
ATOM     68  C   UNL A   1      37.725  31.142  33.654  1.00  0.00     0.154 A 
ATOM     69  C   UNL A   1      38.288  30.290  32.779  1.00  0.00     0.065 A 
ATOM     70  N   UNL A   1      36.692  31.975  33.253  1.00  0.00    -0.205 N 
ATOM     71  C   UNL A   1      37.638  30.239  31.436  1.00  0.00     0.075 A 
ATOM     72  C   UNL A   1      36.247  31.981  31.920  1.00  0.00     0.166 A 
ATOM     73  N   UNL A   1      36.044  32.872  34.024  1.00  0.00    -0.145 NA
ATOM     74  N   UNL A   1      36.702  31.044  31.019  1.00  0.00    -0.228 NA
ATOM     75  C   UNL A   1      35.397  33.072  31.849  1.00  0.00     0.069 A 
ATOM     76  C   UNL A   1      35.294  33.554  33.184  1.00  0.00     0.184 A 
ATOM     77  C   UNL A   1      34.777  33.634  30.725  1.00  0.00    -0.028 A 
ATOM     78  N   UNL A   1      34.554  34.620  33.539  1.00  0.00    -0.222 NA
ATOM     79  C   UNL A   1      34.034  34.770  31.129  1.00  0.00     0.038 A 
ATOM     80  C   UNL A   1      33.947  35.223  32.479  1.00  0.00     0.147 A 
BRANCH  71  81
ATOM     81  C   UNL A   1      38.137  29.148  30.565  1.00  0.00     0.000 A 
ATOM     82  C   UNL A   1      38.022  29.279  29.179  1.00  0.00     0.012 A 
ATOM     83  C   UNL A   1      38.757  28.021  31.123  1.00  0.00     0.012 A 
ATOM     84  C   UNL A   1      38.539  28.284  28.345  1.00  0.00     0.021 A 
ATOM     85  C   UNL A   1      39.270  27.025  30.282  1.00  0.00     0.021 A 
ATOM     86  C   UNL A   1      39.161  27.164  28.898  1.00  0.00     0.041 A 
ATOM     87  Cl  UNL A   1      39.800  25.946  27.863  1.00  0.00    -0.084 Cl
ENDBRANCH  71  81
BRANCH  77  88
ATOM     88  C   UNL A   1      34.989  33.124  29.337  1.00  0.00     0.020 C 
ATOM     89  C   UNL A   1      34.820  34.000  28.119  1.00  0.00     0.009 C 
ATOM     90  C   UNL A   1      36.198  33.618  28.572  1.00  0.00     0.009 C 
ENDBRANCH  77  88
BRANCH  80  91
ATOM     91  C   UNL A   1      33.166  36.490  32.804  1.00  0.00     0.433 C 
ATOM     92  F   UNL A   1      33.712  37.204  33.828  1.00  0.00    -0.165 F 
ATOM     93  F   UNL A   1      33.090  37.347  31.745  1.00  0.00    -0.165 F 
ATOM     94  F   UNL A   1      31.874  36.251  33.170  1.00  0.00    -0.165 F 
ENDBRANCH  80  91
ENDBRANCH  66  68
ENDBRANCH  65  66
ENDBRANCH  64  65
ENDBRANCH  63  64
ENDBRANCH  62  63
ENDBRANCH   1  62
TORSDOF 17
ENDMDL
