MODEL 1
REMARK VINA RESULT:     -12.4      0.000      0.000
REMARK SMILES Cc1ccc(F)cc1S(=O)(=O)Nc1cc(C(=O)OCCOCCOC(=O)c2ccc(-c3c4nc(c(-c5c(F)cccc5F)c5ccc([nH]5)c(-c5c(F)cccc5F)c5nc(c(-c6c(F)cccc6F)c6ccc3[nH]6)C=C5)C=C4)cc2)ccc1N(C)Cc1ccccc1
REMARK SMILES IDX 20 1 19 2 18 3 16 4 17 5 15 6 13 7 14 8 83 9 82 10 81 11
REMARK SMILES IDX 12 12 9 14 10 15 11 16 8 17 1 18 2 19 3 20 4 21 7 22 5 23
REMARK SMILES IDX 6 24 84 25 85 26 86 27 87 28 88 29 92 30 89 31 91 32 90 33
REMARK SMILES IDX 21 34 22 35 23 36 24 37 25 38 26 39 27 40 28 41 80 42 29 43
REMARK SMILES IDX 79 44 30 45 31 46 32 47 73 48 33 49 78 50 72 51 74 52 34 53
REMARK SMILES IDX 77 54 71 55 70 56 35 58 61 59 44 60 60 61 45 62 48 63 59 64
REMARK SMILES IDX 75 65 46 66 47 67 58 69 76 70 49 71 36 72 37 73 42 74 38 75
REMARK SMILES IDX 39 76 41 77 43 78 40 79 62 80 63 81 68 82 64 83 65 84 67 85
REMARK SMILES IDX 69 86 66 87 50 88 51 89 56 90 52 91 53 92 55 93 57 94 54 95
REMARK H PARENT 12 13 74 57 48 68
REMARK Flexibility Score: inf
ROOT
ATOM      1  C   UNL A   1      41.063  21.561  27.616  1.00  0.00     0.202 C 
ENDROOT
BRANCH   1   2
ATOM      2  C   UNL A   1      40.029  21.305  26.514  1.00  0.00     0.261 C 
BRANCH   2   3
ATOM      3  O   UNL A   1      39.672  22.498  25.759  1.00  0.00    -0.460 OA
BRANCH   3   4
ATOM      4  C   UNL A   1      38.431  22.947  26.062  1.00  0.00     0.338 C 
ATOM      5  O   UNL A   1      38.234  23.919  26.780  1.00  0.00    -0.246 OA
BRANCH   4   6
ATOM      6  C   UNL A   1      37.284  22.348  25.301  1.00  0.00     0.062 A 
ATOM      7  C   UNL A   1      34.956  22.884  24.772  1.00  0.00     0.073 A 
ATOM      8  C   UNL A   1      36.315  23.266  24.896  1.00  0.00     0.044 A 
ATOM      9  C   UNL A   1      34.517  21.552  24.733  1.00  0.00     0.061 A 
ATOM     10  C   UNL A   1      35.576  20.624  24.987  1.00  0.00     0.029 A 
ATOM     11  C   UNL A   1      36.920  21.008  25.323  1.00  0.00     0.018 A 
BRANCH   7  12
ATOM     12  N   UNL A   1      34.011  23.861  25.213  1.00  0.00    -0.277 N 
ATOM     13  H   UNL A   1      33.686  23.932  26.139  1.00  0.00     0.180 HD
BRANCH  12  14
ATOM     14  S   UNL A   1      33.504  24.906  23.921  1.00  0.00     0.262 S 
ATOM     15  O   UNL A   1      32.125  24.612  23.640  1.00  0.00    -0.201 OA
ATOM     16  O   UNL A   1      34.459  24.658  22.854  1.00  0.00    -0.201 OA
BRANCH  14  17
ATOM     17  C   UNL A   1      33.611  26.654  24.443  1.00  0.00     0.093 A 
ATOM     18  C   UNL A   1      33.672  27.673  22.120  1.00  0.00     0.046 C 
ATOM     19  C   UNL A   1      33.516  27.758  23.595  1.00  0.00    -0.030 A 
ATOM     20  C   UNL A   1      33.309  29.052  24.138  1.00  0.00     0.008 A 
ATOM     21  C   UNL A   1      33.277  29.280  25.509  1.00  0.00     0.039 A 
ATOM     22  C   UNL A   1      33.690  26.951  25.796  1.00  0.00     0.061 A 
ATOM     23  C   UNL A   1      33.521  28.218  26.337  1.00  0.00     0.124 A 
ATOM     24  F   UNL A   1      33.616  28.394  27.661  1.00  0.00    -0.207 F 
ENDBRANCH  14  17
ENDBRANCH  12  14
ENDBRANCH   7  12
BRANCH   9  25
ATOM     25  N   UNL A   1      33.137  21.196  24.647  1.00  0.00    -0.369 N 
ATOM     26  C   UNL A   1      32.274  21.790  25.679  1.00  0.00     0.144 C 
BRANCH  25  27
ATOM     27  C   UNL A   1      32.523  19.937  23.990  1.00  0.00     0.151 C 
BRANCH  27  28
ATOM     28  C   UNL A   1      32.807  18.438  24.369  1.00  0.00    -0.029 A 
ATOM     29  C   UNL A   1      32.508  17.736  25.558  1.00  0.00     0.005 A 
ATOM     30  C   UNL A   1      33.605  17.697  23.471  1.00  0.00     0.005 A 
ATOM     31  C   UNL A   1      32.644  16.332  25.667  1.00  0.00     0.000 A 
ATOM     32  C   UNL A   1      33.856  16.318  23.626  1.00  0.00     0.000 A 
ATOM     33  C   UNL A   1      33.295  15.614  24.680  1.00  0.00     0.000 A 
ENDBRANCH  27  28
ENDBRANCH  25  27
ENDBRANCH   9  25
ENDBRANCH   4   6
ENDBRANCH   3   4
ENDBRANCH   2   3
ENDBRANCH   1   2
BRANCH   1  34
ATOM     34  O   UNL A   1      42.434  21.252  27.383  1.00  0.00    -0.374 OA
BRANCH  34  35
ATOM     35  C   UNL A   1      42.840  20.895  26.071  1.00  0.00     0.202 C 
BRANCH  35  36
ATOM     36  C   UNL A   1      43.748  21.854  25.277  1.00  0.00     0.261 C 
BRANCH  36  37
ATOM     37  O   UNL A   1      43.129  23.077  24.844  1.00  0.00    -0.460 OA
BRANCH  37  38
ATOM     38  C   UNL A   1      43.865  24.191  25.079  1.00  0.00     0.338 C 
ATOM     39  O   UNL A   1      44.957  24.466  24.611  1.00  0.00    -0.246 OA
BRANCH  38  40
ATOM     40  C   UNL A   1      43.093  25.158  25.882  1.00  0.00     0.060 A 
ATOM     41  C   UNL A   1      43.691  26.395  26.163  1.00  0.00     0.016 A 
ATOM     42  C   UNL A   1      41.868  24.815  26.456  1.00  0.00     0.016 A 
ATOM     43  C   UNL A   1      43.094  27.274  27.059  1.00  0.00     0.010 A 
ATOM     44  C   UNL A   1      41.276  25.693  27.371  1.00  0.00     0.010 A 
ATOM     45  C   UNL A   1      41.911  26.903  27.710  1.00  0.00    -0.014 A 
BRANCH  45  46
ATOM     46  C   UNL A   1      41.464  27.690  28.884  1.00  0.00     0.031 A 
ATOM     47  C   UNL A   1      42.239  27.576  30.169  1.00  0.00     0.074 A 
ATOM     48  C   UNL A   1      40.429  28.542  28.792  1.00  0.00     0.049 A 
ATOM     49  N   UNL A   1      42.035  28.164  31.321  1.00  0.00    -0.248 NA
ATOM     50  C   UNL A   1      43.398  26.670  30.153  1.00  0.00     0.031 C 
ATOM     51  C   UNL A   1      39.640  28.785  27.588  1.00  0.00     0.029 A 
ATOM     52  N   UNL A   1      39.872  29.366  29.737  1.00  0.00    -0.354 N 
ATOM     53  C   UNL A   1      43.035  27.695  32.165  1.00  0.00     0.074 A 
ATOM     54  C   UNL A   1      43.814  26.740  31.407  1.00  0.00     0.031 C 
ATOM     55  C   UNL A   1      38.698  29.704  27.865  1.00  0.00     0.029 A 
ATOM     56  C   UNL A   1      38.800  30.086  29.272  1.00  0.00     0.049 A 
ATOM     57  H   UNL A   1      40.209  29.435  30.659  1.00  0.00     0.167 HD
ATOM     58  C   UNL A   1      43.290  28.039  33.450  1.00  0.00     0.037 A 
ATOM     59  C   UNL A   1      37.987  30.946  29.916  1.00  0.00     0.037 A 
ATOM     60  C   UNL A   1      42.508  28.985  34.202  1.00  0.00     0.049 A 
ATOM     61  C   UNL A   1      38.234  31.246  31.370  1.00  0.00     0.074 A 
ATOM     62  C   UNL A   1      42.681  29.405  35.509  1.00  0.00     0.029 A 
ATOM     63  N   UNL A   1      41.395  29.654  33.711  1.00  0.00    -0.354 N 
ATOM     64  N   UNL A   1      39.185  30.806  32.159  1.00  0.00    -0.248 NA
ATOM     65  C   UNL A   1      37.296  32.171  32.021  1.00  0.00     0.031 C 
ATOM     66  C   UNL A   1      41.638  30.283  35.827  1.00  0.00     0.029 A 
ATOM     67  C   UNL A   1      40.857  30.464  34.697  1.00  0.00     0.049 A 
ATOM     68  H   UNL A   1      41.041  29.567  32.797  1.00  0.00     0.167 HD
ATOM     69  C   UNL A   1      38.985  31.430  33.385  1.00  0.00     0.074 A 
ATOM     70  C   UNL A   1      37.824  32.283  33.231  1.00  0.00     0.031 C 
ATOM     71  C   UNL A   1      39.704  31.316  34.529  1.00  0.00     0.037 A 
BRANCH  58  72
ATOM     72  C   UNL A   1      44.443  27.350  34.126  1.00  0.00     0.057 A 
ATOM     73  C   UNL A   1      45.738  27.889  34.125  1.00  0.00     0.134 A 
ATOM     74  C   UNL A   1      44.258  26.125  34.778  1.00  0.00     0.134 A 
ATOM     75  F   UNL A   1      45.990  29.053  33.506  1.00  0.00    -0.206 F 
ATOM     76  C   UNL A   1      46.812  27.213  34.709  1.00  0.00     0.040 A 
ATOM     77  C   UNL A   1      45.317  25.457  35.396  1.00  0.00     0.040 A 
ATOM     78  F   UNL A   1      43.045  25.553  34.826  1.00  0.00    -0.206 F 
ATOM     79  C   UNL A   1      46.602  25.995  35.350  1.00  0.00     0.006 A 
ENDBRANCH  58  72
BRANCH  59  80
ATOM     80  C   UNL A   1      36.871  31.595  29.184  1.00  0.00     0.057 A 
ATOM     81  C   UNL A   1      35.698  30.892  28.884  1.00  0.00     0.134 A 
ATOM     82  C   UNL A   1      36.948  32.929  28.766  1.00  0.00     0.134 A 
ATOM     83  F   UNL A   1      35.573  29.606  29.241  1.00  0.00    -0.206 F 
ATOM     84  C   UNL A   1      34.648  31.486  28.183  1.00  0.00     0.040 A 
ATOM     85  C   UNL A   1      35.895  33.544  28.086  1.00  0.00     0.040 A 
ATOM     86  F   UNL A   1      38.043  33.658  29.024  1.00  0.00    -0.206 F 
ATOM     87  C   UNL A   1      34.743  32.820  27.787  1.00  0.00     0.006 A 
ENDBRANCH  59  80
BRANCH  71  88
ATOM     88  C   UNL A   1      39.292  32.176  35.692  1.00  0.00     0.057 A 
ATOM     89  C   UNL A   1      39.753  33.489  35.853  1.00  0.00     0.134 A 
ATOM     90  C   UNL A   1      38.390  31.688  36.648  1.00  0.00     0.134 A 
ATOM     91  F   UNL A   1      40.626  34.015  34.981  1.00  0.00    -0.206 F 
ATOM     92  C   UNL A   1      39.358  34.273  36.940  1.00  0.00     0.040 A 
ATOM     93  C   UNL A   1      37.963  32.473  37.720  1.00  0.00     0.040 A 
ATOM     94  F   UNL A   1      37.899  30.443  36.548  1.00  0.00    -0.206 F 
ATOM     95  C   UNL A   1      38.455  33.766  37.872  1.00  0.00     0.006 A 
ENDBRANCH  71  88
ENDBRANCH  45  46
ENDBRANCH  38  40
ENDBRANCH  37  38
ENDBRANCH  36  37
ENDBRANCH  35  36
ENDBRANCH  34  35
ENDBRANCH   1  34
TORSDOF 20
ENDMDL
MODEL 2
REMARK VINA RESULT:     -12.1      1.344      2.565
REMARK SMILES Cc1ccc(F)cc1S(=O)(=O)Nc1cc(C(=O)OCCOCCOC(=O)c2ccc(-c3c4nc(c(-c5c(F)cccc5F)c5ccc([nH]5)c(-c5c(F)cccc5F)c5nc(c(-c6c(F)cccc6F)c6ccc3[nH]6)C=C5)C=C4)cc2)ccc1N(C)Cc1ccccc1
REMARK SMILES IDX 20 1 19 2 18 3 16 4 17 5 15 6 13 7 14 8 83 9 82 10 81 11
REMARK SMILES IDX 12 12 9 14 10 15 11 16 8 17 1 18 2 19 3 20 4 21 7 22 5 23
REMARK SMILES IDX 6 24 84 25 85 26 86 27 87 28 88 29 92 30 89 31 91 32 90 33
REMARK SMILES IDX 21 34 22 35 23 36 24 37 25 38 26 39 27 40 28 41 80 42 29 43
REMARK SMILES IDX 79 44 30 45 31 46 32 47 73 48 33 49 78 50 72 51 74 52 34 53
REMARK SMILES IDX 77 54 71 55 70 56 35 58 61 59 44 60 60 61 45 62 48 63 59 64
REMARK SMILES IDX 75 65 46 66 47 67 58 69 76 70 49 71 36 72 37 73 42 74 38 75
REMARK SMILES IDX 39 76 41 77 43 78 40 79 62 80 63 81 68 82 64 83 65 84 67 85
REMARK SMILES IDX 69 86 66 87 50 88 51 89 56 90 52 91 53 92 55 93 57 94 54 95
REMARK H PARENT 12 13 74 57 48 68
REMARK Flexibility Score: inf
ROOT
ATOM      1  C   UNL A   1      41.928  20.343  26.712  1.00  0.00     0.202 C 
ENDROOT
BRANCH   1   2
ATOM      2  C   UNL A   1      40.669  21.210  26.831  1.00  0.00     0.261 C 
BRANCH   2   3
ATOM      3  O   UNL A   1      39.798  21.140  25.666  1.00  0.00    -0.460 OA
BRANCH   3   4
ATOM      4  C   UNL A   1      38.701  21.924  25.795  1.00  0.00     0.338 C 
ATOM      5  O   UNL A   1      38.723  23.008  26.363  1.00  0.00    -0.246 OA
BRANCH   4   6
ATOM      6  C   UNL A   1      37.483  21.525  25.014  1.00  0.00     0.062 A 
ATOM      7  C   UNL A   1      35.527  22.589  23.999  1.00  0.00     0.073 A 
ATOM      8  C   UNL A   1      36.921  22.552  24.254  1.00  0.00     0.044 A 
ATOM      9  C   UNL A   1      34.664  21.500  24.196  1.00  0.00     0.061 A 
ATOM     10  C   UNL A   1      35.321  20.396  24.827  1.00  0.00     0.029 A 
ATOM     11  C   UNL A   1      36.684  20.422  25.283  1.00  0.00     0.018 A 
BRANCH   7  12
ATOM     12  N   UNL A   1      34.940  23.891  24.043  1.00  0.00    -0.277 N 
ATOM     13  H   UNL A   1      34.629  24.381  23.248  1.00  0.00     0.180 HD
BRANCH  12  14
ATOM     14  S   UNL A   1      34.842  24.508  25.664  1.00  0.00     0.262 S 
ATOM     15  O   UNL A   1      36.108  25.112  25.977  1.00  0.00    -0.201 OA
ATOM     16  O   UNL A   1      34.444  23.362  26.467  1.00  0.00    -0.201 OA
BRANCH  14  17
ATOM     17  C   UNL A   1      33.558  25.803  25.771  1.00  0.00     0.093 A 
ATOM     18  C   UNL A   1      31.706  24.335  26.696  1.00  0.00     0.046 C 
ATOM     19  C   UNL A   1      32.309  25.655  26.375  1.00  0.00    -0.030 A 
ATOM     20  C   UNL A   1      31.523  26.800  26.667  1.00  0.00     0.008 A 
ATOM     21  C   UNL A   1      31.919  28.080  26.296  1.00  0.00     0.039 A 
ATOM     22  C   UNL A   1      33.850  27.082  25.319  1.00  0.00     0.061 A 
ATOM     23  C   UNL A   1      33.073  28.204  25.571  1.00  0.00     0.124 A 
ATOM     24  F   UNL A   1      33.449  29.396  25.088  1.00  0.00    -0.207 F 
ENDBRANCH  14  17
ENDBRANCH  12  14
ENDBRANCH   7  12
BRANCH   9  25
ATOM     25  N   UNL A   1      33.258  21.578  23.968  1.00  0.00    -0.369 N 
ATOM     26  C   UNL A   1      32.467  20.493  24.570  1.00  0.00     0.144 C 
BRANCH  25  27
ATOM     27  C   UNL A   1      32.525  22.297  22.810  1.00  0.00     0.151 C 
BRANCH  27  28
ATOM     28  C   UNL A   1      31.800  23.690  22.870  1.00  0.00    -0.029 A 
ATOM     29  C   UNL A   1      30.512  24.018  23.348  1.00  0.00     0.005 A 
ATOM     30  C   UNL A   1      32.446  24.768  22.225  1.00  0.00     0.005 A 
ATOM     31  C   UNL A   1      30.082  25.355  23.523  1.00  0.00     0.000 A 
ATOM     32  C   UNL A   1      31.968  26.093  22.284  1.00  0.00     0.000 A 
ATOM     33  C   UNL A   1      30.831  26.401  23.014  1.00  0.00     0.000 A 
ENDBRANCH  27  28
ENDBRANCH  25  27
ENDBRANCH   9  25
ENDBRANCH   4   6
ENDBRANCH   3   4
ENDBRANCH   2   3
ENDBRANCH   1   2
BRANCH   1  34
ATOM     34  O   UNL A   1      42.693  20.372  25.510  1.00  0.00    -0.374 OA
BRANCH  34  35
ATOM     35  C   UNL A   1      43.972  20.987  25.530  1.00  0.00     0.202 C 
BRANCH  35  36
ATOM     36  C   UNL A   1      44.294  22.085  24.498  1.00  0.00     0.261 C 
BRANCH  36  37
ATOM     37  O   UNL A   1      43.488  23.272  24.585  1.00  0.00    -0.460 OA
BRANCH  37  38
ATOM     38  C   UNL A   1      44.164  24.381  24.971  1.00  0.00     0.338 C 
ATOM     39  O   UNL A   1      45.275  24.732  24.612  1.00  0.00    -0.246 OA
BRANCH  38  40
ATOM     40  C   UNL A   1      43.301  25.247  25.798  1.00  0.00     0.060 A 
ATOM     41  C   UNL A   1      43.687  26.585  25.961  1.00  0.00     0.016 A 
ATOM     42  C   UNL A   1      42.213  24.732  26.503  1.00  0.00     0.016 A 
ATOM     43  C   UNL A   1      43.020  27.401  26.867  1.00  0.00     0.010 A 
ATOM     44  C   UNL A   1      41.553  25.549  27.429  1.00  0.00     0.010 A 
ATOM     45  C   UNL A   1      41.986  26.870  27.647  1.00  0.00    -0.014 A 
BRANCH  45  46
ATOM     46  C   UNL A   1      41.506  27.640  28.819  1.00  0.00     0.031 A 
ATOM     47  C   UNL A   1      42.273  27.544  30.110  1.00  0.00     0.074 A 
ATOM     48  C   UNL A   1      40.448  28.463  28.722  1.00  0.00     0.049 A 
ATOM     49  N   UNL A   1      42.043  28.121  31.262  1.00  0.00    -0.248 NA
ATOM     50  C   UNL A   1      43.457  26.672  30.101  1.00  0.00     0.031 C 
ATOM     51  C   UNL A   1      39.662  28.688  27.511  1.00  0.00     0.029 A 
ATOM     52  N   UNL A   1      39.860  29.268  29.664  1.00  0.00    -0.354 N 
ATOM     53  C   UNL A   1      43.048  27.678  32.113  1.00  0.00     0.074 A 
ATOM     54  C   UNL A   1      43.861  26.749  31.359  1.00  0.00     0.031 C 
ATOM     55  C   UNL A   1      38.692  29.578  27.783  1.00  0.00     0.029 A 
ATOM     56  C   UNL A   1      38.771  29.958  29.192  1.00  0.00     0.049 A 
ATOM     57  H   UNL A   1      40.186  29.343  30.589  1.00  0.00     0.167 HD
ATOM     58  C   UNL A   1      43.283  28.025  33.402  1.00  0.00     0.037 A 
ATOM     59  C   UNL A   1      37.929  30.792  29.832  1.00  0.00     0.037 A 
ATOM     60  C   UNL A   1      42.467  28.946  34.150  1.00  0.00     0.049 A 
ATOM     61  C   UNL A   1      38.155  31.094  31.289  1.00  0.00     0.074 A 
ATOM     62  C   UNL A   1      42.617  29.366  35.460  1.00  0.00     0.029 A 
ATOM     63  N   UNL A   1      41.340  29.584  33.652  1.00  0.00    -0.354 N 
ATOM     64  N   UNL A   1      39.112  30.678  32.085  1.00  0.00    -0.248 NA
ATOM     65  C   UNL A   1      37.186  31.989  31.935  1.00  0.00     0.031 C 
ATOM     66  C   UNL A   1      41.548  30.212  35.772  1.00  0.00     0.029 A 
ATOM     67  C   UNL A   1      40.771  30.376  34.636  1.00  0.00     0.049 A 
ATOM     68  H   UNL A   1      40.996  29.490  32.734  1.00  0.00     0.167 HD
ATOM     69  C   UNL A   1      38.884  31.293  33.311  1.00  0.00     0.074 A 
ATOM     70  C   UNL A   1      37.700  32.112  33.150  1.00  0.00     0.031 C 
ATOM     71  C   UNL A   1      39.595  31.195  34.461  1.00  0.00     0.037 A 
BRANCH  58  72
ATOM     72  C   UNL A   1      44.449  27.367  34.085  1.00  0.00     0.057 A 
ATOM     73  C   UNL A   1      45.729  27.941  34.094  1.00  0.00     0.134 A 
ATOM     74  C   UNL A   1      44.293  26.137  34.735  1.00  0.00     0.134 A 
ATOM     75  F   UNL A   1      45.953  29.111  33.477  1.00  0.00    -0.206 F 
ATOM     76  C   UNL A   1      46.817  27.293  34.684  1.00  0.00     0.040 A 
ATOM     77  C   UNL A   1      45.365  25.497  35.360  1.00  0.00     0.040 A 
ATOM     78  F   UNL A   1      43.095  25.532  34.774  1.00  0.00    -0.206 F 
ATOM     79  C   UNL A   1      46.635  26.069  35.323  1.00  0.00     0.006 A 
ENDBRANCH  58  72
BRANCH  59  80
ATOM     80  C   UNL A   1      36.801  31.412  29.093  1.00  0.00     0.057 A 
ATOM     81  C   UNL A   1      35.653  30.676  28.778  1.00  0.00     0.134 A 
ATOM     82  C   UNL A   1      36.841  32.750  28.683  1.00  0.00     0.134 A 
ATOM     83  F   UNL A   1      35.563  29.384  29.126  1.00  0.00    -0.206 F 
ATOM     84  C   UNL A   1      34.593  31.242  28.070  1.00  0.00     0.040 A 
ATOM     85  C   UNL A   1      35.778  33.337  27.997  1.00  0.00     0.040 A 
ATOM     86  F   UNL A   1      37.912  33.510  28.956  1.00  0.00    -0.206 F 
ATOM     87  C   UNL A   1      34.651  32.580  27.682  1.00  0.00     0.006 A 
ENDBRANCH  59  80
BRANCH  71  88
ATOM     88  C   UNL A   1      39.149  32.038  35.623  1.00  0.00     0.057 A 
ATOM     89  C   UNL A   1      39.528  33.379  35.764  1.00  0.00     0.134 A 
ATOM     90  C   UNL A   1      38.297  31.503  36.600  1.00  0.00     0.134 A 
ATOM     91  F   UNL A   1      40.350  33.952  34.872  1.00  0.00    -0.206 F 
ATOM     92  C   UNL A   1      39.102  34.148  36.850  1.00  0.00     0.040 A 
ATOM     93  C   UNL A   1      37.840  32.270  37.672  1.00  0.00     0.040 A 
ATOM     94  F   UNL A   1      37.886  30.229  36.520  1.00  0.00    -0.206 F 
ATOM     95  C   UNL A   1      38.250  33.594  37.804  1.00  0.00     0.006 A 
ENDBRANCH  71  88
ENDBRANCH  45  46
ENDBRANCH  38  40
ENDBRANCH  37  38
ENDBRANCH  36  37
ENDBRANCH  35  36
ENDBRANCH  34  35
ENDBRANCH   1  34
TORSDOF 20
ENDMDL
MODEL 3
REMARK VINA RESULT:     -11.8      2.926      7.500
REMARK SMILES Cc1ccc(F)cc1S(=O)(=O)Nc1cc(C(=O)OCCOCCOC(=O)c2ccc(-c3c4nc(c(-c5c(F)cccc5F)c5ccc([nH]5)c(-c5c(F)cccc5F)c5nc(c(-c6c(F)cccc6F)c6ccc3[nH]6)C=C5)C=C4)cc2)ccc1N(C)Cc1ccccc1
REMARK SMILES IDX 20 1 19 2 18 3 16 4 17 5 15 6 13 7 14 8 83 9 82 10 81 11
REMARK SMILES IDX 12 12 9 14 10 15 11 16 8 17 1 18 2 19 3 20 4 21 7 22 5 23
REMARK SMILES IDX 6 24 84 25 85 26 86 27 87 28 88 29 92 30 89 31 91 32 90 33
REMARK SMILES IDX 21 34 22 35 23 36 24 37 25 38 26 39 27 40 28 41 80 42 29 43
REMARK SMILES IDX 79 44 30 45 31 46 32 47 73 48 33 49 78 50 72 51 74 52 34 53
REMARK SMILES IDX 77 54 71 55 70 56 35 58 61 59 44 60 60 61 45 62 48 63 59 64
REMARK SMILES IDX 75 65 46 66 47 67 58 69 76 70 49 71 36 72 37 73 42 74 38 75
REMARK SMILES IDX 39 76 41 77 43 78 40 79 62 80 63 81 68 82 64 83 65 84 67 85
REMARK SMILES IDX 69 86 66 87 50 88 51 89 56 90 52 91 53 92 55 93 57 94 54 95
REMARK H PARENT 12 13 74 57 48 68
REMARK Flexibility Score: inf
ROOT
ATOM      1  C   UNL A   1      33.490  28.986  27.257  1.00  0.00     0.202 C 
ENDROOT
BRANCH   1   2
ATOM      2  C   UNL A   1      32.219  28.129  27.289  1.00  0.00     0.261 C 
BRANCH   2   3
ATOM      3  O   UNL A   1      32.078  27.251  26.136  1.00  0.00    -0.460 OA
BRANCH   3   4
ATOM      4  C   UNL A   1      31.520  26.060  26.461  1.00  0.00     0.338 C 
ATOM      5  O   UNL A   1      30.311  25.866  26.441  1.00  0.00    -0.246 OA
BRANCH   4   6
ATOM      6  C   UNL A   1      32.451  24.896  26.635  1.00  0.00     0.062 A 
ATOM      7  C   UNL A   1      34.131  23.683  25.334  1.00  0.00     0.073 A 
ATOM      8  C   UNL A   1      33.547  24.898  25.772  1.00  0.00     0.044 A 
ATOM      9  C   UNL A   1      33.892  22.436  25.933  1.00  0.00     0.061 A 
ATOM     10  C   UNL A   1      32.874  22.505  26.937  1.00  0.00     0.029 A 
ATOM     11  C   UNL A   1      32.124  23.692  27.245  1.00  0.00     0.018 A 
BRANCH   7  12
ATOM     12  N   UNL A   1      34.546  23.671  23.966  1.00  0.00    -0.277 N 
ATOM     13  H   UNL A   1      35.485  23.624  23.677  1.00  0.00     0.180 HD
BRANCH  12  14
ATOM     14  S   UNL A   1      33.196  23.751  22.876  1.00  0.00     0.262 S 
ATOM     15  O   UNL A   1      32.103  23.042  23.485  1.00  0.00    -0.201 OA
ATOM     16  O   UNL A   1      33.706  23.219  21.623  1.00  0.00    -0.201 OA
BRANCH  14  17
ATOM     17  C   UNL A   1      32.677  25.486  22.637  1.00  0.00     0.093 A 
ATOM     18  C   UNL A   1      30.194  25.129  23.019  1.00  0.00     0.046 C 
ATOM     19  C   UNL A   1      31.398  25.988  22.879  1.00  0.00    -0.030 A 
ATOM     20  C   UNL A   1      31.190  27.390  22.952  1.00  0.00     0.008 A 
ATOM     21  C   UNL A   1      32.212  28.301  22.707  1.00  0.00     0.039 A 
ATOM     22  C   UNL A   1      33.630  26.432  22.287  1.00  0.00     0.061 A 
ATOM     23  C   UNL A   1      33.428  27.805  22.323  1.00  0.00     0.124 A 
ATOM     24  F   UNL A   1      34.419  28.633  21.965  1.00  0.00    -0.207 F 
ENDBRANCH  14  17
ENDBRANCH  12  14
ENDBRANCH   7  12
BRANCH   9  25
ATOM     25  N   UNL A   1      34.463  21.223  25.445  1.00  0.00    -0.369 N 
ATOM     26  C   UNL A   1      35.934  21.193  25.417  1.00  0.00     0.144 C 
BRANCH  25  27
ATOM     27  C   UNL A   1      33.814  20.183  24.501  1.00  0.00     0.151 C 
BRANCH  27  28
ATOM     28  C   UNL A   1      33.807  18.621  24.675  1.00  0.00    -0.029 A 
ATOM     29  C   UNL A   1      34.780  17.667  24.303  1.00  0.00     0.005 A 
ATOM     30  C   UNL A   1      32.605  18.040  25.135  1.00  0.00     0.005 A 
ATOM     31  C   UNL A   1      34.717  16.314  24.714  1.00  0.00     0.000 A 
ATOM     32  C   UNL A   1      32.483  16.668  25.437  1.00  0.00     0.000 A 
ATOM     33  C   UNL A   1      33.572  15.820  25.313  1.00  0.00     0.000 A 
ENDBRANCH  27  28
ENDBRANCH  25  27
ENDBRANCH   9  25
ENDBRANCH   4   6
ENDBRANCH   3   4
ENDBRANCH   2   3
ENDBRANCH   1   2
BRANCH   1  34
ATOM     34  O   UNL A   1      33.382  30.407  27.264  1.00  0.00    -0.374 OA
BRANCH  34  35
ATOM     35  C   UNL A   1      32.152  31.001  26.879  1.00  0.00     0.202 C 
BRANCH  35  36
ATOM     36  C   UNL A   1      31.952  32.515  27.080  1.00  0.00     0.261 C 
BRANCH  36  37
ATOM     37  O   UNL A   1      33.157  33.300  27.109  1.00  0.00    -0.460 OA
BRANCH  37  38
ATOM     38  C   UNL A   1      33.249  34.144  28.165  1.00  0.00     0.338 C 
ATOM     39  O   UNL A   1      32.492  35.057  28.449  1.00  0.00    -0.246 OA
BRANCH  38  40
ATOM     40  C   UNL A   1      34.334  33.719  29.070  1.00  0.00     0.060 A 
ATOM     41  C   UNL A   1      35.625  34.203  28.811  1.00  0.00     0.016 A 
ATOM     42  C   UNL A   1      34.120  32.769  30.069  1.00  0.00     0.016 A 
ATOM     43  C   UNL A   1      36.714  33.701  29.512  1.00  0.00     0.010 A 
ATOM     44  C   UNL A   1      35.220  32.252  30.763  1.00  0.00     0.010 A 
ATOM     45  C   UNL A   1      36.524  32.682  30.453  1.00  0.00    -0.014 A 
BRANCH  45  46
ATOM     46  C   UNL A   1      37.706  31.939  30.952  1.00  0.00     0.031 A 
ATOM     47  C   UNL A   1      38.194  32.211  32.349  1.00  0.00     0.074 A 
ATOM     48  C   UNL A   1      38.294  30.991  30.202  1.00  0.00     0.049 A 
ATOM     49  N   UNL A   1      39.204  31.686  32.996  1.00  0.00    -0.248 NA
ATOM     50  C   UNL A   1      37.443  33.215  33.117  1.00  0.00     0.031 C 
ATOM     51  C   UNL A   1      37.876  30.595  28.860  1.00  0.00     0.029 A 
ATOM     52  N   UNL A   1      39.371  30.186  30.475  1.00  0.00    -0.354 N 
ATOM     53  C   UNL A   1      39.212  32.301  34.242  1.00  0.00     0.074 A 
ATOM     54  C   UNL A   1      38.137  33.269  34.243  1.00  0.00     0.031 C 
ATOM     55  C   UNL A   1      38.687  29.616  28.424  1.00  0.00     0.029 A 
ATOM     56  C   UNL A   1      39.698  29.341  29.444  1.00  0.00     0.049 A 
ATOM     57  H   UNL A   1      39.861  30.211  31.328  1.00  0.00     0.167 HD
ATOM     58  C   UNL A   1      40.031  32.070  35.297  1.00  0.00     0.037 A 
ATOM     59  C   UNL A   1      40.708  28.457  29.334  1.00  0.00     0.037 A 
ATOM     60  C   UNL A   1      41.103  31.110  35.289  1.00  0.00     0.049 A 
ATOM     61  C   UNL A   1      41.662  28.280  30.485  1.00  0.00     0.074 A 
ATOM     62  C   UNL A   1      41.992  30.798  36.303  1.00  0.00     0.029 A 
ATOM     63  N   UNL A   1      41.438  30.310  34.204  1.00  0.00    -0.354 N 
ATOM     64  N   UNL A   1      41.659  28.858  31.662  1.00  0.00    -0.248 NA
ATOM     65  C   UNL A   1      42.757  27.320  30.292  1.00  0.00     0.031 C 
ATOM     66  C   UNL A   1      42.899  29.852  35.812  1.00  0.00     0.029 A 
ATOM     67  C   UNL A   1      42.534  29.523  34.517  1.00  0.00     0.049 A 
ATOM     68  H   UNL A   1      40.964  30.302  33.341  1.00  0.00     0.167 HD
ATOM     69  C   UNL A   1      42.723  28.303  32.364  1.00  0.00     0.074 A 
ATOM     70  C   UNL A   1      43.345  27.339  31.480  1.00  0.00     0.031 C 
ATOM     71  C   UNL A   1      43.140  28.560  33.629  1.00  0.00     0.037 A 
BRANCH  58  72
ATOM     72  C   UNL A   1      39.813  32.905  36.527  1.00  0.00     0.057 A 
ATOM     73  C   UNL A   1      38.857  32.570  37.497  1.00  0.00     0.134 A 
ATOM     74  C   UNL A   1      40.563  34.068  36.741  1.00  0.00     0.134 A 
ATOM     75  F   UNL A   1      38.093  31.477  37.348  1.00  0.00    -0.206 F 
ATOM     76  C   UNL A   1      38.626  33.384  38.609  1.00  0.00     0.040 A 
ATOM     77  C   UNL A   1      40.365  34.871  37.866  1.00  0.00     0.040 A 
ATOM     78  F   UNL A   1      41.501  34.448  35.859  1.00  0.00    -0.206 F 
ATOM     79  C   UNL A   1      39.384  34.536  38.797  1.00  0.00     0.006 A 
ENDBRANCH  58  72
BRANCH  59  80
ATOM     80  C   UNL A   1      40.860  27.659  28.091  1.00  0.00     0.057 A 
ATOM     81  C   UNL A   1      40.222  26.422  27.945  1.00  0.00     0.134 A 
ATOM     82  C   UNL A   1      41.646  28.109  27.025  1.00  0.00     0.134 A 
ATOM     83  F   UNL A   1      39.472  25.928  28.941  1.00  0.00    -0.206 F 
ATOM     84  C   UNL A   1      40.370  25.655  26.789  1.00  0.00     0.040 A 
ATOM     85  C   UNL A   1      41.783  27.365  25.852  1.00  0.00     0.040 A 
ATOM     86  F   UNL A   1      42.282  29.287  27.101  1.00  0.00    -0.206 F 
ATOM     87  C   UNL A   1      41.148  26.131  25.734  1.00  0.00     0.006 A 
ENDBRANCH  59  80
BRANCH  71  88
ATOM     88  C   UNL A   1      44.290  27.748  34.155  1.00  0.00     0.057 A 
ATOM     89  C   UNL A   1      44.103  26.543  34.845  1.00  0.00     0.134 A 
ATOM     90  C   UNL A   1      45.610  28.166  33.937  1.00  0.00     0.134 A 
ATOM     91  F   UNL A   1      42.865  26.089  35.098  1.00  0.00    -0.206 F 
ATOM     92  C   UNL A   1      45.184  25.801  35.326  1.00  0.00     0.040 A 
ATOM     93  C   UNL A   1      46.699  27.417  34.384  1.00  0.00     0.040 A 
ATOM     94  F   UNL A   1      45.863  29.304  33.273  1.00  0.00    -0.206 F 
ATOM     95  C   UNL A   1      46.486  26.235  35.089  1.00  0.00     0.006 A 
ENDBRANCH  71  88
ENDBRANCH  45  46
ENDBRANCH  38  40
ENDBRANCH  37  38
ENDBRANCH  36  37
ENDBRANCH  35  36
ENDBRANCH  34  35
ENDBRANCH   1  34
TORSDOF 20
ENDMDL
