MODEL 1
REMARK VINA RESULT:     -11.5      0.000      0.000
REMARK SMILES CCc1c(C(=O)NCC(=O)OCCOCCOC(=O)c2ccc(-c3c4nc(c(-c5c(F)cccc5F)c5ccc([nH]5)c(-c5c(F)cccc5F)c5nc(c(-c6c(F)cccc6F)c6ccc3[nH]6)C=C5)C=C4)cc2)nnn1-c1ccc(Cl)cc1Cl
REMARK SMILES IDX 13 1 12 2 11 3 9 4 10 5 8 6 7 7 5 8 6 9 4 11 3 12 76 13
REMARK SMILES IDX 74 14 75 15 2 16 1 17 77 18 78 19 83 20 79 21 82 22 84 23
REMARK SMILES IDX 80 24 81 25 14 26 15 27 16 28 17 29 18 30 19 31 20 32 21 33
REMARK SMILES IDX 73 34 22 35 72 36 23 37 24 38 25 39 66 40 26 41 71 42 65 43
REMARK SMILES IDX 67 44 27 45 70 46 64 47 63 48 28 50 54 51 37 52 53 53 38 54
REMARK SMILES IDX 41 55 52 56 68 57 39 58 40 59 51 61 69 62 42 63 29 64 30 65
REMARK SMILES IDX 35 66 31 67 32 68 34 69 36 70 33 71 55 72 56 73 61 74 57 75
REMARK SMILES IDX 58 76 60 77 62 78 59 79 43 80 44 81 49 82 45 83 46 84 48 85
REMARK SMILES IDX 50 86 47 87
REMARK H PARENT 7 10 67 49 41 60
REMARK Flexibility Score: inf
ROOT
ATOM      1  C   UNL A   1      34.591  32.789  27.864  1.00  0.00     0.202 C 
ENDROOT
BRANCH   1   2
ATOM      2  C   UNL A   1      34.245  31.298  27.788  1.00  0.00     0.261 C 
BRANCH   2   3
ATOM      3  O   UNL A   1      32.907  31.057  27.325  1.00  0.00    -0.462 OA
BRANCH   3   4
ATOM      4  C   UNL A   1      32.665  29.792  26.880  1.00  0.00     0.325 C 
ATOM      5  O   UNL A   1      31.757  29.072  27.281  1.00  0.00    -0.250 OA
BRANCH   4   6
ATOM      6  C   UNL A   1      33.516  29.435  25.660  1.00  0.00     0.239 C 
BRANCH   6   7
ATOM      7  N   UNL A   1      32.865  29.607  24.392  1.00  0.00    -0.340 N 
ATOM      8  C   UNL A   1      32.593  28.750  23.367  1.00  0.00     0.274 C 
ATOM      9  O   UNL A   1      31.897  29.265  22.482  1.00  0.00    -0.267 OA
ATOM     10  H   UNL A   1      32.554  30.527  24.231  1.00  0.00     0.164 HD
BRANCH   8  11
ATOM     11  C   UNL A   1      33.037  27.349  23.246  1.00  0.00     0.174 A 
ATOM     12  C   UNL A   1      33.214  26.221  24.063  1.00  0.00     0.077 A 
ATOM     13  N   UNL A   1      33.653  25.239  23.165  1.00  0.00    -0.215 N 
ATOM     14  N   UNL A   1      33.500  27.016  21.980  1.00  0.00    -0.124 NA
ATOM     15  N   UNL A   1      33.964  25.788  21.983  1.00  0.00    -0.061 NA
BRANCH  12  16
ATOM     16  C   UNL A   1      33.142  25.895  25.522  1.00  0.00     0.055 C 
ATOM     17  C   UNL A   1      31.716  25.849  26.058  1.00  0.00     0.011 C 
ENDBRANCH  12  16
BRANCH  13  18
ATOM     18  C   UNL A   1      34.042  23.913  23.445  1.00  0.00     0.085 A 
ATOM     19  C   UNL A   1      35.417  23.650  23.558  1.00  0.00     0.031 A 
ATOM     20  C   UNL A   1      33.105  22.904  23.697  1.00  0.00     0.068 A 
ATOM     21  C   UNL A   1      35.841  22.410  24.029  1.00  0.00     0.023 A 
ATOM     22  C   UNL A   1      33.537  21.671  24.187  1.00  0.00     0.043 A 
ATOM     23  Cl  UNL A   1      31.424  23.067  23.314  1.00  0.00    -0.082 Cl
ATOM     24  C   UNL A   1      34.900  21.437  24.366  1.00  0.00     0.042 A 
ATOM     25  Cl  UNL A   1      35.426  19.928  25.000  1.00  0.00    -0.084 Cl
ENDBRANCH  13  18
ENDBRANCH   8  11
ENDBRANCH   6   7
ENDBRANCH   4   6
ENDBRANCH   3   4
ENDBRANCH   2   3
ENDBRANCH   1   2
BRANCH   1  26
ATOM     26  O   UNL A   1      34.205  33.555  29.004  1.00  0.00    -0.374 OA
BRANCH  26  27
ATOM     27  C   UNL A   1      33.512  34.787  28.885  1.00  0.00     0.202 C 
BRANCH  27  28
ATOM     28  C   UNL A   1      33.150  35.593  30.129  1.00  0.00     0.261 C 
BRANCH  28  29
ATOM     29  O   UNL A   1      32.900  34.786  31.266  1.00  0.00    -0.460 OA
BRANCH  29  30
ATOM     30  C   UNL A   1      33.286  35.390  32.417  1.00  0.00     0.338 C 
ATOM     31  O   UNL A   1      32.964  36.497  32.806  1.00  0.00    -0.246 OA
BRANCH  30  32
ATOM     32  C   UNL A   1      34.311  34.573  33.075  1.00  0.00     0.060 A 
ATOM     33  C   UNL A   1      35.510  35.243  33.321  1.00  0.00     0.016 A 
ATOM     34  C   UNL A   1      34.226  33.175  33.022  1.00  0.00     0.016 A 
ATOM     35  C   UNL A   1      36.672  34.531  33.172  1.00  0.00     0.010 A 
ATOM     36  C   UNL A   1      35.390  32.464  32.876  1.00  0.00     0.010 A 
ATOM     37  C   UNL A   1      36.584  33.176  32.832  1.00  0.00    -0.014 A 
BRANCH  37  38
ATOM     38  C   UNL A   1      37.812  32.500  32.497  1.00  0.00     0.031 A 
ATOM     39  C   UNL A   1      38.721  32.411  33.654  1.00  0.00     0.074 A 
ATOM     40  C   UNL A   1      38.065  31.996  31.277  1.00  0.00     0.049 A 
ATOM     41  N   UNL A   1      39.786  33.110  33.851  1.00  0.00    -0.248 NA
ATOM     42  C   UNL A   1      38.271  31.638  34.819  1.00  0.00     0.031 C 
ATOM     43  C   UNL A   1      37.169  31.829  30.132  1.00  0.00     0.029 A 
ATOM     44  N   UNL A   1      39.227  31.446  30.839  1.00  0.00    -0.354 N 
ATOM     45  C   UNL A   1      40.258  32.715  35.094  1.00  0.00     0.074 A 
ATOM     46  C   UNL A   1      39.195  31.973  35.719  1.00  0.00     0.031 C 
ATOM     47  C   UNL A   1      37.755  31.009  29.225  1.00  0.00     0.029 A 
ATOM     48  C   UNL A   1      39.108  30.714  29.663  1.00  0.00     0.049 A 
ATOM     49  H   UNL A   1      40.082  31.555  31.315  1.00  0.00     0.167 HD
ATOM     50  C   UNL A   1      41.576  32.820  35.405  1.00  0.00     0.037 A 
ATOM     51  C   UNL A   1      40.054  29.866  29.184  1.00  0.00     0.037 A 
ATOM     52  C   UNL A   1      42.265  33.689  34.484  1.00  0.00     0.049 A 
ATOM     53  C   UNL A   1      41.351  30.269  29.800  1.00  0.00     0.074 A 
ATOM     54  C   UNL A   1      42.169  35.030  34.166  1.00  0.00     0.029 A 
ATOM     55  N   UNL A   1      42.939  33.099  33.442  1.00  0.00    -0.354 N 
ATOM     56  N   UNL A   1      41.952  31.396  29.525  1.00  0.00    -0.248 NA
ATOM     57  C   UNL A   1      41.706  29.671  31.081  1.00  0.00     0.031 C 
ATOM     58  C   UNL A   1      42.359  35.090  32.755  1.00  0.00     0.029 A 
ATOM     59  C   UNL A   1      42.630  33.798  32.300  1.00  0.00     0.049 A 
ATOM     60  H   UNL A   1      43.534  32.317  33.502  1.00  0.00     0.167 HD
ATOM     61  C   UNL A   1      42.411  31.862  30.750  1.00  0.00     0.074 A 
ATOM     62  C   UNL A   1      42.282  30.728  31.664  1.00  0.00     0.031 C 
ATOM     63  C   UNL A   1      42.565  33.199  30.988  1.00  0.00     0.037 A 
BRANCH  50  64
ATOM     64  C   UNL A   1      42.300  31.850  36.293  1.00  0.00     0.057 A 
ATOM     65  C   UNL A   1      43.017  32.337  37.396  1.00  0.00     0.134 A 
ATOM     66  C   UNL A   1      42.557  30.507  35.948  1.00  0.00     0.134 A 
ATOM     67  F   UNL A   1      42.869  33.606  37.807  1.00  0.00    -0.206 F 
ATOM     68  C   UNL A   1      43.969  31.561  38.066  1.00  0.00     0.040 A 
ATOM     69  C   UNL A   1      43.464  29.708  36.643  1.00  0.00     0.040 A 
ATOM     70  F   UNL A   1      42.030  29.928  34.862  1.00  0.00    -0.206 F 
ATOM     71  C   UNL A   1      44.200  30.245  37.686  1.00  0.00     0.006 A 
ENDBRANCH  50  64
BRANCH  51  72
ATOM     72  C   UNL A   1      39.846  28.527  28.579  1.00  0.00     0.057 A 
ATOM     73  C   UNL A   1      40.380  28.208  27.322  1.00  0.00     0.134 A 
ATOM     74  C   UNL A   1      39.365  27.442  29.334  1.00  0.00     0.134 A 
ATOM     75  F   UNL A   1      40.902  29.165  26.541  1.00  0.00    -0.206 F 
ATOM     76  C   UNL A   1      40.457  26.886  26.855  1.00  0.00     0.040 A 
ATOM     77  C   UNL A   1      39.433  26.120  28.880  1.00  0.00     0.040 A 
ATOM     78  F   UNL A   1      38.896  27.613  30.577  1.00  0.00    -0.206 F 
ATOM     79  C   UNL A   1      39.994  25.837  27.641  1.00  0.00     0.006 A 
ENDBRANCH  51  72
BRANCH  63  80
ATOM     80  C   UNL A   1      42.425  34.141  29.823  1.00  0.00     0.057 A 
ATOM     81  C   UNL A   1      41.218  34.752  29.446  1.00  0.00     0.134 A 
ATOM     82  C   UNL A   1      43.581  34.572  29.164  1.00  0.00     0.134 A 
ATOM     83  F   UNL A   1      40.074  34.483  30.088  1.00  0.00    -0.206 F 
ATOM     84  C   UNL A   1      41.161  35.716  28.433  1.00  0.00     0.040 A 
ATOM     85  C   UNL A   1      43.544  35.558  28.175  1.00  0.00     0.040 A 
ATOM     86  F   UNL A   1      44.779  34.078  29.512  1.00  0.00    -0.206 F 
ATOM     87  C   UNL A   1      42.330  36.126  27.799  1.00  0.00     0.006 A 
ENDBRANCH  63  80
ENDBRANCH  37  38
ENDBRANCH  30  32
ENDBRANCH  29  30
ENDBRANCH  28  29
ENDBRANCH  27  28
ENDBRANCH  26  27
ENDBRANCH   1  26
TORSDOF 18
ENDMDL
MODEL 2
REMARK VINA RESULT:     -11.3      5.723     10.524
REMARK SMILES CCc1c(C(=O)NCC(=O)OCCOCCOC(=O)c2ccc(-c3c4nc(c(-c5c(F)cccc5F)c5ccc([nH]5)c(-c5c(F)cccc5F)c5nc(c(-c6c(F)cccc6F)c6ccc3[nH]6)C=C5)C=C4)cc2)nnn1-c1ccc(Cl)cc1Cl
REMARK SMILES IDX 13 1 12 2 11 3 9 4 10 5 8 6 7 7 5 8 6 9 4 11 3 12 76 13
REMARK SMILES IDX 74 14 75 15 2 16 1 17 77 18 78 19 83 20 79 21 82 22 84 23
REMARK SMILES IDX 80 24 81 25 14 26 15 27 16 28 17 29 18 30 19 31 20 32 21 33
REMARK SMILES IDX 73 34 22 35 72 36 23 37 24 38 25 39 66 40 26 41 71 42 65 43
REMARK SMILES IDX 67 44 27 45 70 46 64 47 63 48 28 50 54 51 37 52 53 53 38 54
REMARK SMILES IDX 41 55 52 56 68 57 39 58 40 59 51 61 69 62 42 63 29 64 30 65
REMARK SMILES IDX 35 66 31 67 32 68 34 69 36 70 33 71 55 72 56 73 61 74 57 75
REMARK SMILES IDX 58 76 60 77 62 78 59 79 43 80 44 81 49 82 45 83 46 84 48 85
REMARK SMILES IDX 50 86 47 87
REMARK H PARENT 7 10 67 49 41 60
REMARK Flexibility Score: inf
ROOT
ATOM      1  C   UNL A   1      39.940  21.502  26.223  1.00  0.00     0.202 C 
ENDROOT
BRANCH   1   2
ATOM      2  C   UNL A   1      38.715  20.898  25.530  1.00  0.00     0.261 C 
BRANCH   2   3
ATOM      3  O   UNL A   1      37.829  21.892  24.991  1.00  0.00    -0.462 OA
BRANCH   3   4
ATOM      4  C   UNL A   1      36.506  21.690  25.243  1.00  0.00     0.325 C 
ATOM      5  O   UNL A   1      35.891  20.666  24.965  1.00  0.00    -0.250 OA
BRANCH   4   6
ATOM      6  C   UNL A   1      35.905  22.795  26.114  1.00  0.00     0.239 C 
BRANCH   6   7
ATOM      7  N   UNL A   1      35.000  22.344  27.132  1.00  0.00    -0.340 N 
ATOM      8  C   UNL A   1      33.695  22.632  27.405  1.00  0.00     0.274 C 
ATOM      9  O   UNL A   1      33.228  21.933  28.313  1.00  0.00    -0.267 OA
ATOM     10  H   UNL A   1      35.400  21.697  27.757  1.00  0.00     0.164 HD
BRANCH   8  11
ATOM     11  C   UNL A   1      32.858  23.648  26.740  1.00  0.00     0.174 A 
ATOM     12  C   UNL A   1      32.962  24.593  25.707  1.00  0.00     0.077 A 
ATOM     13  N   UNL A   1      31.683  25.164  25.664  1.00  0.00    -0.215 N 
ATOM     14  N   UNL A   1      31.607  23.809  27.320  1.00  0.00    -0.124 NA
ATOM     15  N   UNL A   1      30.967  24.795  26.733  1.00  0.00    -0.061 NA
BRANCH  12  16
ATOM     16  C   UNL A   1      34.032  25.132  24.811  1.00  0.00     0.055 C 
ATOM     17  C   UNL A   1      34.161  24.368  23.499  1.00  0.00     0.011 C 
ENDBRANCH  12  16
BRANCH  13  18
ATOM     18  C   UNL A   1      31.226  26.220  24.847  1.00  0.00     0.085 A 
ATOM     19  C   UNL A   1      31.366  27.527  25.338  1.00  0.00     0.031 A 
ATOM     20  C   UNL A   1      30.737  25.995  23.555  1.00  0.00     0.068 A 
ATOM     21  C   UNL A   1      31.119  28.607  24.492  1.00  0.00     0.023 A 
ATOM     22  C   UNL A   1      30.510  27.081  22.708  1.00  0.00     0.043 A 
ATOM     23  Cl  UNL A   1      30.278  24.427  22.983  1.00  0.00    -0.082 Cl
ATOM     24  C   UNL A   1      30.718  28.378  23.175  1.00  0.00     0.042 A 
ATOM     25  Cl  UNL A   1      30.468  29.712  22.118  1.00  0.00    -0.084 Cl
ENDBRANCH  13  18
ENDBRANCH   8  11
ENDBRANCH   6   7
ENDBRANCH   4   6
ENDBRANCH   3   4
ENDBRANCH   2   3
ENDBRANCH   1   2
BRANCH   1  26
ATOM     26  O   UNL A   1      41.238  20.964  25.976  1.00  0.00    -0.374 OA
BRANCH  26  27
ATOM     27  C   UNL A   1      41.586  19.635  26.335  1.00  0.00     0.202 C 
BRANCH  27  28
ATOM     28  C   UNL A   1      42.743  18.926  25.639  1.00  0.00     0.261 C 
BRANCH  28  29
ATOM     29  O   UNL A   1      43.964  19.642  25.711  1.00  0.00    -0.460 OA
BRANCH  29  30
ATOM     30  C   UNL A   1      44.387  20.053  24.490  1.00  0.00     0.338 C 
ATOM     31  O   UNL A   1      44.547  19.364  23.501  1.00  0.00    -0.246 OA
BRANCH  30  32
ATOM     32  C   UNL A   1      44.802  21.458  24.568  1.00  0.00     0.060 A 
ATOM     33  C   UNL A   1      45.705  21.735  25.595  1.00  0.00     0.016 A 
ATOM     34  C   UNL A   1      44.013  22.450  23.970  1.00  0.00     0.016 A 
ATOM     35  C   UNL A   1      45.567  22.932  26.250  1.00  0.00     0.010 A 
ATOM     36  C   UNL A   1      43.880  23.649  24.625  1.00  0.00     0.010 A 
ATOM     37  C   UNL A   1      44.569  23.815  25.821  1.00  0.00    -0.014 A 
BRANCH  37  38
ATOM     38  C   UNL A   1      44.320  24.976  26.638  1.00  0.00     0.031 A 
ATOM     39  C   UNL A   1      45.404  25.967  26.525  1.00  0.00     0.074 A 
ATOM     40  C   UNL A   1      43.213  25.125  27.386  1.00  0.00     0.049 A 
ATOM     41  N   UNL A   1      46.320  26.210  27.399  1.00  0.00    -0.248 NA
ATOM     42  C   UNL A   1      45.634  26.581  25.211  1.00  0.00     0.031 C 
ATOM     43  C   UNL A   1      41.987  24.326  27.408  1.00  0.00     0.029 A 
ATOM     44  N   UNL A   1      42.944  26.123  28.267  1.00  0.00    -0.354 N 
ATOM     45  C   UNL A   1      47.137  27.168  26.816  1.00  0.00     0.074 A 
ATOM     46  C   UNL A   1      46.793  27.205  25.419  1.00  0.00     0.031 C 
ATOM     47  C   UNL A   1      41.026  25.006  28.079  1.00  0.00     0.029 A 
ATOM     48  C   UNL A   1      41.609  26.210  28.645  1.00  0.00     0.049 A 
ATOM     49  H   UNL A   1      43.635  26.734  28.608  1.00  0.00     0.167 HD
ATOM     50  C   UNL A   1      47.859  28.027  27.582  1.00  0.00     0.037 A 
ATOM     51  C   UNL A   1      41.059  27.270  29.293  1.00  0.00     0.037 A 
ATOM     52  C   UNL A   1      47.942  27.572  28.947  1.00  0.00     0.049 A 
ATOM     53  C   UNL A   1      42.176  27.996  29.962  1.00  0.00     0.074 A 
ATOM     54  C   UNL A   1      48.491  26.464  29.563  1.00  0.00     0.029 A 
ATOM     55  N   UNL A   1      47.051  28.104  29.846  1.00  0.00    -0.354 N 
ATOM     56  N   UNL A   1      42.855  27.498  30.961  1.00  0.00    -0.248 NA
ATOM     57  C   UNL A   1      42.860  29.034  29.201  1.00  0.00     0.031 C 
ATOM     58  C   UNL A   1      47.566  26.116  30.590  1.00  0.00     0.029 A 
ATOM     59  C   UNL A   1      46.544  27.067  30.590  1.00  0.00     0.049 A 
ATOM     60  H   UNL A   1      46.817  29.055  29.940  1.00  0.00     0.167 HD
ATOM     61  C   UNL A   1      44.176  27.830  30.693  1.00  0.00     0.074 A 
ATOM     62  C   UNL A   1      44.111  28.828  29.626  1.00  0.00     0.031 C 
ATOM     63  C   UNL A   1      45.208  27.052  31.138  1.00  0.00     0.037 A 
BRANCH  50  64
ATOM     64  C   UNL A   1      48.154  29.444  27.185  1.00  0.00     0.057 A 
ATOM     65  C   UNL A   1      49.483  29.896  27.198  1.00  0.00     0.134 A 
ATOM     66  C   UNL A   1      47.174  30.451  27.073  1.00  0.00     0.134 A 
ATOM     67  F   UNL A   1      50.502  29.031  27.318  1.00  0.00    -0.206 F 
ATOM     68  C   UNL A   1      49.807  31.255  27.167  1.00  0.00     0.040 A 
ATOM     69  C   UNL A   1      47.489  31.807  26.986  1.00  0.00     0.040 A 
ATOM     70  F   UNL A   1      45.862  30.192  27.148  1.00  0.00    -0.206 F 
ATOM     71  C   UNL A   1      48.809  32.217  27.066  1.00  0.00     0.006 A 
ENDBRANCH  50  64
BRANCH  51  72
ATOM     72  C   UNL A   1      39.742  27.902  29.035  1.00  0.00     0.057 A 
ATOM     73  C   UNL A   1      38.787  28.030  30.054  1.00  0.00     0.134 A 
ATOM     74  C   UNL A   1      39.497  28.648  27.868  1.00  0.00     0.134 A 
ATOM     75  F   UNL A   1      38.949  27.393  31.224  1.00  0.00    -0.206 F 
ATOM     76  C   UNL A   1      37.669  28.871  29.931  1.00  0.00     0.040 A 
ATOM     77  C   UNL A   1      38.385  29.487  27.731  1.00  0.00     0.040 A 
ATOM     78  F   UNL A   1      40.372  28.662  26.854  1.00  0.00    -0.206 F 
ATOM     79  C   UNL A   1      37.474  29.612  28.771  1.00  0.00     0.006 A 
ENDBRANCH  51  72
BRANCH  63  80
ATOM     80  C   UNL A   1      44.887  25.943  32.103  1.00  0.00     0.057 A 
ATOM     81  C   UNL A   1      44.573  24.630  31.716  1.00  0.00     0.134 A 
ATOM     82  C   UNL A   1      45.062  26.171  33.472  1.00  0.00     0.134 A 
ATOM     83  F   UNL A   1      44.488  24.290  30.424  1.00  0.00    -0.206 F 
ATOM     84  C   UNL A   1      44.403  23.604  32.652  1.00  0.00     0.040 A 
ATOM     85  C   UNL A   1      44.929  25.148  34.414  1.00  0.00     0.040 A 
ATOM     86  F   UNL A   1      45.421  27.387  33.912  1.00  0.00    -0.206 F 
ATOM     87  C   UNL A   1      44.588  23.862  34.006  1.00  0.00     0.006 A 
ENDBRANCH  63  80
ENDBRANCH  37  38
ENDBRANCH  30  32
ENDBRANCH  29  30
ENDBRANCH  28  29
ENDBRANCH  27  28
ENDBRANCH  26  27
ENDBRANCH   1  26
TORSDOF 18
ENDMDL
MODEL 3
REMARK VINA RESULT:     -10.4      3.648      7.818
REMARK SMILES CCc1c(C(=O)NCC(=O)OCCOCCOC(=O)c2ccc(-c3c4nc(c(-c5c(F)cccc5F)c5ccc([nH]5)c(-c5c(F)cccc5F)c5nc(c(-c6c(F)cccc6F)c6ccc3[nH]6)C=C5)C=C4)cc2)nnn1-c1ccc(Cl)cc1Cl
REMARK SMILES IDX 13 1 12 2 11 3 9 4 10 5 8 6 7 7 5 8 6 9 4 11 3 12 76 13
REMARK SMILES IDX 74 14 75 15 2 16 1 17 77 18 78 19 83 20 79 21 82 22 84 23
REMARK SMILES IDX 80 24 81 25 14 26 15 27 16 28 17 29 18 30 19 31 20 32 21 33
REMARK SMILES IDX 73 34 22 35 72 36 23 37 24 38 25 39 66 40 26 41 71 42 65 43
REMARK SMILES IDX 67 44 27 45 70 46 64 47 63 48 28 50 54 51 37 52 53 53 38 54
REMARK SMILES IDX 41 55 52 56 68 57 39 58 40 59 51 61 69 62 42 63 29 64 30 65
REMARK SMILES IDX 35 66 31 67 32 68 34 69 36 70 33 71 55 72 56 73 61 74 57 75
REMARK SMILES IDX 58 76 60 77 62 78 59 79 43 80 44 81 49 82 45 83 46 84 48 85
REMARK SMILES IDX 50 86 47 87
REMARK H PARENT 7 10 67 49 41 60
REMARK Flexibility Score: inf
ROOT
ATOM      1  C   UNL A   1      38.691  21.694  25.777  1.00  0.00     0.202 C 
ENDROOT
BRANCH   1   2
ATOM      2  C   UNL A   1      37.347  22.410  25.618  1.00  0.00     0.261 C 
BRANCH   2   3
ATOM      3  O   UNL A   1      36.234  21.618  26.063  1.00  0.00    -0.462 OA
BRANCH   3   4
ATOM      4  C   UNL A   1      35.220  22.316  26.647  1.00  0.00     0.325 C 
ATOM      5  O   UNL A   1      35.020  23.516  26.494  1.00  0.00    -0.250 OA
BRANCH   4   6
ATOM      6  C   UNL A   1      34.215  21.400  27.347  1.00  0.00     0.239 C 
BRANCH   6   7
ATOM      7  N   UNL A   1      33.341  20.672  26.472  1.00  0.00    -0.340 N 
ATOM      8  C   UNL A   1      32.374  21.063  25.594  1.00  0.00     0.274 C 
ATOM      9  O   UNL A   1      31.921  20.123  24.928  1.00  0.00    -0.267 OA
ATOM     10  H   UNL A   1      33.464  19.696  26.515  1.00  0.00     0.164 HD
BRANCH   8  11
ATOM     11  C   UNL A   1      31.864  22.432  25.394  1.00  0.00     0.174 A 
ATOM     12  C   UNL A   1      32.139  23.558  24.602  1.00  0.00     0.077 A 
ATOM     13  N   UNL A   1      31.159  24.478  25.000  1.00  0.00    -0.215 N 
ATOM     14  N   UNL A   1      30.858  22.790  26.282  1.00  0.00    -0.124 NA
ATOM     15  N   UNL A   1      30.531  24.049  26.102  1.00  0.00    -0.061 NA
BRANCH  12  16
ATOM     16  C   UNL A   1      33.180  23.983  23.614  1.00  0.00     0.055 C 
ATOM     17  C   UNL A   1      32.967  23.395  22.225  1.00  0.00     0.011 C 
ENDBRANCH  12  16
BRANCH  13  18
ATOM     18  C   UNL A   1      30.990  25.812  24.572  1.00  0.00     0.085 A 
ATOM     19  C   UNL A   1      30.023  26.059  23.585  1.00  0.00     0.031 A 
ATOM     20  C   UNL A   1      31.685  26.872  25.166  1.00  0.00     0.068 A 
ATOM     21  C   UNL A   1      29.679  27.374  23.277  1.00  0.00     0.023 A 
ATOM     22  C   UNL A   1      31.321  28.185  24.866  1.00  0.00     0.043 A 
ATOM     23  Cl  UNL A   1      33.071  26.638  26.177  1.00  0.00    -0.082 Cl
ATOM     24  C   UNL A   1      30.310  28.428  23.937  1.00  0.00     0.042 A 
ATOM     25  Cl  UNL A   1      29.843  30.047  23.594  1.00  0.00    -0.084 Cl
ENDBRANCH  13  18
ENDBRANCH   8  11
ENDBRANCH   6   7
ENDBRANCH   4   6
ENDBRANCH   3   4
ENDBRANCH   2   3
ENDBRANCH   1   2
BRANCH   1  26
ATOM     26  O   UNL A   1      39.715  22.265  26.589  1.00  0.00    -0.374 OA
BRANCH  26  27
ATOM     27  C   UNL A   1      41.079  22.267  26.196  1.00  0.00     0.202 C 
BRANCH  27  28
ATOM     28  C   UNL A   1      41.898  23.552  26.253  1.00  0.00     0.261 C 
BRANCH  28  29
ATOM     29  O   UNL A   1      41.258  24.593  26.970  1.00  0.00    -0.460 OA
BRANCH  29  30
ATOM     30  C   UNL A   1      41.047  25.689  26.201  1.00  0.00     0.338 C 
ATOM     31  O   UNL A   1      41.549  25.932  25.120  1.00  0.00    -0.246 OA
BRANCH  30  32
ATOM     32  C   UNL A   1      40.234  26.657  26.945  1.00  0.00     0.060 A 
ATOM     33  C   UNL A   1      40.571  27.991  26.713  1.00  0.00     0.016 A 
ATOM     34  C   UNL A   1      39.534  26.245  28.087  1.00  0.00     0.016 A 
ATOM     35  C   UNL A   1      40.511  28.851  27.778  1.00  0.00     0.010 A 
ATOM     36  C   UNL A   1      39.472  27.109  29.151  1.00  0.00     0.010 A 
ATOM     37  C   UNL A   1      40.074  28.355  29.012  1.00  0.00    -0.014 A 
BRANCH  37  38
ATOM     38  C   UNL A   1      40.199  29.225  30.154  1.00  0.00     0.031 A 
ATOM     39  C   UNL A   1      38.985  30.035  30.359  1.00  0.00     0.074 A 
ATOM     40  C   UNL A   1      41.290  29.258  30.937  1.00  0.00     0.049 A 
ATOM     41  N   UNL A   1      38.841  31.288  30.094  1.00  0.00    -0.248 NA
ATOM     42  C   UNL A   1      37.735  29.328  30.668  1.00  0.00     0.031 C 
ATOM     43  C   UNL A   1      42.446  28.361  30.966  1.00  0.00     0.029 A 
ATOM     44  N   UNL A   1      41.543  30.115  31.960  1.00  0.00    -0.354 N 
ATOM     45  C   UNL A   1      37.519  31.577  30.396  1.00  0.00     0.074 A 
ATOM     46  C   UNL A   1      36.847  30.313  30.545  1.00  0.00     0.031 C 
ATOM     47  C   UNL A   1      43.151  28.581  32.102  1.00  0.00     0.029 A 
ATOM     48  C   UNL A   1      42.577  29.718  32.800  1.00  0.00     0.049 A 
ATOM     49  H   UNL A   1      41.037  30.948  32.096  1.00  0.00     0.167 HD
ATOM     50  C   UNL A   1      37.142  32.836  30.742  1.00  0.00     0.037 A 
ATOM     51  C   UNL A   1      42.832  30.261  34.018  1.00  0.00     0.037 A 
ATOM     52  C   UNL A   1      38.152  33.802  30.391  1.00  0.00     0.049 A 
ATOM     53  C   UNL A   1      42.209  31.616  34.028  1.00  0.00     0.074 A 
ATOM     54  C   UNL A   1      38.708  34.229  29.201  1.00  0.00     0.029 A 
ATOM     55  N   UNL A   1      39.025  34.190  31.379  1.00  0.00    -0.354 N 
ATOM     56  N   UNL A   1      42.637  32.604  33.289  1.00  0.00    -0.248 NA
ATOM     57  C   UNL A   1      40.821  31.719  34.462  1.00  0.00     0.031 C 
ATOM     58  C   UNL A   1      40.091  34.421  29.487  1.00  0.00     0.029 A 
ATOM     59  C   UNL A   1      40.290  34.170  30.846  1.00  0.00     0.049 A 
ATOM     60  H   UNL A   1      38.787  34.438  32.302  1.00  0.00     0.167 HD
ATOM     61  C   UNL A   1      41.485  33.213  32.809  1.00  0.00     0.074 A 
ATOM     62  C   UNL A   1      40.397  32.660  33.614  1.00  0.00     0.031 C 
ATOM     63  C   UNL A   1      41.478  33.872  31.611  1.00  0.00     0.037 A 
BRANCH  50  64
ATOM     64  C   UNL A   1      36.049  33.133  31.727  1.00  0.00     0.057 A 
ATOM     65  C   UNL A   1      34.985  33.962  31.339  1.00  0.00     0.134 A 
ATOM     66  C   UNL A   1      36.144  32.879  33.110  1.00  0.00     0.134 A 
ATOM     67  F   UNL A   1      34.803  34.290  30.050  1.00  0.00    -0.206 F 
ATOM     68  C   UNL A   1      34.120  34.548  32.268  1.00  0.00     0.040 A 
ATOM     69  C   UNL A   1      35.253  33.413  34.041  1.00  0.00     0.040 A 
ATOM     70  F   UNL A   1      37.159  32.192  33.649  1.00  0.00    -0.206 F 
ATOM     71  C   UNL A   1      34.256  34.279  33.625  1.00  0.00     0.006 A 
ENDBRANCH  50  64
BRANCH  51  72
ATOM     72  C   UNL A   1      43.204  29.549  35.266  1.00  0.00     0.057 A 
ATOM     73  C   UNL A   1      42.519  28.394  35.673  1.00  0.00     0.134 A 
ATOM     74  C   UNL A   1      44.411  29.814  35.936  1.00  0.00     0.134 A 
ATOM     75  F   UNL A   1      41.379  28.029  35.069  1.00  0.00    -0.206 F 
ATOM     76  C   UNL A   1      43.021  27.539  36.668  1.00  0.00     0.040 A 
ATOM     77  C   UNL A   1      44.921  28.973  36.931  1.00  0.00     0.040 A 
ATOM     78  F   UNL A   1      45.187  30.850  35.587  1.00  0.00    -0.206 F 
ATOM     79  C   UNL A   1      44.232  27.822  37.291  1.00  0.00     0.006 A 
ENDBRANCH  51  72
BRANCH  63  80
ATOM     80  C   UNL A   1      42.797  34.101  30.926  1.00  0.00     0.057 A 
ATOM     81  C   UNL A   1      43.348  33.233  29.969  1.00  0.00     0.134 A 
ATOM     82  C   UNL A   1      43.453  35.321  31.120  1.00  0.00     0.134 A 
ATOM     83  F   UNL A   1      42.737  32.089  29.638  1.00  0.00    -0.206 F 
ATOM     84  C   UNL A   1      44.517  33.549  29.269  1.00  0.00     0.040 A 
ATOM     85  C   UNL A   1      44.602  35.664  30.404  1.00  0.00     0.040 A 
ATOM     86  F   UNL A   1      42.952  36.227  31.975  1.00  0.00    -0.206 F 
ATOM     87  C   UNL A   1      45.144  34.773  29.482  1.00  0.00     0.006 A 
ENDBRANCH  63  80
ENDBRANCH  37  38
ENDBRANCH  30  32
ENDBRANCH  29  30
ENDBRANCH  28  29
ENDBRANCH  27  28
ENDBRANCH  26  27
ENDBRANCH   1  26
TORSDOF 18
ENDMDL
