MODEL 1
REMARK VINA RESULT:     -12.4      0.000      0.000
REMARK SMILES O=C(OCCOCCOC(=O)c1ccccc1Nc1nc(Cl)nc(Nc2ccc(N3CCOCC3=O)cc2)n1)c1ccc(-c2c3nc(c(-c4c(F)cccc4F)c4ccc([nH]4)c(-c4c(F)cccc4F)c4nc(c(-c5c(F)cccc5F)c5ccc2[nH]5)C=C4)C=C3)cc1
REMARK SMILES IDX 7 1 6 2 5 3 4 4 3 5 2 6 1 7 40 8 41 9 93 10 42 11 92 12
REMARK SMILES IDX 43 13 44 14 45 15 86 16 46 17 91 18 85 19 87 20 47 21 90 22
REMARK SMILES IDX 84 23 83 24 48 26 74 27 57 28 73 29 58 30 61 31 72 32 88 33
REMARK SMILES IDX 59 34 60 35 71 37 89 38 62 39 49 40 50 41 55 42 51 43 52 44
REMARK SMILES IDX 54 45 56 46 53 47 75 48 76 49 81 50 77 51 78 52 80 53 82 54
REMARK SMILES IDX 79 55 63 56 64 57 69 58 65 59 66 60 68 61 70 62 67 63 8 64
REMARK SMILES IDX 9 65 10 66 11 67 12 68 13 69 17 70 14 71 16 72 15 73 18 74
REMARK SMILES IDX 19 76 20 77 39 78 21 79 24 80 22 81 23 82 25 83 26 85 27 86
REMARK SMILES IDX 38 87 28 88 37 89 29 90 30 91 31 92 35 93 32 94 34 95 36 96
REMARK SMILES IDX 33 97
REMARK H PARENT 87 25 61 36 18 75 25 84
REMARK Flexibility Score: inf
ROOT
ATOM      1  C   UNL A   1      33.283  35.674  30.450  1.00  0.00     0.202 C 
ENDROOT
BRANCH   1   2
ATOM      2  O   UNL A   1      33.357  34.575  31.363  1.00  0.00    -0.374 OA
BRANCH   2   3
ATOM      3  C   UNL A   1      34.399  34.636  32.337  1.00  0.00     0.202 C 
BRANCH   3   4
ATOM      4  C   UNL A   1      34.356  33.492  33.352  1.00  0.00     0.261 C 
BRANCH   4   5
ATOM      5  O   UNL A   1      35.228  32.426  32.939  1.00  0.00    -0.460 OA
BRANCH   5   6
ATOM      6  C   UNL A   1      36.493  32.163  33.337  1.00  0.00     0.338 C 
ATOM      7  O   UNL A   1      36.808  32.431  34.496  1.00  0.00    -0.246 OA
BRANCH   6   8
ATOM      8  C   UNL A   1      37.538  31.543  32.463  1.00  0.00     0.060 A 
ATOM      9  C   UNL A   1      38.433  30.549  32.858  1.00  0.00     0.016 A 
ATOM     10  C   UNL A   1      37.563  31.947  31.116  1.00  0.00     0.016 A 
ATOM     11  C   UNL A   1      39.358  30.009  31.981  1.00  0.00     0.010 A 
ATOM     12  C   UNL A   1      38.476  31.393  30.213  1.00  0.00     0.010 A 
ATOM     13  C   UNL A   1      39.393  30.438  30.659  1.00  0.00    -0.014 A 
BRANCH  13  14
ATOM     14  C   UNL A   1      40.524  29.969  29.845  1.00  0.00     0.031 A 
ATOM     15  C   UNL A   1      41.724  30.858  29.743  1.00  0.00     0.074 A 
ATOM     16  C   UNL A   1      40.535  28.702  29.396  1.00  0.00     0.049 A 
ATOM     17  N   UNL A   1      42.864  30.647  29.143  1.00  0.00    -0.248 NA
ATOM     18  C   UNL A   1      41.639  32.154  30.438  1.00  0.00     0.031 C 
ATOM     19  C   UNL A   1      39.456  27.730  29.594  1.00  0.00     0.029 A 
ATOM     20  N   UNL A   1      41.503  27.999  28.735  1.00  0.00    -0.354 N 
ATOM     21  C   UNL A   1      43.616  31.793  29.362  1.00  0.00     0.074 A 
ATOM     22  C   UNL A   1      42.811  32.695  30.152  1.00  0.00     0.031 C 
ATOM     23  C   UNL A   1      39.839  26.545  29.092  1.00  0.00     0.029 A 
ATOM     24  C   UNL A   1      41.158  26.692  28.488  1.00  0.00     0.049 A 
ATOM     25  H   UNL A   1      42.364  28.390  28.460  1.00  0.00     0.167 HD
ATOM     26  C   UNL A   1      44.868  32.062  28.929  1.00  0.00     0.037 A 
ATOM     27  C   UNL A   1      41.837  25.737  27.829  1.00  0.00     0.037 A 
ATOM     28  C   UNL A   1      45.641  31.139  28.145  1.00  0.00     0.049 A 
ATOM     29  C   UNL A   1      43.192  26.095  27.277  1.00  0.00     0.074 A 
ATOM     30  C   UNL A   1      46.886  31.314  27.574  1.00  0.00     0.029 A 
ATOM     31  N   UNL A   1      45.227  29.851  27.825  1.00  0.00    -0.354 N 
ATOM     32  N   UNL A   1      43.870  27.210  27.414  1.00  0.00    -0.248 NA
ATOM     33  C   UNL A   1      43.866  25.073  26.469  1.00  0.00     0.031 C 
ATOM     34  C   UNL A   1      47.207  30.146  26.873  1.00  0.00     0.029 A 
ATOM     35  C   UNL A   1      46.185  29.223  27.052  1.00  0.00     0.049 A 
ATOM     36  H   UNL A   1      44.375  29.445  28.108  1.00  0.00     0.167 HD
ATOM     37  C   UNL A   1      45.062  27.019  26.730  1.00  0.00     0.074 A 
ATOM     38  C   UNL A   1      45.017  25.671  26.194  1.00  0.00     0.031 C 
ATOM     39  C   UNL A   1      46.101  27.873  26.554  1.00  0.00     0.037 A 
BRANCH  26  40
ATOM     40  C   UNL A   1      45.406  33.430  29.224  1.00  0.00     0.057 A 
ATOM     41  C   UNL A   1      45.229  34.512  28.351  1.00  0.00     0.134 A 
ATOM     42  C   UNL A   1      46.172  33.649  30.376  1.00  0.00     0.134 A 
ATOM     43  F   UNL A   1      44.535  34.361  27.213  1.00  0.00    -0.206 F 
ATOM     44  C   UNL A   1      45.821  35.752  28.599  1.00  0.00     0.040 A 
ATOM     45  C   UNL A   1      46.749  34.892  30.646  1.00  0.00     0.040 A 
ATOM     46  F   UNL A   1      46.391  32.653  31.248  1.00  0.00    -0.206 F 
ATOM     47  C   UNL A   1      46.583  35.945  29.750  1.00  0.00     0.006 A 
ENDBRANCH  26  40
BRANCH  27  48
ATOM     48  C   UNL A   1      41.246  24.389  27.624  1.00  0.00     0.057 A 
ATOM     49  C   UNL A   1      41.711  23.269  28.321  1.00  0.00     0.134 A 
ATOM     50  C   UNL A   1      40.205  24.184  26.706  1.00  0.00     0.134 A 
ATOM     51  F   UNL A   1      42.717  23.391  29.200  1.00  0.00    -0.206 F 
ATOM     52  C   UNL A   1      41.180  21.995  28.103  1.00  0.00     0.040 A 
ATOM     53  C   UNL A   1      39.646  22.923  26.499  1.00  0.00     0.040 A 
ATOM     54  F   UNL A   1      39.710  25.213  26.002  1.00  0.00    -0.206 F 
ATOM     55  C   UNL A   1      40.139  21.820  27.193  1.00  0.00     0.006 A 
ENDBRANCH  27  48
BRANCH  39  56
ATOM     56  C   UNL A   1      47.281  27.350  25.794  1.00  0.00     0.057 A 
ATOM     57  C   UNL A   1      48.310  26.641  26.422  1.00  0.00     0.134 A 
ATOM     58  C   UNL A   1      47.361  27.529  24.407  1.00  0.00     0.134 A 
ATOM     59  F   UNL A   1      48.294  26.449  27.750  1.00  0.00    -0.206 F 
ATOM     60  C   UNL A   1      49.396  26.146  25.699  1.00  0.00     0.040 A 
ATOM     61  C   UNL A   1      48.427  27.015  23.670  1.00  0.00     0.040 A 
ATOM     62  F   UNL A   1      46.399  28.191  23.748  1.00  0.00    -0.206 F 
ATOM     63  C   UNL A   1      49.452  26.328  24.318  1.00  0.00     0.006 A 
ENDBRANCH  39  56
ENDBRANCH  13  14
ENDBRANCH   6   8
ENDBRANCH   5   6
ENDBRANCH   4   5
ENDBRANCH   3   4
ENDBRANCH   2   3
ENDBRANCH   1   2
BRANCH   1  64
ATOM     64  C   UNL A   1      33.280  35.129  29.020  1.00  0.00     0.261 C 
BRANCH  64  65
ATOM     65  O   UNL A   1      33.526  33.715  29.079  1.00  0.00    -0.460 OA
BRANCH  65  66
ATOM     66  C   UNL A   1      33.118  32.994  28.002  1.00  0.00     0.340 C 
ATOM     67  O   UNL A   1      32.195  33.273  27.254  1.00  0.00    -0.246 OA
BRANCH  66  68
ATOM     68  C   UNL A   1      34.089  31.884  27.763  1.00  0.00     0.083 A 
ATOM     69  C   UNL A   1      35.438  32.168  28.030  1.00  0.00     0.018 A 
ATOM     70  C   UNL A   1      33.700  30.590  27.341  1.00  0.00     0.055 A 
ATOM     71  C   UNL A   1      36.404  31.171  27.918  1.00  0.00     0.001 A 
ATOM     72  C   UNL A   1      34.693  29.606  27.236  1.00  0.00     0.027 A 
ATOM     73  C   UNL A   1      36.031  29.891  27.524  1.00  0.00     0.002 A 
BRANCH  70  74
ATOM     74  N   UNL A   1      32.358  30.319  27.030  1.00  0.00    -0.323 N 
ATOM     75  H   UNL A   1      31.701  30.870  27.514  1.00  0.00     0.170 HD
BRANCH  74  76
ATOM     76  C   UNL A   1      31.808  29.402  26.153  1.00  0.00     0.233 A 
ATOM     77  N   UNL A   1      31.409  29.761  24.947  1.00  0.00    -0.182 NA
ATOM     78  N   UNL A   1      31.727  28.172  26.644  1.00  0.00    -0.176 NA
ATOM     79  C   UNL A   1      30.944  28.749  24.237  1.00  0.00     0.228 A 
ATOM     80  C   UNL A   1      31.148  27.266  25.875  1.00  0.00     0.233 A 
ATOM     81  Cl  UNL A   1      30.449  29.112  22.642  1.00  0.00    -0.041 Cl
ATOM     82  N   UNL A   1      30.774  27.499  24.626  1.00  0.00    -0.182 NA
BRANCH  80  83
ATOM     83  N   UNL A   1      30.825  26.067  26.505  1.00  0.00    -0.324 N 
ATOM     84  H   UNL A   1      30.172  26.111  27.241  1.00  0.00     0.170 HD
BRANCH  83  85
ATOM     85  C   UNL A   1      31.341  24.811  26.192  1.00  0.00     0.041 A 
ATOM     86  C   UNL A   1      30.538  23.673  26.299  1.00  0.00     0.028 A 
ATOM     87  C   UNL A   1      32.604  24.696  25.609  1.00  0.00     0.028 A 
ATOM     88  C   UNL A   1      30.972  22.452  25.773  1.00  0.00     0.028 A 
ATOM     89  C   UNL A   1      33.059  23.472  25.131  1.00  0.00     0.028 A 
ATOM     90  C   UNL A   1      32.234  22.344  25.176  1.00  0.00     0.044 A 
BRANCH  90  91
ATOM     91  N   UNL A   1      32.643  21.136  24.542  1.00  0.00    -0.308 N 
ATOM     92  C   UNL A   1      33.250  20.116  25.406  1.00  0.00     0.154 C 
ATOM     93  C   UNL A   1      32.165  20.797  23.270  1.00  0.00     0.253 C 
ATOM     94  C   UNL A   1      33.876  18.969  24.626  1.00  0.00     0.183 C 
ATOM     95  C   UNL A   1      32.528  19.389  22.778  1.00  0.00     0.260 C 
ATOM     96  O   UNL A   1      31.574  21.572  22.514  1.00  0.00    -0.272 OA
ATOM     97  O   UNL A   1      32.907  18.417  23.739  1.00  0.00    -0.370 OA
ENDBRANCH  90  91
ENDBRANCH  83  85
ENDBRANCH  80  83
ENDBRANCH  74  76
ENDBRANCH  70  74
ENDBRANCH  66  68
ENDBRANCH  65  66
ENDBRANCH  64  65
ENDBRANCH   1  64
TORSDOF 19
ENDMDL
MODEL 2
REMARK VINA RESULT:     -12.3      3.921      7.410
REMARK SMILES O=C(OCCOCCOC(=O)c1ccccc1Nc1nc(Cl)nc(Nc2ccc(N3CCOCC3=O)cc2)n1)c1ccc(-c2c3nc(c(-c4c(F)cccc4F)c4ccc([nH]4)c(-c4c(F)cccc4F)c4nc(c(-c5c(F)cccc5F)c5ccc2[nH]5)C=C4)C=C3)cc1
REMARK SMILES IDX 7 1 6 2 5 3 4 4 3 5 2 6 1 7 40 8 41 9 93 10 42 11 92 12
REMARK SMILES IDX 43 13 44 14 45 15 86 16 46 17 91 18 85 19 87 20 47 21 90 22
REMARK SMILES IDX 84 23 83 24 48 26 74 27 57 28 73 29 58 30 61 31 72 32 88 33
REMARK SMILES IDX 59 34 60 35 71 37 89 38 62 39 49 40 50 41 55 42 51 43 52 44
REMARK SMILES IDX 54 45 56 46 53 47 75 48 76 49 81 50 77 51 78 52 80 53 82 54
REMARK SMILES IDX 79 55 63 56 64 57 69 58 65 59 66 60 68 61 70 62 67 63 8 64
REMARK SMILES IDX 9 65 10 66 11 67 12 68 13 69 17 70 14 71 16 72 15 73 18 74
REMARK SMILES IDX 19 76 20 77 39 78 21 79 24 80 22 81 23 82 25 83 26 85 27 86
REMARK SMILES IDX 38 87 28 88 37 89 29 90 30 91 31 92 35 93 32 94 34 95 36 96
REMARK SMILES IDX 33 97
REMARK H PARENT 87 25 61 36 18 75 25 84
REMARK Flexibility Score: inf
ROOT
ATOM      1  C   UNL A   1      33.986  27.516  25.973  1.00  0.00     0.202 C 
ENDROOT
BRANCH   1   2
ATOM      2  O   UNL A   1      32.726  28.194  25.999  1.00  0.00    -0.374 OA
BRANCH   2   3
ATOM      3  C   UNL A   1      32.764  29.600  25.752  1.00  0.00     0.202 C 
BRANCH   3   4
ATOM      4  C   UNL A   1      32.130  30.435  26.866  1.00  0.00     0.261 C 
BRANCH   4   5
ATOM      5  O   UNL A   1      32.558  31.803  26.769  1.00  0.00    -0.460 OA
BRANCH   5   6
ATOM      6  C   UNL A   1      33.407  32.485  27.571  1.00  0.00     0.338 C 
ATOM      7  O   UNL A   1      33.100  33.629  27.907  1.00  0.00    -0.246 OA
BRANCH   6   8
ATOM      8  C   UNL A   1      34.693  31.932  28.098  1.00  0.00     0.060 A 
ATOM      9  C   UNL A   1      34.915  30.600  28.447  1.00  0.00     0.016 A 
ATOM     10  C   UNL A   1      35.784  32.818  28.174  1.00  0.00     0.016 A 
ATOM     11  C   UNL A   1      36.145  30.161  28.907  1.00  0.00     0.010 A 
ATOM     12  C   UNL A   1      37.038  32.383  28.615  1.00  0.00     0.010 A 
ATOM     13  C   UNL A   1      37.207  31.052  29.007  1.00  0.00    -0.014 A 
BRANCH  13  14
ATOM     14  C   UNL A   1      38.415  30.564  29.688  1.00  0.00     0.031 A 
ATOM     15  C   UNL A   1      38.597  30.927  31.129  1.00  0.00     0.074 A 
ATOM     16  C   UNL A   1      39.198  29.658  29.077  1.00  0.00     0.049 A 
ATOM     17  N   UNL A   1      39.538  30.571  31.961  1.00  0.00    -0.248 NA
ATOM     18  C   UNL A   1      37.560  31.789  31.722  1.00  0.00     0.031 C 
ATOM     19  C   UNL A   1      38.988  29.144  27.720  1.00  0.00     0.029 A 
ATOM     20  N   UNL A   1      40.288  28.970  29.531  1.00  0.00    -0.354 N 
ATOM     21  C   UNL A   1      39.221  31.189  33.164  1.00  0.00     0.074 A 
ATOM     22  C   UNL A   1      38.004  31.938  32.959  1.00  0.00     0.031 C 
ATOM     23  C   UNL A   1      39.903  28.195  27.467  1.00  0.00     0.029 A 
ATOM     24  C   UNL A   1      40.794  28.080  28.616  1.00  0.00     0.049 A 
ATOM     25  H   UNL A   1      40.674  29.100  30.428  1.00  0.00     0.167 HD
ATOM     26  C   UNL A   1      39.901  31.135  34.330  1.00  0.00     0.037 A 
ATOM     27  C   UNL A   1      41.872  27.280  28.704  1.00  0.00     0.037 A 
ATOM     28  C   UNL A   1      41.111  30.378  34.498  1.00  0.00     0.049 A 
ATOM     29  C   UNL A   1      42.664  27.312  29.984  1.00  0.00     0.074 A 
ATOM     30  C   UNL A   1      41.942  30.301  35.598  1.00  0.00     0.029 A 
ATOM     31  N   UNL A   1      41.658  29.558  33.519  1.00  0.00    -0.354 N 
ATOM     32  N   UNL A   1      42.411  27.962  31.096  1.00  0.00    -0.248 NA
ATOM     33  C   UNL A   1      43.895  26.515  30.018  1.00  0.00     0.031 C 
ATOM     34  C   UNL A   1      43.016  29.466  35.269  1.00  0.00     0.029 A 
ATOM     35  C   UNL A   1      42.825  28.980  33.982  1.00  0.00     0.049 A 
ATOM     36  H   UNL A   1      41.271  29.409  32.626  1.00  0.00     0.167 HD
ATOM     37  C   UNL A   1      43.437  27.636  31.971  1.00  0.00     0.074 A 
ATOM     38  C   UNL A   1      44.306  26.716  31.262  1.00  0.00     0.031 C 
ATOM     39  C   UNL A   1      43.649  28.056  33.243  1.00  0.00     0.037 A 
BRANCH  26  40
ATOM     40  C   UNL A   1      39.389  31.990  35.451  1.00  0.00     0.057 A 
ATOM     41  C   UNL A   1      38.464  31.520  36.393  1.00  0.00     0.134 A 
ATOM     42  C   UNL A   1      39.785  33.330  35.548  1.00  0.00     0.134 A 
ATOM     43  F   UNL A   1      38.017  30.256  36.335  1.00  0.00    -0.206 F 
ATOM     44  C   UNL A   1      37.927  32.361  37.370  1.00  0.00     0.040 A 
ATOM     45  C   UNL A   1      39.273  34.174  36.535  1.00  0.00     0.040 A 
ATOM     46  F   UNL A   1      40.659  33.847  34.671  1.00  0.00    -0.206 F 
ATOM     47  C   UNL A   1      38.334  33.693  37.443  1.00  0.00     0.006 A 
ENDBRANCH  26  40
BRANCH  27  48
ATOM     48  C   UNL A   1      42.281  26.428  27.557  1.00  0.00     0.057 A 
ATOM     49  C   UNL A   1      43.124  26.909  26.550  1.00  0.00     0.134 A 
ATOM     50  C   UNL A   1      41.821  25.109  27.431  1.00  0.00     0.134 A 
ATOM     51  F   UNL A   1      43.585  28.167  26.598  1.00  0.00    -0.206 F 
ATOM     52  C   UNL A   1      43.481  26.120  25.452  1.00  0.00     0.040 A 
ATOM     53  C   UNL A   1      42.191  24.301  26.356  1.00  0.00     0.040 A 
ATOM     54  F   UNL A   1      41.009  24.583  28.360  1.00  0.00    -0.206 F 
ATOM     55  C   UNL A   1      43.018  24.809  25.356  1.00  0.00     0.006 A 
ENDBRANCH  27  48
BRANCH  39  56
ATOM     56  C   UNL A   1      44.838  27.483  33.951  1.00  0.00     0.057 A 
ATOM     57  C   UNL A   1      46.082  28.123  33.945  1.00  0.00     0.134 A 
ATOM     58  C   UNL A   1      44.718  26.292  34.679  1.00  0.00     0.134 A 
ATOM     59  F   UNL A   1      46.261  29.258  33.254  1.00  0.00    -0.206 F 
ATOM     60  C   UNL A   1      47.177  27.585  34.621  1.00  0.00     0.040 A 
ATOM     61  C   UNL A   1      45.798  25.760  35.382  1.00  0.00     0.040 A 
ATOM     62  F   UNL A   1      43.548  25.639  34.731  1.00  0.00    -0.206 F 
ATOM     63  C   UNL A   1      47.034  26.403  35.348  1.00  0.00     0.006 A 
ENDBRANCH  39  56
ENDBRANCH  13  14
ENDBRANCH   6   8
ENDBRANCH   5   6
ENDBRANCH   4   5
ENDBRANCH   3   4
ENDBRANCH   2   3
ENDBRANCH   1   2
BRANCH   1  64
ATOM     64  C   UNL A   1      33.895  26.343  24.994  1.00  0.00     0.261 C 
BRANCH  64  65
ATOM     65  O   UNL A   1      34.748  25.292  25.474  1.00  0.00    -0.460 OA
BRANCH  65  66
ATOM     66  C   UNL A   1      35.113  24.356  24.558  1.00  0.00     0.340 C 
ATOM     67  O   UNL A   1      34.657  24.230  23.434  1.00  0.00    -0.246 OA
BRANCH  66  68
ATOM     68  C   UNL A   1      36.293  23.601  25.077  1.00  0.00     0.083 A 
ATOM     69  C   UNL A   1      37.262  24.353  25.761  1.00  0.00     0.018 A 
ATOM     70  C   UNL A   1      36.434  22.198  24.951  1.00  0.00     0.055 A 
ATOM     71  C   UNL A   1      38.354  23.724  26.354  1.00  0.00     0.001 A 
ATOM     72  C   UNL A   1      37.543  21.590  25.556  1.00  0.00     0.027 A 
ATOM     73  C   UNL A   1      38.492  22.344  26.253  1.00  0.00     0.002 A 
BRANCH  70  74
ATOM     74  N   UNL A   1      35.488  21.453  24.228  1.00  0.00    -0.323 N 
ATOM     75  H   UNL A   1      35.650  21.409  23.259  1.00  0.00     0.170 HD
BRANCH  74  76
ATOM     76  C   UNL A   1      34.364  20.772  24.659  1.00  0.00     0.233 A 
ATOM     77  N   UNL A   1      34.311  19.453  24.635  1.00  0.00    -0.182 NA
ATOM     78  N   UNL A   1      33.385  21.563  25.078  1.00  0.00    -0.176 NA
ATOM     79  C   UNL A   1      33.177  18.975  25.115  1.00  0.00     0.228 A 
ATOM     80  C   UNL A   1      32.260  20.970  25.439  1.00  0.00     0.233 A 
ATOM     81  Cl  UNL A   1      33.039  17.273  25.167  1.00  0.00    -0.041 Cl
ATOM     82  N   UNL A   1      32.120  19.656  25.519  1.00  0.00    -0.182 NA
BRANCH  80  83
ATOM     83  N   UNL A   1      31.167  21.816  25.608  1.00  0.00    -0.324 N 
ATOM     84  H   UNL A   1      30.403  21.461  26.119  1.00  0.00     0.170 HD
BRANCH  83  85
ATOM     85  C   UNL A   1      31.053  23.117  25.122  1.00  0.00     0.041 A 
ATOM     86  C   UNL A   1      30.997  23.353  23.747  1.00  0.00     0.028 A 
ATOM     87  C   UNL A   1      30.824  24.177  26.001  1.00  0.00     0.028 A 
ATOM     88  C   UNL A   1      30.656  24.620  23.263  1.00  0.00     0.028 A 
ATOM     89  C   UNL A   1      30.534  25.449  25.521  1.00  0.00     0.028 A 
ATOM     90  C   UNL A   1      30.413  25.677  24.147  1.00  0.00     0.044 A 
BRANCH  90  91
ATOM     91  N   UNL A   1      29.959  26.941  23.672  1.00  0.00    -0.308 N 
ATOM     92  C   UNL A   1      30.937  27.752  22.934  1.00  0.00     0.154 C 
ATOM     93  C   UNL A   1      28.591  27.226  23.586  1.00  0.00     0.253 C 
ATOM     94  C   UNL A   1      30.459  29.173  22.674  1.00  0.00     0.183 C 
ATOM     95  C   UNL A   1      28.229  28.542  22.884  1.00  0.00     0.260 C 
ATOM     96  O   UNL A   1      27.701  26.550  24.108  1.00  0.00    -0.272 OA
ATOM     97  O   UNL A   1      29.192  29.132  22.025  1.00  0.00    -0.370 OA
ENDBRANCH  90  91
ENDBRANCH  83  85
ENDBRANCH  80  83
ENDBRANCH  74  76
ENDBRANCH  70  74
ENDBRANCH  66  68
ENDBRANCH  65  66
ENDBRANCH  64  65
ENDBRANCH   1  64
TORSDOF 19
ENDMDL
MODEL 3
REMARK VINA RESULT:     -12.2      3.918      6.629
REMARK SMILES O=C(OCCOCCOC(=O)c1ccccc1Nc1nc(Cl)nc(Nc2ccc(N3CCOCC3=O)cc2)n1)c1ccc(-c2c3nc(c(-c4c(F)cccc4F)c4ccc([nH]4)c(-c4c(F)cccc4F)c4nc(c(-c5c(F)cccc5F)c5ccc2[nH]5)C=C4)C=C3)cc1
REMARK SMILES IDX 7 1 6 2 5 3 4 4 3 5 2 6 1 7 40 8 41 9 93 10 42 11 92 12
REMARK SMILES IDX 43 13 44 14 45 15 86 16 46 17 91 18 85 19 87 20 47 21 90 22
REMARK SMILES IDX 84 23 83 24 48 26 74 27 57 28 73 29 58 30 61 31 72 32 88 33
REMARK SMILES IDX 59 34 60 35 71 37 89 38 62 39 49 40 50 41 55 42 51 43 52 44
REMARK SMILES IDX 54 45 56 46 53 47 75 48 76 49 81 50 77 51 78 52 80 53 82 54
REMARK SMILES IDX 79 55 63 56 64 57 69 58 65 59 66 60 68 61 70 62 67 63 8 64
REMARK SMILES IDX 9 65 10 66 11 67 12 68 13 69 17 70 14 71 16 72 15 73 18 74
REMARK SMILES IDX 19 76 20 77 39 78 21 79 24 80 22 81 23 82 25 83 26 85 27 86
REMARK SMILES IDX 38 87 28 88 37 89 29 90 30 91 31 92 35 93 32 94 34 95 36 96
REMARK SMILES IDX 33 97
REMARK H PARENT 87 25 61 36 18 75 25 84
REMARK Flexibility Score: inf
ROOT
ATOM      1  C   UNL A   1      33.986  27.315  25.896  1.00  0.00     0.202 C 
ENDROOT
BRANCH   1   2
ATOM      2  O   UNL A   1      33.196  27.886  26.943  1.00  0.00    -0.374 OA
BRANCH   2   3
ATOM      3  C   UNL A   1      32.156  28.773  26.533  1.00  0.00     0.202 C 
BRANCH   3   4
ATOM      4  C   UNL A   1      32.323  30.200  27.060  1.00  0.00     0.261 C 
BRANCH   4   5
ATOM      5  O   UNL A   1      33.708  30.582  27.031  1.00  0.00    -0.460 OA
BRANCH   5   6
ATOM      6  C   UNL A   1      34.486  31.028  28.044  1.00  0.00     0.338 C 
ATOM      7  O   UNL A   1      34.101  32.003  28.690  1.00  0.00    -0.246 OA
BRANCH   6   8
ATOM      8  C   UNL A   1      35.781  30.399  28.449  1.00  0.00     0.060 A 
ATOM      9  C   UNL A   1      36.008  29.720  29.646  1.00  0.00     0.016 A 
ATOM     10  C   UNL A   1      36.828  30.433  27.510  1.00  0.00     0.016 A 
ATOM     11  C   UNL A   1      37.232  29.144  29.939  1.00  0.00     0.010 A 
ATOM     12  C   UNL A   1      38.062  29.835  27.782  1.00  0.00     0.010 A 
ATOM     13  C   UNL A   1      38.269  29.211  29.015  1.00  0.00    -0.014 A 
BRANCH  13  14
ATOM     14  C   UNL A   1      39.589  28.756  29.473  1.00  0.00     0.031 A 
ATOM     15  C   UNL A   1      40.146  29.375  30.717  1.00  0.00     0.074 A 
ATOM     16  C   UNL A   1      40.154  27.681  28.898  1.00  0.00     0.049 A 
ATOM     17  N   UNL A   1      41.252  29.104  31.355  1.00  0.00    -0.248 NA
ATOM     18  C   UNL A   1      39.329  30.428  31.346  1.00  0.00     0.031 C 
ATOM     19  C   UNL A   1      39.587  26.933  27.773  1.00  0.00     0.029 A 
ATOM     20  N   UNL A   1      41.296  26.997  29.212  1.00  0.00    -0.354 N 
ATOM     21  C   UNL A   1      41.277  29.971  32.439  1.00  0.00     0.074 A 
ATOM     22  C   UNL A   1      40.078  30.774  32.379  1.00  0.00     0.031 C 
ATOM     23  C   UNL A   1      40.368  25.873  27.514  1.00  0.00     0.029 A 
ATOM     24  C   UNL A   1      41.517  25.903  28.412  1.00  0.00     0.049 A 
ATOM     25  H   UNL A   1      41.902  27.263  29.941  1.00  0.00     0.167 HD
ATOM     26  C   UNL A   1      42.228  30.084  33.392  1.00  0.00     0.037 A 
ATOM     27  C   UNL A   1      42.549  25.040  28.406  1.00  0.00     0.037 A 
ATOM     28  C   UNL A   1      43.410  29.266  33.422  1.00  0.00     0.049 A 
ATOM     29  C   UNL A   1      43.641  25.248  29.422  1.00  0.00     0.074 A 
ATOM     30  C   UNL A   1      44.490  29.330  34.279  1.00  0.00     0.029 A 
ATOM     31  N   UNL A   1      43.657  28.224  32.536  1.00  0.00    -0.354 N 
ATOM     32  N   UNL A   1      43.705  26.124  30.398  1.00  0.00    -0.248 NA
ATOM     33  C   UNL A   1      44.807  24.364  29.327  1.00  0.00     0.031 C 
ATOM     34  C   UNL A   1      45.410  28.351  33.887  1.00  0.00     0.029 A 
ATOM     35  C   UNL A   1      44.880  27.643  32.817  1.00  0.00     0.049 A 
ATOM     36  H   UNL A   1      43.050  27.940  31.814  1.00  0.00     0.167 HD
ATOM     37  C   UNL A   1      44.906  25.882  31.050  1.00  0.00     0.074 A 
ATOM     38  C   UNL A   1      45.528  24.766  30.364  1.00  0.00     0.031 C 
ATOM     39  C   UNL A   1      45.451  26.521  32.114  1.00  0.00     0.037 A 
BRANCH  26  40
ATOM     40  C   UNL A   1      42.053  31.184  34.396  1.00  0.00     0.057 A 
ATOM     41  C   UNL A   1      41.350  31.003  35.595  1.00  0.00     0.134 A 
ATOM     42  C   UNL A   1      42.543  32.467  34.123  1.00  0.00     0.134 A 
ATOM     43  F   UNL A   1      40.824  29.808  35.901  1.00  0.00    -0.206 F 
ATOM     44  C   UNL A   1      41.116  32.066  36.470  1.00  0.00     0.040 A 
ATOM     45  C   UNL A   1      42.336  33.532  35.001  1.00  0.00     0.040 A 
ATOM     46  F   UNL A   1      43.215  32.712  32.987  1.00  0.00    -0.206 F 
ATOM     47  C   UNL A   1      41.611  33.335  36.174  1.00  0.00     0.006 A 
ENDBRANCH  26  40
BRANCH  27  48
ATOM     48  C   UNL A   1      42.618  23.947  27.403  1.00  0.00     0.057 A 
ATOM     49  C   UNL A   1      43.151  24.156  26.126  1.00  0.00     0.134 A 
ATOM     50  C   UNL A   1      42.135  22.663  27.691  1.00  0.00     0.134 A 
ATOM     51  F   UNL A   1      43.614  25.365  25.777  1.00  0.00    -0.206 F 
ATOM     52  C   UNL A   1      43.184  23.138  25.168  1.00  0.00     0.040 A 
ATOM     53  C   UNL A   1      42.187  21.629  26.756  1.00  0.00     0.040 A 
ATOM     54  F   UNL A   1      41.610  22.392  28.896  1.00  0.00    -0.206 F 
ATOM     55  C   UNL A   1      42.707  21.867  25.485  1.00  0.00     0.006 A 
ENDBRANCH  27  48
BRANCH  39  56
ATOM     56  C   UNL A   1      46.757  25.991  32.621  1.00  0.00     0.057 A 
ATOM     57  C   UNL A   1      46.821  25.009  33.615  1.00  0.00     0.134 A 
ATOM     58  C   UNL A   1      47.963  26.447  32.073  1.00  0.00     0.134 A 
ATOM     59  F   UNL A   1      45.700  24.543  34.186  1.00  0.00    -0.206 F 
ATOM     60  C   UNL A   1      48.044  24.513  34.067  1.00  0.00     0.040 A 
ATOM     61  C   UNL A   1      49.190  25.939  32.496  1.00  0.00     0.040 A 
ATOM     62  F   UNL A   1      47.965  27.380  31.109  1.00  0.00    -0.206 F 
ATOM     63  C   UNL A   1      49.232  24.974  33.501  1.00  0.00     0.006 A 
ENDBRANCH  39  56
ENDBRANCH  13  14
ENDBRANCH   6   8
ENDBRANCH   5   6
ENDBRANCH   4   5
ENDBRANCH   3   4
ENDBRANCH   2   3
ENDBRANCH   1   2
BRANCH   1  64
ATOM     64  C   UNL A   1      33.745  25.804  25.864  1.00  0.00     0.261 C 
BRANCH  64  65
ATOM     65  O   UNL A   1      35.022  25.146  25.851  1.00  0.00    -0.460 OA
BRANCH  65  66
ATOM     66  C   UNL A   1      35.262  24.332  24.790  1.00  0.00     0.340 C 
ATOM     67  O   UNL A   1      34.735  24.403  23.692  1.00  0.00    -0.246 OA
BRANCH  66  68
ATOM     68  C   UNL A   1      36.410  23.433  25.116  1.00  0.00     0.083 A 
ATOM     69  C   UNL A   1      37.489  24.022  25.794  1.00  0.00     0.018 A 
ATOM     70  C   UNL A   1      36.421  22.049  24.819  1.00  0.00     0.055 A 
ATOM     71  C   UNL A   1      38.566  23.246  26.215  1.00  0.00     0.001 A 
ATOM     72  C   UNL A   1      37.518  21.291  25.253  1.00  0.00     0.027 A 
ATOM     73  C   UNL A   1      38.579  21.881  25.946  1.00  0.00     0.002 A 
BRANCH  70  74
ATOM     74  N   UNL A   1      35.362  21.470  24.100  1.00  0.00    -0.323 N 
ATOM     75  H   UNL A   1      35.432  21.554  23.122  1.00  0.00     0.170 HD
BRANCH  74  76
ATOM     76  C   UNL A   1      34.236  20.802  24.546  1.00  0.00     0.233 A 
ATOM     77  N   UNL A   1      34.042  19.526  24.268  1.00  0.00    -0.182 NA
ATOM     78  N   UNL A   1      33.406  21.560  25.250  1.00  0.00    -0.176 NA
ATOM     79  C   UNL A   1      32.934  19.047  24.803  1.00  0.00     0.228 A 
ATOM     80  C   UNL A   1      32.279  20.994  25.644  1.00  0.00     0.233 A 
ATOM     81  Cl  UNL A   1      32.625  17.388  24.537  1.00  0.00    -0.041 Cl
ATOM     82  N   UNL A   1      32.013  19.707  25.482  1.00  0.00    -0.182 NA
BRANCH  80  83
ATOM     83  N   UNL A   1      31.311  21.866  26.134  1.00  0.00    -0.324 N 
ATOM     84  H   UNL A   1      30.891  21.630  26.993  1.00  0.00     0.170 HD
BRANCH  83  85
ATOM     85  C   UNL A   1      30.881  23.042  25.522  1.00  0.00     0.041 A 
ATOM     86  C   UNL A   1      30.441  24.119  26.295  1.00  0.00     0.028 A 
ATOM     87  C   UNL A   1      31.044  23.218  24.147  1.00  0.00     0.028 A 
ATOM     88  C   UNL A   1      30.228  25.368  25.706  1.00  0.00     0.028 A 
ATOM     89  C   UNL A   1      30.784  24.447  23.551  1.00  0.00     0.028 A 
ATOM     90  C   UNL A   1      30.406  25.545  24.329  1.00  0.00     0.044 A 
BRANCH  90  91
ATOM     91  N   UNL A   1      30.298  26.836  23.735  1.00  0.00    -0.308 N 
ATOM     92  C   UNL A   1      31.516  27.378  23.121  1.00  0.00     0.154 C 
ATOM     93  C   UNL A   1      29.045  27.380  23.430  1.00  0.00     0.253 C 
ATOM     94  C   UNL A   1      31.386  28.843  22.729  1.00  0.00     0.183 C 
ATOM     95  C   UNL A   1      29.067  28.687  22.624  1.00  0.00     0.260 C 
ATOM     96  O   UNL A   1      27.969  26.937  23.839  1.00  0.00    -0.272 OA
ATOM     97  O   UNL A   1      30.242  29.008  21.896  1.00  0.00    -0.370 OA
ENDBRANCH  90  91
ENDBRANCH  83  85
ENDBRANCH  80  83
ENDBRANCH  74  76
ENDBRANCH  70  74
ENDBRANCH  66  68
ENDBRANCH  65  66
ENDBRANCH  64  65
ENDBRANCH   1  64
TORSDOF 19
ENDMDL
