MODEL 1
REMARK VINA RESULT:     -12.0      0.000      0.000
REMARK SMILES COC(=O)c1ccc(C)c2c1[C@H]1C=CC[C@H]1[C@@H](c1ccc(C(=O)OCCOCCOC(=O)c3ccc(-c4c5nc(c(-c6c(F)cccc6F)c6ccc([nH]6)c(-c6c(F)cccc6F)c6nc(c(-c7c(F)cccc7F)c7ccc4[nH]7)C=C6)C=C5)cc3)cc1)N2
REMARK SMILES IDX 26 1 25 2 24 3 22 4 23 5 21 6 18 7 19 8 88 9 20 10 87 11
REMARK SMILES IDX 17 12 5 13 6 14 11 15 7 16 10 17 12 18 8 19 89 20 13 21
REMARK SMILES IDX 16 22 9 23 14 25 15 26 3 27 4 28 2 29 1 30 27 31 28 32 29 33
REMARK SMILES IDX 30 34 31 35 32 36 33 37 34 38 86 39 35 40 85 41 36 42 37 43
REMARK SMILES IDX 38 44 79 45 39 46 84 47 78 48 80 49 40 50 83 51 77 52 76 53
REMARK SMILES IDX 41 55 67 56 50 57 66 58 51 59 54 60 65 61 81 62 52 63 53 64
REMARK SMILES IDX 64 66 82 67 55 68 42 69 43 70 48 71 44 72 45 73 47 74 49 75
REMARK SMILES IDX 46 76 68 77 69 78 74 79 70 80 71 81 73 82 75 83 72 84 56 85
REMARK SMILES IDX 57 86 62 87 58 88 59 89 61 90 63 91 60 92
REMARK H PARENT 89 24 80 54 54 65
REMARK Flexibility Score: inf
ROOT
ATOM      1  C   UNL A   1      40.591  21.715  27.417  1.00  0.00     0.202 C 
ENDROOT
BRANCH   1   2
ATOM      2  C   UNL A   1      39.917  21.749  26.042  1.00  0.00     0.261 C 
BRANCH   2   3
ATOM      3  O   UNL A   1      38.578  22.256  26.137  1.00  0.00    -0.460 OA
BRANCH   3   4
ATOM      4  C   UNL A   1      37.654  21.503  25.495  1.00  0.00     0.338 C 
ATOM      5  O   UNL A   1      37.818  20.400  24.998  1.00  0.00    -0.246 OA
BRANCH   4   6
ATOM      6  C   UNL A   1      36.319  22.112  25.647  1.00  0.00     0.060 A 
ATOM      7  C   UNL A   1      33.856  23.472  25.917  1.00  0.00    -0.025 A 
ATOM      8  C   UNL A   1      34.949  24.052  25.250  1.00  0.00     0.007 A 
ATOM      9  C   UNL A   1      34.018  22.157  26.400  1.00  0.00     0.007 A 
ATOM     10  C   UNL A   1      36.168  23.395  25.129  1.00  0.00     0.016 A 
ATOM     11  C   UNL A   1      35.237  21.474  26.256  1.00  0.00     0.016 A 
BRANCH   7  12
ATOM     12  C   UNL A   1      32.554  24.242  26.182  1.00  0.00     0.114 C 
ATOM     13  C   UNL A   1      32.672  26.892  22.848  1.00  0.00     0.065 A 
ATOM     14  C   UNL A   1      33.512  28.008  22.921  1.00  0.00     0.016 A 
ATOM     15  C   UNL A   1      32.412  26.104  23.992  1.00  0.00    -0.003 A 
ATOM     16  C   UNL A   1      34.087  28.364  24.134  1.00  0.00     0.006 A 
ATOM     17  C   UNL A   1      32.995  26.481  25.234  1.00  0.00     0.042 A 
ATOM     18  C   UNL A   1      31.540  24.864  23.906  1.00  0.00     0.050 C 
ATOM     19  C   UNL A   1      33.837  27.617  25.297  1.00  0.00    -0.028 A 
ATOM     20  N   UNL A   1      32.834  25.662  26.347  1.00  0.00    -0.377 N 
ATOM     21  C   UNL A   1      32.026  23.749  23.010  1.00  0.00    -0.023 C 
ATOM     22  C   UNL A   1      31.350  24.100  25.232  1.00  0.00     0.031 C 
ATOM     23  C   UNL A   1      34.567  28.060  26.539  1.00  0.00     0.046 C 
ATOM     24  H   UNL A   1      32.911  26.044  27.252  1.00  0.00     0.161 HD
ATOM     25  C   UNL A   1      31.729  22.541  23.509  1.00  0.00    -0.030 C 
ATOM     26  C   UNL A   1      31.040  22.654  24.828  1.00  0.00     0.034 C 
BRANCH  13  27
ATOM     27  C   UNL A   1      32.072  26.576  21.531  1.00  0.00     0.338 C 
ATOM     28  O   UNL A   1      30.891  26.715  21.255  1.00  0.00    -0.246 OA
BRANCH  27  29
ATOM     29  O   UNL A   1      33.036  26.064  20.728  1.00  0.00    -0.465 OA
ATOM     30  C   UNL A   1      32.534  25.439  19.545  1.00  0.00     0.282 C 
ENDBRANCH  27  29
ENDBRANCH  13  27
ENDBRANCH   7  12
ENDBRANCH   4   6
ENDBRANCH   3   4
ENDBRANCH   2   3
ENDBRANCH   1   2
BRANCH   1  31
ATOM     31  O   UNL A   1      41.930  21.225  27.452  1.00  0.00    -0.374 OA
BRANCH  31  32
ATOM     32  C   UNL A   1      42.544  20.925  26.195  1.00  0.00     0.202 C 
BRANCH  32  33
ATOM     33  C   UNL A   1      43.644  21.889  25.731  1.00  0.00     0.261 C 
BRANCH  33  34
ATOM     34  O   UNL A   1      43.086  23.041  25.068  1.00  0.00    -0.460 OA
BRANCH  34  35
ATOM     35  C   UNL A   1      43.813  24.178  25.169  1.00  0.00     0.338 C 
ATOM     36  O   UNL A   1      44.822  24.478  24.550  1.00  0.00    -0.246 OA
BRANCH  35  37
ATOM     37  C   UNL A   1      43.093  25.138  26.022  1.00  0.00     0.060 A 
ATOM     38  C   UNL A   1      43.681  26.392  26.241  1.00  0.00     0.016 A 
ATOM     39  C   UNL A   1      41.905  24.786  26.663  1.00  0.00     0.016 A 
ATOM     40  C   UNL A   1      43.098  27.288  27.132  1.00  0.00     0.010 A 
ATOM     41  C   UNL A   1      41.333  25.678  27.576  1.00  0.00     0.010 A 
ATOM     42  C   UNL A   1      41.947  26.916  27.838  1.00  0.00    -0.014 A 
BRANCH  42  43
ATOM     43  C   UNL A   1      41.499  27.742  28.982  1.00  0.00     0.031 A 
ATOM     44  C   UNL A   1      42.246  27.631  30.282  1.00  0.00     0.074 A 
ATOM     45  C   UNL A   1      40.468  28.594  28.860  1.00  0.00     0.049 A 
ATOM     46  N   UNL A   1      42.026  28.237  31.420  1.00  0.00    -0.248 NA
ATOM     47  C   UNL A   1      43.396  26.713  30.297  1.00  0.00     0.031 C 
ATOM     48  C   UNL A   1      39.701  28.827  27.639  1.00  0.00     0.029 A 
ATOM     49  N   UNL A   1      39.887  29.420  29.788  1.00  0.00    -0.354 N 
ATOM     50  C   UNL A   1      43.012  27.778  32.285  1.00  0.00     0.074 A 
ATOM     51  C   UNL A   1      43.811  26.822  31.550  1.00  0.00     0.031 C 
ATOM     52  C   UNL A   1      38.739  29.731  27.896  1.00  0.00     0.029 A 
ATOM     53  C   UNL A   1      38.808  30.116  29.303  1.00  0.00     0.049 A 
ATOM     54  H   UNL A   1      40.214  29.506  30.712  1.00  0.00     0.167 HD
ATOM     55  C   UNL A   1      43.235  28.128  33.574  1.00  0.00     0.037 A 
ATOM     56  C   UNL A   1      37.965  30.955  29.936  1.00  0.00     0.037 A 
ATOM     57  C   UNL A   1      42.428  29.065  34.309  1.00  0.00     0.049 A 
ATOM     58  C   UNL A   1      38.172  31.246  31.399  1.00  0.00     0.074 A 
ATOM     59  C   UNL A   1      42.578  29.495  35.616  1.00  0.00     0.029 A 
ATOM     60  N   UNL A   1      41.307  29.705  33.803  1.00  0.00    -0.354 N 
ATOM     61  N   UNL A   1      39.122  30.829  32.202  1.00  0.00    -0.248 NA
ATOM     62  C   UNL A   1      37.185  32.124  32.044  1.00  0.00     0.031 C 
ATOM     63  C   UNL A   1      41.518  30.357  35.914  1.00  0.00     0.029 A 
ATOM     64  C   UNL A   1      40.736  30.503  34.780  1.00  0.00     0.049 A 
ATOM     65  H   UNL A   1      40.968  29.606  32.883  1.00  0.00     0.167 HD
ATOM     66  C   UNL A   1      38.865  31.419  33.435  1.00  0.00     0.074 A 
ATOM     67  C   UNL A   1      37.676  32.230  33.270  1.00  0.00     0.031 C 
ATOM     68  C   UNL A   1      39.553  31.303  34.598  1.00  0.00     0.037 A 
BRANCH  55  69
ATOM     69  C   UNL A   1      44.383  27.463  34.274  1.00  0.00     0.057 A 
ATOM     70  C   UNL A   1      45.652  28.053  34.283  1.00  0.00     0.134 A 
ATOM     71  C   UNL A   1      44.236  26.235  34.933  1.00  0.00     0.134 A 
ATOM     72  F   UNL A   1      45.861  29.229  33.670  1.00  0.00    -0.206 F 
ATOM     73  C   UNL A   1      46.735  27.447  34.921  1.00  0.00     0.040 A 
ATOM     74  C   UNL A   1      45.306  25.631  35.596  1.00  0.00     0.040 A 
ATOM     75  F   UNL A   1      43.042  25.626  34.978  1.00  0.00    -0.206 F 
ATOM     76  C   UNL A   1      46.561  26.235  35.586  1.00  0.00     0.006 A 
ENDBRANCH  55  69
BRANCH  56  77
ATOM     77  C   UNL A   1      36.833  31.575  29.203  1.00  0.00     0.057 A 
ATOM     78  C   UNL A   1      36.900  32.893  28.737  1.00  0.00     0.134 A 
ATOM     79  C   UNL A   1      35.675  30.845  28.913  1.00  0.00     0.134 A 
ATOM     80  F   UNL A   1      37.984  33.644  28.981  1.00  0.00    -0.206 F 
ATOM     81  C   UNL A   1      35.854  33.466  28.012  1.00  0.00     0.040 A 
ATOM     82  C   UNL A   1      34.631  31.398  28.169  1.00  0.00     0.040 A 
ATOM     83  F   UNL A   1      35.564  29.569  29.310  1.00  0.00    -0.206 F 
ATOM     84  C   UNL A   1      34.718  32.713  27.718  1.00  0.00     0.006 A 
ENDBRANCH  56  77
BRANCH  68  85
ATOM     85  C   UNL A   1      39.053  32.096  35.771  1.00  0.00     0.057 A 
ATOM     86  C   UNL A   1      39.447  33.429  35.949  1.00  0.00     0.134 A 
ATOM     87  C   UNL A   1      38.203  31.538  36.734  1.00  0.00     0.134 A 
ATOM     88  F   UNL A   1      40.267  34.021  35.068  1.00  0.00    -0.206 F 
ATOM     89  C   UNL A   1      39.014  34.177  37.044  1.00  0.00     0.040 A 
ATOM     90  C   UNL A   1      37.742  32.285  37.819  1.00  0.00     0.040 A 
ATOM     91  F   UNL A   1      37.777  30.272  36.613  1.00  0.00    -0.206 F 
ATOM     92  C   UNL A   1      38.153  33.608  37.980  1.00  0.00     0.006 A 
ENDBRANCH  68  85
ENDBRANCH  42  43
ENDBRANCH  35  37
ENDBRANCH  34  35
ENDBRANCH  33  34
ENDBRANCH  32  33
ENDBRANCH  31  32
ENDBRANCH   1  31
TORSDOF 17
ENDMDL
MODEL 2
REMARK VINA RESULT:     -11.7      4.550      9.529
REMARK SMILES COC(=O)c1ccc(C)c2c1[C@H]1C=CC[C@H]1[C@@H](c1ccc(C(=O)OCCOCCOC(=O)c3ccc(-c4c5nc(c(-c6c(F)cccc6F)c6ccc([nH]6)c(-c6c(F)cccc6F)c6nc(c(-c7c(F)cccc7F)c7ccc4[nH]7)C=C6)C=C5)cc3)cc1)N2
REMARK SMILES IDX 26 1 25 2 24 3 22 4 23 5 21 6 18 7 19 8 88 9 20 10 87 11
REMARK SMILES IDX 17 12 5 13 6 14 11 15 7 16 10 17 12 18 8 19 89 20 13 21
REMARK SMILES IDX 16 22 9 23 14 25 15 26 3 27 4 28 2 29 1 30 27 31 28 32 29 33
REMARK SMILES IDX 30 34 31 35 32 36 33 37 34 38 86 39 35 40 85 41 36 42 37 43
REMARK SMILES IDX 38 44 79 45 39 46 84 47 78 48 80 49 40 50 83 51 77 52 76 53
REMARK SMILES IDX 41 55 67 56 50 57 66 58 51 59 54 60 65 61 81 62 52 63 53 64
REMARK SMILES IDX 64 66 82 67 55 68 42 69 43 70 48 71 44 72 45 73 47 74 49 75
REMARK SMILES IDX 46 76 68 77 69 78 74 79 70 80 71 81 73 82 75 83 72 84 56 85
REMARK SMILES IDX 57 86 62 87 58 88 59 89 61 90 63 91 60 92
REMARK H PARENT 89 24 80 54 54 65
REMARK Flexibility Score: inf
ROOT
ATOM      1  C   UNL A   1      34.491  32.325  29.296  1.00  0.00     0.202 C 
ENDROOT
BRANCH   1   2
ATOM      2  C   UNL A   1      34.675  32.196  27.781  1.00  0.00     0.261 C 
BRANCH   2   3
ATOM      3  O   UNL A   1      34.460  30.845  27.350  1.00  0.00    -0.460 OA
BRANCH   3   4
ATOM      4  C   UNL A   1      33.217  30.609  26.867  1.00  0.00     0.338 C 
ATOM      5  O   UNL A   1      32.230  31.316  26.994  1.00  0.00    -0.246 OA
BRANCH   4   6
ATOM      6  C   UNL A   1      33.244  29.444  25.962  1.00  0.00     0.060 A 
ATOM      7  C   UNL A   1      33.417  27.112  24.375  1.00  0.00    -0.025 A 
ATOM      8  C   UNL A   1      33.577  27.067  25.771  1.00  0.00     0.007 A 
ATOM      9  C   UNL A   1      33.109  28.362  23.800  1.00  0.00     0.007 A 
ATOM     10  C   UNL A   1      33.511  28.213  26.554  1.00  0.00     0.016 A 
ATOM     11  C   UNL A   1      33.010  29.521  24.588  1.00  0.00     0.016 A 
BRANCH   7  12
ATOM     12  C   UNL A   1      33.631  25.878  23.485  1.00  0.00     0.114 C 
ATOM     13  C   UNL A   1      32.370  22.869  26.226  1.00  0.00     0.065 A 
ATOM     14  C   UNL A   1      33.262  22.474  27.228  1.00  0.00     0.016 A 
ATOM     15  C   UNL A   1      32.799  23.687  25.155  1.00  0.00    -0.003 A 
ATOM     16  C   UNL A   1      34.591  22.871  27.169  1.00  0.00     0.006 A 
ATOM     17  C   UNL A   1      34.165  24.081  25.095  1.00  0.00     0.042 A 
ATOM     18  C   UNL A   1      31.824  24.158  24.091  1.00  0.00     0.050 C 
ATOM     19  C   UNL A   1      35.059  23.668  26.112  1.00  0.00    -0.028 A 
ATOM     20  N   UNL A   1      34.583  24.968  24.108  1.00  0.00    -0.377 N 
ATOM     21  C   UNL A   1      30.678  25.028  24.552  1.00  0.00    -0.023 C 
ATOM     22  C   UNL A   1      32.432  25.049  22.989  1.00  0.00     0.031 C 
ATOM     23  C   UNL A   1      36.504  24.091  26.189  1.00  0.00     0.046 C 
ATOM     24  H   UNL A   1      35.528  24.981  23.830  1.00  0.00     0.161 HD
ATOM     25  C   UNL A   1      30.363  25.962  23.645  1.00  0.00    -0.030 C 
ATOM     26  C   UNL A   1      31.267  25.892  22.459  1.00  0.00     0.034 C 
BRANCH  13  27
ATOM     27  C   UNL A   1      30.971  22.395  26.332  1.00  0.00     0.338 C 
ATOM     28  O   UNL A   1      30.478  21.522  25.636  1.00  0.00    -0.246 OA
BRANCH  27  29
ATOM     29  O   UNL A   1      30.337  23.130  27.279  1.00  0.00    -0.465 OA
ATOM     30  C   UNL A   1      29.022  22.666  27.588  1.00  0.00     0.282 C 
ENDBRANCH  27  29
ENDBRANCH  13  27
ENDBRANCH   7  12
ENDBRANCH   4   6
ENDBRANCH   3   4
ENDBRANCH   2   3
ENDBRANCH   1   2
BRANCH   1  31
ATOM     31  O   UNL A   1      33.993  33.576  29.767  1.00  0.00    -0.374 OA
BRANCH  31  32
ATOM     32  C   UNL A   1      34.700  34.191  30.849  1.00  0.00     0.202 C 
BRANCH  32  33
ATOM     33  C   UNL A   1      34.425  33.624  32.247  1.00  0.00     0.261 C 
BRANCH  33  34
ATOM     34  O   UNL A   1      35.017  32.319  32.409  1.00  0.00    -0.460 OA
BRANCH  34  35
ATOM     35  C   UNL A   1      36.226  32.300  33.017  1.00  0.00     0.338 C 
ATOM     36  O   UNL A   1      36.511  32.723  34.126  1.00  0.00    -0.246 OA
BRANCH  35  37
ATOM     37  C   UNL A   1      37.160  31.497  32.211  1.00  0.00     0.060 A 
ATOM     38  C   UNL A   1      38.118  30.729  32.888  1.00  0.00     0.016 A 
ATOM     39  C   UNL A   1      37.152  31.561  30.817  1.00  0.00     0.016 A 
ATOM     40  C   UNL A   1      39.096  30.046  32.171  1.00  0.00     0.010 A 
ATOM     41  C   UNL A   1      38.149  30.894  30.099  1.00  0.00     0.010 A 
ATOM     42  C   UNL A   1      39.143  30.163  30.776  1.00  0.00    -0.014 A 
BRANCH  42  43
ATOM     43  C   UNL A   1      40.338  29.680  30.047  1.00  0.00     0.031 A 
ATOM     44  C   UNL A   1      41.474  30.637  29.820  1.00  0.00     0.074 A 
ATOM     45  C   UNL A   1      40.423  28.410  29.620  1.00  0.00     0.049 A 
ATOM     46  N   UNL A   1      42.608  30.448  29.195  1.00  0.00    -0.248 NA
ATOM     47  C   UNL A   1      41.309  31.990  30.376  1.00  0.00     0.031 C 
ATOM     48  C   UNL A   1      39.410  27.376  29.826  1.00  0.00     0.029 A 
ATOM     49  N   UNL A   1      41.415  27.776  28.918  1.00  0.00    -0.354 N 
ATOM     50  C   UNL A   1      43.292  31.654  29.286  1.00  0.00     0.074 A 
ATOM     51  C   UNL A   1      42.436  32.576  29.999  1.00  0.00     0.031 C 
ATOM     52  C   UNL A   1      39.829  26.236  29.249  1.00  0.00     0.029 A 
ATOM     53  C   UNL A   1      41.124  26.469  28.614  1.00  0.00     0.049 A 
ATOM     54  H   UNL A   1      42.256  28.216  28.656  1.00  0.00     0.167 HD
ATOM     55  C   UNL A   1      44.526  31.962  28.823  1.00  0.00     0.037 A 
ATOM     56  C   UNL A   1      41.821  25.574  27.888  1.00  0.00     0.037 A 
ATOM     57  C   UNL A   1      45.369  31.050  28.097  1.00  0.00     0.049 A 
ATOM     58  C   UNL A   1      43.145  25.976  27.294  1.00  0.00     0.074 A 
ATOM     59  C   UNL A   1      46.641  31.262  27.595  1.00  0.00     0.029 A 
ATOM     60  N   UNL A   1      45.015  29.753  27.757  1.00  0.00    -0.354 N 
ATOM     61  N   UNL A   1      43.797  27.108  27.407  1.00  0.00    -0.248 NA
ATOM     62  C   UNL A   1      43.830  24.971  26.465  1.00  0.00     0.031 C 
ATOM     63  C   UNL A   1      47.035  30.110  26.907  1.00  0.00     0.029 A 
ATOM     64  C   UNL A   1      46.031  29.163  27.023  1.00  0.00     0.049 A 
ATOM     65  H   UNL A   1      44.167  29.317  28.001  1.00  0.00     0.167 HD
ATOM     66  C   UNL A   1      44.979  26.942  26.694  1.00  0.00     0.074 A 
ATOM     67  C   UNL A   1      44.958  25.595  26.161  1.00  0.00     0.031 C 
ATOM     68  C   UNL A   1      45.992  27.822  26.500  1.00  0.00     0.037 A 
BRANCH  55  69
ATOM     69  C   UNL A   1      45.018  33.359  29.063  1.00  0.00     0.057 A 
ATOM     70  C   UNL A   1      44.742  34.380  28.146  1.00  0.00     0.134 A 
ATOM     71  C   UNL A   1      45.771  33.693  30.196  1.00  0.00     0.134 A 
ATOM     72  F   UNL A   1      44.025  34.127  27.040  1.00  0.00    -0.206 F 
ATOM     73  C   UNL A   1      45.197  35.683  28.347  1.00  0.00     0.040 A 
ATOM     74  C   UNL A   1      46.212  34.999  30.419  1.00  0.00     0.040 A 
ATOM     75  F   UNL A   1      46.055  32.765  31.122  1.00  0.00    -0.206 F 
ATOM     76  C   UNL A   1      45.929  35.997  29.489  1.00  0.00     0.006 A 
ENDBRANCH  55  69
BRANCH  56  77
ATOM     77  C   UNL A   1      41.283  24.209  27.664  1.00  0.00     0.057 A 
ATOM     78  C   UNL A   1      40.278  23.966  26.720  1.00  0.00     0.134 A 
ATOM     79  C   UNL A   1      41.795  23.108  28.360  1.00  0.00     0.134 A 
ATOM     80  F   UNL A   1      39.748  24.979  26.019  1.00  0.00    -0.206 F 
ATOM     81  C   UNL A   1      39.799  22.678  26.478  1.00  0.00     0.040 A 
ATOM     82  C   UNL A   1      41.342  21.812  28.111  1.00  0.00     0.040 A 
ATOM     83  F   UNL A   1      42.778  23.275  29.258  1.00  0.00    -0.206 F 
ATOM     84  C   UNL A   1      40.339  21.594  27.169  1.00  0.00     0.006 A 
ENDBRANCH  56  77
BRANCH  68  85
ATOM     85  C   UNL A   1      47.173  27.342  25.706  1.00  0.00     0.057 A 
ATOM     86  C   UNL A   1      48.242  26.696  26.339  1.00  0.00     0.134 A 
ATOM     87  C   UNL A   1      47.264  27.540  24.322  1.00  0.00     0.134 A 
ATOM     88  F   UNL A   1      48.223  26.482  27.663  1.00  0.00    -0.206 F 
ATOM     89  C   UNL A   1      49.360  26.264  25.624  1.00  0.00     0.040 A 
ATOM     90  C   UNL A   1      48.365  27.088  23.592  1.00  0.00     0.040 A 
ATOM     91  F   UNL A   1      46.267  28.139  23.654  1.00  0.00    -0.206 F 
ATOM     92  C   UNL A   1      49.420  26.452  24.245  1.00  0.00     0.006 A 
ENDBRANCH  68  85
ENDBRANCH  42  43
ENDBRANCH  35  37
ENDBRANCH  34  35
ENDBRANCH  33  34
ENDBRANCH  32  33
ENDBRANCH  31  32
ENDBRANCH   1  31
TORSDOF 17
ENDMDL
MODEL 3
REMARK VINA RESULT:     -11.7      0.658      5.928
REMARK SMILES COC(=O)c1ccc(C)c2c1[C@H]1C=CC[C@H]1[C@@H](c1ccc(C(=O)OCCOCCOC(=O)c3ccc(-c4c5nc(c(-c6c(F)cccc6F)c6ccc([nH]6)c(-c6c(F)cccc6F)c6nc(c(-c7c(F)cccc7F)c7ccc4[nH]7)C=C6)C=C5)cc3)cc1)N2
REMARK SMILES IDX 26 1 25 2 24 3 22 4 23 5 21 6 18 7 19 8 88 9 20 10 87 11
REMARK SMILES IDX 17 12 5 13 6 14 11 15 7 16 10 17 12 18 8 19 89 20 13 21
REMARK SMILES IDX 16 22 9 23 14 25 15 26 3 27 4 28 2 29 1 30 27 31 28 32 29 33
REMARK SMILES IDX 30 34 31 35 32 36 33 37 34 38 86 39 35 40 85 41 36 42 37 43
REMARK SMILES IDX 38 44 79 45 39 46 84 47 78 48 80 49 40 50 83 51 77 52 76 53
REMARK SMILES IDX 41 55 67 56 50 57 66 58 51 59 54 60 65 61 81 62 52 63 53 64
REMARK SMILES IDX 64 66 82 67 55 68 42 69 43 70 48 71 44 72 45 73 47 74 49 75
REMARK SMILES IDX 46 76 68 77 69 78 74 79 70 80 71 81 73 82 75 83 72 84 56 85
REMARK SMILES IDX 57 86 62 87 58 88 59 89 61 90 63 91 60 92
REMARK H PARENT 89 24 80 54 54 65
REMARK Flexibility Score: inf
ROOT
ATOM      1  C   UNL A   1      40.775  21.746  27.417  1.00  0.00     0.202 C 
ENDROOT
BRANCH   1   2
ATOM      2  C   UNL A   1      39.834  21.193  26.343  1.00  0.00     0.261 C 
BRANCH   2   3
ATOM      3  O   UNL A   1      38.783  22.125  26.050  1.00  0.00    -0.460 OA
BRANCH   3   4
ATOM      4  C   UNL A   1      37.763  21.602  25.329  1.00  0.00     0.338 C 
ATOM      5  O   UNL A   1      37.777  20.573  24.672  1.00  0.00    -0.246 OA
BRANCH   4   6
ATOM      6  C   UNL A   1      36.520  22.348  25.605  1.00  0.00     0.060 A 
ATOM      7  C   UNL A   1      34.039  23.587  26.151  1.00  0.00    -0.025 A 
ATOM      8  C   UNL A   1      34.314  22.273  26.567  1.00  0.00     0.007 A 
ATOM      9  C   UNL A   1      35.074  24.287  25.497  1.00  0.00     0.007 A 
ATOM     10  C   UNL A   1      35.526  21.653  26.286  1.00  0.00     0.016 A 
ATOM     11  C   UNL A   1      36.313  23.678  25.235  1.00  0.00     0.016 A 
BRANCH   7  12
ATOM     12  C   UNL A   1      32.657  24.232  26.329  1.00  0.00     0.114 C 
ATOM     13  C   UNL A   1      32.694  26.809  22.936  1.00  0.00     0.065 A 
ATOM     14  C   UNL A   1      33.418  28.003  23.021  1.00  0.00     0.016 A 
ATOM     15  C   UNL A   1      32.451  26.024  24.086  1.00  0.00    -0.003 A 
ATOM     16  C   UNL A   1      33.891  28.439  24.252  1.00  0.00     0.006 A 
ATOM     17  C   UNL A   1      32.930  26.482  25.346  1.00  0.00     0.042 A 
ATOM     18  C   UNL A   1      31.709  24.703  23.990  1.00  0.00     0.050 C 
ATOM     19  C   UNL A   1      33.654  27.696  25.420  1.00  0.00    -0.028 A 
ATOM     20  N   UNL A   1      32.790  25.676  26.470  1.00  0.00    -0.377 N 
ATOM     21  C   UNL A   1      32.346  23.622  23.148  1.00  0.00    -0.023 C 
ATOM     22  C   UNL A   1      31.524  23.953  25.324  1.00  0.00     0.031 C 
ATOM     23  C   UNL A   1      34.271  28.235  26.686  1.00  0.00     0.046 C 
ATOM     24  H   UNL A   1      32.782  26.083  27.367  1.00  0.00     0.161 HD
ATOM     25  C   UNL A   1      32.141  22.402  23.664  1.00  0.00    -0.030 C 
ATOM     26  C   UNL A   1      31.376  22.476  24.944  1.00  0.00     0.034 C 
BRANCH  13  27
ATOM     27  C   UNL A   1      32.197  26.408  21.600  1.00  0.00     0.338 C 
ATOM     28  O   UNL A   1      31.029  26.457  21.249  1.00  0.00    -0.246 OA
BRANCH  27  29
ATOM     29  O   UNL A   1      33.240  25.933  20.875  1.00  0.00    -0.465 OA
ATOM     30  C   UNL A   1      32.851  25.203  19.710  1.00  0.00     0.282 C 
ENDBRANCH  27  29
ENDBRANCH  13  27
ENDBRANCH   7  12
ENDBRANCH   4   6
ENDBRANCH   3   4
ENDBRANCH   2   3
ENDBRANCH   1   2
BRANCH   1  31
ATOM     31  O   UNL A   1      42.129  21.302  27.358  1.00  0.00    -0.374 OA
BRANCH  31  32
ATOM     32  C   UNL A   1      42.690  21.099  26.058  1.00  0.00     0.202 C 
BRANCH  32  33
ATOM     33  C   UNL A   1      43.108  22.363  25.296  1.00  0.00     0.261 C 
BRANCH  33  34
ATOM     34  O   UNL A   1      43.859  23.259  26.140  1.00  0.00    -0.460 OA
BRANCH  34  35
ATOM     35  C   UNL A   1      43.959  24.532  25.692  1.00  0.00     0.338 C 
ATOM     36  O   UNL A   1      44.417  24.917  24.627  1.00  0.00    -0.246 OA
BRANCH  35  37
ATOM     37  C   UNL A   1      43.238  25.427  26.613  1.00  0.00     0.060 A 
ATOM     38  C   UNL A   1      43.749  26.717  26.810  1.00  0.00     0.016 A 
ATOM     39  C   UNL A   1      42.129  24.981  27.333  1.00  0.00     0.016 A 
ATOM     40  C   UNL A   1      43.172  27.558  27.757  1.00  0.00     0.010 A 
ATOM     41  C   UNL A   1      41.565  25.818  28.302  1.00  0.00     0.010 A 
ATOM     42  C   UNL A   1      42.107  27.094  28.539  1.00  0.00    -0.014 A 
BRANCH  42  43
ATOM     43  C   UNL A   1      41.688  27.871  29.728  1.00  0.00     0.031 A 
ATOM     44  C   UNL A   1      40.507  28.793  29.602  1.00  0.00     0.074 A 
ATOM     45  C   UNL A   1      42.325  27.739  30.903  1.00  0.00     0.049 A 
ATOM     46  N   UNL A   1      39.971  29.584  30.496  1.00  0.00    -0.248 NA
ATOM     47  C   UNL A   1      39.841  28.825  28.290  1.00  0.00     0.031 C 
ATOM     48  C   UNL A   1      43.448  26.839  31.162  1.00  0.00     0.029 A 
ATOM     49  N   UNL A   1      42.115  28.371  32.101  1.00  0.00    -0.354 N 
ATOM     50  C   UNL A   1      38.904  30.203  29.857  1.00  0.00     0.074 A 
ATOM     51  C   UNL A   1      38.887  29.720  28.493  1.00  0.00     0.031 C 
ATOM     52  C   UNL A   1      43.837  26.988  32.440  1.00  0.00     0.029 A 
ATOM     53  C   UNL A   1      43.009  28.009  33.078  1.00  0.00     0.049 A 
ATOM     54  H   UNL A   1      41.392  29.024  32.246  1.00  0.00     0.167 HD
ATOM     55  C   UNL A   1      38.015  31.090  30.363  1.00  0.00     0.037 A 
ATOM     56  C   UNL A   1      43.148  28.468  34.336  1.00  0.00     0.037 A 
ATOM     57  C   UNL A   1      38.046  31.584  31.714  1.00  0.00     0.049 A 
ATOM     58  C   UNL A   1      42.210  29.532  34.842  1.00  0.00     0.074 A 
ATOM     59  C   UNL A   1      37.183  32.475  32.327  1.00  0.00     0.029 A 
ATOM     60  N   UNL A   1      39.002  31.238  32.657  1.00  0.00    -0.354 N 
ATOM     61  N   UNL A   1      41.188  30.092  34.241  1.00  0.00    -0.248 NA
ATOM     62  C   UNL A   1      42.450  30.031  36.205  1.00  0.00     0.031 C 
ATOM     63  C   UNL A   1      37.648  32.707  33.626  1.00  0.00     0.029 A 
ATOM     64  C   UNL A   1      38.771  31.922  33.838  1.00  0.00     0.049 A 
ATOM     65  H   UNL A   1      39.738  30.600  32.508  1.00  0.00     0.167 HD
ATOM     66  C   UNL A   1      40.645  30.983  35.161  1.00  0.00     0.074 A 
ATOM     67  C   UNL A   1      41.446  30.880  36.363  1.00  0.00     0.031 C 
ATOM     68  C   UNL A   1      39.578  31.808  35.025  1.00  0.00     0.037 A 
BRANCH  55  69
ATOM     69  C   UNL A   1      36.956  31.603  29.434  1.00  0.00     0.057 A 
ATOM     70  C   UNL A   1      35.848  30.811  29.109  1.00  0.00     0.134 A 
ATOM     71  C   UNL A   1      37.034  32.875  28.853  1.00  0.00     0.134 A 
ATOM     72  F   UNL A   1      35.712  29.582  29.631  1.00  0.00    -0.206 F 
ATOM     73  C   UNL A   1      34.856  31.266  28.240  1.00  0.00     0.040 A 
ATOM     74  C   UNL A   1      36.036  33.351  28.001  1.00  0.00     0.040 A 
ATOM     75  F   UNL A   1      38.061  33.690  29.138  1.00  0.00    -0.206 F 
ATOM     76  C   UNL A   1      34.945  32.542  27.688  1.00  0.00     0.006 A 
ENDBRANCH  55  69
BRANCH  56  77
ATOM     77  C   UNL A   1      44.224  27.940  35.212  1.00  0.00     0.057 A 
ATOM     78  C   UNL A   1      45.497  28.522  35.236  1.00  0.00     0.134 A 
ATOM     79  C   UNL A   1      43.988  26.867  36.078  1.00  0.00     0.134 A 
ATOM     80  F   UNL A   1      45.786  29.555  34.430  1.00  0.00    -0.206 F 
ATOM     81  C   UNL A   1      46.499  28.054  36.087  1.00  0.00     0.040 A 
ATOM     82  C   UNL A   1      44.973  26.404  36.952  1.00  0.00     0.040 A 
ATOM     83  F   UNL A   1      42.780  26.286  36.119  1.00  0.00    -0.206 F 
ATOM     84  C   UNL A   1      46.234  26.997  36.956  1.00  0.00     0.006 A 
ENDBRANCH  56  77
BRANCH  68  85
ATOM     85  C   UNL A   1      39.199  32.639  36.216  1.00  0.00     0.057 A 
ATOM     86  C   UNL A   1      39.731  33.924  36.387  1.00  0.00     0.134 A 
ATOM     87  C   UNL A   1      38.330  32.162  37.205  1.00  0.00     0.134 A 
ATOM     88  F   UNL A   1      40.576  34.439  35.480  1.00  0.00    -0.206 F 
ATOM     89  C   UNL A   1      39.411  34.705  37.498  1.00  0.00     0.040 A 
ATOM     90  C   UNL A   1      37.982  32.944  38.308  1.00  0.00     0.040 A 
ATOM     91  F   UNL A   1      37.776  30.946  37.094  1.00  0.00    -0.206 F 
ATOM     92  C   UNL A   1      38.528  34.218  38.460  1.00  0.00     0.006 A 
ENDBRANCH  68  85
ENDBRANCH  42  43
ENDBRANCH  35  37
ENDBRANCH  34  35
ENDBRANCH  33  34
ENDBRANCH  32  33
ENDBRANCH  31  32
ENDBRANCH   1  31
TORSDOF 17
ENDMDL
