MODEL 1
REMARK VINA RESULT:     -11.4      0.000      0.000
REMARK SMILES NS(=O)(=O)c1ccc(/N=C/c2ccc(O)c(C(=O)OCCOCCOC(=O)c3ccc(-c4c5nc(c(-c6c(F)cccc6F)c6ccc([nH]6)c(-c6c(F)cccc6F)c6nc(c(-c7c(F)cccc7F)c7ccc4[nH]7)C=C6)C=C5)cc3)c2)cc1
REMARK SMILES IDX 21 1 20 2 19 3 17 4 18 5 16 6 11 7 12 8 82 9 13 10 14 11
REMARK SMILES IDX 10 12 9 13 8 14 5 15 6 16 84 17 7 18 83 19 2 20 3 21 4 22
REMARK SMILES IDX 1 23 15 26 22 28 23 29 24 30 25 31 26 32 27 33 28 34 29 35
REMARK SMILES IDX 81 36 30 37 80 38 31 39 32 40 33 41 74 42 34 43 79 44 73 45
REMARK SMILES IDX 75 46 35 47 78 48 72 49 71 50 36 52 62 53 45 54 61 55 46 56
REMARK SMILES IDX 49 57 60 58 76 59 47 60 48 61 59 63 77 64 50 65 37 66 38 67
REMARK SMILES IDX 43 68 39 69 40 70 42 71 44 72 41 73 63 74 64 75 69 76 65 77
REMARK SMILES IDX 66 78 68 79 70 80 67 81 51 82 52 83 57 84 53 85 54 86 56 87
REMARK SMILES IDX 58 88 55 89
REMARK H PARENT 1 24 1 25 15 27 75 51 49 62
REMARK Flexibility Score: inf
ROOT
ATOM      1  C   UNL A   1      45.323  19.245  25.154  1.00  0.00     0.202 C 
ENDROOT
BRANCH   1   2
ATOM      2  C   UNL A   1      44.012  18.468  24.982  1.00  0.00     0.261 C 
BRANCH   2   3
ATOM      3  O   UNL A   1      42.855  19.296  25.182  1.00  0.00    -0.460 OA
BRANCH   3   4
ATOM      4  C   UNL A   1      42.310  19.203  26.419  1.00  0.00     0.342 C 
ATOM      5  O   UNL A   1      42.620  18.410  27.296  1.00  0.00    -0.246 OA
BRANCH   4   6
ATOM      6  C   UNL A   1      41.441  20.363  26.713  1.00  0.00     0.102 A 
ATOM      7  C   UNL A   1      39.509  21.762  26.324  1.00  0.00    -0.006 A 
ATOM      8  C   UNL A   1      39.928  22.633  27.337  1.00  0.00     0.013 A 
ATOM      9  C   UNL A   1      40.265  20.628  25.996  1.00  0.00     0.029 A 
ATOM     10  C   UNL A   1      41.110  22.379  28.030  1.00  0.00     0.048 A 
ATOM     11  C   UNL A   1      41.859  21.249  27.721  1.00  0.00     0.130 A 
BRANCH   7  12
ATOM     12  C   UNL A   1      38.249  22.095  25.622  1.00  0.00     0.119 C 
ATOM     13  N   UNL A   1      37.799  23.303  25.546  1.00  0.00    -0.256 NA
BRANCH  13  14
ATOM     14  C   UNL A   1      36.582  23.573  24.886  1.00  0.00     0.063 A 
ATOM     15  C   UNL A   1      34.294  24.135  23.345  1.00  0.00     0.082 A 
ATOM     16  C   UNL A   1      35.266  23.267  22.850  1.00  0.00     0.024 A 
ATOM     17  C   UNL A   1      34.443  24.715  24.605  1.00  0.00     0.024 A 
ATOM     18  C   UNL A   1      36.399  22.992  23.623  1.00  0.00     0.030 A 
ATOM     19  C   UNL A   1      35.586  24.438  25.365  1.00  0.00     0.030 A 
BRANCH  15  20
ATOM     20  S   UNL A   1      32.888  24.548  22.359  1.00  0.00     0.238 S 
ATOM     21  O   UNL A   1      33.287  25.440  21.298  1.00  0.00    -0.207 OA
ATOM     22  O   UNL A   1      31.774  24.826  23.239  1.00  0.00    -0.207 OA
BRANCH  20  23
ATOM     23  N   UNL A   1      32.526  23.093  21.599  1.00  0.00    -0.225 NA
ATOM     24  H   UNL A   1      32.896  23.103  20.649  1.00  0.00     0.137 HD
ATOM     25  H   UNL A   1      31.514  22.967  21.569  1.00  0.00     0.137 HD
ENDBRANCH  20  23
ENDBRANCH  15  20
ENDBRANCH  13  14
ENDBRANCH   7  12
BRANCH  11  26
ATOM     26  O   UNL A   1      43.021  21.093  28.429  1.00  0.00    -0.507 OA
ATOM     27  H   UNL A   1      43.166  21.593  29.208  1.00  0.00     0.293 HD
ENDBRANCH  11  26
ENDBRANCH   4   6
ENDBRANCH   3   4
ENDBRANCH   2   3
ENDBRANCH   1   2
BRANCH   1  28
ATOM     28  O   UNL A   1      45.593  20.307  24.242  1.00  0.00    -0.374 OA
BRANCH  28  29
ATOM     29  C   UNL A   1      45.518  21.645  24.730  1.00  0.00     0.202 C 
BRANCH  29  30
ATOM     30  C   UNL A   1      44.658  22.655  23.961  1.00  0.00     0.261 C 
BRANCH  30  31
ATOM     31  O   UNL A   1      43.943  23.556  24.824  1.00  0.00    -0.460 OA
BRANCH  31  32
ATOM     32  C   UNL A   1      44.607  24.702  25.114  1.00  0.00     0.338 C 
ATOM     33  O   UNL A   1      45.632  25.115  24.598  1.00  0.00    -0.246 OA
BRANCH  32  34
ATOM     34  C   UNL A   1      43.807  25.520  26.043  1.00  0.00     0.060 A 
ATOM     35  C   UNL A   1      44.126  26.880  26.150  1.00  0.00     0.016 A 
ATOM     36  C   UNL A   1      42.819  24.955  26.849  1.00  0.00     0.016 A 
ATOM     37  C   UNL A   1      43.487  27.673  27.098  1.00  0.00     0.010 A 
ATOM     38  C   UNL A   1      42.183  25.752  27.806  1.00  0.00     0.010 A 
ATOM     39  C   UNL A   1      42.539  27.106  27.959  1.00  0.00    -0.014 A 
BRANCH  39  40
ATOM     40  C   UNL A   1      42.013  27.896  29.098  1.00  0.00     0.031 A 
ATOM     41  C   UNL A   1      42.719  27.832  30.424  1.00  0.00     0.074 A 
ATOM     42  C   UNL A   1      40.930  28.678  28.946  1.00  0.00     0.049 A 
ATOM     43  N   UNL A   1      42.404  28.399  31.560  1.00  0.00    -0.248 NA
ATOM     44  C   UNL A   1      43.943  27.016  30.476  1.00  0.00     0.031 C 
ATOM     45  C   UNL A   1      40.182  28.852  27.701  1.00  0.00     0.029 A 
ATOM     46  N   UNL A   1      40.266  29.466  29.851  1.00  0.00    -0.354 N 
ATOM     47  C   UNL A   1      43.382  28.001  32.464  1.00  0.00     0.074 A 
ATOM     48  C   UNL A   1      44.280  27.118  31.753  1.00  0.00     0.031 C 
ATOM     49  C   UNL A   1      39.154  29.688  27.924  1.00  0.00     0.029 A 
ATOM     50  C   UNL A   1      39.150  30.075  29.334  1.00  0.00     0.049 A 
ATOM     51  H   UNL A   1      40.561  29.583  30.783  1.00  0.00     0.167 HD
ATOM     52  C   UNL A   1      43.521  28.348  33.766  1.00  0.00     0.037 A 
ATOM     53  C   UNL A   1      38.217  30.838  29.935  1.00  0.00     0.037 A 
ATOM     54  C   UNL A   1      42.622  29.226  34.469  1.00  0.00     0.049 A 
ATOM     55  C   UNL A   1      38.351  31.146  31.404  1.00  0.00     0.074 A 
ATOM     56  C   UNL A   1      42.688  29.657  35.783  1.00  0.00     0.029 A 
ATOM     57  N   UNL A   1      41.485  29.799  33.920  1.00  0.00    -0.354 N 
ATOM     58  N   UNL A   1      39.294  30.790  32.242  1.00  0.00    -0.248 NA
ATOM     59  C   UNL A   1      37.292  31.966  32.008  1.00  0.00     0.031 C 
ATOM     60  C   UNL A   1      41.560  30.439  36.044  1.00  0.00     0.029 A 
ATOM     61  C   UNL A   1      40.825  30.553  34.876  1.00  0.00     0.049 A 
ATOM     62  H   UNL A   1      41.190  29.687  32.987  1.00  0.00     0.167 HD
ATOM     63  C   UNL A   1      38.959  31.368  33.461  1.00  0.00     0.074 A 
ATOM     64  C   UNL A   1      37.734  32.109  33.248  1.00  0.00     0.031 C 
ATOM     65  C   UNL A   1      39.609  31.294  34.650  1.00  0.00     0.037 A 
BRANCH  52  66
ATOM     66  C   UNL A   1      44.673  27.752  34.524  1.00  0.00     0.057 A 
ATOM     67  C   UNL A   1      45.915  28.395  34.617  1.00  0.00     0.134 A 
ATOM     68  C   UNL A   1      44.526  26.535  35.202  1.00  0.00     0.134 A 
ATOM     69  F   UNL A   1      46.128  29.558  33.984  1.00  0.00    -0.206 F 
ATOM     70  C   UNL A   1      46.975  27.837  35.333  1.00  0.00     0.040 A 
ATOM     71  C   UNL A   1      45.569  25.981  35.947  1.00  0.00     0.040 A 
ATOM     72  F   UNL A   1      43.363  25.868  35.161  1.00  0.00    -0.206 F 
ATOM     73  C   UNL A   1      46.801  26.629  36.008  1.00  0.00     0.006 A 
ENDBRANCH  52  66
BRANCH  53  74
ATOM     74  C   UNL A   1      37.062  31.354  29.156  1.00  0.00     0.057 A 
ATOM     75  C   UNL A   1      37.045  32.664  28.665  1.00  0.00     0.134 A 
ATOM     76  C   UNL A   1      35.937  30.558  28.906  1.00  0.00     0.134 A 
ATOM     77  F   UNL A   1      38.082  33.484  28.892  1.00  0.00    -0.206 F 
ATOM     78  C   UNL A   1      35.944  33.171  27.971  1.00  0.00     0.040 A 
ATOM     79  C   UNL A   1      34.843  31.042  28.188  1.00  0.00     0.040 A 
ATOM     80  F   UNL A   1      35.891  29.292  29.347  1.00  0.00    -0.206 F 
ATOM     81  C   UNL A   1      34.841  32.356  27.727  1.00  0.00     0.006 A 
ENDBRANCH  53  74
BRANCH  65  82
ATOM     82  C   UNL A   1      39.036  32.072  35.801  1.00  0.00     0.057 A 
ATOM     83  C   UNL A   1      38.191  31.484  36.751  1.00  0.00     0.134 A 
ATOM     84  C   UNL A   1      39.368  33.422  35.982  1.00  0.00     0.134 A 
ATOM     85  F   UNL A   1      37.823  30.199  36.632  1.00  0.00    -0.206 F 
ATOM     86  C   UNL A   1      37.674  32.217  37.821  1.00  0.00     0.040 A 
ATOM     87  C   UNL A   1      38.884  34.156  37.067  1.00  0.00     0.040 A 
ATOM     88  F   UNL A   1      40.182  34.046  35.117  1.00  0.00    -0.206 F 
ATOM     89  C   UNL A   1      38.028  33.555  37.986  1.00  0.00     0.006 A 
ENDBRANCH  65  82
ENDBRANCH  39  40
ENDBRANCH  32  34
ENDBRANCH  31  32
ENDBRANCH  30  31
ENDBRANCH  29  30
ENDBRANCH  28  29
ENDBRANCH   1  28
TORSDOF 19
ENDMDL
MODEL 2
REMARK VINA RESULT:     -11.2      0.659      6.047
REMARK SMILES NS(=O)(=O)c1ccc(/N=C/c2ccc(O)c(C(=O)OCCOCCOC(=O)c3ccc(-c4c5nc(c(-c6c(F)cccc6F)c6ccc([nH]6)c(-c6c(F)cccc6F)c6nc(c(-c7c(F)cccc7F)c7ccc4[nH]7)C=C6)C=C5)cc3)c2)cc1
REMARK SMILES IDX 21 1 20 2 19 3 17 4 18 5 16 6 11 7 12 8 82 9 13 10 14 11
REMARK SMILES IDX 10 12 9 13 8 14 5 15 6 16 84 17 7 18 83 19 2 20 3 21 4 22
REMARK SMILES IDX 1 23 15 26 22 28 23 29 24 30 25 31 26 32 27 33 28 34 29 35
REMARK SMILES IDX 81 36 30 37 80 38 31 39 32 40 33 41 74 42 34 43 79 44 73 45
REMARK SMILES IDX 75 46 35 47 78 48 72 49 71 50 36 52 62 53 45 54 61 55 46 56
REMARK SMILES IDX 49 57 60 58 76 59 47 60 48 61 59 63 77 64 50 65 37 66 38 67
REMARK SMILES IDX 43 68 39 69 40 70 42 71 44 72 41 73 63 74 64 75 69 76 65 77
REMARK SMILES IDX 66 78 68 79 70 80 67 81 51 82 52 83 57 84 53 85 54 86 56 87
REMARK SMILES IDX 58 88 55 89
REMARK H PARENT 1 24 1 25 15 27 75 51 49 62
REMARK Flexibility Score: inf
ROOT
ATOM      1  C   UNL A   1      44.706  20.231  24.992  1.00  0.00     0.202 C 
ENDROOT
BRANCH   1   2
ATOM      2  C   UNL A   1      43.973  18.891  25.136  1.00  0.00     0.261 C 
BRANCH   2   3
ATOM      3  O   UNL A   1      42.559  19.058  25.325  1.00  0.00    -0.460 OA
BRANCH   3   4
ATOM      4  C   UNL A   1      42.186  19.236  26.615  1.00  0.00     0.342 C 
ATOM      5  O   UNL A   1      42.627  18.646  27.591  1.00  0.00    -0.246 OA
BRANCH   4   6
ATOM      6  C   UNL A   1      41.340  20.440  26.770  1.00  0.00     0.102 A 
ATOM      7  C   UNL A   1      39.418  21.805  26.241  1.00  0.00    -0.006 A 
ATOM      8  C   UNL A   1      39.874  22.798  27.117  1.00  0.00     0.013 A 
ATOM      9  C   UNL A   1      40.150  20.625  26.052  1.00  0.00     0.029 A 
ATOM     10  C   UNL A   1      41.070  22.619  27.810  1.00  0.00     0.048 A 
ATOM     11  C   UNL A   1      41.795  21.446  27.639  1.00  0.00     0.130 A 
BRANCH   7  12
ATOM     12  C   UNL A   1      38.145  22.061  25.530  1.00  0.00     0.119 C 
ATOM     13  N   UNL A   1      37.426  23.110  25.757  1.00  0.00    -0.256 NA
BRANCH  13  14
ATOM     14  C   UNL A   1      36.208  23.304  25.072  1.00  0.00     0.063 A 
ATOM     15  C   UNL A   1      33.657  23.579  23.914  1.00  0.00     0.082 A 
ATOM     16  C   UNL A   1      33.839  23.869  25.265  1.00  0.00     0.024 A 
ATOM     17  C   UNL A   1      34.735  23.166  23.130  1.00  0.00     0.024 A 
ATOM     18  C   UNL A   1      35.111  23.731  25.832  1.00  0.00     0.030 A 
ATOM     19  C   UNL A   1      36.001  23.023  23.712  1.00  0.00     0.030 A 
BRANCH  15  20
ATOM     20  S   UNL A   1      32.048  23.683  23.193  1.00  0.00     0.238 S 
ATOM     21  O   UNL A   1      32.009  24.777  22.254  1.00  0.00    -0.207 OA
ATOM     22  O   UNL A   1      31.063  23.513  24.239  1.00  0.00    -0.207 OA
BRANCH  20  23
ATOM     23  N   UNL A   1      31.970  22.292  22.253  1.00  0.00    -0.225 NA
ATOM     24  H   UNL A   1      32.792  22.240  21.653  1.00  0.00     0.137 HD
ATOM     25  H   UNL A   1      31.129  22.317  21.676  1.00  0.00     0.137 HD
ENDBRANCH  20  23
ENDBRANCH  15  20
ENDBRANCH  13  14
ENDBRANCH   7  12
BRANCH  11  26
ATOM     26  O   UNL A   1      42.973  21.368  28.334  1.00  0.00    -0.507 OA
ATOM     27  H   UNL A   1      43.588  20.687  28.140  1.00  0.00     0.293 HD
ENDBRANCH  11  26
ENDBRANCH   4   6
ENDBRANCH   3   4
ENDBRANCH   2   3
ENDBRANCH   1   2
BRANCH   1  28
ATOM     28  O   UNL A   1      44.757  20.827  23.698  1.00  0.00    -0.374 OA
BRANCH  28  29
ATOM     29  C   UNL A   1      44.533  22.233  23.598  1.00  0.00     0.202 C 
BRANCH  29  30
ATOM     30  C   UNL A   1      44.530  23.064  24.888  1.00  0.00     0.261 C 
BRANCH  30  31
ATOM     31  O   UNL A   1      43.881  24.338  24.732  1.00  0.00    -0.460 OA
BRANCH  31  32
ATOM     32  C   UNL A   1      44.575  25.388  25.236  1.00  0.00     0.338 C 
ATOM     33  O   UNL A   1      45.638  25.832  24.838  1.00  0.00    -0.246 OA
BRANCH  32  34
ATOM     34  C   UNL A   1      43.766  26.075  26.259  1.00  0.00     0.060 A 
ATOM     35  C   UNL A   1      43.942  27.458  26.403  1.00  0.00     0.016 A 
ATOM     36  C   UNL A   1      42.912  25.373  27.109  1.00  0.00     0.016 A 
ATOM     37  C   UNL A   1      43.296  28.138  27.431  1.00  0.00     0.010 A 
ATOM     38  C   UNL A   1      42.270  26.057  28.146  1.00  0.00     0.010 A 
ATOM     39  C   UNL A   1      42.487  27.436  28.333  1.00  0.00    -0.014 A 
BRANCH  39  40
ATOM     40  C   UNL A   1      41.968  28.119  29.542  1.00  0.00     0.031 A 
ATOM     41  C   UNL A   1      40.702  28.924  29.445  1.00  0.00     0.074 A 
ATOM     42  C   UNL A   1      42.609  28.007  30.719  1.00  0.00     0.049 A 
ATOM     43  N   UNL A   1      40.101  29.640  30.361  1.00  0.00    -0.248 NA
ATOM     44  C   UNL A   1      40.024  28.924  28.138  1.00  0.00     0.031 C 
ATOM     45  C   UNL A   1      43.825  27.226  30.947  1.00  0.00     0.029 A 
ATOM     46  N   UNL A   1      42.329  28.561  31.942  1.00  0.00    -0.354 N 
ATOM     47  C   UNL A   1      38.982  30.183  29.740  1.00  0.00     0.074 A 
ATOM     48  C   UNL A   1      39.007  29.742  28.363  1.00  0.00     0.031 C 
ATOM     49  C   UNL A   1      44.191  27.359  32.233  1.00  0.00     0.029 A 
ATOM     50  C   UNL A   1      43.261  28.263  32.906  1.00  0.00     0.049 A 
ATOM     51  H   UNL A   1      41.537  29.119  32.113  1.00  0.00     0.167 HD
ATOM     52  C   UNL A   1      38.019  30.971  30.274  1.00  0.00     0.037 A 
ATOM     53  C   UNL A   1      43.365  28.692  34.178  1.00  0.00     0.037 A 
ATOM     54  C   UNL A   1      38.000  31.409  31.646  1.00  0.00     0.049 A 
ATOM     55  C   UNL A   1      42.322  29.632  34.726  1.00  0.00     0.074 A 
ATOM     56  C   UNL A   1      37.057  32.191  32.290  1.00  0.00     0.029 A 
ATOM     57  N   UNL A   1      38.978  31.112  32.584  1.00  0.00    -0.354 N 
ATOM     58  N   UNL A   1      41.253  30.116  34.142  1.00  0.00    -0.248 NA
ATOM     59  C   UNL A   1      42.501  30.081  36.114  1.00  0.00     0.031 C 
ATOM     60  C   UNL A   1      37.495  32.417  33.598  1.00  0.00     0.029 A 
ATOM     61  C   UNL A   1      38.677  31.721  33.791  1.00  0.00     0.049 A 
ATOM     62  H   UNL A   1      39.770  30.551  32.416  1.00  0.00     0.167 HD
ATOM     63  C   UNL A   1      40.616  30.898  35.099  1.00  0.00     0.074 A 
ATOM     64  C   UNL A   1      41.412  30.811  36.305  1.00  0.00     0.031 C 
ATOM     65  C   UNL A   1      39.473  31.621  34.989  1.00  0.00     0.037 A 
BRANCH  52  66
ATOM     66  C   UNL A   1      36.918  31.436  29.364  1.00  0.00     0.057 A 
ATOM     67  C   UNL A   1      36.893  32.730  28.826  1.00  0.00     0.134 A 
ATOM     68  C   UNL A   1      35.886  30.564  28.991  1.00  0.00     0.134 A 
ATOM     69  F   UNL A   1      37.844  33.619  29.150  1.00  0.00    -0.206 F 
ATOM     70  C   UNL A   1      35.870  33.148  27.973  1.00  0.00     0.040 A 
ATOM     71  C   UNL A   1      34.874  30.960  28.114  1.00  0.00     0.040 A 
ATOM     72  F   UNL A   1      35.850  29.309  29.463  1.00  0.00    -0.206 F 
ATOM     73  C   UNL A   1      34.860  32.259  27.608  1.00  0.00     0.006 A 
ENDBRANCH  52  66
BRANCH  53  74
ATOM     74  C   UNL A   1      44.505  28.253  35.021  1.00  0.00     0.057 A 
ATOM     75  C   UNL A   1      45.738  28.912  34.976  1.00  0.00     0.134 A 
ATOM     76  C   UNL A   1      44.398  27.147  35.874  1.00  0.00     0.134 A 
ATOM     77  F   UNL A   1      45.913  29.963  34.161  1.00  0.00    -0.206 F 
ATOM     78  C   UNL A   1      46.829  28.477  35.732  1.00  0.00     0.040 A 
ATOM     79  C   UNL A   1      45.470  26.720  36.658  1.00  0.00     0.040 A 
ATOM     80  F   UNL A   1      43.242  26.472  35.967  1.00  0.00    -0.206 F 
ATOM     81  C   UNL A   1      46.694  27.380  36.581  1.00  0.00     0.006 A 
ENDBRANCH  53  74
BRANCH  65  82
ATOM     82  C   UNL A   1      38.988  32.338  36.217  1.00  0.00     0.057 A 
ATOM     83  C   UNL A   1      38.160  31.719  37.163  1.00  0.00     0.134 A 
ATOM     84  C   UNL A   1      39.390  33.656  36.476  1.00  0.00     0.134 A 
ATOM     85  F   UNL A   1      37.729  30.463  36.973  1.00  0.00    -0.206 F 
ATOM     86  C   UNL A   1      37.726  32.395  38.305  1.00  0.00     0.040 A 
ATOM     87  C   UNL A   1      38.989  34.330  37.631  1.00  0.00     0.040 A 
ATOM     88  F   UNL A   1      40.192  34.305  35.619  1.00  0.00    -0.206 F 
ATOM     89  C   UNL A   1      38.148  33.702  38.546  1.00  0.00     0.006 A 
ENDBRANCH  65  82
ENDBRANCH  39  40
ENDBRANCH  32  34
ENDBRANCH  31  32
ENDBRANCH  30  31
ENDBRANCH  29  30
ENDBRANCH  28  29
ENDBRANCH   1  28
TORSDOF 19
ENDMDL
MODEL 3
REMARK VINA RESULT:     -10.9      5.864     12.184
REMARK SMILES NS(=O)(=O)c1ccc(/N=C/c2ccc(O)c(C(=O)OCCOCCOC(=O)c3ccc(-c4c5nc(c(-c6c(F)cccc6F)c6ccc([nH]6)c(-c6c(F)cccc6F)c6nc(c(-c7c(F)cccc7F)c7ccc4[nH]7)C=C6)C=C5)cc3)c2)cc1
REMARK SMILES IDX 21 1 20 2 19 3 17 4 18 5 16 6 11 7 12 8 82 9 13 10 14 11
REMARK SMILES IDX 10 12 9 13 8 14 5 15 6 16 84 17 7 18 83 19 2 20 3 21 4 22
REMARK SMILES IDX 1 23 15 26 22 28 23 29 24 30 25 31 26 32 27 33 28 34 29 35
REMARK SMILES IDX 81 36 30 37 80 38 31 39 32 40 33 41 74 42 34 43 79 44 73 45
REMARK SMILES IDX 75 46 35 47 78 48 72 49 71 50 36 52 62 53 45 54 61 55 46 56
REMARK SMILES IDX 49 57 60 58 76 59 47 60 48 61 59 63 77 64 50 65 37 66 38 67
REMARK SMILES IDX 43 68 39 69 40 70 42 71 44 72 41 73 63 74 64 75 69 76 65 77
REMARK SMILES IDX 66 78 68 79 70 80 67 81 51 82 52 83 57 84 53 85 54 86 56 87
REMARK SMILES IDX 58 88 55 89
REMARK H PARENT 1 24 1 25 15 27 75 51 49 62
REMARK Flexibility Score: inf
ROOT
ATOM      1  C   UNL A   1      34.853  35.380  32.949  1.00  0.00     0.202 C 
ENDROOT
BRANCH   1   2
ATOM      2  C   UNL A   1      35.250  34.831  34.325  1.00  0.00     0.261 C 
BRANCH   2   3
ATOM      3  O   UNL A   1      36.597  34.331  34.348  1.00  0.00    -0.460 OA
BRANCH   3   4
ATOM      4  C   UNL A   1      36.842  33.434  35.332  1.00  0.00     0.342 C 
ATOM      5  O   UNL A   1      36.390  33.454  36.469  1.00  0.00    -0.246 OA
BRANCH   4   6
ATOM      6  C   UNL A   1      37.536  32.237  34.809  1.00  0.00     0.102 A 
ATOM      7  C   UNL A   1      39.370  30.664  34.748  1.00  0.00    -0.006 A 
ATOM      8  C   UNL A   1      38.767  29.992  33.678  1.00  0.00     0.013 A 
ATOM      9  C   UNL A   1      38.767  31.796  35.315  1.00  0.00     0.029 A 
ATOM     10  C   UNL A   1      37.555  30.449  33.163  1.00  0.00     0.048 A 
ATOM     11  C   UNL A   1      36.943  31.562  33.728  1.00  0.00     0.130 A 
BRANCH   7  12
ATOM     12  C   UNL A   1      40.660  30.132  35.242  1.00  0.00     0.119 C 
ATOM     13  N   UNL A   1      40.767  28.958  35.768  1.00  0.00    -0.256 NA
BRANCH  13  14
ATOM     14  C   UNL A   1      42.012  28.498  36.245  1.00  0.00     0.063 A 
ATOM     15  C   UNL A   1      44.363  27.444  37.380  1.00  0.00     0.082 A 
ATOM     16  C   UNL A   1      43.258  26.617  37.184  1.00  0.00     0.024 A 
ATOM     17  C   UNL A   1      44.314  28.787  37.005  1.00  0.00     0.024 A 
ATOM     18  C   UNL A   1      42.094  27.149  36.617  1.00  0.00     0.030 A 
ATOM     19  C   UNL A   1      43.141  29.309  36.448  1.00  0.00     0.030 A 
BRANCH  15  20
ATOM     20  S   UNL A   1      45.820  26.810  38.153  1.00  0.00     0.238 S 
ATOM     21  O   UNL A   1      45.536  26.494  39.532  1.00  0.00    -0.207 OA
ATOM     22  O   UNL A   1      46.946  27.624  37.751  1.00  0.00    -0.207 OA
BRANCH  20  23
ATOM     23  N   UNL A   1      46.027  25.324  37.394  1.00  0.00    -0.225 NA
ATOM     24  H   UNL A   1      46.529  25.458  36.516  1.00  0.00     0.137 HD
ATOM     25  H   UNL A   1      45.115  24.909  37.205  1.00  0.00     0.137 HD
ENDBRANCH  20  23
ENDBRANCH  15  20
ENDBRANCH  13  14
ENDBRANCH   7  12
BRANCH  11  26
ATOM     26  O   UNL A   1      35.772  31.961  33.140  1.00  0.00    -0.507 OA
ATOM     27  H   UNL A   1      35.473  32.843  33.241  1.00  0.00     0.293 HD
ENDBRANCH  11  26
ENDBRANCH   4   6
ENDBRANCH   3   4
ENDBRANCH   2   3
ENDBRANCH   1   2
BRANCH   1  28
ATOM     28  O   UNL A   1      34.140  36.613  32.904  1.00  0.00    -0.374 OA
BRANCH  28  29
ATOM     29  C   UNL A   1      32.912  36.652  32.179  1.00  0.00     0.202 C 
BRANCH  29  30
ATOM     30  C   UNL A   1      32.943  36.355  30.674  1.00  0.00     0.261 C 
BRANCH  30  31
ATOM     31  O   UNL A   1      32.644  34.982  30.367  1.00  0.00    -0.460 OA
BRANCH  31  32
ATOM     32  C   UNL A   1      33.059  34.577  29.142  1.00  0.00     0.338 C 
ATOM     33  O   UNL A   1      32.551  34.834  28.064  1.00  0.00    -0.246 OA
BRANCH  32  34
ATOM     34  C   UNL A   1      34.367  33.906  29.256  1.00  0.00     0.060 A 
ATOM     35  C   UNL A   1      34.429  32.734  30.022  1.00  0.00     0.016 A 
ATOM     36  C   UNL A   1      35.520  34.450  28.692  1.00  0.00     0.016 A 
ATOM     37  C   UNL A   1      35.657  32.125  30.265  1.00  0.00     0.010 A 
ATOM     38  C   UNL A   1      36.754  33.841  28.943  1.00  0.00     0.010 A 
ATOM     39  C   UNL A   1      36.832  32.696  29.760  1.00  0.00    -0.014 A 
BRANCH  39  40
ATOM     40  C   UNL A   1      38.150  32.169  30.188  1.00  0.00     0.031 A 
ATOM     41  C   UNL A   1      38.627  30.853  29.641  1.00  0.00     0.074 A 
ATOM     42  C   UNL A   1      38.921  32.866  31.042  1.00  0.00     0.049 A 
ATOM     43  N   UNL A   1      39.718  30.185  29.917  1.00  0.00    -0.248 NA
ATOM     44  C   UNL A   1      37.755  30.200  28.650  1.00  0.00     0.031 C 
ATOM     45  C   UNL A   1      38.584  34.170  31.612  1.00  0.00     0.029 A 
ATOM     46  N   UNL A   1      40.145  32.567  31.583  1.00  0.00    -0.354 N 
ATOM     47  C   UNL A   1      39.660  29.031  29.145  1.00  0.00     0.074 A 
ATOM     48  C   UNL A   1      38.411  29.073  28.416  1.00  0.00     0.031 C 
ATOM     49  C   UNL A   1      39.576  34.555  32.433  1.00  0.00     0.029 A 
ATOM     50  C   UNL A   1      40.595  33.509  32.475  1.00  0.00     0.049 A 
ATOM     51  H   UNL A   1      40.652  31.755  31.355  1.00  0.00     0.167 HD
ATOM     52  C   UNL A   1      40.569  28.033  29.048  1.00  0.00     0.037 A 
ATOM     53  C   UNL A   1      41.693  33.513  33.255  1.00  0.00     0.037 A 
ATOM     54  C   UNL A   1      41.810  27.995  29.777  1.00  0.00     0.049 A 
ATOM     55  C   UNL A   1      42.651  32.353  33.187  1.00  0.00     0.074 A 
ATOM     56  C   UNL A   1      42.809  27.038  29.732  1.00  0.00     0.029 A 
ATOM     57  N   UNL A   1      42.217  28.952  30.695  1.00  0.00    -0.354 N 
ATOM     58  N   UNL A   1      42.603  31.281  32.433  1.00  0.00    -0.248 NA
ATOM     59  C   UNL A   1      43.819  32.406  34.077  1.00  0.00     0.031 C 
ATOM     60  C   UNL A   1      43.790  27.385  30.666  1.00  0.00     0.029 A 
ATOM     61  C   UNL A   1      43.436  28.592  31.245  1.00  0.00     0.049 A 
ATOM     62  H   UNL A   1      41.714  29.767  30.922  1.00  0.00     0.167 HD
ATOM     63  C   UNL A   1      43.747  30.551  32.733  1.00  0.00     0.074 A 
ATOM     64  C   UNL A   1      44.476  31.310  33.728  1.00  0.00     0.031 C 
ATOM     65  C   UNL A   1      44.158  29.361  32.229  1.00  0.00     0.037 A 
BRANCH  52  66
ATOM     66  C   UNL A   1      40.242  26.881  28.140  1.00  0.00     0.057 A 
ATOM     67  C   UNL A   1      40.760  26.787  26.840  1.00  0.00     0.134 A 
ATOM     68  C   UNL A   1      39.427  25.832  28.585  1.00  0.00     0.134 A 
ATOM     69  F   UNL A   1      41.539  27.761  26.347  1.00  0.00    -0.206 F 
ATOM     70  C   UNL A   1      40.457  25.706  26.010  1.00  0.00     0.040 A 
ATOM     71  C   UNL A   1      39.141  24.732  27.775  1.00  0.00     0.040 A 
ATOM     72  F   UNL A   1      38.901  25.854  29.819  1.00  0.00    -0.206 F 
ATOM     73  C   UNL A   1      39.652  24.670  26.479  1.00  0.00     0.006 A 
ENDBRANCH  52  66
BRANCH  53  74
ATOM     74  C   UNL A   1      41.942  34.647  34.182  1.00  0.00     0.057 A 
ATOM     75  C   UNL A   1      41.614  34.560  35.539  1.00  0.00     0.134 A 
ATOM     76  C   UNL A   1      42.491  35.853  33.728  1.00  0.00     0.134 A 
ATOM     77  F   UNL A   1      41.064  33.441  36.031  1.00  0.00    -0.206 F 
ATOM     78  C   UNL A   1      41.804  35.637  36.409  1.00  0.00     0.040 A 
ATOM     79  C   UNL A   1      42.714  36.927  34.591  1.00  0.00     0.040 A 
ATOM     80  F   UNL A   1      42.830  36.001  32.439  1.00  0.00    -0.206 F 
ATOM     81  C   UNL A   1      42.361  36.823  35.935  1.00  0.00     0.006 A 
ENDBRANCH  53  74
BRANCH  65  82
ATOM     82  C   UNL A   1      45.479  28.826  32.708  1.00  0.00     0.057 A 
ATOM     83  C   UNL A   1      46.700  29.353  32.269  1.00  0.00     0.134 A 
ATOM     84  C   UNL A   1      45.526  27.794  33.655  1.00  0.00     0.134 A 
ATOM     85  F   UNL A   1      46.728  30.335  31.354  1.00  0.00    -0.206 F 
ATOM     86  C   UNL A   1      47.919  28.853  32.730  1.00  0.00     0.040 A 
ATOM     87  C   UNL A   1      46.738  27.308  34.149  1.00  0.00     0.040 A 
ATOM     88  F   UNL A   1      44.394  27.250  34.129  1.00  0.00    -0.206 F 
ATOM     89  C   UNL A   1      47.939  27.833  33.680  1.00  0.00     0.006 A 
ENDBRANCH  65  82
ENDBRANCH  39  40
ENDBRANCH  32  34
ENDBRANCH  31  32
ENDBRANCH  30  31
ENDBRANCH  29  30
ENDBRANCH  28  29
ENDBRANCH   1  28
TORSDOF 19
ENDMDL
