MODEL 1
REMARK VINA RESULT:     -10.6      0.000      0.000
REMARK SMILES O=C(OCCOCCOC(=O)[C@]1(CCc2cccnc2)CCC[NH2+]C1)c1ccc(-c2c3nc(c(-c4c(F)cccc4F)c4ccc([nH]4)c(-c4c(F)cccc4F)c4nc(c(-c5c(F)cccc5F)c5ccc2[nH]5)C=C4)C=C3)cc1
REMARK SMILES IDX 7 1 6 2 5 3 4 4 3 5 2 6 1 7 26 8 27 9 79 10 28 11 78 12
REMARK SMILES IDX 29 13 30 14 31 15 72 16 32 17 77 18 71 19 73 20 33 21 76 22
REMARK SMILES IDX 70 23 69 24 34 26 60 27 43 28 59 29 44 30 47 31 58 32 74 33
REMARK SMILES IDX 45 34 46 35 57 37 75 38 48 39 35 40 36 41 41 42 37 43 38 44
REMARK SMILES IDX 40 45 42 46 39 47 61 48 62 49 67 50 63 51 64 52 66 53 68 54
REMARK SMILES IDX 65 55 49 56 50 57 55 58 51 59 52 60 54 61 56 62 53 63 8 64
REMARK SMILES IDX 9 65 10 66 11 67 12 68 21 69 25 70 22 71 24 72 23 73 13 76
REMARK SMILES IDX 14 77 15 78 16 79 20 80 17 81 19 82 18 83
REMARK H PARENT 73 25 47 36 24 74 24 75
REMARK Flexibility Score: inf
ROOT
ATOM      1  C   UNL A   1      35.505  24.092  25.114  1.00  0.00     0.202 C 
ENDROOT
BRANCH   1   2
ATOM      2  O   UNL A   1      35.400  22.949  24.280  1.00  0.00    -0.374 OA
BRANCH   2   3
ATOM      3  C   UNL A   1      36.596  22.349  23.818  1.00  0.00     0.202 C 
BRANCH   3   4
ATOM      4  C   UNL A   1      37.013  21.094  24.579  1.00  0.00     0.261 C 
BRANCH   4   5
ATOM      5  O   UNL A   1      37.619  21.440  25.842  1.00  0.00    -0.460 OA
BRANCH   5   6
ATOM      6  C   UNL A   1      38.952  21.467  26.104  1.00  0.00     0.338 C 
ATOM      7  O   UNL A   1      39.656  20.494  25.851  1.00  0.00    -0.246 OA
BRANCH   6   8
ATOM      8  C   UNL A   1      39.590  22.694  26.633  1.00  0.00     0.060 A 
ATOM      9  C   UNL A   1      39.202  23.969  26.238  1.00  0.00     0.016 A 
ATOM     10  C   UNL A   1      40.592  22.574  27.595  1.00  0.00     0.016 A 
ATOM     11  C   UNL A   1      39.891  25.091  26.600  1.00  0.00     0.010 A 
ATOM     12  C   UNL A   1      41.216  23.723  28.086  1.00  0.00     0.010 A 
ATOM     13  C   UNL A   1      40.874  24.978  27.559  1.00  0.00    -0.014 A 
BRANCH  13  14
ATOM     14  C   UNL A   1      41.592  26.211  27.871  1.00  0.00     0.031 A 
ATOM     15  C   UNL A   1      40.912  27.178  28.773  1.00  0.00     0.074 A 
ATOM     16  C   UNL A   1      42.874  26.339  27.487  1.00  0.00     0.049 A 
ATOM     17  N   UNL A   1      41.223  28.411  29.037  1.00  0.00    -0.248 NA
ATOM     18  C   UNL A   1      39.706  26.691  29.470  1.00  0.00     0.031 C 
ATOM     19  C   UNL A   1      43.663  25.314  26.787  1.00  0.00     0.029 A 
ATOM     20  N   UNL A   1      43.755  27.366  27.661  1.00  0.00    -0.354 N 
ATOM     21  C   UNL A   1      40.208  28.875  29.857  1.00  0.00     0.074 A 
ATOM     22  C   UNL A   1      39.284  27.788  30.075  1.00  0.00     0.031 C 
ATOM     23  C   UNL A   1      44.912  25.763  26.607  1.00  0.00     0.029 A 
ATOM     24  C   UNL A   1      44.969  27.142  27.059  1.00  0.00     0.049 A 
ATOM     25  H   UNL A   1      43.542  28.184  28.166  1.00  0.00     0.167 HD
ATOM     26  C   UNL A   1      40.070  30.126  30.343  1.00  0.00     0.037 A 
ATOM     27  C   UNL A   1      45.973  28.005  26.829  1.00  0.00     0.037 A 
ATOM     28  C   UNL A   1      41.052  31.146  30.095  1.00  0.00     0.049 A 
ATOM     29  C   UNL A   1      45.752  29.419  27.287  1.00  0.00     0.074 A 
ATOM     30  C   UNL A   1      41.035  32.478  30.452  1.00  0.00     0.029 A 
ATOM     31  N   UNL A   1      42.248  30.919  29.419  1.00  0.00    -0.354 N 
ATOM     32  N   UNL A   1      44.734  29.921  27.950  1.00  0.00    -0.248 NA
ATOM     33  C   UNL A   1      46.788  30.394  26.939  1.00  0.00     0.031 C 
ATOM     34  C   UNL A   1      42.200  33.066  29.948  1.00  0.00     0.029 A 
ATOM     35  C   UNL A   1      42.972  32.090  29.330  1.00  0.00     0.049 A 
ATOM     36  H   UNL A   1      42.536  30.050  29.058  1.00  0.00     0.167 HD
ATOM     37  C   UNL A   1      45.009  31.268  28.114  1.00  0.00     0.074 A 
ATOM     38  C   UNL A   1      46.304  31.496  27.496  1.00  0.00     0.031 C 
ATOM     39  C   UNL A   1      44.268  32.236  28.709  1.00  0.00     0.037 A 
BRANCH  26  40
ATOM     40  C   UNL A   1      38.792  30.443  31.055  1.00  0.00     0.057 A 
ATOM     41  C   UNL A   1      37.638  30.873  30.386  1.00  0.00     0.134 A 
ATOM     42  C   UNL A   1      38.744  30.395  32.455  1.00  0.00     0.134 A 
ATOM     43  F   UNL A   1      37.629  30.985  29.049  1.00  0.00    -0.206 F 
ATOM     44  C   UNL A   1      36.495  31.270  31.084  1.00  0.00     0.040 A 
ATOM     45  C   UNL A   1      37.598  30.764  33.162  1.00  0.00     0.040 A 
ATOM     46  F   UNL A   1      39.819  30.014  33.160  1.00  0.00    -0.206 F 
ATOM     47  C   UNL A   1      36.472  31.212  32.476  1.00  0.00     0.006 A 
ENDBRANCH  26  40
BRANCH  27  48
ATOM     48  C   UNL A   1      47.175  27.590  26.063  1.00  0.00     0.057 A 
ATOM     49  C   UNL A   1      47.209  27.663  24.666  1.00  0.00     0.134 A 
ATOM     50  C   UNL A   1      48.326  27.105  26.703  1.00  0.00     0.134 A 
ATOM     51  F   UNL A   1      46.141  28.107  23.988  1.00  0.00    -0.206 F 
ATOM     52  C   UNL A   1      48.328  27.254  23.936  1.00  0.00     0.040 A 
ATOM     53  C   UNL A   1      49.463  26.722  25.989  1.00  0.00     0.040 A 
ATOM     54  F   UNL A   1      48.370  27.010  28.040  1.00  0.00    -0.206 F 
ATOM     55  C   UNL A   1      49.462  26.786  24.599  1.00  0.00     0.006 A 
ENDBRANCH  27  48
BRANCH  39  56
ATOM     56  C   UNL A   1      44.877  33.601  28.751  1.00  0.00     0.057 A 
ATOM     57  C   UNL A   1      45.748  33.988  29.775  1.00  0.00     0.134 A 
ATOM     58  C   UNL A   1      44.633  34.509  27.715  1.00  0.00     0.134 A 
ATOM     59  F   UNL A   1      46.002  33.161  30.802  1.00  0.00    -0.206 F 
ATOM     60  C   UNL A   1      46.348  35.245  29.774  1.00  0.00     0.040 A 
ATOM     61  C   UNL A   1      45.253  35.755  27.686  1.00  0.00     0.040 A 
ATOM     62  F   UNL A   1      43.813  34.186  26.704  1.00  0.00    -0.206 F 
ATOM     63  C   UNL A   1      46.110  36.127  28.720  1.00  0.00     0.006 A 
ENDBRANCH  39  56
ENDBRANCH  13  14
ENDBRANCH   6   8
ENDBRANCH   5   6
ENDBRANCH   4   5
ENDBRANCH   3   4
ENDBRANCH   2   3
ENDBRANCH   1   2
BRANCH   1  64
ATOM     64  C   UNL A   1      34.986  23.694  26.480  1.00  0.00     0.261 C 
BRANCH  64  65
ATOM     65  O   UNL A   1      34.045  22.622  26.327  1.00  0.00    -0.463 OA
BRANCH  65  66
ATOM     66  C   UNL A   1      32.797  22.776  26.862  1.00  0.00     0.317 C 
ATOM     67  O   UNL A   1      32.530  22.968  28.036  1.00  0.00    -0.251 OA
BRANCH  66  68
ATOM     68  C   UNL A   1      31.734  22.556  25.794  1.00  0.00     0.117 C 
ATOM     69  C   UNL A   1      31.875  23.507  24.578  1.00  0.00     0.030 C 
ATOM     70  C   UNL A   1      30.325  22.804  26.406  1.00  0.00     0.279 C 
ATOM     71  C   UNL A   1      31.564  24.970  24.943  1.00  0.00     0.063 C 
ATOM     72  N   UNL A   1      29.985  24.201  26.696  1.00  0.00    -0.345 N 
ATOM     73  C   UNL A   1      30.192  25.122  25.587  1.00  0.00     0.260 C 
ATOM     74  H   UNL A   1      29.001  24.240  26.962  1.00  0.00     0.346 HD
ATOM     75  H   UNL A   1      30.614  24.502  27.442  1.00  0.00     0.346 HD
BRANCH  68  76
ATOM     76  C   UNL A   1      31.857  21.043  25.410  1.00  0.00     0.029 C 
BRANCH  76  77
ATOM     77  C   UNL A   1      32.290  20.666  23.969  1.00  0.00     0.038 C 
BRANCH  77  78
ATOM     78  C   UNL A   1      32.917  19.307  23.737  1.00  0.00    -0.030 A 
ATOM     79  C   UNL A   1      33.975  18.820  24.511  1.00  0.00     0.007 A 
ATOM     80  C   UNL A   1      32.447  18.457  22.738  1.00  0.00     0.114 A 
ATOM     81  C   UNL A   1      34.548  17.580  24.213  1.00  0.00     0.020 A 
ATOM     82  N   UNL A   1      32.991  17.260  22.409  1.00  0.00    -0.264 NA
ATOM     83  C   UNL A   1      34.049  16.861  23.140  1.00  0.00     0.111 A 
ENDBRANCH  77  78
ENDBRANCH  76  77
ENDBRANCH  68  76
ENDBRANCH  66  68
ENDBRANCH  65  66
ENDBRANCH  64  65
ENDBRANCH   1  64
TORSDOF 17
ENDMDL
MODEL 2
REMARK VINA RESULT:     -10.5      4.017      8.781
REMARK SMILES O=C(OCCOCCOC(=O)[C@]1(CCc2cccnc2)CCC[NH2+]C1)c1ccc(-c2c3nc(c(-c4c(F)cccc4F)c4ccc([nH]4)c(-c4c(F)cccc4F)c4nc(c(-c5c(F)cccc5F)c5ccc2[nH]5)C=C4)C=C3)cc1
REMARK SMILES IDX 7 1 6 2 5 3 4 4 3 5 2 6 1 7 26 8 27 9 79 10 28 11 78 12
REMARK SMILES IDX 29 13 30 14 31 15 72 16 32 17 77 18 71 19 73 20 33 21 76 22
REMARK SMILES IDX 70 23 69 24 34 26 60 27 43 28 59 29 44 30 47 31 58 32 74 33
REMARK SMILES IDX 45 34 46 35 57 37 75 38 48 39 35 40 36 41 41 42 37 43 38 44
REMARK SMILES IDX 40 45 42 46 39 47 61 48 62 49 67 50 63 51 64 52 66 53 68 54
REMARK SMILES IDX 65 55 49 56 50 57 55 58 51 59 52 60 54 61 56 62 53 63 8 64
REMARK SMILES IDX 9 65 10 66 11 67 12 68 21 69 25 70 22 71 24 72 23 73 13 76
REMARK SMILES IDX 14 77 15 78 16 79 20 80 17 81 19 82 18 83
REMARK H PARENT 73 25 47 36 24 74 24 75
REMARK Flexibility Score: inf
ROOT
ATOM      1  C   UNL A   1      30.960  26.577  25.046  1.00  0.00     0.202 C 
ENDROOT
BRANCH   1   2
ATOM      2  O   UNL A   1      31.352  27.813  25.621  1.00  0.00    -0.374 OA
BRANCH   2   3
ATOM      3  C   UNL A   1      31.774  28.848  24.752  1.00  0.00     0.202 C 
BRANCH   3   4
ATOM      4  C   UNL A   1      32.920  29.701  25.288  1.00  0.00     0.261 C 
BRANCH   4   5
ATOM      5  O   UNL A   1      32.588  30.249  26.581  1.00  0.00    -0.460 OA
BRANCH   5   6
ATOM      6  C   UNL A   1      33.253  31.249  27.216  1.00  0.00     0.338 C 
ATOM      7  O   UNL A   1      32.744  32.359  27.334  1.00  0.00    -0.246 OA
BRANCH   6   8
ATOM      8  C   UNL A   1      34.573  30.998  27.839  1.00  0.00     0.060 A 
ATOM      9  C   UNL A   1      34.981  29.733  28.245  1.00  0.00     0.016 A 
ATOM     10  C   UNL A   1      35.462  32.062  27.989  1.00  0.00     0.016 A 
ATOM     11  C   UNL A   1      36.125  29.524  28.960  1.00  0.00     0.010 A 
ATOM     12  C   UNL A   1      36.701  31.841  28.595  1.00  0.00     0.010 A 
ATOM     13  C   UNL A   1      37.012  30.570  29.102  1.00  0.00    -0.014 A 
BRANCH  13  14
ATOM     14  C   UNL A   1      38.195  30.285  29.908  1.00  0.00     0.031 A 
ATOM     15  C   UNL A   1      39.288  29.517  29.254  1.00  0.00     0.074 A 
ATOM     16  C   UNL A   1      38.323  30.865  31.115  1.00  0.00     0.049 A 
ATOM     17  N   UNL A   1      40.331  28.959  29.790  1.00  0.00    -0.248 NA
ATOM     18  C   UNL A   1      39.187  29.346  27.793  1.00  0.00     0.031 C 
ATOM     19  C   UNL A   1      37.371  31.815  31.711  1.00  0.00     0.029 A 
ATOM     20  N   UNL A   1      39.319  30.775  32.042  1.00  0.00    -0.354 N 
ATOM     21  C   UNL A   1      40.964  28.297  28.751  1.00  0.00     0.074 A 
ATOM     22  C   UNL A   1      40.208  28.543  27.546  1.00  0.00     0.031 C 
ATOM     23  C   UNL A   1      37.840  32.226  32.896  1.00  0.00     0.029 A 
ATOM     24  C   UNL A   1      39.048  31.475  33.193  1.00  0.00     0.049 A 
ATOM     25  H   UNL A   1      40.145  30.260  31.902  1.00  0.00     0.167 HD
ATOM     26  C   UNL A   1      42.066  27.524  28.837  1.00  0.00     0.037 A 
ATOM     27  C   UNL A   1      39.675  31.430  34.380  1.00  0.00     0.037 A 
ATOM     28  C   UNL A   1      42.772  27.350  30.077  1.00  0.00     0.049 A 
ATOM     29  C   UNL A   1      40.837  30.482  34.482  1.00  0.00     0.074 A 
ATOM     30  C   UNL A   1      43.861  26.551  30.356  1.00  0.00     0.029 A 
ATOM     31  N   UNL A   1      42.441  28.015  31.255  1.00  0.00    -0.354 N 
ATOM     32  N   UNL A   1      41.377  29.736  33.544  1.00  0.00    -0.248 NA
ATOM     33  C   UNL A   1      41.455  30.337  35.801  1.00  0.00     0.031 C 
ATOM     34  C   UNL A   1      44.156  26.697  31.716  1.00  0.00     0.029 A 
ATOM     35  C   UNL A   1      43.291  27.632  32.271  1.00  0.00     0.049 A 
ATOM     36  H   UNL A   1      41.707  28.664  31.349  1.00  0.00     0.167 HD
ATOM     37  C   UNL A   1      42.408  29.040  34.152  1.00  0.00     0.074 A 
ATOM     38  C   UNL A   1      42.428  29.475  35.539  1.00  0.00     0.031 C 
ATOM     39  C   UNL A   1      43.259  28.122  33.630  1.00  0.00     0.037 A 
BRANCH  26  40
ATOM     40  C   UNL A   1      42.459  26.759  27.612  1.00  0.00     0.057 A 
ATOM     41  C   UNL A   1      43.173  27.336  26.554  1.00  0.00     0.134 A 
ATOM     42  C   UNL A   1      42.036  25.432  27.455  1.00  0.00     0.134 A 
ATOM     43  F   UNL A   1      43.571  28.616  26.620  1.00  0.00    -0.206 F 
ATOM     44  C   UNL A   1      43.428  26.631  25.375  1.00  0.00     0.040 A 
ATOM     45  C   UNL A   1      42.307  24.709  26.292  1.00  0.00     0.040 A 
ATOM     46  F   UNL A   1      41.328  24.824  28.418  1.00  0.00    -0.206 F 
ATOM     47  C   UNL A   1      42.997  25.312  25.243  1.00  0.00     0.006 A 
ENDBRANCH  26  40
BRANCH  27  48
ATOM     48  C   UNL A   1      39.162  32.195  35.544  1.00  0.00     0.057 A 
ATOM     49  C   UNL A   1      39.570  33.511  35.788  1.00  0.00     0.134 A 
ATOM     50  C   UNL A   1      38.250  31.633  36.451  1.00  0.00     0.134 A 
ATOM     51  F   UNL A   1      40.448  34.107  34.969  1.00  0.00    -0.206 F 
ATOM     52  C   UNL A   1      39.109  34.230  36.894  1.00  0.00     0.040 A 
ATOM     53  C   UNL A   1      37.757  32.350  37.543  1.00  0.00     0.040 A 
ATOM     54  F   UNL A   1      37.810  30.377  36.280  1.00  0.00    -0.206 F 
ATOM     55  C   UNL A   1      38.195  33.650  37.773  1.00  0.00     0.006 A 
ENDBRANCH  27  48
BRANCH  39  56
ATOM     56  C   UNL A   1      44.298  27.580  34.558  1.00  0.00     0.057 A 
ATOM     57  C   UNL A   1      45.526  28.223  34.745  1.00  0.00     0.134 A 
ATOM     58  C   UNL A   1      44.029  26.437  35.319  1.00  0.00     0.134 A 
ATOM     59  F   UNL A   1      45.841  29.313  34.027  1.00  0.00    -0.206 F 
ATOM     60  C   UNL A   1      46.464  27.736  35.652  1.00  0.00     0.040 A 
ATOM     61  C   UNL A   1      44.945  25.960  36.253  1.00  0.00     0.040 A 
ATOM     62  F   UNL A   1      42.863  25.787  35.186  1.00  0.00    -0.206 F 
ATOM     63  C   UNL A   1      46.168  26.607  36.418  1.00  0.00     0.006 A 
ENDBRANCH  39  56
ENDBRANCH  13  14
ENDBRANCH   6   8
ENDBRANCH   5   6
ENDBRANCH   4   5
ENDBRANCH   3   4
ENDBRANCH   2   3
ENDBRANCH   1   2
BRANCH   1  64
ATOM     64  C   UNL A   1      31.295  25.494  26.051  1.00  0.00     0.261 C 
BRANCH  64  65
ATOM     65  O   UNL A   1      32.234  24.584  25.461  1.00  0.00    -0.463 OA
BRANCH  65  66
ATOM     66  C   UNL A   1      32.182  23.270  25.833  1.00  0.00     0.317 C 
ATOM     67  O   UNL A   1      31.242  22.703  26.362  1.00  0.00    -0.251 OA
BRANCH  66  68
ATOM     68  C   UNL A   1      33.532  22.603  25.602  1.00  0.00     0.117 C 
ATOM     69  C   UNL A   1      33.679  21.979  24.191  1.00  0.00     0.030 C 
ATOM     70  C   UNL A   1      33.725  21.453  26.633  1.00  0.00     0.279 C 
ATOM     71  C   UNL A   1      32.761  20.758  23.995  1.00  0.00     0.063 C 
ATOM     72  N   UNL A   1      32.907  20.254  26.421  1.00  0.00    -0.345 N 
ATOM     73  C   UNL A   1      32.970  19.704  25.074  1.00  0.00     0.260 C 
ATOM     74  H   UNL A   1      33.222  19.536  27.073  1.00  0.00     0.346 HD
ATOM     75  H   UNL A   1      31.938  20.536  26.572  1.00  0.00     0.346 HD
BRANCH  68  76
ATOM     76  C   UNL A   1      34.588  23.722  25.894  1.00  0.00     0.029 C 
BRANCH  76  77
ATOM     77  C   UNL A   1      35.846  23.821  24.992  1.00  0.00     0.038 C 
BRANCH  77  78
ATOM     78  C   UNL A   1      37.114  23.129  25.446  1.00  0.00    -0.030 A 
ATOM     79  C   UNL A   1      38.098  23.772  26.203  1.00  0.00     0.007 A 
ATOM     80  C   UNL A   1      37.354  21.791  25.140  1.00  0.00     0.114 A 
ATOM     81  C   UNL A   1      39.273  23.095  26.545  1.00  0.00     0.020 A 
ATOM     82  N   UNL A   1      38.488  21.111  25.437  1.00  0.00    -0.264 NA
ATOM     83  C   UNL A   1      39.435  21.790  26.112  1.00  0.00     0.111 A 
ENDBRANCH  77  78
ENDBRANCH  76  77
ENDBRANCH  68  76
ENDBRANCH  66  68
ENDBRANCH  65  66
ENDBRANCH  64  65
ENDBRANCH   1  64
TORSDOF 17
ENDMDL
MODEL 3
REMARK VINA RESULT:     -10.4      2.040      4.216
REMARK SMILES O=C(OCCOCCOC(=O)[C@]1(CCc2cccnc2)CCC[NH2+]C1)c1ccc(-c2c3nc(c(-c4c(F)cccc4F)c4ccc([nH]4)c(-c4c(F)cccc4F)c4nc(c(-c5c(F)cccc5F)c5ccc2[nH]5)C=C4)C=C3)cc1
REMARK SMILES IDX 7 1 6 2 5 3 4 4 3 5 2 6 1 7 26 8 27 9 79 10 28 11 78 12
REMARK SMILES IDX 29 13 30 14 31 15 72 16 32 17 77 18 71 19 73 20 33 21 76 22
REMARK SMILES IDX 70 23 69 24 34 26 60 27 43 28 59 29 44 30 47 31 58 32 74 33
REMARK SMILES IDX 45 34 46 35 57 37 75 38 48 39 35 40 36 41 41 42 37 43 38 44
REMARK SMILES IDX 40 45 42 46 39 47 61 48 62 49 67 50 63 51 64 52 66 53 68 54
REMARK SMILES IDX 65 55 49 56 50 57 55 58 51 59 52 60 54 61 56 62 53 63 8 64
REMARK SMILES IDX 9 65 10 66 11 67 12 68 21 69 25 70 22 71 24 72 23 73 13 76
REMARK SMILES IDX 14 77 15 78 16 79 20 80 17 81 19 82 18 83
REMARK H PARENT 73 25 47 36 24 74 24 75
REMARK Flexibility Score: inf
ROOT
ATOM      1  C   UNL A   1      32.292  21.814  24.839  1.00  0.00     0.202 C 
ENDROOT
BRANCH   1   2
ATOM      2  O   UNL A   1      33.400  20.936  24.722  1.00  0.00    -0.374 OA
BRANCH   2   3
ATOM      3  C   UNL A   1      34.420  21.016  25.700  1.00  0.00     0.202 C 
BRANCH   3   4
ATOM      4  C   UNL A   1      35.832  20.785  25.168  1.00  0.00     0.261 C 
BRANCH   4   5
ATOM      5  O   UNL A   1      36.716  21.845  25.588  1.00  0.00    -0.460 OA
BRANCH   5   6
ATOM      6  C   UNL A   1      38.054  21.732  25.791  1.00  0.00     0.338 C 
ATOM      7  O   UNL A   1      38.654  20.721  25.437  1.00  0.00    -0.246 OA
BRANCH   6   8
ATOM      8  C   UNL A   1      38.825  22.852  26.376  1.00  0.00     0.060 A 
ATOM      9  C   UNL A   1      38.459  24.183  26.205  1.00  0.00     0.016 A 
ATOM     10  C   UNL A   1      39.938  22.567  27.165  1.00  0.00     0.016 A 
ATOM     11  C   UNL A   1      39.251  25.219  26.606  1.00  0.00     0.010 A 
ATOM     12  C   UNL A   1      40.685  23.617  27.706  1.00  0.00     0.010 A 
ATOM     13  C   UNL A   1      40.346  24.943  27.397  1.00  0.00    -0.014 A 
BRANCH  13  14
ATOM     14  C   UNL A   1      41.166  26.096  27.759  1.00  0.00     0.031 A 
ATOM     15  C   UNL A   1      40.556  27.096  28.674  1.00  0.00     0.074 A 
ATOM     16  C   UNL A   1      42.464  26.115  27.406  1.00  0.00     0.049 A 
ATOM     17  N   UNL A   1      40.973  28.288  28.980  1.00  0.00    -0.248 NA
ATOM     18  C   UNL A   1      39.295  26.703  29.331  1.00  0.00     0.031 C 
ATOM     19  C   UNL A   1      43.171  25.040  26.692  1.00  0.00     0.029 A 
ATOM     20  N   UNL A   1      43.430  27.051  27.628  1.00  0.00    -0.354 N 
ATOM     21  C   UNL A   1      39.986  28.821  29.793  1.00  0.00     0.074 A 
ATOM     22  C   UNL A   1      38.961  27.818  29.959  1.00  0.00     0.031 C 
ATOM     23  C   UNL A   1      44.460  25.377  26.552  1.00  0.00     0.029 A 
ATOM     24  C   UNL A   1      44.633  26.733  27.045  1.00  0.00     0.049 A 
ATOM     25  H   UNL A   1      43.281  27.871  28.152  1.00  0.00     0.167 HD
ATOM     26  C   UNL A   1      39.952  30.066  30.312  1.00  0.00     0.037 A 
ATOM     27  C   UNL A   1      45.716  27.505  26.862  1.00  0.00     0.037 A 
ATOM     28  C   UNL A   1      41.028  30.997  30.114  1.00  0.00     0.049 A 
ATOM     29  C   UNL A   1      45.615  28.921  27.356  1.00  0.00     0.074 A 
ATOM     30  C   UNL A   1      41.125  32.315  30.509  1.00  0.00     0.029 A 
ATOM     31  N   UNL A   1      42.214  30.679  29.457  1.00  0.00    -0.354 N 
ATOM     32  N   UNL A   1      44.632  29.497  28.012  1.00  0.00    -0.248 NA
ATOM     33  C   UNL A   1      46.744  29.805  27.058  1.00  0.00     0.031 C 
ATOM     34  C   UNL A   1      42.351  32.807  30.047  1.00  0.00     0.029 A 
ATOM     35  C   UNL A   1      43.044  31.780  29.417  1.00  0.00     0.049 A 
ATOM     36  H   UNL A   1      42.430  29.797  29.076  1.00  0.00     0.167 HD
ATOM     37  C   UNL A   1      45.025  30.807  28.221  1.00  0.00     0.074 A 
ATOM     38  C   UNL A   1      46.350  30.931  27.636  1.00  0.00     0.031 C 
ATOM     39  C   UNL A   1      44.363  31.823  28.828  1.00  0.00     0.037 A 
BRANCH  26  40
ATOM     40  C   UNL A   1      38.692  30.480  31.005  1.00  0.00     0.057 A 
ATOM     41  C   UNL A   1      38.465  30.249  32.368  1.00  0.00     0.134 A 
ATOM     42  C   UNL A   1      37.645  31.050  30.267  1.00  0.00     0.134 A 
ATOM     43  F   UNL A   1      39.408  29.666  33.125  1.00  0.00    -0.206 F 
ATOM     44  C   UNL A   1      37.236  30.543  32.965  1.00  0.00     0.040 A 
ATOM     45  C   UNL A   1      36.422  31.372  30.858  1.00  0.00     0.040 A 
ATOM     46  F   UNL A   1      37.784  31.278  28.953  1.00  0.00    -0.206 F 
ATOM     47  C   UNL A   1      36.212  31.109  32.209  1.00  0.00     0.006 A 
ENDBRANCH  26  40
BRANCH  27  48
ATOM     48  C   UNL A   1      46.893  27.002  26.109  1.00  0.00     0.057 A 
ATOM     49  C   UNL A   1      47.017  27.206  24.731  1.00  0.00     0.134 A 
ATOM     50  C   UNL A   1      47.929  26.299  26.744  1.00  0.00     0.134 A 
ATOM     51  F   UNL A   1      46.060  27.860  24.057  1.00  0.00    -0.206 F 
ATOM     52  C   UNL A   1      48.110  26.716  24.011  1.00  0.00     0.040 A 
ATOM     53  C   UNL A   1      49.042  25.831  26.043  1.00  0.00     0.040 A 
ATOM     54  F   UNL A   1      47.883  26.068  28.065  1.00  0.00    -0.206 F 
ATOM     55  C   UNL A   1      49.130  26.031  24.669  1.00  0.00     0.006 A 
ENDBRANCH  27  48
BRANCH  39  56
ATOM     56  C   UNL A   1      45.092  33.125  28.923  1.00  0.00     0.057 A 
ATOM     57  C   UNL A   1      44.911  34.141  27.979  1.00  0.00     0.134 A 
ATOM     58  C   UNL A   1      45.933  33.378  30.012  1.00  0.00     0.134 A 
ATOM     59  F   UNL A   1      44.130  33.943  26.905  1.00  0.00    -0.206 F 
ATOM     60  C   UNL A   1      45.557  35.368  28.108  1.00  0.00     0.040 A 
ATOM     61  C   UNL A   1      46.557  34.612  30.170  1.00  0.00     0.040 A 
ATOM     62  F   UNL A   1      46.134  32.442  30.951  1.00  0.00    -0.206 F 
ATOM     63  C   UNL A   1      46.374  35.610  29.214  1.00  0.00     0.006 A 
ENDBRANCH  39  56
ENDBRANCH  13  14
ENDBRANCH   6   8
ENDBRANCH   5   6
ENDBRANCH   4   5
ENDBRANCH   3   4
ENDBRANCH   2   3
ENDBRANCH   1   2
BRANCH   1  64
ATOM     64  C   UNL A   1      32.847  23.222  24.917  1.00  0.00     0.261 C 
BRANCH  64  65
ATOM     65  O   UNL A   1      31.770  24.157  24.763  1.00  0.00    -0.463 OA
BRANCH  65  66
ATOM     66  C   UNL A   1      31.489  24.996  25.804  1.00  0.00     0.317 C 
ATOM     67  O   UNL A   1      31.297  24.674  26.964  1.00  0.00    -0.251 OA
BRANCH  66  68
ATOM     68  C   UNL A   1      31.326  26.424  25.300  1.00  0.00     0.117 C 
ATOM     69  C   UNL A   1      32.570  26.958  24.545  1.00  0.00     0.030 C 
ATOM     70  C   UNL A   1      31.082  27.375  26.507  1.00  0.00     0.279 C 
ATOM     71  C   UNL A   1      33.778  27.159  25.480  1.00  0.00     0.063 C 
ATOM     72  N   UNL A   1      32.240  27.632  27.370  1.00  0.00    -0.345 N 
ATOM     73  C   UNL A   1      33.443  28.055  26.666  1.00  0.00     0.260 C 
ATOM     74  H   UNL A   1      31.986  28.365  28.033  1.00  0.00     0.346 HD
ATOM     75  H   UNL A   1      32.466  26.745  27.820  1.00  0.00     0.346 HD
BRANCH  68  76
ATOM     76  C   UNL A   1      30.035  26.394  24.414  1.00  0.00     0.029 C 
BRANCH  76  77
ATOM     77  C   UNL A   1      29.974  27.281  23.144  1.00  0.00     0.038 C 
BRANCH  77  78
ATOM     78  C   UNL A   1      29.227  28.596  23.218  1.00  0.00    -0.030 A 
ATOM     79  C   UNL A   1      29.867  29.818  23.443  1.00  0.00     0.007 A 
ATOM     80  C   UNL A   1      27.846  28.651  23.043  1.00  0.00     0.114 A 
ATOM     81  C   UNL A   1      29.116  30.992  23.556  1.00  0.00     0.020 A 
ATOM     82  N   UNL A   1      27.085  29.766  23.167  1.00  0.00    -0.264 NA
ATOM     83  C   UNL A   1      27.738  30.909  23.447  1.00  0.00     0.111 A 
ENDBRANCH  77  78
ENDBRANCH  76  77
ENDBRANCH  68  76
ENDBRANCH  66  68
ENDBRANCH  65  66
ENDBRANCH  64  65
ENDBRANCH   1  64
TORSDOF 17
ENDMDL
