MODEL 1
REMARK VINA RESULT:     -10.1      0.000      0.000
REMARK SMILES CCC[C@@H](C(=O)OCCOCCOC(=O)c1ccc(-c2c3nc(c(-c4c(F)cccc4F)c4ccc([nH]4)c(-c4c(F)cccc4F)c4nc(c(-c5c(F)cccc5F)c5ccc2[nH]5)C=C4)C=C3)cc1)n1nc(/C=C/c2ccc(OC)cc2)ccc1=O
REMARK SMILES IDX 9 1 8 2 7 3 5 4 6 5 4 6 3 7 2 8 1 9 70 10 71 11 85 12 72 13
REMARK SMILES IDX 84 14 86 15 83 16 73 17 74 18 75 19 76 20 82 21 77 22 81 23
REMARK SMILES IDX 78 24 79 25 80 26 10 27 11 28 12 29 13 30 14 31 15 32 16 33
REMARK SMILES IDX 17 34 69 35 18 36 68 37 19 38 20 39 21 40 62 41 22 42 67 43
REMARK SMILES IDX 61 44 63 45 23 46 66 47 60 48 59 49 24 51 50 52 33 53 49 54
REMARK SMILES IDX 34 55 37 56 48 57 64 58 35 59 36 60 47 62 65 63 38 64 25 65
REMARK SMILES IDX 26 66 31 67 27 68 28 69 30 70 32 71 29 72 51 73 52 74 57 75
REMARK SMILES IDX 53 76 54 77 56 78 58 79 55 80 39 81 40 82 45 83 41 84 42 85
REMARK SMILES IDX 44 86 46 87 43 88
REMARK H PARENT 63 50 37 61
REMARK Flexibility Score: inf
ROOT
ATOM      1  C   UNL A   1      32.332  30.101  26.820  1.00  0.00     0.202 C 
ENDROOT
BRANCH   1   2
ATOM      2  C   UNL A   1      31.773  28.691  27.003  1.00  0.00     0.261 C 
BRANCH   2   3
ATOM      3  O   UNL A   1      32.431  27.792  26.099  1.00  0.00    -0.462 OA
BRANCH   3   4
ATOM      4  C   UNL A   1      31.625  26.947  25.403  1.00  0.00     0.331 C 
ATOM      5  O   UNL A   1      30.620  26.437  25.889  1.00  0.00    -0.250 OA
BRANCH   4   6
ATOM      6  C   UNL A   1      32.100  26.746  23.939  1.00  0.00     0.221 C 
BRANCH   6   7
ATOM      7  C   UNL A   1      31.276  27.494  22.860  1.00  0.00     0.039 C 
BRANCH   7   8
ATOM      8  C   UNL A   1      29.993  28.234  23.256  1.00  0.00    -0.001 C 
ATOM      9  C   UNL A   1      30.200  29.667  23.700  1.00  0.00     0.004 C 
ENDBRANCH   7   8
ENDBRANCH   6   7
BRANCH   6  10
ATOM     10  N   UNL A   1      32.302  25.273  23.669  1.00  0.00    -0.215 N 
ATOM     11  N   UNL A   1      33.615  24.837  23.803  1.00  0.00    -0.169 NA
ATOM     12  C   UNL A   1      31.274  24.390  23.346  1.00  0.00     0.267 A 
ATOM     13  C   UNL A   1      33.903  23.583  23.622  1.00  0.00     0.084 A 
ATOM     14  C   UNL A   1      31.669  22.998  23.042  1.00  0.00     0.075 A 
ATOM     15  O   UNL A   1      30.074  24.641  23.284  1.00  0.00    -0.268 OA
ATOM     16  C   UNL A   1      32.927  22.580  23.168  1.00  0.00     0.036 A 
BRANCH  13  17
ATOM     17  C   UNL A   1      35.284  23.120  23.957  1.00  0.00     0.031 C 
ATOM     18  C   UNL A   1      35.750  22.810  25.177  1.00  0.00     0.010 C 
BRANCH  18  19
ATOM     19  C   UNL A   1      37.158  22.487  25.452  1.00  0.00    -0.025 A 
ATOM     20  C   UNL A   1      37.656  21.234  25.088  1.00  0.00     0.012 A 
ATOM     21  C   UNL A   1      37.987  23.360  26.169  1.00  0.00     0.012 A 
ATOM     22  C   UNL A   1      38.965  20.869  25.421  1.00  0.00     0.047 A 
ATOM     23  C   UNL A   1      39.296  22.990  26.505  1.00  0.00     0.047 A 
ATOM     24  C   UNL A   1      39.792  21.742  26.130  1.00  0.00     0.118 A 
BRANCH  24  25
ATOM     25  O   UNL A   1      41.039  21.253  26.400  1.00  0.00    -0.497 OA
ATOM     26  C   UNL A   1      41.113  20.079  27.199  1.00  0.00     0.278 C 
ENDBRANCH  24  25
ENDBRANCH  18  19
ENDBRANCH  13  17
ENDBRANCH   6  10
ENDBRANCH   4   6
ENDBRANCH   3   4
ENDBRANCH   2   3
ENDBRANCH   1   2
BRANCH   1  27
ATOM     27  O   UNL A   1      33.548  30.386  27.515  1.00  0.00    -0.374 OA
BRANCH  27  28
ATOM     28  C   UNL A   1      33.939  31.756  27.630  1.00  0.00     0.202 C 
BRANCH  28  29
ATOM     29  C   UNL A   1      32.881  32.806  27.263  1.00  0.00     0.261 C 
BRANCH  29  30
ATOM     30  O   UNL A   1      32.373  33.510  28.413  1.00  0.00    -0.460 OA
BRANCH  30  31
ATOM     31  C   UNL A   1      33.035  34.651  28.723  1.00  0.00     0.338 C 
ATOM     32  O   UNL A   1      32.682  35.801  28.498  1.00  0.00    -0.246 OA
BRANCH  31  33
ATOM     33  C   UNL A   1      34.205  34.341  29.563  1.00  0.00     0.060 A 
ATOM     34  C   UNL A   1      35.478  34.582  29.026  1.00  0.00     0.016 A 
ATOM     35  C   UNL A   1      34.065  33.752  30.821  1.00  0.00     0.016 A 
ATOM     36  C   UNL A   1      36.619  34.196  29.728  1.00  0.00     0.010 A 
ATOM     37  C   UNL A   1      35.210  33.353  31.518  1.00  0.00     0.010 A 
ATOM     38  C   UNL A   1      36.488  33.544  30.959  1.00  0.00    -0.014 A 
BRANCH  38  39
ATOM     39  C   UNL A   1      37.670  32.919  31.600  1.00  0.00     0.031 A 
ATOM     40  C   UNL A   1      38.352  31.777  30.903  1.00  0.00     0.074 A 
ATOM     41  C   UNL A   1      38.120  33.348  32.791  1.00  0.00     0.049 A 
ATOM     42  N   UNL A   1      39.320  31.004  31.323  1.00  0.00    -0.248 NA
ATOM     43  C   UNL A   1      37.868  31.459  29.550  1.00  0.00     0.031 C 
ATOM     44  C   UNL A   1      37.569  34.470  33.547  1.00  0.00     0.029 A 
ATOM     45  N   UNL A   1      39.130  32.866  33.585  1.00  0.00    -0.354 N 
ATOM     46  C   UNL A   1      39.547  30.095  30.298  1.00  0.00     0.074 A 
ATOM     47  C   UNL A   1      38.605  30.402  29.243  1.00  0.00     0.031 C 
ATOM     48  C   UNL A   1      38.225  34.570  34.715  1.00  0.00     0.029 A 
ATOM     49  C   UNL A   1      39.214  33.496  34.802  1.00  0.00     0.049 A 
ATOM     50  H   UNL A   1      39.735  32.140  33.309  1.00  0.00     0.167 HD
ATOM     51  C   UNL A   1      40.456  29.094  30.244  1.00  0.00     0.037 A 
ATOM     52  C   UNL A   1      39.974  33.211  35.877  1.00  0.00     0.037 A 
ATOM     53  C   UNL A   1      41.393  28.796  31.293  1.00  0.00     0.049 A 
ATOM     54  C   UNL A   1      40.940  32.058  35.822  1.00  0.00     0.074 A 
ATOM     55  C   UNL A   1      42.382  27.828  31.318  1.00  0.00     0.029 A 
ATOM     56  N   UNL A   1      41.447  29.454  32.513  1.00  0.00    -0.354 N 
ATOM     57  N   UNL A   1      41.170  31.222  34.838  1.00  0.00    -0.248 NA
ATOM     58  C   UNL A   1      41.749  31.809  37.023  1.00  0.00     0.031 C 
ATOM     59  C   UNL A   1      43.001  27.868  32.573  1.00  0.00     0.029 A 
ATOM     60  C   UNL A   1      42.430  28.894  33.310  1.00  0.00     0.049 A 
ATOM     61  H   UNL A   1      40.870  30.209  32.773  1.00  0.00     0.167 HD
ATOM     62  C   UNL A   1      42.166  30.364  35.291  1.00  0.00     0.074 A 
ATOM     63  C   UNL A   1      42.499  30.783  36.637  1.00  0.00     0.031 C 
ATOM     64  C   UNL A   1      42.755  29.327  34.646  1.00  0.00     0.037 A 
BRANCH  51  65
ATOM     65  C   UNL A   1      40.448  28.224  29.022  1.00  0.00     0.057 A 
ATOM     66  C   UNL A   1      39.654  27.074  28.930  1.00  0.00     0.134 A 
ATOM     67  C   UNL A   1      41.247  28.548  27.916  1.00  0.00     0.134 A 
ATOM     68  F   UNL A   1      38.877  26.701  29.958  1.00  0.00    -0.206 F 
ATOM     69  C   UNL A   1      39.677  26.261  27.796  1.00  0.00     0.040 A 
ATOM     70  C   UNL A   1      41.258  27.757  26.767  1.00  0.00     0.040 A 
ATOM     71  F   UNL A   1      42.028  29.639  27.937  1.00  0.00    -0.206 F 
ATOM     72  C   UNL A   1      40.478  26.604  26.708  1.00  0.00     0.006 A 
ENDBRANCH  51  65
BRANCH  52  73
ATOM     73  C   UNL A   1      39.820  34.019  37.112  1.00  0.00     0.057 A 
ATOM     74  C   UNL A   1      40.606  35.151  37.345  1.00  0.00     0.134 A 
ATOM     75  C   UNL A   1      38.867  33.683  38.082  1.00  0.00     0.134 A 
ATOM     76  F   UNL A   1      41.551  35.509  36.463  1.00  0.00    -0.206 F 
ATOM     77  C   UNL A   1      40.452  35.921  38.499  1.00  0.00     0.040 A 
ATOM     78  C   UNL A   1      38.687  34.455  39.229  1.00  0.00     0.040 A 
ATOM     79  F   UNL A   1      38.081  32.608  37.916  1.00  0.00    -0.206 F 
ATOM     80  C   UNL A   1      39.484  35.579  39.441  1.00  0.00     0.006 A 
ENDBRANCH  52  73
BRANCH  64  81
ATOM     81  C   UNL A   1      43.844  28.587  35.367  1.00  0.00     0.057 A 
ATOM     82  C   UNL A   1      43.573  27.485  36.185  1.00  0.00     0.134 A 
ATOM     83  C   UNL A   1      45.187  28.940  35.177  1.00  0.00     0.134 A 
ATOM     84  F   UNL A   1      42.308  27.104  36.417  1.00  0.00    -0.206 F 
ATOM     85  C   UNL A   1      44.600  26.762  36.796  1.00  0.00     0.040 A 
ATOM     86  C   UNL A   1      46.222  28.211  35.764  1.00  0.00     0.040 A 
ATOM     87  F   UNL A   1      45.514  29.981  34.397  1.00  0.00    -0.206 F 
ATOM     88  C   UNL A   1      45.929  27.119  36.578  1.00  0.00     0.006 A 
ENDBRANCH  64  81
ENDBRANCH  38  39
ENDBRANCH  31  33
ENDBRANCH  30  31
ENDBRANCH  29  30
ENDBRANCH  28  29
ENDBRANCH  27  28
ENDBRANCH   1  27
TORSDOF 20
ENDMDL
MODEL 2
REMARK VINA RESULT:     -10.0      5.531     10.116
REMARK SMILES CCC[C@@H](C(=O)OCCOCCOC(=O)c1ccc(-c2c3nc(c(-c4c(F)cccc4F)c4ccc([nH]4)c(-c4c(F)cccc4F)c4nc(c(-c5c(F)cccc5F)c5ccc2[nH]5)C=C4)C=C3)cc1)n1nc(/C=C/c2ccc(OC)cc2)ccc1=O
REMARK SMILES IDX 9 1 8 2 7 3 5 4 6 5 4 6 3 7 2 8 1 9 70 10 71 11 85 12 72 13
REMARK SMILES IDX 84 14 86 15 83 16 73 17 74 18 75 19 76 20 82 21 77 22 81 23
REMARK SMILES IDX 78 24 79 25 80 26 10 27 11 28 12 29 13 30 14 31 15 32 16 33
REMARK SMILES IDX 17 34 69 35 18 36 68 37 19 38 20 39 21 40 62 41 22 42 67 43
REMARK SMILES IDX 61 44 63 45 23 46 66 47 60 48 59 49 24 51 50 52 33 53 49 54
REMARK SMILES IDX 34 55 37 56 48 57 64 58 35 59 36 60 47 62 65 63 38 64 25 65
REMARK SMILES IDX 26 66 31 67 27 68 28 69 30 70 32 71 29 72 51 73 52 74 57 75
REMARK SMILES IDX 53 76 54 77 56 78 58 79 55 80 39 81 40 82 45 83 41 84 42 85
REMARK SMILES IDX 44 86 46 87 43 88
REMARK H PARENT 63 50 37 61
REMARK Flexibility Score: inf
ROOT
ATOM      1  C   UNL A   1      45.297  21.786  25.897  1.00  0.00     0.202 C 
ENDROOT
BRANCH   1   2
ATOM      2  C   UNL A   1      44.146  20.840  25.556  1.00  0.00     0.261 C 
BRANCH   2   3
ATOM      3  O   UNL A   1      42.904  21.556  25.611  1.00  0.00    -0.462 OA
BRANCH   3   4
ATOM      4  C   UNL A   1      42.402  21.789  26.853  1.00  0.00     0.331 C 
ATOM      5  O   UNL A   1      41.582  21.049  27.388  1.00  0.00    -0.250 OA
BRANCH   4   6
ATOM      6  C   UNL A   1      43.012  23.056  27.511  1.00  0.00     0.221 C 
BRANCH   6   7
ATOM      7  C   UNL A   1      43.191  22.990  29.050  1.00  0.00     0.039 C 
BRANCH   7   8
ATOM      8  C   UNL A   1      44.459  23.558  29.696  1.00  0.00    -0.001 C 
ATOM      9  C   UNL A   1      45.312  24.409  28.778  1.00  0.00     0.004 C 
ENDBRANCH   7   8
ENDBRANCH   6   7
BRANCH   6  10
ATOM     10  N   UNL A   1      42.289  24.285  27.013  1.00  0.00    -0.215 N 
ATOM     11  N   UNL A   1      41.531  24.938  27.978  1.00  0.00    -0.169 NA
ATOM     12  C   UNL A   1      42.381  24.773  25.711  1.00  0.00     0.267 A 
ATOM     13  C   UNL A   1      40.887  26.024  27.670  1.00  0.00     0.084 A 
ATOM     14  C   UNL A   1      41.544  25.946  25.384  1.00  0.00     0.075 A 
ATOM     15  O   UNL A   1      43.081  24.333  24.803  1.00  0.00    -0.268 OA
ATOM     16  C   UNL A   1      40.815  26.570  26.306  1.00  0.00     0.036 A 
BRANCH  13  17
ATOM     17  C   UNL A   1      40.240  26.798  28.774  1.00  0.00     0.031 C 
ATOM     18  C   UNL A   1      40.650  27.974  29.274  1.00  0.00     0.010 C 
BRANCH  18  19
ATOM     19  C   UNL A   1      40.040  28.615  30.449  1.00  0.00    -0.025 A 
ATOM     20  C   UNL A   1      39.262  27.849  31.319  1.00  0.00     0.012 A 
ATOM     21  C   UNL A   1      40.126  29.997  30.660  1.00  0.00     0.012 A 
ATOM     22  C   UNL A   1      38.596  28.453  32.391  1.00  0.00     0.047 A 
ATOM     23  C   UNL A   1      39.456  30.601  31.732  1.00  0.00     0.047 A 
ATOM     24  C   UNL A   1      38.688  29.830  32.604  1.00  0.00     0.118 A 
BRANCH  24  25
ATOM     25  O   UNL A   1      37.978  30.290  33.677  1.00  0.00    -0.497 OA
ATOM     26  C   UNL A   1      38.651  30.321  34.930  1.00  0.00     0.278 C 
ENDBRANCH  24  25
ENDBRANCH  18  19
ENDBRANCH  13  17
ENDBRANCH   6  10
ENDBRANCH   4   6
ENDBRANCH   3   4
ENDBRANCH   2   3
ENDBRANCH   1   2
BRANCH   1  27
ATOM     27  O   UNL A   1      46.310  21.922  24.899  1.00  0.00    -0.374 OA
BRANCH  27  28
ATOM     28  C   UNL A   1      46.422  23.184  24.236  1.00  0.00     0.202 C 
BRANCH  28  29
ATOM     29  C   UNL A   1      46.701  24.404  25.124  1.00  0.00     0.261 C 
BRANCH  29  30
ATOM     30  O   UNL A   1      46.140  25.620  24.593  1.00  0.00    -0.460 OA
BRANCH  30  31
ATOM     31  C   UNL A   1      46.735  26.759  25.021  1.00  0.00     0.338 C 
ATOM     32  O   UNL A   1      47.561  27.437  24.426  1.00  0.00    -0.246 OA
BRANCH  31  33
ATOM     33  C   UNL A   1      46.111  27.210  26.278  1.00  0.00     0.060 A 
ATOM     34  C   UNL A   1      44.712  27.301  26.318  1.00  0.00     0.016 A 
ATOM     35  C   UNL A   1      46.879  27.613  27.371  1.00  0.00     0.016 A 
ATOM     36  C   UNL A   1      44.076  27.835  27.437  1.00  0.00     0.010 A 
ATOM     37  C   UNL A   1      46.241  28.161  28.488  1.00  0.00     0.010 A 
ATOM     38  C   UNL A   1      44.840  28.304  28.511  1.00  0.00    -0.014 A 
BRANCH  38  39
ATOM     39  C   UNL A   1      44.200  29.086  29.596  1.00  0.00     0.031 A 
ATOM     40  C   UNL A   1      43.948  30.550  29.380  1.00  0.00     0.074 A 
ATOM     41  C   UNL A   1      43.864  28.507  30.761  1.00  0.00     0.049 A 
ATOM     42  N   UNL A   1      43.514  31.452  30.222  1.00  0.00    -0.248 NA
ATOM     43  C   UNL A   1      44.233  31.069  28.033  1.00  0.00     0.031 C 
ATOM     44  C   UNL A   1      44.022  27.089  31.075  1.00  0.00     0.029 A 
ATOM     45  N   UNL A   1      43.344  29.054  31.907  1.00  0.00    -0.354 N 
ATOM     46  C   UNL A   1      43.495  32.648  29.515  1.00  0.00     0.074 A 
ATOM     47  C   UNL A   1      43.975  32.359  28.181  1.00  0.00     0.031 C 
ATOM     48  C   UNL A   1      43.641  26.883  32.347  1.00  0.00     0.029 A 
ATOM     49  C   UNL A   1      43.250  28.159  32.944  1.00  0.00     0.049 A 
ATOM     50  H   UNL A   1      43.068  29.997  31.979  1.00  0.00     0.167 HD
ATOM     51  C   UNL A   1      43.113  33.875  29.941  1.00  0.00     0.037 A 
ATOM     52  C   UNL A   1      42.923  28.357  34.235  1.00  0.00     0.037 A 
ATOM     53  C   UNL A   1      42.631  34.156  31.267  1.00  0.00     0.049 A 
ATOM     54  C   UNL A   1      42.557  29.739  34.708  1.00  0.00     0.074 A 
ATOM     55  C   UNL A   1      42.181  35.357  31.784  1.00  0.00     0.029 A 
ATOM     56  N   UNL A   1      42.551  33.223  32.291  1.00  0.00    -0.354 N 
ATOM     57  N   UNL A   1      42.512  30.858  34.026  1.00  0.00    -0.248 NA
ATOM     58  C   UNL A   1      42.197  29.885  36.126  1.00  0.00     0.031 C 
ATOM     59  C   UNL A   1      41.877  35.163  33.136  1.00  0.00     0.029 A 
ATOM     60  C   UNL A   1      42.089  33.829  33.447  1.00  0.00     0.049 A 
ATOM     61  H   UNL A   1      42.788  32.271  32.207  1.00  0.00     0.167 HD
ATOM     62  C   UNL A   1      42.096  31.836  34.923  1.00  0.00     0.074 A 
ATOM     63  C   UNL A   1      41.899  31.176  36.198  1.00  0.00     0.031 C 
ATOM     64  C   UNL A   1      41.892  33.158  34.707  1.00  0.00     0.037 A 
BRANCH  51  65
ATOM     65  C   UNL A   1      43.243  35.011  28.970  1.00  0.00     0.057 A 
ATOM     66  C   UNL A   1      42.143  35.526  28.274  1.00  0.00     0.134 A 
ATOM     67  C   UNL A   1      44.492  35.600  28.732  1.00  0.00     0.134 A 
ATOM     68  F   UNL A   1      40.922  34.997  28.445  1.00  0.00    -0.206 F 
ATOM     69  C   UNL A   1      42.285  36.567  27.354  1.00  0.00     0.040 A 
ATOM     70  C   UNL A   1      44.642  36.658  27.835  1.00  0.00     0.040 A 
ATOM     71  F   UNL A   1      45.587  35.156  29.370  1.00  0.00    -0.206 F 
ATOM     72  C   UNL A   1      43.537  37.139  27.136  1.00  0.00     0.006 A 
ENDBRANCH  51  65
BRANCH  52  73
ATOM     73  C   UNL A   1      42.964  27.214  35.181  1.00  0.00     0.057 A 
ATOM     74  C   UNL A   1      41.894  26.322  35.292  1.00  0.00     0.134 A 
ATOM     75  C   UNL A   1      44.089  26.980  35.983  1.00  0.00     0.134 A 
ATOM     76  F   UNL A   1      40.782  26.508  34.567  1.00  0.00    -0.206 F 
ATOM     77  C   UNL A   1      41.938  25.237  36.170  1.00  0.00     0.040 A 
ATOM     78  C   UNL A   1      44.155  25.887  36.848  1.00  0.00     0.040 A 
ATOM     79  F   UNL A   1      45.149  27.800  35.920  1.00  0.00    -0.206 F 
ATOM     80  C   UNL A   1      43.075  25.012  36.944  1.00  0.00     0.006 A 
ENDBRANCH  52  73
BRANCH  64  81
ATOM     81  C   UNL A   1      41.399  33.983  35.859  1.00  0.00     0.057 A 
ATOM     82  C   UNL A   1      42.274  34.678  36.701  1.00  0.00     0.134 A 
ATOM     83  C   UNL A   1      40.024  34.142  36.081  1.00  0.00     0.134 A 
ATOM     84  F   UNL A   1      43.602  34.559  36.548  1.00  0.00    -0.206 F 
ATOM     85  C   UNL A   1      41.802  35.498  37.727  1.00  0.00     0.040 A 
ATOM     86  C   UNL A   1      39.539  34.977  37.090  1.00  0.00     0.040 A 
ATOM     87  F   UNL A   1      39.131  33.511  35.304  1.00  0.00    -0.206 F 
ATOM     88  C   UNL A   1      40.430  35.657  37.917  1.00  0.00     0.006 A 
ENDBRANCH  64  81
ENDBRANCH  38  39
ENDBRANCH  31  33
ENDBRANCH  30  31
ENDBRANCH  29  30
ENDBRANCH  28  29
ENDBRANCH  27  28
ENDBRANCH   1  27
TORSDOF 20
ENDMDL
MODEL 3
REMARK VINA RESULT:      -9.9      4.356      8.193
REMARK SMILES CCC[C@@H](C(=O)OCCOCCOC(=O)c1ccc(-c2c3nc(c(-c4c(F)cccc4F)c4ccc([nH]4)c(-c4c(F)cccc4F)c4nc(c(-c5c(F)cccc5F)c5ccc2[nH]5)C=C4)C=C3)cc1)n1nc(/C=C/c2ccc(OC)cc2)ccc1=O
REMARK SMILES IDX 9 1 8 2 7 3 5 4 6 5 4 6 3 7 2 8 1 9 70 10 71 11 85 12 72 13
REMARK SMILES IDX 84 14 86 15 83 16 73 17 74 18 75 19 76 20 82 21 77 22 81 23
REMARK SMILES IDX 78 24 79 25 80 26 10 27 11 28 12 29 13 30 14 31 15 32 16 33
REMARK SMILES IDX 17 34 69 35 18 36 68 37 19 38 20 39 21 40 62 41 22 42 67 43
REMARK SMILES IDX 61 44 63 45 23 46 66 47 60 48 59 49 24 51 50 52 33 53 49 54
REMARK SMILES IDX 34 55 37 56 48 57 64 58 35 59 36 60 47 62 65 63 38 64 25 65
REMARK SMILES IDX 26 66 31 67 27 68 28 69 30 70 32 71 29 72 51 73 52 74 57 75
REMARK SMILES IDX 53 76 54 77 56 78 58 79 55 80 39 81 40 82 45 83 41 84 42 85
REMARK SMILES IDX 44 86 46 87 43 88
REMARK H PARENT 63 50 37 61
REMARK Flexibility Score: inf
ROOT
ATOM      1  C   UNL A   1      32.894  30.770  27.446  1.00  0.00     0.202 C 
ENDROOT
BRANCH   1   2
ATOM      2  C   UNL A   1      34.178  30.003  27.133  1.00  0.00     0.261 C 
BRANCH   2   3
ATOM      3  O   UNL A   1      33.964  28.601  27.346  1.00  0.00    -0.462 OA
BRANCH   3   4
ATOM      4  C   UNL A   1      32.900  28.053  26.701  1.00  0.00     0.331 C 
ATOM      5  O   UNL A   1      31.806  27.898  27.236  1.00  0.00    -0.250 OA
BRANCH   4   6
ATOM      6  C   UNL A   1      33.222  27.695  25.225  1.00  0.00     0.221 C 
BRANCH   6   7
ATOM      7  C   UNL A   1      33.522  28.899  24.296  1.00  0.00     0.039 C 
BRANCH   7   8
ATOM      8  C   UNL A   1      34.370  28.697  23.035  1.00  0.00    -0.001 C 
ATOM      9  C   UNL A   1      33.702  27.887  21.945  1.00  0.00     0.004 C 
ENDBRANCH   7   8
ENDBRANCH   6   7
BRANCH   6  10
ATOM     10  N   UNL A   1      32.182  26.736  24.697  1.00  0.00    -0.215 N 
ATOM     11  N   UNL A   1      32.564  25.399  24.721  1.00  0.00    -0.169 NA
ATOM     12  C   UNL A   1      30.920  27.120  24.248  1.00  0.00     0.267 A 
ATOM     13  C   UNL A   1      31.738  24.481  24.317  1.00  0.00     0.084 A 
ATOM     14  C   UNL A   1      30.060  26.051  23.697  1.00  0.00     0.075 A 
ATOM     15  O   UNL A   1      30.443  28.251  24.259  1.00  0.00    -0.268 OA
ATOM     16  C   UNL A   1      30.427  24.772  23.718  1.00  0.00     0.036 A 
BRANCH  13  17
ATOM     17  C   UNL A   1      32.112  23.050  24.534  1.00  0.00     0.031 C 
ATOM     18  C   UNL A   1      31.998  22.050  23.647  1.00  0.00     0.010 C 
BRANCH  18  19
ATOM     19  C   UNL A   1      32.262  20.640  23.972  1.00  0.00    -0.025 A 
ATOM     20  C   UNL A   1      32.605  20.293  25.280  1.00  0.00     0.012 A 
ATOM     21  C   UNL A   1      32.288  19.649  22.982  1.00  0.00     0.012 A 
ATOM     22  C   UNL A   1      32.950  18.974  25.595  1.00  0.00     0.047 A 
ATOM     23  C   UNL A   1      32.639  18.330  23.298  1.00  0.00     0.047 A 
ATOM     24  C   UNL A   1      32.970  17.986  24.608  1.00  0.00     0.118 A 
BRANCH  24  25
ATOM     25  O   UNL A   1      33.338  16.746  25.049  1.00  0.00    -0.497 OA
ATOM     26  C   UNL A   1      34.714  16.404  24.938  1.00  0.00     0.278 C 
ENDBRANCH  24  25
ENDBRANCH  18  19
ENDBRANCH  13  17
ENDBRANCH   6  10
ENDBRANCH   4   6
ENDBRANCH   3   4
ENDBRANCH   2   3
ENDBRANCH   1   2
BRANCH   1  27
ATOM     27  O   UNL A   1      33.030  32.184  27.591  1.00  0.00    -0.374 OA
BRANCH  27  28
ATOM     28  C   UNL A   1      34.276  32.683  28.083  1.00  0.00     0.202 C 
BRANCH  28  29
ATOM     29  C   UNL A   1      34.264  33.297  29.490  1.00  0.00     0.261 C 
BRANCH  29  30
ATOM     30  O   UNL A   1      34.505  32.324  30.524  1.00  0.00    -0.460 OA
BRANCH  30  31
ATOM     31  C   UNL A   1      35.600  32.560  31.286  1.00  0.00     0.338 C 
ATOM     32  O   UNL A   1      35.675  33.264  32.284  1.00  0.00    -0.246 OA
BRANCH  31  33
ATOM     33  C   UNL A   1      36.708  31.686  30.859  1.00  0.00     0.060 A 
ATOM     34  C   UNL A   1      37.530  31.139  31.854  1.00  0.00     0.016 A 
ATOM     35  C   UNL A   1      36.987  31.470  29.509  1.00  0.00     0.016 A 
ATOM     36  C   UNL A   1      38.662  30.406  31.503  1.00  0.00     0.010 A 
ATOM     37  C   UNL A   1      38.131  30.746  29.157  1.00  0.00     0.010 A 
ATOM     38  C   UNL A   1      38.989  30.239  30.152  1.00  0.00    -0.014 A 
BRANCH  38  39
ATOM     39  C   UNL A   1      40.304  29.673  29.769  1.00  0.00     0.031 A 
ATOM     40  C   UNL A   1      41.500  30.581  29.733  1.00  0.00     0.074 A 
ATOM     41  C   UNL A   1      40.430  28.377  29.440  1.00  0.00     0.049 A 
ATOM     42  N   UNL A   1      42.716  30.339  29.316  1.00  0.00    -0.248 NA
ATOM     43  C   UNL A   1      41.292  31.951  30.228  1.00  0.00     0.031 C 
ATOM     44  C   UNL A   1      39.355  27.389  29.472  1.00  0.00     0.029 A 
ATOM     45  N   UNL A   1      41.521  27.678  28.985  1.00  0.00    -0.354 N 
ATOM     46  C   UNL A   1      43.412  31.530  29.477  1.00  0.00     0.074 A 
ATOM     47  C   UNL A   1      42.480  32.498  30.014  1.00  0.00     0.031 C 
ATOM     48  C   UNL A   1      39.830  26.216  29.020  1.00  0.00     0.029 A 
ATOM     49  C   UNL A   1      41.230  26.384  28.632  1.00  0.00     0.049 A 
ATOM     50  H   UNL A   1      42.422  28.068  28.917  1.00  0.00     0.167 HD
ATOM     51  C   UNL A   1      44.711  31.793  29.199  1.00  0.00     0.037 A 
ATOM     52  C   UNL A   1      41.995  25.455  28.028  1.00  0.00     0.037 A 
ATOM     53  C   UNL A   1      45.635  30.826  28.670  1.00  0.00     0.049 A 
ATOM     54  C   UNL A   1      43.421  25.781  27.672  1.00  0.00     0.074 A 
ATOM     55  C   UNL A   1      46.982  30.983  28.393  1.00  0.00     0.029 A 
ATOM     56  N   UNL A   1      45.303  29.525  28.324  1.00  0.00    -0.354 N 
ATOM     57  N   UNL A   1      44.081  26.899  27.855  1.00  0.00    -0.248 NA
ATOM     58  C   UNL A   1      44.207  24.719  27.028  1.00  0.00     0.031 C 
ATOM     59  C   UNL A   1      47.453  29.791  27.831  1.00  0.00     0.029 A 
ATOM     60  C   UNL A   1      46.411  28.877  27.805  1.00  0.00     0.049 A 
ATOM     61  H   UNL A   1      44.411  29.122  28.431  1.00  0.00     0.167 HD
ATOM     62  C   UNL A   1      45.364  26.670  27.372  1.00  0.00     0.074 A 
ATOM     63  C   UNL A   1      45.391  25.304  26.891  1.00  0.00     0.031 C 
ATOM     64  C   UNL A   1      46.425  27.514  27.336  1.00  0.00     0.037 A 
BRANCH  51  65
ATOM     65  C   UNL A   1      45.192  33.196  29.426  1.00  0.00     0.057 A 
ATOM     66  C   UNL A   1      45.096  34.185  28.440  1.00  0.00     0.134 A 
ATOM     67  C   UNL A   1      45.755  33.561  30.656  1.00  0.00     0.134 A 
ATOM     68  F   UNL A   1      44.579  33.897  27.236  1.00  0.00    -0.206 F 
ATOM     69  C   UNL A   1      45.572  35.480  28.658  1.00  0.00     0.040 A 
ATOM     70  C   UNL A   1      46.210  34.858  30.895  1.00  0.00     0.040 A 
ATOM     71  F   UNL A   1      45.873  32.661  31.646  1.00  0.00    -0.206 F 
ATOM     72  C   UNL A   1      46.127  35.820  29.890  1.00  0.00     0.006 A 
ENDBRANCH  51  65
BRANCH  52  73
ATOM     73  C   UNL A   1      41.409  24.134  27.691  1.00  0.00     0.057 A 
ATOM     74  C   UNL A   1      41.720  22.988  28.429  1.00  0.00     0.134 A 
ATOM     75  C   UNL A   1      40.505  23.994  26.629  1.00  0.00     0.134 A 
ATOM     76  F   UNL A   1      42.595  23.056  29.442  1.00  0.00    -0.206 F 
ATOM     77  C   UNL A   1      41.156  21.748  28.123  1.00  0.00     0.040 A 
ATOM     78  C   UNL A   1      39.918  22.766  26.326  1.00  0.00     0.040 A 
ATOM     79  F   UNL A   1      40.165  25.057  25.884  1.00  0.00    -0.206 F 
ATOM     80  C   UNL A   1      40.246  21.636  27.074  1.00  0.00     0.006 A 
ENDBRANCH  52  73
BRANCH  64  81
ATOM     81  C   UNL A   1      47.718  26.984  26.791  1.00  0.00     0.057 A 
ATOM     82  C   UNL A   1      48.649  26.326  27.601  1.00  0.00     0.134 A 
ATOM     83  C   UNL A   1      47.997  27.068  25.420  1.00  0.00     0.134 A 
ATOM     84  F   UNL A   1      48.446  26.221  28.923  1.00  0.00    -0.206 F 
ATOM     85  C   UNL A   1      49.817  25.775  27.071  1.00  0.00     0.040 A 
ATOM     86  C   UNL A   1      49.151  26.502  24.874  1.00  0.00     0.040 A 
ATOM     87  F   UNL A   1      47.141  27.679  24.587  1.00  0.00    -0.206 F 
ATOM     88  C   UNL A   1      50.066  25.855  25.701  1.00  0.00     0.006 A 
ENDBRANCH  64  81
ENDBRANCH  38  39
ENDBRANCH  31  33
ENDBRANCH  30  31
ENDBRANCH  29  30
ENDBRANCH  28  29
ENDBRANCH  27  28
ENDBRANCH   1  27
TORSDOF 20
ENDMDL
