MODEL 1
REMARK VINA RESULT:      -9.6      0.000      0.000
REMARK SMILES O=C(OCCOCCOC(=O)c1ccc(S(=O)(=O)Cc2ncccn2)c(F)c1)c1ccc(-c2c3nc(c(-c4c(F)cccc4F)c4ccc([nH]4)c(-c4c(F)cccc4F)c4nc(c(-c5c(F)cccc5F)c5ccc2[nH]5)C=C4)C=C3)cc1
REMARK SMILES IDX 7 1 6 2 5 3 4 4 3 5 2 6 1 7 29 8 30 9 82 10 31 11 81 12
REMARK SMILES IDX 32 13 33 14 34 15 75 16 35 17 80 18 74 19 76 20 36 21 79 22
REMARK SMILES IDX 73 23 72 24 37 26 63 27 46 28 62 29 47 30 50 31 61 32 77 33
REMARK SMILES IDX 48 34 49 35 60 37 78 38 51 39 38 40 39 41 44 42 40 43 41 44
REMARK SMILES IDX 43 45 45 46 42 47 64 48 65 49 70 50 66 51 67 52 69 53 71 54
REMARK SMILES IDX 68 55 52 56 53 57 58 58 54 59 55 60 57 61 59 62 56 63 8 64
REMARK SMILES IDX 9 65 10 66 11 67 12 68 13 69 28 70 14 71 26 72 15 73 27 74
REMARK SMILES IDX 16 75 17 76 18 77 19 78 20 79 21 80 25 81 22 82 24 83 23 84
REMARK H PARENT 76 25 50 36
REMARK Flexibility Score: inf
ROOT
ATOM      1  C   UNL A   1      44.914  22.081  23.583  1.00  0.00     0.202 C 
ENDROOT
BRANCH   1   2
ATOM      2  O   UNL A   1      44.608  20.679  23.603  1.00  0.00    -0.374 OA
BRANCH   2   3
ATOM      3  C   UNL A   1      45.053  19.967  24.761  1.00  0.00     0.202 C 
BRANCH   3   4
ATOM      4  C   UNL A   1      44.096  18.897  25.285  1.00  0.00     0.261 C 
BRANCH   4   5
ATOM      5  O   UNL A   1      42.742  19.238  24.961  1.00  0.00    -0.460 OA
BRANCH   5   6
ATOM      6  C   UNL A   1      41.839  19.871  25.744  1.00  0.00     0.338 C 
ATOM      7  O   UNL A   1      40.743  19.349  25.927  1.00  0.00    -0.246 OA
BRANCH   6   8
ATOM      8  C   UNL A   1      42.107  21.183  26.405  1.00  0.00     0.060 A 
ATOM      9  C   UNL A   1      42.286  22.392  25.728  1.00  0.00     0.016 A 
ATOM     10  C   UNL A   1      42.066  21.211  27.808  1.00  0.00     0.016 A 
ATOM     11  C   UNL A   1      42.488  23.582  26.411  1.00  0.00     0.010 A 
ATOM     12  C   UNL A   1      42.210  22.413  28.505  1.00  0.00     0.010 A 
ATOM     13  C   UNL A   1      42.432  23.602  27.802  1.00  0.00    -0.014 A 
BRANCH  13  14
ATOM     14  C   UNL A   1      42.639  24.889  28.487  1.00  0.00     0.031 A 
ATOM     15  C   UNL A   1      44.013  25.244  28.958  1.00  0.00     0.074 A 
ATOM     16  C   UNL A   1      41.618  25.761  28.566  1.00  0.00     0.049 A 
ATOM     17  N   UNL A   1      44.413  26.300  29.610  1.00  0.00    -0.248 NA
ATOM     18  C   UNL A   1      45.087  24.288  28.637  1.00  0.00     0.031 C 
ATOM     19  C   UNL A   1      40.274  25.532  28.026  1.00  0.00     0.029 A 
ATOM     20  N   UNL A   1      41.553  27.022  29.094  1.00  0.00    -0.354 N 
ATOM     21  C   UNL A   1      45.777  26.130  29.796  1.00  0.00     0.074 A 
ATOM     22  C   UNL A   1      46.142  24.870  29.190  1.00  0.00     0.031 C 
ATOM     23  C   UNL A   1      39.529  26.631  28.224  1.00  0.00     0.029 A 
ATOM     24  C   UNL A   1      40.317  27.609  28.964  1.00  0.00     0.049 A 
ATOM     25  H   UNL A   1      42.318  27.467  29.526  1.00  0.00     0.167 HD
ATOM     26  C   UNL A   1      46.637  26.960  30.426  1.00  0.00     0.037 A 
ATOM     27  C   UNL A   1      39.871  28.792  29.425  1.00  0.00     0.037 A 
ATOM     28  C   UNL A   1      46.241  28.207  31.019  1.00  0.00     0.049 A 
ATOM     29  C   UNL A   1      40.829  29.650  30.204  1.00  0.00     0.074 A 
ATOM     30  C   UNL A   1      47.005  29.099  31.748  1.00  0.00     0.029 A 
ATOM     31  N   UNL A   1      44.961  28.738  30.942  1.00  0.00    -0.354 N 
ATOM     32  N   UNL A   1      42.103  29.449  30.447  1.00  0.00    -0.248 NA
ATOM     33  C   UNL A   1      40.290  30.882  30.795  1.00  0.00     0.031 C 
ATOM     34  C   UNL A   1      46.176  30.154  32.142  1.00  0.00     0.029 A 
ATOM     35  C   UNL A   1      44.907  29.940  31.623  1.00  0.00     0.049 A 
ATOM     36  H   UNL A   1      44.203  28.321  30.472  1.00  0.00     0.167 HD
ATOM     37  C   UNL A   1      42.519  30.526  31.215  1.00  0.00     0.074 A 
ATOM     38  C   UNL A   1      41.368  31.392  31.376  1.00  0.00     0.031 C 
ATOM     39  C   UNL A   1      43.739  30.774  31.752  1.00  0.00     0.037 A 
BRANCH  26  40
ATOM     40  C   UNL A   1      48.061  26.514  30.550  1.00  0.00     0.057 A 
ATOM     41  C   UNL A   1      49.010  26.904  29.597  1.00  0.00     0.134 A 
ATOM     42  C   UNL A   1      48.494  25.691  31.596  1.00  0.00     0.134 A 
ATOM     43  F   UNL A   1      48.662  27.700  28.575  1.00  0.00    -0.206 F 
ATOM     44  C   UNL A   1      50.339  26.483  29.675  1.00  0.00     0.040 A 
ATOM     45  C   UNL A   1      49.824  25.277  31.696  1.00  0.00     0.040 A 
ATOM     46  F   UNL A   1      47.638  25.305  32.555  1.00  0.00    -0.206 F 
ATOM     47  C   UNL A   1      50.749  25.669  30.729  1.00  0.00     0.006 A 
ENDBRANCH  26  40
BRANCH  27  48
ATOM     48  C   UNL A   1      38.459  29.199  29.207  1.00  0.00     0.057 A 
ATOM     49  C   UNL A   1      37.519  29.162  30.247  1.00  0.00     0.134 A 
ATOM     50  C   UNL A   1      38.009  29.630  27.954  1.00  0.00     0.134 A 
ATOM     51  F   UNL A   1      37.883  28.761  31.474  1.00  0.00    -0.206 F 
ATOM     52  C   UNL A   1      36.185  29.517  30.046  1.00  0.00     0.040 A 
ATOM     53  C   UNL A   1      36.681  30.014  27.744  1.00  0.00     0.040 A 
ATOM     54  F   UNL A   1      38.860  29.709  26.920  1.00  0.00    -0.206 F 
ATOM     55  C   UNL A   1      35.763  29.951  28.791  1.00  0.00     0.006 A 
ENDBRANCH  27  48
BRANCH  39  56
ATOM     56  C   UNL A   1      43.890  32.031  32.550  1.00  0.00     0.057 A 
ATOM     57  C   UNL A   1      44.355  33.205  31.948  1.00  0.00     0.134 A 
ATOM     58  C   UNL A   1      43.665  32.047  33.932  1.00  0.00     0.134 A 
ATOM     59  F   UNL A   1      44.598  33.244  30.629  1.00  0.00    -0.206 F 
ATOM     60  C   UNL A   1      44.608  34.353  32.697  1.00  0.00     0.040 A 
ATOM     61  C   UNL A   1      43.894  33.196  34.688  1.00  0.00     0.040 A 
ATOM     62  F   UNL A   1      43.210  30.953  34.560  1.00  0.00    -0.206 F 
ATOM     63  C   UNL A   1      44.378  34.349  34.072  1.00  0.00     0.006 A 
ENDBRANCH  39  56
ENDBRANCH  13  14
ENDBRANCH   6   8
ENDBRANCH   5   6
ENDBRANCH   4   5
ENDBRANCH   3   4
ENDBRANCH   2   3
ENDBRANCH   1   2
BRANCH   1  64
ATOM     64  C   UNL A   1      46.019  22.388  24.601  1.00  0.00     0.261 C 
BRANCH  64  65
ATOM     65  O   UNL A   1      45.746  23.671  25.192  1.00  0.00    -0.460 OA
BRANCH  65  66
ATOM     66  C   UNL A   1      46.585  24.657  24.795  1.00  0.00     0.338 C 
ATOM     67  O   UNL A   1      47.460  24.608  23.948  1.00  0.00    -0.246 OA
BRANCH  66  68
ATOM     68  C   UNL A   1      46.064  25.912  25.356  1.00  0.00     0.063 A 
ATOM     69  C   UNL A   1      46.887  26.857  25.966  1.00  0.00     0.017 A 
ATOM     70  C   UNL A   1      44.679  26.086  25.326  1.00  0.00     0.056 A 
ATOM     71  C   UNL A   1      46.312  28.028  26.469  1.00  0.00     0.024 A 
ATOM     72  C   UNL A   1      44.111  27.184  25.949  1.00  0.00     0.142 A 
ATOM     73  C   UNL A   1      44.919  28.199  26.429  1.00  0.00     0.103 A 
ATOM     74  F   UNL A   1      42.779  27.223  26.068  1.00  0.00    -0.206 F 
BRANCH  73  75
ATOM     75  S   UNL A   1      44.247  29.758  26.909  1.00  0.00     0.188 S 
ATOM     76  O   UNL A   1      43.009  29.864  26.151  1.00  0.00    -0.223 OA
ATOM     77  O   UNL A   1      44.182  29.739  28.362  1.00  0.00    -0.223 OA
BRANCH  75  78
ATOM     78  C   UNL A   1      45.263  31.106  26.416  1.00  0.00     0.219 C 
BRANCH  78  79
ATOM     79  C   UNL A   1      44.492  32.375  26.238  1.00  0.00     0.143 A 
ATOM     80  N   UNL A   1      44.410  32.862  24.983  1.00  0.00    -0.240 NA
ATOM     81  N   UNL A   1      44.160  33.098  27.323  1.00  0.00    -0.240 NA
ATOM     82  C   UNL A   1      43.959  34.126  24.843  1.00  0.00     0.115 A 
ATOM     83  C   UNL A   1      43.734  34.361  27.135  1.00  0.00     0.115 A 
ATOM     84  C   UNL A   1      43.618  34.936  25.898  1.00  0.00     0.040 A 
ENDBRANCH  78  79
ENDBRANCH  75  78
ENDBRANCH  73  75
ENDBRANCH  66  68
ENDBRANCH  65  66
ENDBRANCH  64  65
ENDBRANCH   1  64
TORSDOF 17
ENDMDL
MODEL 2
REMARK VINA RESULT:      -8.9      1.398      2.328
REMARK SMILES O=C(OCCOCCOC(=O)c1ccc(S(=O)(=O)Cc2ncccn2)c(F)c1)c1ccc(-c2c3nc(c(-c4c(F)cccc4F)c4ccc([nH]4)c(-c4c(F)cccc4F)c4nc(c(-c5c(F)cccc5F)c5ccc2[nH]5)C=C4)C=C3)cc1
REMARK SMILES IDX 7 1 6 2 5 3 4 4 3 5 2 6 1 7 29 8 30 9 82 10 31 11 81 12
REMARK SMILES IDX 32 13 33 14 34 15 75 16 35 17 80 18 74 19 76 20 36 21 79 22
REMARK SMILES IDX 73 23 72 24 37 26 63 27 46 28 62 29 47 30 50 31 61 32 77 33
REMARK SMILES IDX 48 34 49 35 60 37 78 38 51 39 38 40 39 41 44 42 40 43 41 44
REMARK SMILES IDX 43 45 45 46 42 47 64 48 65 49 70 50 66 51 67 52 69 53 71 54
REMARK SMILES IDX 68 55 52 56 53 57 58 58 54 59 55 60 57 61 59 62 56 63 8 64
REMARK SMILES IDX 9 65 10 66 11 67 12 68 13 69 28 70 14 71 26 72 15 73 27 74
REMARK SMILES IDX 16 75 17 76 18 77 19 78 20 79 21 80 25 81 22 82 24 83 23 84
REMARK H PARENT 76 25 50 36
REMARK Flexibility Score: inf
ROOT
ATOM      1  C   UNL A   1      45.706  19.546  23.526  1.00  0.00     0.202 C 
ENDROOT
BRANCH   1   2
ATOM      2  O   UNL A   1      44.565  18.866  24.071  1.00  0.00    -0.374 OA
BRANCH   2   3
ATOM      3  C   UNL A   1      44.631  18.576  25.470  1.00  0.00     0.202 C 
BRANCH   3   4
ATOM      4  C   UNL A   1      43.296  18.258  26.141  1.00  0.00     0.261 C 
BRANCH   4   5
ATOM      5  O   UNL A   1      42.222  18.900  25.441  1.00  0.00    -0.460 OA
BRANCH   5   6
ATOM      6  C   UNL A   1      41.224  19.647  25.965  1.00  0.00     0.338 C 
ATOM      7  O   UNL A   1      40.067  19.244  25.869  1.00  0.00    -0.246 OA
BRANCH   6   8
ATOM      8  C   UNL A   1      41.455  20.948  26.662  1.00  0.00     0.060 A 
ATOM      9  C   UNL A   1      41.725  21.082  28.025  1.00  0.00     0.016 A 
ATOM     10  C   UNL A   1      41.510  22.099  25.859  1.00  0.00     0.016 A 
ATOM     11  C   UNL A   1      41.973  22.321  28.595  1.00  0.00     0.010 A 
ATOM     12  C   UNL A   1      41.816  23.345  26.415  1.00  0.00     0.010 A 
ATOM     13  C   UNL A   1      42.040  23.456  27.791  1.00  0.00    -0.014 A 
BRANCH  13  14
ATOM     14  C   UNL A   1      42.318  24.750  28.436  1.00  0.00     0.031 A 
ATOM     15  C   UNL A   1      43.714  25.050  28.880  1.00  0.00     0.074 A 
ATOM     16  C   UNL A   1      41.342  25.673  28.501  1.00  0.00     0.049 A 
ATOM     17  N   UNL A   1      44.173  26.104  29.496  1.00  0.00    -0.248 NA
ATOM     18  C   UNL A   1      44.736  24.034  28.574  1.00  0.00     0.031 C 
ATOM     19  C   UNL A   1      39.981  25.495  27.983  1.00  0.00     0.029 A 
ATOM     20  N   UNL A   1      41.346  26.951  28.993  1.00  0.00    -0.354 N 
ATOM     21  C   UNL A   1      45.530  25.873  29.672  1.00  0.00     0.074 A 
ATOM     22  C   UNL A   1      45.825  24.579  29.098  1.00  0.00     0.031 C 
ATOM     23  C   UNL A   1      39.294  26.634  28.158  1.00  0.00     0.029 A 
ATOM     24  C   UNL A   1      40.138  27.593  28.860  1.00  0.00     0.049 A 
ATOM     25  H   UNL A   1      42.137  27.369  29.402  1.00  0.00     0.167 HD
ATOM     26  C   UNL A   1      46.437  26.677  30.267  1.00  0.00     0.037 A 
ATOM     27  C   UNL A   1      39.756  28.809  29.292  1.00  0.00     0.037 A 
ATOM     28  C   UNL A   1      46.111  27.959  30.828  1.00  0.00     0.049 A 
ATOM     29  C   UNL A   1      40.764  29.642  30.034  1.00  0.00     0.074 A 
ATOM     30  C   UNL A   1      46.926  28.832  31.521  1.00  0.00     0.029 A 
ATOM     31  N   UNL A   1      44.857  28.549  30.750  1.00  0.00    -0.354 N 
ATOM     32  N   UNL A   1      42.030  29.385  30.268  1.00  0.00    -0.248 NA
ATOM     33  C   UNL A   1      40.294  30.914  30.594  1.00  0.00     0.031 C 
ATOM     34  C   UNL A   1      46.155  29.937  31.894  1.00  0.00     0.029 A 
ATOM     35  C   UNL A   1      44.871  29.771  31.397  1.00  0.00     0.049 A 
ATOM     36  H   UNL A   1      44.073  28.157  30.301  1.00  0.00     0.167 HD
ATOM     37  C   UNL A   1      42.509  30.462  31.000  1.00  0.00     0.074 A 
ATOM     38  C   UNL A   1      41.403  31.387  31.148  1.00  0.00     0.031 C 
ATOM     39  C   UNL A   1      43.746  30.665  31.514  1.00  0.00     0.037 A 
BRANCH  26  40
ATOM     40  C   UNL A   1      47.840  26.165  30.387  1.00  0.00     0.057 A 
ATOM     41  C   UNL A   1      48.307  25.663  31.608  1.00  0.00     0.134 A 
ATOM     42  C   UNL A   1      48.731  26.181  29.308  1.00  0.00     0.134 A 
ATOM     43  F   UNL A   1      47.500  25.612  32.678  1.00  0.00    -0.206 F 
ATOM     44  C   UNL A   1      49.617  25.202  31.754  1.00  0.00     0.040 A 
ATOM     45  C   UNL A   1      50.038  25.706  29.436  1.00  0.00     0.040 A 
ATOM     46  F   UNL A   1      48.335  26.626  28.106  1.00  0.00    -0.206 F 
ATOM     47  C   UNL A   1      50.486  25.221  30.664  1.00  0.00     0.006 A 
ENDBRANCH  26  40
BRANCH  27  48
ATOM     48  C   UNL A   1      38.363  29.279  29.078  1.00  0.00     0.057 A 
ATOM     49  C   UNL A   1      37.941  29.768  27.833  1.00  0.00     0.134 A 
ATOM     50  C   UNL A   1      37.418  29.259  30.109  1.00  0.00     0.134 A 
ATOM     51  F   UNL A   1      38.793  29.813  26.799  1.00  0.00    -0.206 F 
ATOM     52  C   UNL A   1      36.642  30.236  27.627  1.00  0.00     0.040 A 
ATOM     53  C   UNL A   1      36.107  29.700  29.912  1.00  0.00     0.040 A 
ATOM     54  F   UNL A   1      37.750  28.786  31.320  1.00  0.00    -0.206 F 
ATOM     55  C   UNL A   1      35.718  30.197  28.669  1.00  0.00     0.006 A 
ENDBRANCH  27  48
BRANCH  39  56
ATOM     56  C   UNL A   1      43.969  31.935  32.273  1.00  0.00     0.057 A 
ATOM     57  C   UNL A   1      44.476  33.070  31.631  1.00  0.00     0.134 A 
ATOM     58  C   UNL A   1      43.769  32.000  33.658  1.00  0.00     0.134 A 
ATOM     59  F   UNL A   1      44.697  33.061  30.308  1.00  0.00    -0.206 F 
ATOM     60  C   UNL A   1      44.794  34.225  32.343  1.00  0.00     0.040 A 
ATOM     61  C   UNL A   1      44.064  33.157  34.377  1.00  0.00     0.040 A 
ATOM     62  F   UNL A   1      43.275  30.946  34.324  1.00  0.00    -0.206 F 
ATOM     63  C   UNL A   1      44.589  34.270  33.721  1.00  0.00     0.006 A 
ENDBRANCH  39  56
ENDBRANCH  13  14
ENDBRANCH   6   8
ENDBRANCH   5   6
ENDBRANCH   4   5
ENDBRANCH   3   4
ENDBRANCH   2   3
ENDBRANCH   1   2
BRANCH   1  64
ATOM     64  C   UNL A   1      46.457  20.282  24.642  1.00  0.00     0.261 C 
BRANCH  64  65
ATOM     65  O   UNL A   1      46.357  21.696  24.399  1.00  0.00    -0.460 OA
BRANCH  65  66
ATOM     66  C   UNL A   1      45.444  22.331  25.173  1.00  0.00     0.338 C 
ATOM     67  O   UNL A   1      44.637  21.842  25.944  1.00  0.00    -0.246 OA
BRANCH  66  68
ATOM     68  C   UNL A   1      45.789  23.760  25.153  1.00  0.00     0.063 A 
ATOM     69  C   UNL A   1      44.829  24.764  25.278  1.00  0.00     0.017 A 
ATOM     70  C   UNL A   1      47.127  24.080  24.918  1.00  0.00     0.056 A 
ATOM     71  C   UNL A   1      45.241  26.099  25.256  1.00  0.00     0.024 A 
ATOM     72  C   UNL A   1      47.500  25.404  24.761  1.00  0.00     0.142 A 
ATOM     73  C   UNL A   1      46.591  26.413  25.025  1.00  0.00     0.103 A 
ATOM     74  F   UNL A   1      48.746  25.664  24.349  1.00  0.00    -0.206 F 
BRANCH  73  75
ATOM     75  S   UNL A   1      47.103  28.094  25.179  1.00  0.00     0.188 S 
ATOM     76  O   UNL A   1      48.545  28.015  25.361  1.00  0.00    -0.223 OA
ATOM     77  O   UNL A   1      46.579  28.783  24.010  1.00  0.00    -0.223 OA
BRANCH  75  78
ATOM     78  C   UNL A   1      46.450  28.865  26.618  1.00  0.00     0.219 C 
BRANCH  78  79
ATOM     79  C   UNL A   1      45.987  30.264  26.364  1.00  0.00     0.143 A 
ATOM     80  N   UNL A   1      46.939  31.218  26.325  1.00  0.00    -0.240 NA
ATOM     81  N   UNL A   1      44.675  30.548  26.456  1.00  0.00    -0.240 NA
ATOM     82  C   UNL A   1      46.525  32.501  26.367  1.00  0.00     0.115 A 
ATOM     83  C   UNL A   1      44.311  31.843  26.515  1.00  0.00     0.115 A 
ATOM     84  C   UNL A   1      45.208  32.875  26.480  1.00  0.00     0.040 A 
ENDBRANCH  78  79
ENDBRANCH  75  78
ENDBRANCH  73  75
ENDBRANCH  66  68
ENDBRANCH  65  66
ENDBRANCH  64  65
ENDBRANCH   1  64
TORSDOF 17
ENDMDL
MODEL 3
REMARK VINA RESULT:      -8.8      4.749     10.889
REMARK SMILES O=C(OCCOCCOC(=O)c1ccc(S(=O)(=O)Cc2ncccn2)c(F)c1)c1ccc(-c2c3nc(c(-c4c(F)cccc4F)c4ccc([nH]4)c(-c4c(F)cccc4F)c4nc(c(-c5c(F)cccc5F)c5ccc2[nH]5)C=C4)C=C3)cc1
REMARK SMILES IDX 7 1 6 2 5 3 4 4 3 5 2 6 1 7 29 8 30 9 82 10 31 11 81 12
REMARK SMILES IDX 32 13 33 14 34 15 75 16 35 17 80 18 74 19 76 20 36 21 79 22
REMARK SMILES IDX 73 23 72 24 37 26 63 27 46 28 62 29 47 30 50 31 61 32 77 33
REMARK SMILES IDX 48 34 49 35 60 37 78 38 51 39 38 40 39 41 44 42 40 43 41 44
REMARK SMILES IDX 43 45 45 46 42 47 64 48 65 49 70 50 66 51 67 52 69 53 71 54
REMARK SMILES IDX 68 55 52 56 53 57 58 58 54 59 55 60 57 61 59 62 56 63 8 64
REMARK SMILES IDX 9 65 10 66 11 67 12 68 13 69 28 70 14 71 26 72 15 73 27 74
REMARK SMILES IDX 16 75 17 76 18 77 19 78 20 79 21 80 25 81 22 82 24 83 23 84
REMARK H PARENT 76 25 50 36
REMARK Flexibility Score: inf
ROOT
ATOM      1  C   UNL A   1      33.936  33.899  33.242  1.00  0.00     0.202 C 
ENDROOT
BRANCH   1   2
ATOM      2  O   UNL A   1      32.843  34.592  32.621  1.00  0.00    -0.374 OA
BRANCH   2   3
ATOM      3  C   UNL A   1      33.107  35.946  32.245  1.00  0.00     0.202 C 
BRANCH   3   4
ATOM      4  C   UNL A   1      33.055  36.236  30.746  1.00  0.00     0.261 C 
BRANCH   4   5
ATOM      5  O   UNL A   1      32.544  35.100  30.037  1.00  0.00    -0.460 OA
BRANCH   5   6
ATOM      6  C   UNL A   1      33.161  34.382  29.071  1.00  0.00     0.338 C 
ATOM      7  O   UNL A   1      32.578  34.198  28.005  1.00  0.00    -0.246 OA
BRANCH   6   8
ATOM      8  C   UNL A   1      34.525  33.798  29.232  1.00  0.00     0.060 A 
ATOM      9  C   UNL A   1      35.657  34.216  28.529  1.00  0.00     0.016 A 
ATOM     10  C   UNL A   1      34.691  32.836  30.242  1.00  0.00     0.016 A 
ATOM     11  C   UNL A   1      36.904  33.655  28.763  1.00  0.00     0.010 A 
ATOM     12  C   UNL A   1      35.953  32.307  30.526  1.00  0.00     0.010 A 
ATOM     13  C   UNL A   1      37.062  32.713  29.776  1.00  0.00    -0.014 A 
BRANCH  13  14
ATOM     14  C   UNL A   1      38.405  32.152  29.999  1.00  0.00     0.031 A 
ATOM     15  C   UNL A   1      39.357  32.889  30.886  1.00  0.00     0.074 A 
ATOM     16  C   UNL A   1      38.700  30.938  29.500  1.00  0.00     0.049 A 
ATOM     17  N   UNL A   1      40.591  32.598  31.191  1.00  0.00    -0.248 NA
ATOM     18  C   UNL A   1      38.845  34.110  31.532  1.00  0.00     0.031 C 
ATOM     19  C   UNL A   1      37.780  30.104  28.719  1.00  0.00     0.029 A 
ATOM     20  N   UNL A   1      39.833  30.177  29.600  1.00  0.00    -0.354 N 
ATOM     21  C   UNL A   1      41.012  33.606  32.046  1.00  0.00     0.074 A 
ATOM     22  C   UNL A   1      39.905  34.520  32.215  1.00  0.00     0.031 C 
ATOM     23  C   UNL A   1      38.378  28.936  28.439  1.00  0.00     0.029 A 
ATOM     24  C   UNL A   1      39.740  28.967  28.956  1.00  0.00     0.049 A 
ATOM     25  H   UNL A   1      40.638  30.469  30.086  1.00  0.00     0.167 HD
ATOM     26  C   UNL A   1      42.224  33.748  32.627  1.00  0.00     0.037 A 
ATOM     27  C   UNL A   1      40.670  28.009  28.782  1.00  0.00     0.037 A 
ATOM     28  C   UNL A   1      43.305  32.820  32.438  1.00  0.00     0.049 A 
ATOM     29  C   UNL A   1      42.037  28.241  29.362  1.00  0.00     0.074 A 
ATOM     30  C   UNL A   1      44.600  32.894  32.914  1.00  0.00     0.029 A 
ATOM     31  N   UNL A   1      43.205  31.641  31.712  1.00  0.00    -0.354 N 
ATOM     32  N   UNL A   1      42.456  29.237  30.106  1.00  0.00    -0.248 NA
ATOM     33  C   UNL A   1      43.066  27.238  29.062  1.00  0.00     0.031 C 
ATOM     34  C   UNL A   1      45.295  31.775  32.445  1.00  0.00     0.029 A 
ATOM     35  C   UNL A   1      44.421  30.983  31.713  1.00  0.00     0.049 A 
ATOM     36  H   UNL A   1      42.389  31.320  31.263  1.00  0.00     0.167 HD
ATOM     37  C   UNL A   1      43.795  28.982  30.365  1.00  0.00     0.074 A 
ATOM     38  C   UNL A   1      44.111  27.723  29.720  1.00  0.00     0.031 C 
ATOM     39  C   UNL A   1      44.688  29.726  31.063  1.00  0.00     0.037 A 
BRANCH  26  40
ATOM     40  C   UNL A   1      42.450  34.969  33.464  1.00  0.00     0.057 A 
ATOM     41  C   UNL A   1      43.018  36.118  32.901  1.00  0.00     0.134 A 
ATOM     42  C   UNL A   1      42.122  35.008  34.824  1.00  0.00     0.134 A 
ATOM     43  F   UNL A   1      43.347  36.148  31.600  1.00  0.00    -0.206 F 
ATOM     44  C   UNL A   1      43.261  37.261  33.663  1.00  0.00     0.040 A 
ATOM     45  C   UNL A   1      42.344  36.152  35.595  1.00  0.00     0.040 A 
ATOM     46  F   UNL A   1      41.550  33.948  35.416  1.00  0.00    -0.206 F 
ATOM     47  C   UNL A   1      42.921  37.280  35.015  1.00  0.00     0.006 A 
ENDBRANCH  26  40
BRANCH  27  48
ATOM     48  C   UNL A   1      40.353  26.790  27.993  1.00  0.00     0.057 A 
ATOM     49  C   UNL A   1      40.826  26.624  26.684  1.00  0.00     0.134 A 
ATOM     50  C   UNL A   1      39.566  25.762  28.522  1.00  0.00     0.134 A 
ATOM     51  F   UNL A   1      41.588  27.570  26.115  1.00  0.00    -0.206 F 
ATOM     52  C   UNL A   1      40.513  25.496  25.925  1.00  0.00     0.040 A 
ATOM     53  C   UNL A   1      39.266  24.613  27.784  1.00  0.00     0.040 A 
ATOM     54  F   UNL A   1      39.097  25.847  29.777  1.00  0.00    -0.206 F 
ATOM     55  C   UNL A   1      39.734  24.482  26.478  1.00  0.00     0.006 A 
ENDBRANCH  27  48
BRANCH  39  56
ATOM     56  C   UNL A   1      46.082  29.192  31.170  1.00  0.00     0.057 A 
ATOM     57  C   UNL A   1      47.007  29.404  30.142  1.00  0.00     0.134 A 
ATOM     58  C   UNL A   1      46.474  28.390  32.249  1.00  0.00     0.134 A 
ATOM     59  F   UNL A   1      46.684  30.155  29.078  1.00  0.00    -0.206 F 
ATOM     60  C   UNL A   1      48.273  28.821  30.173  1.00  0.00     0.040 A 
ATOM     61  C   UNL A   1      47.745  27.819  32.301  1.00  0.00     0.040 A 
ATOM     62  F   UNL A   1      45.632  28.161  33.268  1.00  0.00    -0.206 F 
ATOM     63  C   UNL A   1      48.644  28.025  31.255  1.00  0.00     0.006 A 
ENDBRANCH  39  56
ENDBRANCH  13  14
ENDBRANCH   6   8
ENDBRANCH   5   6
ENDBRANCH   4   5
ENDBRANCH   3   4
ENDBRANCH   2   3
ENDBRANCH   1   2
BRANCH   1  64
ATOM     64  C   UNL A   1      35.091  34.873  33.503  1.00  0.00     0.261 C 
BRANCH  64  65
ATOM     65  O   UNL A   1      36.305  34.112  33.632  1.00  0.00    -0.460 OA
BRANCH  65  66
ATOM     66  C   UNL A   1      36.535  33.640  34.880  1.00  0.00     0.338 C 
ATOM     67  O   UNL A   1      35.898  33.850  35.897  1.00  0.00    -0.246 OA
BRANCH  66  68
ATOM     68  C   UNL A   1      37.535  32.569  34.752  1.00  0.00     0.063 A 
ATOM     69  C   UNL A   1      37.404  31.529  33.833  1.00  0.00     0.017 A 
ATOM     70  C   UNL A   1      38.598  32.590  35.657  1.00  0.00     0.056 A 
ATOM     71  C   UNL A   1      38.403  30.554  33.770  1.00  0.00     0.024 A 
ATOM     72  C   UNL A   1      39.505  31.544  35.676  1.00  0.00     0.142 A 
ATOM     73  C   UNL A   1      39.473  30.585  34.680  1.00  0.00     0.103 A 
ATOM     74  F   UNL A   1      40.394  31.499  36.675  1.00  0.00    -0.206 F 
BRANCH  73  75
ATOM     75  S   UNL A   1      40.802  29.446  34.459  1.00  0.00     0.188 S 
ATOM     76  O   UNL A   1      40.289  28.478  33.501  1.00  0.00    -0.223 OA
ATOM     77  O   UNL A   1      41.962  30.246  34.098  1.00  0.00    -0.223 OA
BRANCH  75  78
ATOM     78  C   UNL A   1      41.175  28.558  35.930  1.00  0.00     0.219 C 
BRANCH  78  79
ATOM     79  C   UNL A   1      42.560  27.993  35.928  1.00  0.00     0.143 A 
ATOM     80  N   UNL A   1      42.791  26.961  35.091  1.00  0.00    -0.240 NA
ATOM     81  N   UNL A   1      43.410  28.336  36.913  1.00  0.00    -0.240 NA
ATOM     82  C   UNL A   1      43.937  26.273  35.266  1.00  0.00     0.115 A 
ATOM     83  C   UNL A   1      44.532  27.607  37.062  1.00  0.00     0.115 A 
ATOM     84  C   UNL A   1      44.847  26.545  36.258  1.00  0.00     0.040 A 
ENDBRANCH  78  79
ENDBRANCH  75  78
ENDBRANCH  73  75
ENDBRANCH  66  68
ENDBRANCH  65  66
ENDBRANCH  64  65
ENDBRANCH   1  64
TORSDOF 17
ENDMDL
