MODEL 1
REMARK VINA RESULT:     -11.5      0.000      0.000
REMARK SMILES CN(c1ccc(C(=O)OCCOCCOC(=O)c2ccc(-c3c4nc(c(-c5c(F)cccc5F)c5ccc([nH]5)c(-c5c(F)cccc5F)c5nc(c(-c6c(F)cccc6F)c6ccc3[nH]6)C=C5)C=C4)cc2)c(F)c1F)[C@H]1C[C@H]2CC[C@@H](C1)[NH2+]2
REMARK SMILES IDX 12 1 11 2 10 3 9 4 7 5 8 6 6 7 3 8 4 9 74 10 5 11 72 12
REMARK SMILES IDX 75 13 73 14 2 15 1 16 76 17 77 18 82 19 78 20 81 21 79 22
REMARK SMILES IDX 83 23 80 24 13 27 14 28 15 29 16 30 17 31 18 32 19 33 71 34
REMARK SMILES IDX 20 35 70 36 21 37 22 38 23 39 64 40 24 41 69 42 63 43 65 44
REMARK SMILES IDX 25 45 68 46 62 47 61 48 26 50 52 51 35 52 51 53 36 54 39 55
REMARK SMILES IDX 50 56 66 57 37 58 38 59 49 61 67 62 40 63 27 64 28 65 33 66
REMARK SMILES IDX 29 67 30 68 32 69 34 70 31 71 53 72 54 73 59 74 55 75 56 76
REMARK SMILES IDX 58 77 60 78 57 79 41 80 42 81 47 82 43 83 44 84 46 85 48 86
REMARK SMILES IDX 45 87
REMARK H PARENT 83 25 83 26 65 49 39 60
REMARK Flexibility Score: inf
ROOT
ATOM      1  O   UNL A   1      43.823  19.875  24.457  1.00  0.00    -0.374 OA
ENDROOT
BRANCH   1   2
ATOM      2  C   UNL A   1      43.704  18.895  25.488  1.00  0.00     0.202 C 
BRANCH   2   3
ATOM      3  C   UNL A   1      42.339  18.796  26.175  1.00  0.00     0.261 C 
BRANCH   3   4
ATOM      4  O   UNL A   1      41.419  19.753  25.624  1.00  0.00    -0.460 OA
BRANCH   4   5
ATOM      5  C   UNL A   1      40.954  20.663  26.508  1.00  0.00     0.341 C 
ATOM      6  O   UNL A   1      41.582  21.221  27.393  1.00  0.00    -0.246 OA
BRANCH   5   7
ATOM      7  C   UNL A   1      39.593  21.081  26.148  1.00  0.00     0.099 A 
ATOM      8  C   UNL A   1      37.101  21.872  25.116  1.00  0.00     0.076 A 
ATOM      9  C   UNL A   1      37.586  20.574  24.897  1.00  0.00     0.030 A 
ATOM     10  C   UNL A   1      37.839  22.714  25.973  1.00  0.00     0.182 A 
ATOM     11  C   UNL A   1      38.831  20.186  25.387  1.00  0.00     0.021 A 
ATOM     12  C   UNL A   1      39.076  22.324  26.484  1.00  0.00     0.175 A 
ATOM     13  F   UNL A   1      37.382  23.943  26.264  1.00  0.00    -0.201 F 
ATOM     14  F   UNL A   1      39.780  23.185  27.233  1.00  0.00    -0.203 F 
BRANCH   8  15
ATOM     15  N   UNL A   1      35.979  22.279  24.373  1.00  0.00    -0.369 N 
ATOM     16  C   UNL A   1      36.335  22.885  23.091  1.00  0.00     0.144 C 
BRANCH  15  17
ATOM     17  C   UNL A   1      34.730  21.470  24.494  1.00  0.00     0.093 C 
ATOM     18  C   UNL A   1      34.337  21.199  25.975  1.00  0.00     0.090 C 
ATOM     19  C   UNL A   1      33.518  22.091  23.762  1.00  0.00     0.090 C 
ATOM     20  C   UNL A   1      33.465  22.292  26.611  1.00  0.00     0.184 C 
ATOM     21  C   UNL A   1      32.716  23.099  24.604  1.00  0.00     0.184 C 
ATOM     22  C   UNL A   1      34.050  23.699  26.525  1.00  0.00     0.071 C 
ATOM     23  N   UNL A   1      32.235  22.437  25.823  1.00  0.00    -0.341 N 
ATOM     24  C   UNL A   1      33.553  24.237  25.183  1.00  0.00     0.071 C 
ATOM     25  H   UNL A   1      31.550  23.014  26.311  1.00  0.00     0.346 HD
ATOM     26  H   UNL A   1      31.761  21.552  25.645  1.00  0.00     0.346 HD
ENDBRANCH  15  17
ENDBRANCH   8  15
ENDBRANCH   5   7
ENDBRANCH   4   5
ENDBRANCH   3   4
ENDBRANCH   2   3
ENDBRANCH   1   2
BRANCH   1  27
ATOM     27  C   UNL A   1      44.842  20.865  24.603  1.00  0.00     0.202 C 
BRANCH  27  28
ATOM     28  C   UNL A   1      44.639  21.911  25.705  1.00  0.00     0.261 C 
BRANCH  28  29
ATOM     29  O   UNL A   1      43.763  22.975  25.293  1.00  0.00    -0.460 OA
BRANCH  29  30
ATOM     30  C   UNL A   1      44.320  24.210  25.324  1.00  0.00     0.338 C 
ATOM     31  O   UNL A   1      45.227  24.632  24.628  1.00  0.00    -0.246 OA
BRANCH  30  32
ATOM     32  C   UNL A   1      43.549  25.086  26.228  1.00  0.00     0.060 A 
ATOM     33  C   UNL A   1      43.951  26.424  26.328  1.00  0.00     0.016 A 
ATOM     34  C   UNL A   1      42.509  24.595  27.019  1.00  0.00     0.016 A 
ATOM     35  C   UNL A   1      43.343  27.267  27.254  1.00  0.00     0.010 A 
ATOM     36  C   UNL A   1      41.906  25.441  27.956  1.00  0.00     0.010 A 
ATOM     37  C   UNL A   1      42.344  26.771  28.100  1.00  0.00    -0.014 A 
BRANCH  37  38
ATOM     38  C   UNL A   1      41.857  27.607  29.224  1.00  0.00     0.031 A 
ATOM     39  C   UNL A   1      42.567  27.540  30.547  1.00  0.00     0.074 A 
ATOM     40  C   UNL A   1      40.812  28.437  29.059  1.00  0.00     0.049 A 
ATOM     41  N   UNL A   1      42.296  28.160  31.666  1.00  0.00    -0.248 NA
ATOM     42  C   UNL A   1      43.741  26.655  30.617  1.00  0.00     0.031 C 
ATOM     43  C   UNL A   1      40.064  28.617  27.817  1.00  0.00     0.029 A 
ATOM     44  N   UNL A   1      40.197  29.281  29.950  1.00  0.00    -0.354 N 
ATOM     45  C   UNL A   1      43.261  27.739  32.574  1.00  0.00     0.074 A 
ATOM     46  C   UNL A   1      44.105  26.788  31.884  1.00  0.00     0.031 C 
ATOM     47  C   UNL A   1      39.082  29.510  28.026  1.00  0.00     0.029 A 
ATOM     48  C   UNL A   1      39.115  29.941  29.423  1.00  0.00     0.049 A 
ATOM     49  H   UNL A   1      40.504  29.401  30.878  1.00  0.00     0.167 HD
ATOM     50  C   UNL A   1      43.432  28.118  33.863  1.00  0.00     0.037 A 
ATOM     51  C   UNL A   1      38.238  30.778  30.009  1.00  0.00     0.037 A 
ATOM     52  C   UNL A   1      42.593  29.065  34.549  1.00  0.00     0.049 A 
ATOM     53  C   UNL A   1      38.407  31.128  31.464  1.00  0.00     0.074 A 
ATOM     54  C   UNL A   1      42.700  29.530  35.847  1.00  0.00     0.029 A 
ATOM     55  N   UNL A   1      41.485  29.684  33.993  1.00  0.00    -0.354 N 
ATOM     56  N   UNL A   1      39.339  30.746  32.304  1.00  0.00    -0.248 NA
ATOM     57  C   UNL A   1      37.402  32.026  32.051  1.00  0.00     0.031 C 
ATOM     58  C   UNL A   1      41.629  30.396  36.091  1.00  0.00     0.029 A 
ATOM     59  C   UNL A   1      40.883  30.508  34.930  1.00  0.00     0.049 A 
ATOM     60  H   UNL A   1      41.172  29.558  33.067  1.00  0.00     0.167 HD
ATOM     61  C   UNL A   1      39.047  31.375  33.509  1.00  0.00     0.074 A 
ATOM     62  C   UNL A   1      37.860  32.175  33.286  1.00  0.00     0.031 C 
ATOM     63  C   UNL A   1      39.703  31.299  34.692  1.00  0.00     0.037 A 
BRANCH  50  64
ATOM     64  C   UNL A   1      44.561  27.488  34.624  1.00  0.00     0.057 A 
ATOM     65  C   UNL A   1      44.405  26.279  35.314  1.00  0.00     0.134 A 
ATOM     66  C   UNL A   1      45.829  28.082  34.639  1.00  0.00     0.134 A 
ATOM     67  F   UNL A   1      43.212  25.666  35.351  1.00  0.00    -0.206 F 
ATOM     68  C   UNL A   1      45.465  25.694  36.009  1.00  0.00     0.040 A 
ATOM     69  C   UNL A   1      46.903  27.494  35.310  1.00  0.00     0.040 A 
ATOM     70  F   UNL A   1      46.048  29.239  33.995  1.00  0.00    -0.206 F 
ATOM     71  C   UNL A   1      46.720  26.299  36.002  1.00  0.00     0.006 A 
ENDBRANCH  50  64
BRANCH  51  72
ATOM     72  C   UNL A   1      37.107  31.336  29.227  1.00  0.00     0.057 A 
ATOM     73  C   UNL A   1      35.979  30.563  28.929  1.00  0.00     0.134 A 
ATOM     74  C   UNL A   1      37.137  32.648  28.738  1.00  0.00     0.134 A 
ATOM     75  F   UNL A   1      35.904  29.291  29.347  1.00  0.00    -0.206 F 
ATOM     76  C   UNL A   1      34.930  31.068  28.158  1.00  0.00     0.040 A 
ATOM     77  C   UNL A   1      36.085  33.174  27.989  1.00  0.00     0.040 A 
ATOM     78  F   UNL A   1      38.191  33.439  28.989  1.00  0.00    -0.206 F 
ATOM     79  C   UNL A   1      34.979  32.381  27.691  1.00  0.00     0.006 A 
ENDBRANCH  51  72
BRANCH  63  80
ATOM     80  C   UNL A   1      39.170  32.122  35.830  1.00  0.00     0.057 A 
ATOM     81  C   UNL A   1      39.544  33.459  36.013  1.00  0.00     0.134 A 
ATOM     82  C   UNL A   1      38.242  31.580  36.729  1.00  0.00     0.134 A 
ATOM     83  F   UNL A   1      40.438  34.034  35.194  1.00  0.00    -0.206 F 
ATOM     84  C   UNL A   1      39.029  34.221  37.063  1.00  0.00     0.040 A 
ATOM     85  C   UNL A   1      37.701  32.339  37.766  1.00  0.00     0.040 A 
ATOM     86  F   UNL A   1      37.836  30.307  36.604  1.00  0.00    -0.206 F 
ATOM     87  C   UNL A   1      38.099  33.664  37.938  1.00  0.00     0.006 A 
ENDBRANCH  63  80
ENDBRANCH  37  38
ENDBRANCH  30  32
ENDBRANCH  29  30
ENDBRANCH  28  29
ENDBRANCH  27  28
ENDBRANCH   1  27
TORSDOF 16
ENDMDL
MODEL 2
REMARK VINA RESULT:     -11.4      1.536      2.739
REMARK SMILES CN(c1ccc(C(=O)OCCOCCOC(=O)c2ccc(-c3c4nc(c(-c5c(F)cccc5F)c5ccc([nH]5)c(-c5c(F)cccc5F)c5nc(c(-c6c(F)cccc6F)c6ccc3[nH]6)C=C5)C=C4)cc2)c(F)c1F)[C@H]1C[C@H]2CC[C@@H](C1)[NH2+]2
REMARK SMILES IDX 12 1 11 2 10 3 9 4 7 5 8 6 6 7 3 8 4 9 74 10 5 11 72 12
REMARK SMILES IDX 75 13 73 14 2 15 1 16 76 17 77 18 82 19 78 20 81 21 79 22
REMARK SMILES IDX 83 23 80 24 13 27 14 28 15 29 16 30 17 31 18 32 19 33 71 34
REMARK SMILES IDX 20 35 70 36 21 37 22 38 23 39 64 40 24 41 69 42 63 43 65 44
REMARK SMILES IDX 25 45 68 46 62 47 61 48 26 50 52 51 35 52 51 53 36 54 39 55
REMARK SMILES IDX 50 56 66 57 37 58 38 59 49 61 67 62 40 63 27 64 28 65 33 66
REMARK SMILES IDX 29 67 30 68 32 69 34 70 31 71 53 72 54 73 59 74 55 75 56 76
REMARK SMILES IDX 58 77 60 78 57 79 41 80 42 81 47 82 43 83 44 84 46 85 48 86
REMARK SMILES IDX 45 87
REMARK H PARENT 83 25 83 26 65 49 39 60
REMARK Flexibility Score: inf
ROOT
ATOM      1  O   UNL A   1      42.074  21.199  27.298  1.00  0.00    -0.374 OA
ENDROOT
BRANCH   1   2
ATOM      2  C   UNL A   1      40.700  21.588  27.318  1.00  0.00     0.202 C 
BRANCH   2   3
ATOM      3  C   UNL A   1      39.846  21.121  26.136  1.00  0.00     0.261 C 
BRANCH   3   4
ATOM      4  O   UNL A   1      38.707  21.977  25.959  1.00  0.00    -0.460 OA
BRANCH   4   5
ATOM      5  C   UNL A   1      37.751  21.484  25.140  1.00  0.00     0.341 C 
ATOM      6  O   UNL A   1      37.720  20.380  24.623  1.00  0.00    -0.246 OA
BRANCH   5   7
ATOM      7  C   UNL A   1      36.596  22.391  25.094  1.00  0.00     0.099 A 
ATOM      8  C   UNL A   1      34.190  23.842  25.113  1.00  0.00     0.076 A 
ATOM      9  C   UNL A   1      34.765  23.397  26.312  1.00  0.00     0.030 A 
ATOM     10  C   UNL A   1      34.920  23.652  23.922  1.00  0.00     0.182 A 
ATOM     11  C   UNL A   1      35.945  22.657  26.305  1.00  0.00     0.021 A 
ATOM     12  C   UNL A   1      36.112  22.930  23.910  1.00  0.00     0.175 A 
ATOM     13  F   UNL A   1      34.439  24.117  22.757  1.00  0.00    -0.201 F 
ATOM     14  F   UNL A   1      36.736  22.707  22.744  1.00  0.00    -0.203 F 
BRANCH   8  15
ATOM     15  N   UNL A   1      32.875  24.338  25.169  1.00  0.00    -0.369 N 
ATOM     16  C   UNL A   1      31.865  23.288  25.046  1.00  0.00     0.144 C 
BRANCH  15  17
ATOM     17  C   UNL A   1      32.614  25.527  26.034  1.00  0.00     0.093 C 
ATOM     18  C   UNL A   1      33.607  26.693  25.759  1.00  0.00     0.090 C 
ATOM     19  C   UNL A   1      31.168  26.066  25.924  1.00  0.00     0.090 C 
ATOM     20  C   UNL A   1      33.169  27.649  24.639  1.00  0.00     0.184 C 
ATOM     21  C   UNL A   1      30.956  27.085  24.792  1.00  0.00     0.184 C 
ATOM     22  C   UNL A   1      32.859  26.967  23.310  1.00  0.00     0.071 C 
ATOM     23  N   UNL A   1      31.864  28.222  24.988  1.00  0.00    -0.341 N 
ATOM     24  C   UNL A   1      31.381  26.587  23.412  1.00  0.00     0.071 C 
ATOM     25  H   UNL A   1      31.624  28.997  24.368  1.00  0.00     0.346 HD
ATOM     26  H   UNL A   1      31.830  28.612  25.929  1.00  0.00     0.346 HD
ENDBRANCH  15  17
ENDBRANCH   8  15
ENDBRANCH   5   7
ENDBRANCH   4   5
ENDBRANCH   3   4
ENDBRANCH   2   3
ENDBRANCH   1   2
BRANCH   1  27
ATOM     27  C   UNL A   1      42.642  20.847  26.036  1.00  0.00     0.202 C 
BRANCH  27  28
ATOM     28  C   UNL A   1      43.655  21.827  25.433  1.00  0.00     0.261 C 
BRANCH  28  29
ATOM     29  O   UNL A   1      43.025  23.012  24.915  1.00  0.00    -0.460 OA
BRANCH  29  30
ATOM     30  C   UNL A   1      43.747  24.149  25.070  1.00  0.00     0.338 C 
ATOM     31  O   UNL A   1      44.756  24.474  24.468  1.00  0.00    -0.246 OA
BRANCH  30  32
ATOM     32  C   UNL A   1      43.041  25.073  25.978  1.00  0.00     0.060 A 
ATOM     33  C   UNL A   1      43.604  26.339  26.176  1.00  0.00     0.016 A 
ATOM     34  C   UNL A   1      41.897  24.685  26.680  1.00  0.00     0.016 A 
ATOM     35  C   UNL A   1      43.053  27.208  27.114  1.00  0.00     0.010 A 
ATOM     36  C   UNL A   1      41.351  25.556  27.628  1.00  0.00     0.010 A 
ATOM     37  C   UNL A   1      41.947  26.808  27.873  1.00  0.00    -0.014 A 
BRANCH  37  38
ATOM     38  C   UNL A   1      41.502  27.644  29.013  1.00  0.00     0.031 A 
ATOM     39  C   UNL A   1      42.240  27.553  30.320  1.00  0.00     0.074 A 
ATOM     40  C   UNL A   1      40.470  28.496  28.878  1.00  0.00     0.049 A 
ATOM     41  N   UNL A   1      42.006  28.169  31.449  1.00  0.00    -0.248 NA
ATOM     42  C   UNL A   1      43.397  26.644  30.356  1.00  0.00     0.031 C 
ATOM     43  C   UNL A   1      39.698  28.701  27.654  1.00  0.00     0.029 A 
ATOM     44  N   UNL A   1      39.892  29.345  29.789  1.00  0.00    -0.354 N 
ATOM     45  C   UNL A   1      42.982  27.722  32.332  1.00  0.00     0.074 A 
ATOM     46  C   UNL A   1      43.791  26.760  31.616  1.00  0.00     0.031 C 
ATOM     47  C   UNL A   1      38.739  29.611  27.893  1.00  0.00     0.029 A 
ATOM     48  C   UNL A   1      38.812  30.030  29.291  1.00  0.00     0.049 A 
ATOM     49  H   UNL A   1      40.222  29.451  30.710  1.00  0.00     0.167 HD
ATOM     50  C   UNL A   1      43.189  28.087  33.620  1.00  0.00     0.037 A 
ATOM     51  C   UNL A   1      37.965  30.880  29.903  1.00  0.00     0.037 A 
ATOM     52  C   UNL A   1      42.385  29.045  34.331  1.00  0.00     0.049 A 
ATOM     53  C   UNL A   1      38.173  31.214  31.356  1.00  0.00     0.074 A 
ATOM     54  C   UNL A   1      42.531  29.497  35.630  1.00  0.00     0.029 A 
ATOM     55  N   UNL A   1      41.277  29.691  33.805  1.00  0.00    -0.354 N 
ATOM     56  N   UNL A   1      39.116  30.808  32.173  1.00  0.00    -0.248 NA
ATOM     57  C   UNL A   1      37.199  32.127  31.973  1.00  0.00     0.031 C 
ATOM     58  C   UNL A   1      41.483  30.383  35.905  1.00  0.00     0.029 A 
ATOM     59  C   UNL A   1      40.713  30.518  34.761  1.00  0.00     0.049 A 
ATOM     60  H   UNL A   1      40.941  29.578  32.885  1.00  0.00     0.167 HD
ATOM     61  C   UNL A   1      38.863  31.433  33.388  1.00  0.00     0.074 A 
ATOM     62  C   UNL A   1      37.688  32.257  33.198  1.00  0.00     0.031 C 
ATOM     63  C   UNL A   1      39.544  31.334  34.556  1.00  0.00     0.037 A 
BRANCH  50  64
ATOM     64  C   UNL A   1      44.323  27.429  34.350  1.00  0.00     0.057 A 
ATOM     65  C   UNL A   1      45.604  27.993  34.391  1.00  0.00     0.134 A 
ATOM     66  C   UNL A   1      44.121  26.232  35.047  1.00  0.00     0.134 A 
ATOM     67  F   UNL A   1      45.866  29.132  33.732  1.00  0.00    -0.206 F 
ATOM     68  C   UNL A   1      46.649  27.380  35.084  1.00  0.00     0.040 A 
ATOM     69  C   UNL A   1      45.152  25.622  35.765  1.00  0.00     0.040 A 
ATOM     70  F   UNL A   1      42.917  25.640  35.052  1.00  0.00    -0.206 F 
ATOM     71  C   UNL A   1      46.422  26.194  35.779  1.00  0.00     0.006 A 
ENDBRANCH  50  64
BRANCH  51  72
ATOM     72  C   UNL A   1      36.828  31.466  29.151  1.00  0.00     0.057 A 
ATOM     73  C   UNL A   1      35.704  30.701  28.822  1.00  0.00     0.134 A 
ATOM     74  C   UNL A   1      36.850  32.799  28.721  1.00  0.00     0.134 A 
ATOM     75  F   UNL A   1      35.636  29.411  29.183  1.00  0.00    -0.206 F 
ATOM     76  C   UNL A   1      34.649  31.234  28.079  1.00  0.00     0.040 A 
ATOM     77  C   UNL A   1      35.792  33.352  28.000  1.00  0.00     0.040 A 
ATOM     78  F   UNL A   1      37.900  33.584  29.004  1.00  0.00    -0.206 F 
ATOM     79  C   UNL A   1      34.689  32.567  27.671  1.00  0.00     0.006 A 
ENDBRANCH  51  72
BRANCH  63  80
ATOM     80  C   UNL A   1      39.053  32.158  35.712  1.00  0.00     0.057 A 
ATOM     81  C   UNL A   1      38.213  31.623  36.696  1.00  0.00     0.134 A 
ATOM     82  C   UNL A   1      39.458  33.491  35.861  1.00  0.00     0.134 A 
ATOM     83  F   UNL A   1      37.779  30.357  36.605  1.00  0.00    -0.206 F 
ATOM     84  C   UNL A   1      37.776  32.391  37.777  1.00  0.00     0.040 A 
ATOM     85  C   UNL A   1      39.049  34.261  36.950  1.00  0.00     0.040 A 
ATOM     86  F   UNL A   1      40.269  34.062  34.958  1.00  0.00    -0.206 F 
ATOM     87  C   UNL A   1      38.201  33.712  37.910  1.00  0.00     0.006 A 
ENDBRANCH  63  80
ENDBRANCH  37  38
ENDBRANCH  30  32
ENDBRANCH  29  30
ENDBRANCH  28  29
ENDBRANCH  27  28
ENDBRANCH   1  27
TORSDOF 16
ENDMDL
MODEL 3
REMARK VINA RESULT:     -11.1      5.248     10.589
REMARK SMILES CN(c1ccc(C(=O)OCCOCCOC(=O)c2ccc(-c3c4nc(c(-c5c(F)cccc5F)c5ccc([nH]5)c(-c5c(F)cccc5F)c5nc(c(-c6c(F)cccc6F)c6ccc3[nH]6)C=C5)C=C4)cc2)c(F)c1F)[C@H]1C[C@H]2CC[C@@H](C1)[NH2+]2
REMARK SMILES IDX 12 1 11 2 10 3 9 4 7 5 8 6 6 7 3 8 4 9 74 10 5 11 72 12
REMARK SMILES IDX 75 13 73 14 2 15 1 16 76 17 77 18 82 19 78 20 81 21 79 22
REMARK SMILES IDX 83 23 80 24 13 27 14 28 15 29 16 30 17 31 18 32 19 33 71 34
REMARK SMILES IDX 20 35 70 36 21 37 22 38 23 39 64 40 24 41 69 42 63 43 65 44
REMARK SMILES IDX 25 45 68 46 62 47 61 48 26 50 52 51 35 52 51 53 36 54 39 55
REMARK SMILES IDX 50 56 66 57 37 58 38 59 49 61 67 62 40 63 27 64 28 65 33 66
REMARK SMILES IDX 29 67 30 68 32 69 34 70 31 71 53 72 54 73 59 74 55 75 56 76
REMARK SMILES IDX 58 77 60 78 57 79 41 80 42 81 47 82 43 83 44 84 46 85 48 86
REMARK SMILES IDX 45 87
REMARK H PARENT 83 25 83 26 65 49 39 60
REMARK Flexibility Score: inf
ROOT
ATOM      1  O   UNL A   1      34.325  34.920  30.551  1.00  0.00    -0.374 OA
ENDROOT
BRANCH   1   2
ATOM      2  C   UNL A   1      33.240  34.906  29.624  1.00  0.00     0.202 C 
BRANCH   2   3
ATOM      3  C   UNL A   1      33.486  34.170  28.303  1.00  0.00     0.261 C 
BRANCH   3   4
ATOM      4  O   UNL A   1      33.577  32.753  28.517  1.00  0.00    -0.460 OA
BRANCH   4   5
ATOM      5  C   UNL A   1      34.499  32.124  27.754  1.00  0.00     0.341 C 
ATOM      6  O   UNL A   1      35.674  32.425  27.618  1.00  0.00    -0.246 OA
BRANCH   5   7
ATOM      7  C   UNL A   1      33.961  30.860  27.234  1.00  0.00     0.099 A 
ATOM      8  C   UNL A   1      33.190  28.460  25.991  1.00  0.00     0.076 A 
ATOM      9  C   UNL A   1      34.402  28.545  26.694  1.00  0.00     0.030 A 
ATOM     10  C   UNL A   1      32.321  29.570  26.042  1.00  0.00     0.182 A 
ATOM     11  C   UNL A   1      34.798  29.739  27.291  1.00  0.00     0.021 A 
ATOM     12  C   UNL A   1      32.703  30.762  26.656  1.00  0.00     0.175 A 
ATOM     13  F   UNL A   1      31.123  29.513  25.438  1.00  0.00    -0.201 F 
ATOM     14  F   UNL A   1      31.877  31.817  26.615  1.00  0.00    -0.203 F 
BRANCH   8  15
ATOM     15  N   UNL A   1      32.982  27.323  25.191  1.00  0.00    -0.369 N 
ATOM     16  C   UNL A   1      33.810  27.316  23.985  1.00  0.00     0.144 C 
BRANCH  15  17
ATOM     17  C   UNL A   1      32.652  26.038  25.876  1.00  0.00     0.093 C 
ATOM     18  C   UNL A   1      31.292  26.098  26.630  1.00  0.00     0.090 C 
ATOM     19  C   UNL A   1      32.643  24.816  24.927  1.00  0.00     0.090 C 
ATOM     20  C   UNL A   1      30.072  25.733  25.770  1.00  0.00     0.184 C 
ATOM     21  C   UNL A   1      31.296  24.566  24.228  1.00  0.00     0.184 C 
ATOM     22  C   UNL A   1      29.938  26.545  24.485  1.00  0.00     0.071 C 
ATOM     23  N   UNL A   1      30.253  24.375  25.242  1.00  0.00    -0.341 N 
ATOM     24  C   UNL A   1      30.758  25.767  23.455  1.00  0.00     0.071 C 
ATOM     25  H   UNL A   1      29.390  24.025  24.823  1.00  0.00     0.346 HD
ATOM     26  H   UNL A   1      30.499  23.692  25.957  1.00  0.00     0.346 HD
ENDBRANCH  15  17
ENDBRANCH   8  15
ENDBRANCH   5   7
ENDBRANCH   4   5
ENDBRANCH   3   4
ENDBRANCH   2   3
ENDBRANCH   1   2
BRANCH   1  27
ATOM     27  C   UNL A   1      34.006  35.021  31.939  1.00  0.00     0.202 C 
BRANCH  27  28
ATOM     28  C   UNL A   1      34.311  33.798  32.811  1.00  0.00     0.261 C 
BRANCH  28  29
ATOM     29  O   UNL A   1      35.186  32.864  32.155  1.00  0.00    -0.460 OA
BRANCH  29  30
ATOM     30  C   UNL A   1      36.122  32.304  32.961  1.00  0.00     0.338 C 
ATOM     31  O   UNL A   1      36.126  32.269  34.178  1.00  0.00    -0.246 OA
BRANCH  30  32
ATOM     32  C   UNL A   1      37.100  31.556  32.148  1.00  0.00     0.060 A 
ATOM     33  C   UNL A   1      38.095  30.843  32.830  1.00  0.00     0.016 A 
ATOM     34  C   UNL A   1      37.094  31.610  30.753  1.00  0.00     0.016 A 
ATOM     35  C   UNL A   1      39.117  30.220  32.120  1.00  0.00     0.010 A 
ATOM     36  C   UNL A   1      38.128  30.991  30.042  1.00  0.00     0.010 A 
ATOM     37  C   UNL A   1      39.161  30.322  30.724  1.00  0.00    -0.014 A 
BRANCH  37  38
ATOM     38  C   UNL A   1      40.361  29.846  29.994  1.00  0.00     0.031 A 
ATOM     39  C   UNL A   1      41.502  30.797  29.762  1.00  0.00     0.074 A 
ATOM     40  C   UNL A   1      40.445  28.573  29.569  1.00  0.00     0.049 A 
ATOM     41  N   UNL A   1      42.629  30.601  29.128  1.00  0.00    -0.248 NA
ATOM     42  C   UNL A   1      41.351  32.150  30.321  1.00  0.00     0.031 C 
ATOM     43  C   UNL A   1      39.422  27.548  29.764  1.00  0.00     0.029 A 
ATOM     44  N   UNL A   1      41.441  27.930  28.877  1.00  0.00    -0.354 N 
ATOM     45  C   UNL A   1      43.320  31.804  29.207  1.00  0.00     0.074 A 
ATOM     46  C   UNL A   1      42.473  32.732  29.924  1.00  0.00     0.031 C 
ATOM     47  C   UNL A   1      39.839  26.404  29.195  1.00  0.00     0.029 A 
ATOM     48  C   UNL A   1      41.143  26.626  28.571  1.00  0.00     0.049 A 
ATOM     49  H   UNL A   1      42.288  28.364  28.624  1.00  0.00     0.167 HD
ATOM     50  C   UNL A   1      44.552  32.105  28.732  1.00  0.00     0.037 A 
ATOM     51  C   UNL A   1      41.834  25.722  27.851  1.00  0.00     0.037 A 
ATOM     52  C   UNL A   1      45.395  31.181  28.020  1.00  0.00     0.049 A 
ATOM     53  C   UNL A   1      43.170  26.103  27.271  1.00  0.00     0.074 A 
ATOM     54  C   UNL A   1      46.669  31.386  27.520  1.00  0.00     0.029 A 
ATOM     55  N   UNL A   1      45.043  29.879  27.699  1.00  0.00    -0.354 N 
ATOM     56  N   UNL A   1      43.827  27.234  27.376  1.00  0.00    -0.248 NA
ATOM     57  C   UNL A   1      43.863  25.081  26.473  1.00  0.00     0.031 C 
ATOM     58  C   UNL A   1      47.069  30.221  26.855  1.00  0.00     0.029 A 
ATOM     59  C   UNL A   1      46.065  29.277  26.983  1.00  0.00     0.049 A 
ATOM     60  H   UNL A   1      44.193  29.447  27.943  1.00  0.00     0.167 HD
ATOM     61  C   UNL A   1      45.016  27.051  26.681  1.00  0.00     0.074 A 
ATOM     62  C   UNL A   1      44.998  25.696  26.170  1.00  0.00     0.031 C 
ATOM     63  C   UNL A   1      46.032  27.926  26.484  1.00  0.00     0.037 A 
BRANCH  50  64
ATOM     64  C   UNL A   1      45.055  33.501  28.950  1.00  0.00     0.057 A 
ATOM     65  C   UNL A   1      44.782  34.536  28.046  1.00  0.00     0.134 A 
ATOM     66  C   UNL A   1      45.794  33.822  30.095  1.00  0.00     0.134 A 
ATOM     67  F   UNL A   1      44.091  34.292  26.923  1.00  0.00    -0.206 F 
ATOM     68  C   UNL A   1      45.243  35.836  28.264  1.00  0.00     0.040 A 
ATOM     69  C   UNL A   1      46.240  35.123  30.337  1.00  0.00     0.040 A 
ATOM     70  F   UNL A   1      46.088  32.879  31.004  1.00  0.00    -0.206 F 
ATOM     71  C   UNL A   1      45.968  36.133  29.416  1.00  0.00     0.006 A 
ENDBRANCH  50  64
BRANCH  51  72
ATOM     72  C   UNL A   1      41.272  24.368  27.620  1.00  0.00     0.057 A 
ATOM     73  C   UNL A   1      40.262  24.153  26.676  1.00  0.00     0.134 A 
ATOM     74  C   UNL A   1      41.713  23.261  28.355  1.00  0.00     0.134 A 
ATOM     75  F   UNL A   1      39.779  25.179  25.959  1.00  0.00    -0.206 F 
ATOM     76  C   UNL A   1      39.699  22.891  26.482  1.00  0.00     0.040 A 
ATOM     77  C   UNL A   1      41.178  21.989  28.154  1.00  0.00     0.040 A 
ATOM     78  F   UNL A   1      42.678  23.402  29.277  1.00  0.00    -0.206 F 
ATOM     79  C   UNL A   1      40.162  21.802  27.220  1.00  0.00     0.006 A 
ENDBRANCH  51  72
BRANCH  63  80
ATOM     80  C   UNL A   1      47.221  27.437  25.707  1.00  0.00     0.057 A 
ATOM     81  C   UNL A   1      48.289  26.778  26.329  1.00  0.00     0.134 A 
ATOM     82  C   UNL A   1      47.278  27.594  24.316  1.00  0.00     0.134 A 
ATOM     83  F   UNL A   1      48.301  26.606  27.659  1.00  0.00    -0.206 F 
ATOM     84  C   UNL A   1      49.382  26.310  25.595  1.00  0.00     0.040 A 
ATOM     85  C   UNL A   1      48.352  27.110  23.570  1.00  0.00     0.040 A 
ATOM     86  F   UNL A   1      46.284  28.210  23.659  1.00  0.00    -0.206 F 
ATOM     87  C   UNL A   1      49.411  26.469  24.211  1.00  0.00     0.006 A 
ENDBRANCH  63  80
ENDBRANCH  37  38
ENDBRANCH  30  32
ENDBRANCH  29  30
ENDBRANCH  28  29
ENDBRANCH  27  28
ENDBRANCH   1  27
TORSDOF 16
ENDMDL
