MODEL 1
REMARK VINA RESULT:     -12.8      0.000      0.000
REMARK SMILES CS(=O)(=O)c1ccc(C2=NN(c3ccc(C(=O)OCCOCCOC(=O)c4ccc(-c5c6nc(c(-c7c(F)cccc7F)c7ccc([nH]7)c(-c7c(F)cccc7F)c7nc(c(-c8c(F)cccc8F)c8ccc5[nH]8)C=C7)C=C6)cc4)cc3)[C@H](c3cccs3)C2)cc1
REMARK SMILES IDX 20 1 19 2 18 3 16 4 17 5 15 6 12 7 13 8 82 9 14 10 81 11
REMARK SMILES IDX 11 12 9 13 10 14 89 15 83 16 8 17 5 18 6 19 91 20 7 21 90 22
REMARK SMILES IDX 2 23 1 24 3 25 4 26 84 27 85 28 88 29 86 30 87 31 21 32
REMARK SMILES IDX 22 33 23 34 24 35 25 36 26 37 27 38 28 39 80 40 29 41 79 42
REMARK SMILES IDX 30 43 31 44 32 45 73 46 33 47 78 48 72 49 74 50 34 51 77 52
REMARK SMILES IDX 71 53 70 54 35 56 61 57 44 58 60 59 45 60 48 61 59 62 75 63
REMARK SMILES IDX 46 64 47 65 58 67 76 68 49 69 36 70 37 71 42 72 38 73 39 74
REMARK SMILES IDX 41 75 43 76 40 77 62 78 63 79 68 80 64 81 65 82 67 83 69 84
REMARK SMILES IDX 66 85 50 86 51 87 56 88 52 89 53 90 55 91 57 92 54 93
REMARK H PARENT 74 55 48 66
REMARK Flexibility Score: inf
ROOT
ATOM      1  C   UNL A   1      41.879  19.207  25.751  1.00  0.00     0.202 C 
ENDROOT
BRANCH   1   2
ATOM      2  C   UNL A   1      41.048  20.025  26.743  1.00  0.00     0.261 C 
BRANCH   2   3
ATOM      3  O   UNL A   1      39.911  20.607  26.086  1.00  0.00    -0.460 OA
BRANCH   3   4
ATOM      4  C   UNL A   1      39.567  21.848  26.508  1.00  0.00     0.338 C 
ATOM      5  O   UNL A   1      40.231  22.585  27.222  1.00  0.00    -0.246 OA
BRANCH   4   6
ATOM      6  C   UNL A   1      38.278  22.262  25.900  1.00  0.00     0.060 A 
ATOM      7  C   UNL A   1      35.764  23.096  24.969  1.00  0.00     0.060 A 
ATOM      8  C   UNL A   1      36.582  23.983  25.675  1.00  0.00     0.029 A 
ATOM      9  C   UNL A   1      36.264  21.827  24.645  1.00  0.00     0.029 A 
ATOM     10  C   UNL A   1      37.828  23.565  26.149  1.00  0.00     0.018 A 
ATOM     11  C   UNL A   1      37.512  21.404  25.107  1.00  0.00     0.018 A 
BRANCH   7  12
ATOM     12  N   UNL A   1      34.419  23.385  24.729  1.00  0.00    -0.257 N 
ATOM     13  C   UNL A   1      32.807  24.772  24.675  1.00  0.00     0.071 C 
ATOM     14  N   UNL A   1      34.029  24.601  24.272  1.00  0.00    -0.176 NA
ATOM     15  C   UNL A   1      32.276  23.733  25.627  1.00  0.00     0.091 C 
ATOM     16  C   UNL A   1      33.422  22.720  25.584  1.00  0.00     0.154 C 
BRANCH  13  17
ATOM     17  C   UNL A   1      31.968  25.898  24.230  1.00  0.00    -0.002 A 
ATOM     18  C   UNL A   1      30.461  28.058  23.331  1.00  0.00     0.067 A 
ATOM     19  C   UNL A   1      31.854  28.102  23.234  1.00  0.00     0.021 A 
ATOM     20  C   UNL A   1      29.817  26.947  23.889  1.00  0.00     0.021 A 
ATOM     21  C   UNL A   1      32.607  27.019  23.688  1.00  0.00     0.011 A 
ATOM     22  C   UNL A   1      30.573  25.856  24.329  1.00  0.00     0.011 A 
BRANCH  18  23
ATOM     23  S   UNL A   1      29.511  29.466  22.806  1.00  0.00     0.175 S 
ATOM     24  C   UNL A   1      27.840  28.873  22.828  1.00  0.00     0.163 C 
ATOM     25  O   UNL A   1      29.875  29.739  21.426  1.00  0.00    -0.224 OA
ATOM     26  O   UNL A   1      29.638  30.486  23.826  1.00  0.00    -0.224 OA
ENDBRANCH  18  23
ENDBRANCH  13  17
BRANCH  16  27
ATOM     27  C   UNL A   1      33.077  21.316  25.132  1.00  0.00     0.030 A 
ATOM     28  C   UNL A   1      33.269  20.155  25.866  1.00  0.00     0.017 A 
ATOM     29  S   UNL A   1      32.516  20.952  23.554  1.00  0.00    -0.147 S 
ATOM     30  C   UNL A   1      32.984  18.977  25.122  1.00  0.00     0.012 A 
ATOM     31  C   UNL A   1      32.539  19.270  23.854  1.00  0.00     0.065 A 
ENDBRANCH  16  27
ENDBRANCH   7  12
ENDBRANCH   4   6
ENDBRANCH   3   4
ENDBRANCH   2   3
ENDBRANCH   1   2
BRANCH   1  32
ATOM     32  O   UNL A   1      43.008  19.881  25.193  1.00  0.00    -0.374 OA
BRANCH  32  33
ATOM     33  C   UNL A   1      43.356  21.143  25.767  1.00  0.00     0.202 C 
BRANCH  33  34
ATOM     34  C   UNL A   1      44.156  22.086  24.862  1.00  0.00     0.261 C 
BRANCH  34  35
ATOM     35  O   UNL A   1      43.482  23.346  24.682  1.00  0.00    -0.460 OA
BRANCH  35  36
ATOM     36  C   UNL A   1      44.207  24.434  25.031  1.00  0.00     0.338 C 
ATOM     37  O   UNL A   1      45.299  24.771  24.596  1.00  0.00    -0.246 OA
BRANCH  36  38
ATOM     38  C   UNL A   1      43.419  25.300  25.928  1.00  0.00     0.060 A 
ATOM     39  C   UNL A   1      43.851  26.622  26.092  1.00  0.00     0.016 A 
ATOM     40  C   UNL A   1      42.327  24.817  26.653  1.00  0.00     0.016 A 
ATOM     41  C   UNL A   1      43.230  27.451  27.023  1.00  0.00     0.010 A 
ATOM     42  C   UNL A   1      41.708  25.648  27.595  1.00  0.00     0.010 A 
ATOM     43  C   UNL A   1      42.180  26.956  27.809  1.00  0.00    -0.014 A 
BRANCH  43  44
ATOM     44  C   UNL A   1      41.690  27.757  28.956  1.00  0.00     0.031 A 
ATOM     45  C   UNL A   1      42.427  27.677  30.267  1.00  0.00     0.074 A 
ATOM     46  C   UNL A   1      40.633  28.579  28.825  1.00  0.00     0.049 A 
ATOM     47  N   UNL A   1      42.161  28.264  31.406  1.00  0.00    -0.248 NA
ATOM     48  C   UNL A   1      43.627  26.825  30.294  1.00  0.00     0.031 C 
ATOM     49  C   UNL A   1      39.869  28.785  27.597  1.00  0.00     0.029 A 
ATOM     50  N   UNL A   1      40.023  29.397  29.744  1.00  0.00    -0.354 N 
ATOM     51  C   UNL A   1      43.162  27.859  32.280  1.00  0.00     0.074 A 
ATOM     52  C   UNL A   1      44.019  26.948  31.553  1.00  0.00     0.031 C 
ATOM     53  C   UNL A   1      38.884  29.667  27.840  1.00  0.00     0.029 A 
ATOM     54  C   UNL A   1      38.932  30.066  29.246  1.00  0.00     0.049 A 
ATOM     55  H   UNL A   1      40.337  29.493  30.671  1.00  0.00     0.167 HD
ATOM     56  C   UNL A   1      43.358  28.224  33.569  1.00  0.00     0.037 A 
ATOM     57  C   UNL A   1      38.063  30.889  29.863  1.00  0.00     0.037 A 
ATOM     58  C   UNL A   1      42.504  29.123  34.299  1.00  0.00     0.049 A 
ATOM     59  C   UNL A   1      38.251  31.205  31.323  1.00  0.00     0.074 A 
ATOM     60  C   UNL A   1      42.608  29.535  35.616  1.00  0.00     0.029 A 
ATOM     61  N   UNL A   1      41.387  29.750  33.769  1.00  0.00    -0.354 N 
ATOM     62  N   UNL A   1      39.201  30.816  32.140  1.00  0.00    -0.248 NA
ATOM     63  C   UNL A   1      37.245  32.076  31.949  1.00  0.00     0.031 C 
ATOM     64  C   UNL A   1      41.534  30.387  35.893  1.00  0.00     0.029 A 
ATOM     65  C   UNL A   1      40.786  30.538  34.737  1.00  0.00     0.049 A 
ATOM     66  H   UNL A   1      41.068  29.652  32.843  1.00  0.00     0.167 HD
ATOM     67  C   UNL A   1      38.927  31.424  33.360  1.00  0.00     0.074 A 
ATOM     68  C   UNL A   1      37.727  32.214  33.175  1.00  0.00     0.031 C 
ATOM     69  C   UNL A   1      39.607  31.337  34.528  1.00  0.00     0.037 A 
BRANCH  56  70
ATOM     70  C   UNL A   1      44.544  27.643  34.279  1.00  0.00     0.057 A 
ATOM     71  C   UNL A   1      45.773  28.313  34.320  1.00  0.00     0.134 A 
ATOM     72  C   UNL A   1      44.446  26.426  34.964  1.00  0.00     0.134 A 
ATOM     73  F   UNL A   1      45.936  29.476  33.671  1.00  0.00    -0.206 F 
ATOM     74  C   UNL A   1      46.868  27.786  35.008  1.00  0.00     0.040 A 
ATOM     75  C   UNL A   1      45.526  25.900  35.673  1.00  0.00     0.040 A 
ATOM     76  F   UNL A   1      43.295  25.737  34.967  1.00  0.00    -0.206 F 
ATOM     77  C   UNL A   1      46.744  26.579  35.694  1.00  0.00     0.006 A 
ENDBRANCH  56  70
BRANCH  57  78
ATOM     78  C   UNL A   1      36.918  31.472  29.116  1.00  0.00     0.057 A 
ATOM     79  C   UNL A   1      36.935  32.804  28.688  1.00  0.00     0.134 A 
ATOM     80  C   UNL A   1      35.760  30.728  28.866  1.00  0.00     0.134 A 
ATOM     81  F   UNL A   1      38.007  33.575  28.922  1.00  0.00    -0.206 F 
ATOM     82  C   UNL A   1      35.830  33.385  28.063  1.00  0.00     0.040 A 
ATOM     83  C   UNL A   1      34.657  31.288  28.219  1.00  0.00     0.040 A 
ATOM     84  F   UNL A   1      35.679  29.446  29.253  1.00  0.00    -0.206 F 
ATOM     85  C   UNL A   1      34.687  32.624  27.825  1.00  0.00     0.006 A 
ENDBRANCH  57  78
BRANCH  69  86
ATOM     86  C   UNL A   1      39.105  32.157  35.681  1.00  0.00     0.057 A 
ATOM     87  C   UNL A   1      39.435  33.510  35.827  1.00  0.00     0.134 A 
ATOM     88  C   UNL A   1      38.249  31.592  36.635  1.00  0.00     0.134 A 
ATOM     89  F   UNL A   1      40.260  34.107  34.953  1.00  0.00    -0.206 F 
ATOM     90  C   UNL A   1      38.950  34.267  36.894  1.00  0.00     0.040 A 
ATOM     91  C   UNL A   1      37.738  32.345  37.693  1.00  0.00     0.040 A 
ATOM     92  F   UNL A   1      37.887  30.303  36.547  1.00  0.00    -0.206 F 
ATOM     93  C   UNL A   1      38.094  33.685  37.829  1.00  0.00     0.006 A 
ENDBRANCH  69  86
ENDBRANCH  43  44
ENDBRANCH  36  38
ENDBRANCH  35  36
ENDBRANCH  34  35
ENDBRANCH  33  34
ENDBRANCH  32  33
ENDBRANCH   1  32
TORSDOF 18
ENDMDL
MODEL 2
REMARK VINA RESULT:     -12.1      0.711      5.919
REMARK SMILES CS(=O)(=O)c1ccc(C2=NN(c3ccc(C(=O)OCCOCCOC(=O)c4ccc(-c5c6nc(c(-c7c(F)cccc7F)c7ccc([nH]7)c(-c7c(F)cccc7F)c7nc(c(-c8c(F)cccc8F)c8ccc5[nH]8)C=C7)C=C6)cc4)cc3)[C@H](c3cccs3)C2)cc1
REMARK SMILES IDX 20 1 19 2 18 3 16 4 17 5 15 6 12 7 13 8 82 9 14 10 81 11
REMARK SMILES IDX 11 12 9 13 10 14 89 15 83 16 8 17 5 18 6 19 91 20 7 21 90 22
REMARK SMILES IDX 2 23 1 24 3 25 4 26 84 27 85 28 88 29 86 30 87 31 21 32
REMARK SMILES IDX 22 33 23 34 24 35 25 36 26 37 27 38 28 39 80 40 29 41 79 42
REMARK SMILES IDX 30 43 31 44 32 45 73 46 33 47 78 48 72 49 74 50 34 51 77 52
REMARK SMILES IDX 71 53 70 54 35 56 61 57 44 58 60 59 45 60 48 61 59 62 75 63
REMARK SMILES IDX 46 64 47 65 58 67 76 68 49 69 36 70 37 71 42 72 38 73 39 74
REMARK SMILES IDX 41 75 43 76 40 77 62 78 63 79 68 80 64 81 65 82 67 83 69 84
REMARK SMILES IDX 66 85 50 86 51 87 56 88 52 89 53 90 55 91 57 92 54 93
REMARK H PARENT 74 55 48 66
REMARK Flexibility Score: inf
ROOT
ATOM      1  C   UNL A   1      42.261  20.475  26.557  1.00  0.00     0.202 C 
ENDROOT
BRANCH   1   2
ATOM      2  C   UNL A   1      40.803  20.023  26.434  1.00  0.00     0.261 C 
BRANCH   2   3
ATOM      3  O   UNL A   1      40.041  20.981  25.684  1.00  0.00    -0.460 OA
BRANCH   3   4
ATOM      4  C   UNL A   1      39.481  21.977  26.412  1.00  0.00     0.338 C 
ATOM      5  O   UNL A   1      39.950  22.501  27.412  1.00  0.00    -0.246 OA
BRANCH   4   6
ATOM      6  C   UNL A   1      38.225  22.442  25.772  1.00  0.00     0.060 A 
ATOM      7  C   UNL A   1      35.750  23.320  24.778  1.00  0.00     0.060 A 
ATOM      8  C   UNL A   1      36.434  24.078  25.732  1.00  0.00     0.029 A 
ATOM      9  C   UNL A   1      36.370  22.176  24.253  1.00  0.00     0.029 A 
ATOM     10  C   UNL A   1      37.659  23.636  26.236  1.00  0.00     0.018 A 
ATOM     11  C   UNL A   1      37.599  21.732  24.744  1.00  0.00     0.018 A 
BRANCH   7  12
ATOM     12  N   UNL A   1      34.415  23.581  24.465  1.00  0.00    -0.257 N 
ATOM     13  C   UNL A   1      32.752  24.906  24.418  1.00  0.00     0.071 C 
ATOM     14  N   UNL A   1      34.006  24.820  24.095  1.00  0.00    -0.176 NA
ATOM     15  C   UNL A   1      32.200  23.762  25.226  1.00  0.00     0.091 C 
ATOM     16  C   UNL A   1      33.389  22.801  25.176  1.00  0.00     0.154 C 
BRANCH  13  17
ATOM     17  C   UNL A   1      31.898  26.038  24.018  1.00  0.00    -0.002 A 
ATOM     18  C   UNL A   1      30.370  28.235  23.254  1.00  0.00     0.067 A 
ATOM     19  C   UNL A   1      31.654  28.434  23.768  1.00  0.00     0.021 A 
ATOM     20  C   UNL A   1      29.839  26.945  23.134  1.00  0.00     0.021 A 
ATOM     21  C   UNL A   1      32.417  27.331  24.153  1.00  0.00     0.011 A 
ATOM     22  C   UNL A   1      30.612  25.840  23.505  1.00  0.00     0.011 A 
BRANCH  18  23
ATOM     23  S   UNL A   1      29.381  29.648  22.822  1.00  0.00     0.175 S 
ATOM     24  C   UNL A   1      27.719  29.037  22.913  1.00  0.00     0.163 C 
ATOM     25  O   UNL A   1      29.670  29.966  21.434  1.00  0.00    -0.224 OA
ATOM     26  O   UNL A   1      29.552  30.639  23.864  1.00  0.00    -0.224 OA
ENDBRANCH  18  23
ENDBRANCH  13  17
BRANCH  16  27
ATOM     27  C   UNL A   1      33.139  21.435  24.571  1.00  0.00     0.030 A 
ATOM     28  C   UNL A   1      32.495  21.184  23.367  1.00  0.00     0.017 A 
ATOM     29  S   UNL A   1      33.504  19.970  25.382  1.00  0.00    -0.147 S 
ATOM     30  C   UNL A   1      32.281  19.797  23.135  1.00  0.00     0.012 A 
ATOM     31  C   UNL A   1      32.805  19.023  24.144  1.00  0.00     0.065 A 
ENDBRANCH  16  27
ENDBRANCH   7  12
ENDBRANCH   4   6
ENDBRANCH   3   4
ENDBRANCH   2   3
ENDBRANCH   1   2
BRANCH   1  32
ATOM     32  O   UNL A   1      43.131  20.030  25.515  1.00  0.00    -0.374 OA
BRANCH  32  33
ATOM     33  C   UNL A   1      44.057  20.987  24.994  1.00  0.00     0.202 C 
BRANCH  33  34
ATOM     34  C   UNL A   1      43.548  22.430  24.915  1.00  0.00     0.261 C 
BRANCH  34  35
ATOM     35  O   UNL A   1      44.129  23.255  25.942  1.00  0.00    -0.460 OA
BRANCH  35  36
ATOM     36  C   UNL A   1      44.282  24.557  25.608  1.00  0.00     0.338 C 
ATOM     37  O   UNL A   1      44.835  25.009  24.616  1.00  0.00    -0.246 OA
BRANCH  36  38
ATOM     38  C   UNL A   1      43.526  25.411  26.544  1.00  0.00     0.060 A 
ATOM     39  C   UNL A   1      43.967  26.729  26.712  1.00  0.00     0.016 A 
ATOM     40  C   UNL A   1      42.459  24.919  27.300  1.00  0.00     0.016 A 
ATOM     41  C   UNL A   1      43.379  27.546  27.675  1.00  0.00     0.010 A 
ATOM     42  C   UNL A   1      41.875  25.738  28.274  1.00  0.00     0.010 A 
ATOM     43  C   UNL A   1      42.357  27.041  28.490  1.00  0.00    -0.014 A 
BRANCH  43  44
ATOM     44  C   UNL A   1      41.908  27.827  29.665  1.00  0.00     0.031 A 
ATOM     45  C   UNL A   1      40.696  28.711  29.529  1.00  0.00     0.074 A 
ATOM     46  C   UNL A   1      42.538  27.723  30.849  1.00  0.00     0.049 A 
ATOM     47  N   UNL A   1      40.144  29.505  30.411  1.00  0.00    -0.248 NA
ATOM     48  C   UNL A   1      40.014  28.692  28.225  1.00  0.00     0.031 C 
ATOM     49  C   UNL A   1      43.688  26.863  31.122  1.00  0.00     0.029 A 
ATOM     50  N   UNL A   1      42.292  28.350  32.045  1.00  0.00    -0.354 N 
ATOM     51  C   UNL A   1      39.049  30.072  29.773  1.00  0.00     0.074 A 
ATOM     52  C   UNL A   1      39.034  29.562  28.419  1.00  0.00     0.031 C 
ATOM     53  C   UNL A   1      44.054  27.023  32.406  1.00  0.00     0.029 A 
ATOM     54  C   UNL A   1      43.184  28.015  33.034  1.00  0.00     0.049 A 
ATOM     55  H   UNL A   1      41.548  28.980  32.180  1.00  0.00     0.167 HD
ATOM     56  C   UNL A   1      38.129  30.931  30.273  1.00  0.00     0.037 A 
ATOM     57  C   UNL A   1      43.292  28.474  34.296  1.00  0.00     0.037 A 
ATOM     58  C   UNL A   1      38.145  31.447  31.616  1.00  0.00     0.049 A 
ATOM     59  C   UNL A   1      42.311  29.500  34.798  1.00  0.00     0.074 A 
ATOM     60  C   UNL A   1      37.269  32.340  32.209  1.00  0.00     0.029 A 
ATOM     61  N   UNL A   1      39.086  31.112  32.576  1.00  0.00    -0.354 N 
ATOM     62  N   UNL A   1      41.279  30.030  34.186  1.00  0.00    -0.248 NA
ATOM     63  C   UNL A   1      42.509  29.992  36.170  1.00  0.00     0.031 C 
ATOM     64  C   UNL A   1      37.700  32.571  33.519  1.00  0.00     0.029 A 
ATOM     65  C   UNL A   1      38.819  31.789  33.755  1.00  0.00     0.049 A 
ATOM     66  H   UNL A   1      39.834  30.485  32.442  1.00  0.00     0.167 HD
ATOM     67  C   UNL A   1      40.687  30.885  35.108  1.00  0.00     0.074 A 
ATOM     68  C   UNL A   1      41.469  30.798  36.323  1.00  0.00     0.031 C 
ATOM     69  C   UNL A   1      39.594  31.672  34.963  1.00  0.00     0.037 A 
BRANCH  56  70
ATOM     70  C   UNL A   1      37.027  31.373  29.358  1.00  0.00     0.057 A 
ATOM     71  C   UNL A   1      35.915  30.560  29.104  1.00  0.00     0.134 A 
ATOM     72  C   UNL A   1      37.054  32.639  28.761  1.00  0.00     0.134 A 
ATOM     73  F   UNL A   1      35.837  29.330  29.635  1.00  0.00    -0.206 F 
ATOM     74  C   UNL A   1      34.874  30.985  28.277  1.00  0.00     0.040 A 
ATOM     75  C   UNL A   1      36.009  33.084  27.950  1.00  0.00     0.040 A 
ATOM     76  F   UNL A   1      38.088  33.468  28.967  1.00  0.00    -0.206 F 
ATOM     77  C   UNL A   1      34.916  32.255  27.703  1.00  0.00     0.006 A 
ENDBRANCH  56  70
BRANCH  57  78
ATOM     78  C   UNL A   1      44.379  27.986  35.184  1.00  0.00     0.057 A 
ATOM     79  C   UNL A   1      45.640  28.593  35.186  1.00  0.00     0.134 A 
ATOM     80  C   UNL A   1      44.200  26.867  36.005  1.00  0.00     0.134 A 
ATOM     81  F   UNL A   1      45.880  29.652  34.399  1.00  0.00    -0.206 F 
ATOM     82  C   UNL A   1      46.693  28.089  35.951  1.00  0.00     0.040 A 
ATOM     83  C   UNL A   1      45.236  26.368  36.796  1.00  0.00     0.040 A 
ATOM     84  F   UNL A   1      43.017  26.239  36.048  1.00  0.00    -0.206 F 
ATOM     85  C   UNL A   1      46.491  26.974  36.761  1.00  0.00     0.006 A 
ENDBRANCH  57  78
BRANCH  69  86
ATOM     86  C   UNL A   1      39.145  32.457  36.160  1.00  0.00     0.057 A 
ATOM     87  C   UNL A   1      38.266  31.922  37.110  1.00  0.00     0.134 A 
ATOM     88  C   UNL A   1      39.630  33.752  36.383  1.00  0.00     0.134 A 
ATOM     89  F   UNL A   1      37.757  30.691  36.948  1.00  0.00    -0.206 F 
ATOM     90  C   UNL A   1      37.868  32.656  38.228  1.00  0.00     0.040 A 
ATOM     91  C   UNL A   1      39.258  34.487  37.509  1.00  0.00     0.040 A 
ATOM     92  F   UNL A   1      40.482  34.319  35.515  1.00  0.00    -0.206 F 
ATOM     93  C   UNL A   1      38.369  33.942  38.433  1.00  0.00     0.006 A 
ENDBRANCH  69  86
ENDBRANCH  43  44
ENDBRANCH  36  38
ENDBRANCH  35  36
ENDBRANCH  34  35
ENDBRANCH  33  34
ENDBRANCH  32  33
ENDBRANCH   1  32
TORSDOF 18
ENDMDL
MODEL 3
REMARK VINA RESULT:     -12.0      2.235      8.960
REMARK SMILES CS(=O)(=O)c1ccc(C2=NN(c3ccc(C(=O)OCCOCCOC(=O)c4ccc(-c5c6nc(c(-c7c(F)cccc7F)c7ccc([nH]7)c(-c7c(F)cccc7F)c7nc(c(-c8c(F)cccc8F)c8ccc5[nH]8)C=C7)C=C6)cc4)cc3)[C@H](c3cccs3)C2)cc1
REMARK SMILES IDX 20 1 19 2 18 3 16 4 17 5 15 6 12 7 13 8 82 9 14 10 81 11
REMARK SMILES IDX 11 12 9 13 10 14 89 15 83 16 8 17 5 18 6 19 91 20 7 21 90 22
REMARK SMILES IDX 2 23 1 24 3 25 4 26 84 27 85 28 88 29 86 30 87 31 21 32
REMARK SMILES IDX 22 33 23 34 24 35 25 36 26 37 27 38 28 39 80 40 29 41 79 42
REMARK SMILES IDX 30 43 31 44 32 45 73 46 33 47 78 48 72 49 74 50 34 51 77 52
REMARK SMILES IDX 71 53 70 54 35 56 61 57 44 58 60 59 45 60 48 61 59 62 75 63
REMARK SMILES IDX 46 64 47 65 58 67 76 68 49 69 36 70 37 71 42 72 38 73 39 74
REMARK SMILES IDX 41 75 43 76 40 77 62 78 63 79 68 80 64 81 65 82 67 83 69 84
REMARK SMILES IDX 66 85 50 86 51 87 56 88 52 89 53 90 55 91 57 92 54 93
REMARK H PARENT 74 55 48 66
REMARK Flexibility Score: inf
ROOT
ATOM      1  C   UNL A   1      32.586  29.510  25.331  1.00  0.00     0.202 C 
ENDROOT
BRANCH   1   2
ATOM      2  C   UNL A   1      31.161  29.084  24.965  1.00  0.00     0.261 C 
BRANCH   2   3
ATOM      3  O   UNL A   1      30.964  27.692  25.253  1.00  0.00    -0.460 OA
BRANCH   3   4
ATOM      4  C   UNL A   1      31.385  27.284  26.474  1.00  0.00     0.338 C 
ATOM      5  O   UNL A   1      31.000  27.705  27.556  1.00  0.00    -0.246 OA
BRANCH   4   6
ATOM      6  C   UNL A   1      32.339  26.155  26.343  1.00  0.00     0.060 A 
ATOM      7  C   UNL A   1      34.175  24.083  25.868  1.00  0.00     0.060 A 
ATOM      8  C   UNL A   1      34.558  25.417  25.696  1.00  0.00     0.029 A 
ATOM      9  C   UNL A   1      32.898  23.809  26.380  1.00  0.00     0.029 A 
ATOM     10  C   UNL A   1      33.642  26.447  25.921  1.00  0.00     0.018 A 
ATOM     11  C   UNL A   1      31.979  24.833  26.617  1.00  0.00     0.018 A 
BRANCH   7  12
ATOM     12  N   UNL A   1      34.962  23.035  25.390  1.00  0.00    -0.257 N 
ATOM     13  C   UNL A   1      36.866  22.122  25.129  1.00  0.00     0.071 C 
ATOM     14  N   UNL A   1      36.098  22.657  26.029  1.00  0.00    -0.176 NA
ATOM     15  C   UNL A   1      36.394  22.240  23.705  1.00  0.00     0.091 C 
ATOM     16  C   UNL A   1      34.999  22.828  23.933  1.00  0.00     0.154 C 
BRANCH  13  17
ATOM     17  C   UNL A   1      38.120  21.425  25.461  1.00  0.00    -0.002 A 
ATOM     18  C   UNL A   1      40.508  20.179  26.161  1.00  0.00     0.067 A 
ATOM     19  C   UNL A   1      40.295  21.512  26.522  1.00  0.00     0.021 A 
ATOM     20  C   UNL A   1      39.542  19.469  25.438  1.00  0.00     0.021 A 
ATOM     21  C   UNL A   1      39.098  22.135  26.167  1.00  0.00     0.011 A 
ATOM     22  C   UNL A   1      38.336  20.091  25.098  1.00  0.00     0.011 A 
BRANCH  18  23
ATOM     23  S   UNL A   1      42.060  19.409  26.564  1.00  0.00     0.175 S 
ATOM     24  C   UNL A   1      43.265  20.558  25.953  1.00  0.00     0.163 C 
ATOM     25  O   UNL A   1      42.154  18.193  25.774  1.00  0.00    -0.224 OA
ATOM     26  O   UNL A   1      42.169  19.370  28.007  1.00  0.00    -0.224 OA
ENDBRANCH  18  23
ENDBRANCH  13  17
BRANCH  16  27
ATOM     27  C   UNL A   1      33.826  22.028  23.405  1.00  0.00     0.030 A 
ATOM     28  C   UNL A   1      32.931  22.444  22.430  1.00  0.00     0.017 A 
ATOM     29  S   UNL A   1      33.352  20.517  24.060  1.00  0.00    -0.147 S 
ATOM     30  C   UNL A   1      31.851  21.537  22.249  1.00  0.00     0.012 A 
ATOM     31  C   UNL A   1      31.972  20.431  23.058  1.00  0.00     0.065 A 
ENDBRANCH  16  27
ENDBRANCH   7  12
ENDBRANCH   4   6
ENDBRANCH   3   4
ENDBRANCH   2   3
ENDBRANCH   1   2
BRANCH   1  32
ATOM     32  O   UNL A   1      32.716  30.835  25.849  1.00  0.00    -0.374 OA
BRANCH  32  33
ATOM     33  C   UNL A   1      31.633  31.329  26.641  1.00  0.00     0.202 C 
BRANCH  33  34
ATOM     34  C   UNL A   1      31.611  32.845  26.863  1.00  0.00     0.261 C 
BRANCH  34  35
ATOM     35  O   UNL A   1      32.937  33.404  26.839  1.00  0.00    -0.460 OA
BRANCH  35  36
ATOM     36  C   UNL A   1      33.408  33.805  28.043  1.00  0.00     0.338 C 
ATOM     37  O   UNL A   1      32.858  34.544  28.847  1.00  0.00    -0.246 OA
BRANCH  36  38
ATOM     38  C   UNL A   1      34.655  33.085  28.362  1.00  0.00     0.060 A 
ATOM     39  C   UNL A   1      34.548  31.731  28.706  1.00  0.00     0.016 A 
ATOM     40  C   UNL A   1      35.894  33.729  28.401  1.00  0.00     0.016 A 
ATOM     41  C   UNL A   1      35.668  31.030  29.145  1.00  0.00     0.010 A 
ATOM     42  C   UNL A   1      37.018  33.025  28.850  1.00  0.00     0.010 A 
ATOM     43  C   UNL A   1      36.902  31.684  29.258  1.00  0.00    -0.014 A 
BRANCH  43  44
ATOM     44  C   UNL A   1      38.025  31.006  29.949  1.00  0.00     0.031 A 
ATOM     45  C   UNL A   1      38.290  31.331  31.396  1.00  0.00     0.074 A 
ATOM     46  C   UNL A   1      38.771  30.082  29.318  1.00  0.00     0.049 A 
ATOM     47  N   UNL A   1      39.231  30.884  32.188  1.00  0.00    -0.248 NA
ATOM     48  C   UNL A   1      37.367  32.283  32.034  1.00  0.00     0.031 C 
ATOM     49  C   UNL A   1      38.581  29.642  27.937  1.00  0.00     0.029 A 
ATOM     50  N   UNL A   1      39.840  29.346  29.763  1.00  0.00    -0.354 N 
ATOM     51  C   UNL A   1      39.009  31.493  33.417  1.00  0.00     0.074 A 
ATOM     52  C   UNL A   1      37.869  32.369  33.257  1.00  0.00     0.031 C 
ATOM     53  C   UNL A   1      39.511  28.716  27.644  1.00  0.00     0.029 A 
ATOM     54  C   UNL A   1      40.376  28.520  28.806  1.00  0.00     0.049 A 
ATOM     55  H   UNL A   1      40.190  29.406  30.681  1.00  0.00     0.167 HD
ATOM     56  C   UNL A   1      39.685  31.326  34.578  1.00  0.00     0.037 A 
ATOM     57  C   UNL A   1      41.453  27.713  28.860  1.00  0.00     0.037 A 
ATOM     58  C   UNL A   1      40.824  30.462  34.739  1.00  0.00     0.049 A 
ATOM     59  C   UNL A   1      42.244  27.618  30.139  1.00  0.00     0.074 A 
ATOM     60  C   UNL A   1      41.590  30.244  35.872  1.00  0.00     0.029 A 
ATOM     61  N   UNL A   1      41.358  29.670  33.735  1.00  0.00    -0.354 N 
ATOM     62  N   UNL A   1      42.025  28.198  31.294  1.00  0.00    -0.248 NA
ATOM     63  C   UNL A   1      43.433  26.753  30.121  1.00  0.00     0.031 C 
ATOM     64  C   UNL A   1      42.609  29.345  35.543  1.00  0.00     0.029 A 
ATOM     65  C   UNL A   1      42.451  28.970  34.219  1.00  0.00     0.049 A 
ATOM     66  H   UNL A   1      41.012  29.612  32.815  1.00  0.00     0.167 HD
ATOM     67  C   UNL A   1      43.024  27.741  32.146  1.00  0.00     0.074 A 
ATOM     68  C   UNL A   1      43.844  26.828  31.377  1.00  0.00     0.031 C 
ATOM     69  C   UNL A   1      43.242  28.047  33.447  1.00  0.00     0.037 A 
BRANCH  56  70
ATOM     70  C   UNL A   1      39.212  32.103  35.770  1.00  0.00     0.057 A 
ATOM     71  C   UNL A   1      39.610  33.429  35.985  1.00  0.00     0.134 A 
ATOM     72  C   UNL A   1      38.317  31.540  36.686  1.00  0.00     0.134 A 
ATOM     73  F   UNL A   1      40.479  34.021  35.151  1.00  0.00    -0.206 F 
ATOM     74  C   UNL A   1      39.145  34.162  37.078  1.00  0.00     0.040 A 
ATOM     75  C   UNL A   1      37.827  32.269  37.770  1.00  0.00     0.040 A 
ATOM     76  F   UNL A   1      37.893  30.275  36.535  1.00  0.00    -0.206 F 
ATOM     77  C   UNL A   1      38.244  33.584  37.970  1.00  0.00     0.006 A 
ENDBRANCH  56  70
BRANCH  57  78
ATOM     78  C   UNL A   1      41.871  26.933  27.667  1.00  0.00     0.057 A 
ATOM     79  C   UNL A   1      42.785  27.454  26.744  1.00  0.00     0.134 A 
ATOM     80  C   UNL A   1      41.322  25.675  27.392  1.00  0.00     0.134 A 
ATOM     81  F   UNL A   1      43.324  28.666  26.940  1.00  0.00    -0.206 F 
ATOM     82  C   UNL A   1      43.117  26.766  25.576  1.00  0.00     0.040 A 
ATOM     83  C   UNL A   1      41.664  24.964  26.240  1.00  0.00     0.040 A 
ATOM     84  F   UNL A   1      40.439  25.120  28.235  1.00  0.00    -0.206 F 
ATOM     85  C   UNL A   1      42.557  25.516  25.323  1.00  0.00     0.006 A 
ENDBRANCH  57  78
BRANCH  69  86
ATOM     86  C   UNL A   1      44.377  27.351  34.139  1.00  0.00     0.057 A 
ATOM     87  C   UNL A   1      45.649  27.929  34.241  1.00  0.00     0.134 A 
ATOM     88  C   UNL A   1      44.183  26.101  34.741  1.00  0.00     0.134 A 
ATOM     89  F   UNL A   1      45.902  29.119  33.675  1.00  0.00    -0.206 F 
ATOM     90  C   UNL A   1      46.693  27.278  34.900  1.00  0.00     0.040 A 
ATOM     91  C   UNL A   1      45.212  25.452  35.423  1.00  0.00     0.040 A 
ATOM     92  F   UNL A   1      42.986  25.497  34.686  1.00  0.00    -0.206 F 
ATOM     93  C   UNL A   1      46.474  26.038  35.499  1.00  0.00     0.006 A 
ENDBRANCH  69  86
ENDBRANCH  43  44
ENDBRANCH  36  38
ENDBRANCH  35  36
ENDBRANCH  34  35
ENDBRANCH  33  34
ENDBRANCH  32  33
ENDBRANCH   1  32
TORSDOF 18
ENDMDL
