MODEL 1
REMARK VINA RESULT:     -11.3      0.000      0.000
REMARK SMILES C[C@@H](C(=O)OCCOCCOC(=O)c1ccc(-c2c3nc(c(-c4c(F)cccc4F)c4ccc([nH]4)c(-c4c(F)cccc4F)c4nc(c(-c5c(F)cccc5F)c5ccc2[nH]5)C=C4)C=C3)cc1)c1ccc(-c2cccc(OC(=O)NC3CC3)c2)c(F)c1
REMARK SMILES IDX 6 1 5 2 3 3 4 4 2 5 1 6 68 7 69 8 87 9 70 10 85 11 71 12
REMARK SMILES IDX 86 13 72 14 73 15 84 16 74 17 76 18 75 19 77 20 78 21 79 22
REMARK SMILES IDX 80 23 81 25 82 26 83 27 7 28 8 29 9 30 10 31 11 32 12 33
REMARK SMILES IDX 13 34 14 35 15 36 67 37 16 38 66 39 17 40 18 41 19 42 60 43
REMARK SMILES IDX 20 44 65 45 59 46 61 47 21 48 64 49 58 50 57 51 22 53 48 54
REMARK SMILES IDX 31 55 47 56 32 57 35 58 46 59 62 60 33 61 34 62 45 64 63 65
REMARK SMILES IDX 36 66 23 67 24 68 29 69 25 70 26 71 28 72 30 73 27 74 49 75
REMARK SMILES IDX 50 76 55 77 51 78 52 79 54 80 56 81 53 82 37 83 38 84 43 85
REMARK SMILES IDX 39 86 40 87 42 88 44 89 41 90
REMARK H PARENT 80 24 61 52 35 63
REMARK Flexibility Score: inf
ROOT
ATOM      1  C   UNL A   1      32.206  23.603  25.137  1.00  0.00     0.261 C 
ENDROOT
BRANCH   1   2
ATOM      2  O   UNL A   1      32.942  24.555  25.919  1.00  0.00    -0.463 OA
BRANCH   2   3
ATOM      3  C   UNL A   1      33.095  25.786  25.355  1.00  0.00     0.313 C 
ATOM      4  O   UNL A   1      33.975  26.058  24.545  1.00  0.00    -0.252 OA
BRANCH   3   5
ATOM      5  C   UNL A   1      32.028  26.798  25.814  1.00  0.00     0.126 C 
ATOM      6  C   UNL A   1      30.920  26.990  24.766  1.00  0.00     0.025 C 
BRANCH   5   7
ATOM      7  C   UNL A   1      32.637  28.104  26.348  1.00  0.00    -0.031 A 
ATOM      8  C   UNL A   1      33.951  28.201  26.838  1.00  0.00     0.005 A 
ATOM      9  C   UNL A   1      31.882  29.289  26.315  1.00  0.00     0.044 A 
ATOM     10  C   UNL A   1      34.470  29.421  27.311  1.00  0.00     0.012 A 
ATOM     11  C   UNL A   1      32.395  30.492  26.801  1.00  0.00     0.131 A 
ATOM     12  C   UNL A   1      33.691  30.585  27.315  1.00  0.00     0.018 A 
ATOM     13  F   UNL A   1      31.605  31.577  26.760  1.00  0.00    -0.206 F 
BRANCH  12  14
ATOM     14  C   UNL A   1      34.195  31.849  27.870  1.00  0.00    -0.012 A 
ATOM     15  C   UNL A   1      35.506  32.289  27.625  1.00  0.00     0.009 A 
ATOM     16  C   UNL A   1      33.350  32.654  28.653  1.00  0.00     0.056 A 
ATOM     17  C   UNL A   1      35.955  33.510  28.136  1.00  0.00     0.004 A 
ATOM     18  C   UNL A   1      33.802  33.867  29.166  1.00  0.00     0.133 A 
ATOM     19  C   UNL A   1      35.104  34.300  28.907  1.00  0.00     0.047 A 
BRANCH  18  20
ATOM     20  O   UNL A   1      33.022  34.744  29.961  1.00  0.00    -0.410 OA
BRANCH  20  21
ATOM     21  C   UNL A   1      32.906  36.122  29.802  1.00  0.00     0.412 C 
ATOM     22  O   UNL A   1      32.701  36.715  28.746  1.00  0.00    -0.224 OA
ATOM     23  N   UNL A   1      33.054  36.835  30.963  1.00  0.00    -0.318 N 
ATOM     24  H   UNL A   1      33.029  37.813  30.857  1.00  0.00     0.167 HD
BRANCH  23  25
ATOM     25  C   UNL A   1      33.238  36.378  32.300  1.00  0.00     0.085 C 
ATOM     26  C   UNL A   1      34.528  35.960  32.943  1.00  0.00     0.027 C 
ATOM     27  C   UNL A   1      33.932  37.292  33.279  1.00  0.00     0.027 C 
ENDBRANCH  23  25
ENDBRANCH  20  21
ENDBRANCH  18  20
ENDBRANCH  12  14
ENDBRANCH   5   7
ENDBRANCH   3   5
ENDBRANCH   2   3
ENDBRANCH   1   2
BRANCH   1  28
ATOM     28  C   UNL A   1      32.846  22.212  25.176  1.00  0.00     0.202 C 
BRANCH  28  29
ATOM     29  O   UNL A   1      34.004  22.034  25.985  1.00  0.00    -0.374 OA
BRANCH  29  30
ATOM     30  C   UNL A   1      35.285  22.245  25.394  1.00  0.00     0.202 C 
BRANCH  30  31
ATOM     31  C   UNL A   1      36.300  21.092  25.419  1.00  0.00     0.261 C 
BRANCH  31  32
ATOM     32  O   UNL A   1      37.596  21.456  24.905  1.00  0.00    -0.460 OA
BRANCH  32  33
ATOM     33  C   UNL A   1      38.639  21.078  25.687  1.00  0.00     0.338 C 
ATOM     34  O   UNL A   1      39.161  19.977  25.747  1.00  0.00    -0.246 OA
BRANCH  33  35
ATOM     35  C   UNL A   1      39.223  22.251  26.364  1.00  0.00     0.060 A 
ATOM     36  C   UNL A   1      38.721  23.514  26.023  1.00  0.00     0.016 A 
ATOM     37  C   UNL A   1      40.314  22.128  27.223  1.00  0.00     0.016 A 
ATOM     38  C   UNL A   1      39.338  24.664  26.507  1.00  0.00     0.010 A 
ATOM     39  C   UNL A   1      40.938  23.285  27.701  1.00  0.00     0.010 A 
ATOM     40  C   UNL A   1      40.475  24.559  27.317  1.00  0.00    -0.014 A 
BRANCH  40  41
ATOM     41  C   UNL A   1      41.257  25.777  27.643  1.00  0.00     0.031 A 
ATOM     42  C   UNL A   1      40.620  26.855  28.477  1.00  0.00     0.074 A 
ATOM     43  C   UNL A   1      42.529  25.906  27.232  1.00  0.00     0.049 A 
ATOM     44  N   UNL A   1      41.101  28.017  28.841  1.00  0.00    -0.248 NA
ATOM     45  C   UNL A   1      39.258  26.588  28.965  1.00  0.00     0.031 C 
ATOM     46  C   UNL A   1      43.271  24.913  26.457  1.00  0.00     0.029 A 
ATOM     47  N   UNL A   1      43.421  26.935  27.403  1.00  0.00    -0.354 N 
ATOM     48  C   UNL A   1      40.100  28.622  29.592  1.00  0.00     0.074 A 
ATOM     49  C   UNL A   1      38.973  27.715  29.601  1.00  0.00     0.031 C 
ATOM     50  C   UNL A   1      44.504  25.387  26.209  1.00  0.00     0.029 A 
ATOM     51  C   UNL A   1      44.624  26.730  26.773  1.00  0.00     0.049 A 
ATOM     52  H   UNL A   1      43.219  27.743  27.928  1.00  0.00     0.167 HD
ATOM     53  C   UNL A   1      40.124  29.820  30.225  1.00  0.00     0.037 A 
ATOM     54  C   UNL A   1      45.689  27.543  26.645  1.00  0.00     0.037 A 
ATOM     55  C   UNL A   1      41.248  30.720  30.211  1.00  0.00     0.049 A 
ATOM     56  C   UNL A   1      45.662  28.905  27.289  1.00  0.00     0.074 A 
ATOM     57  C   UNL A   1      41.374  31.951  30.831  1.00  0.00     0.029 A 
ATOM     58  N   UNL A   1      42.437  30.490  29.535  1.00  0.00    -0.354 N 
ATOM     59  N   UNL A   1      44.719  29.461  28.011  1.00  0.00    -0.248 NA
ATOM     60  C   UNL A   1      46.850  29.750  27.103  1.00  0.00     0.031 C 
ATOM     61  C   UNL A   1      42.616  32.492  30.482  1.00  0.00     0.029 A 
ATOM     62  C   UNL A   1      43.290  31.570  29.699  1.00  0.00     0.049 A 
ATOM     63  H   UNL A   1      42.644  29.679  29.015  1.00  0.00     0.167 HD
ATOM     64  C   UNL A   1      45.211  30.704  28.391  1.00  0.00     0.074 A 
ATOM     65  C   UNL A   1      46.541  30.815  27.830  1.00  0.00     0.031 C 
ATOM     66  C   UNL A   1      44.615  31.666  29.139  1.00  0.00     0.037 A 
BRANCH  53  67
ATOM     67  C   UNL A   1      38.884  30.237  30.962  1.00  0.00     0.057 A 
ATOM     68  C   UNL A   1      38.712  29.989  32.331  1.00  0.00     0.134 A 
ATOM     69  C   UNL A   1      37.859  30.927  30.300  1.00  0.00     0.134 A 
ATOM     70  F   UNL A   1      39.648  29.323  33.024  1.00  0.00    -0.206 F 
ATOM     71  C   UNL A   1      37.555  30.385  33.006  1.00  0.00     0.040 A 
ATOM     72  C   UNL A   1      36.712  31.354  30.971  1.00  0.00     0.040 A 
ATOM     73  F   UNL A   1      37.959  31.204  28.991  1.00  0.00    -0.206 F 
ATOM     74  C   UNL A   1      36.554  31.076  32.327  1.00  0.00     0.006 A 
ENDBRANCH  53  67
BRANCH  54  75
ATOM     75  C   UNL A   1      46.867  27.103  25.853  1.00  0.00     0.057 A 
ATOM     76  C   UNL A   1      47.900  26.361  26.435  1.00  0.00     0.134 A 
ATOM     77  C   UNL A   1      46.995  27.431  24.498  1.00  0.00     0.134 A 
ATOM     78  F   UNL A   1      47.848  26.035  27.736  1.00  0.00    -0.206 F 
ATOM     79  C   UNL A   1      49.026  25.977  25.705  1.00  0.00     0.040 A 
ATOM     80  C   UNL A   1      48.101  27.028  23.748  1.00  0.00     0.040 A 
ATOM     81  F   UNL A   1      46.039  28.139  23.879  1.00  0.00    -0.206 F 
ATOM     82  C   UNL A   1      49.126  26.306  24.355  1.00  0.00     0.006 A 
ENDBRANCH  54  75
BRANCH  66  83
ATOM     83  C   UNL A   1      45.412  32.906  29.432  1.00  0.00     0.057 A 
ATOM     84  C   UNL A   1      45.338  34.047  28.624  1.00  0.00     0.134 A 
ATOM     85  C   UNL A   1      46.236  32.971  30.564  1.00  0.00     0.134 A 
ATOM     86  F   UNL A   1      44.578  34.050  27.518  1.00  0.00    -0.206 F 
ATOM     87  C   UNL A   1      46.075  35.197  28.915  1.00  0.00     0.040 A 
ATOM     88  C   UNL A   1      46.952  34.125  30.884  1.00  0.00     0.040 A 
ATOM     89  F   UNL A   1      46.345  31.918  31.389  1.00  0.00    -0.206 F 
ATOM     90  C   UNL A   1      46.878  35.241  30.053  1.00  0.00     0.006 A 
ENDBRANCH  66  83
ENDBRANCH  40  41
ENDBRANCH  33  35
ENDBRANCH  32  33
ENDBRANCH  31  32
ENDBRANCH  30  31
ENDBRANCH  29  30
ENDBRANCH  28  29
ENDBRANCH   1  28
TORSDOF 19
ENDMDL
MODEL 2
REMARK VINA RESULT:     -11.3      2.251      9.061
REMARK SMILES C[C@@H](C(=O)OCCOCCOC(=O)c1ccc(-c2c3nc(c(-c4c(F)cccc4F)c4ccc([nH]4)c(-c4c(F)cccc4F)c4nc(c(-c5c(F)cccc5F)c5ccc2[nH]5)C=C4)C=C3)cc1)c1ccc(-c2cccc(OC(=O)NC3CC3)c2)c(F)c1
REMARK SMILES IDX 6 1 5 2 3 3 4 4 2 5 1 6 68 7 69 8 87 9 70 10 85 11 71 12
REMARK SMILES IDX 86 13 72 14 73 15 84 16 74 17 76 18 75 19 77 20 78 21 79 22
REMARK SMILES IDX 80 23 81 25 82 26 83 27 7 28 8 29 9 30 10 31 11 32 12 33
REMARK SMILES IDX 13 34 14 35 15 36 67 37 16 38 66 39 17 40 18 41 19 42 60 43
REMARK SMILES IDX 20 44 65 45 59 46 61 47 21 48 64 49 58 50 57 51 22 53 48 54
REMARK SMILES IDX 31 55 47 56 32 57 35 58 46 59 62 60 33 61 34 62 45 64 63 65
REMARK SMILES IDX 36 66 23 67 24 68 29 69 25 70 26 71 28 72 30 73 27 74 49 75
REMARK SMILES IDX 50 76 55 77 51 78 52 79 54 80 56 81 53 82 37 83 38 84 43 85
REMARK SMILES IDX 39 86 40 87 42 88 44 89 41 90
REMARK H PARENT 80 24 61 52 35 63
REMARK Flexibility Score: inf
ROOT
ATOM      1  C   UNL A   1      34.977  33.076  27.749  1.00  0.00     0.261 C 
ENDROOT
BRANCH   1   2
ATOM      2  O   UNL A   1      34.040  32.122  28.272  1.00  0.00    -0.463 OA
BRANCH   2   3
ATOM      3  C   UNL A   1      34.070  30.890  27.691  1.00  0.00     0.313 C 
ATOM      4  O   UNL A   1      34.815  29.985  28.054  1.00  0.00    -0.252 OA
BRANCH   3   5
ATOM      5  C   UNL A   1      33.047  30.734  26.549  1.00  0.00     0.126 C 
ATOM      6  C   UNL A   1      31.758  31.529  26.811  1.00  0.00     0.025 C 
BRANCH   5   7
ATOM      7  C   UNL A   1      32.824  29.267  26.146  1.00  0.00    -0.031 A 
ATOM      8  C   UNL A   1      33.684  28.563  25.284  1.00  0.00     0.005 A 
ATOM      9  C   UNL A   1      31.742  28.554  26.686  1.00  0.00     0.044 A 
ATOM     10  C   UNL A   1      33.444  27.218  24.947  1.00  0.00     0.012 A 
ATOM     11  C   UNL A   1      31.498  27.225  26.336  1.00  0.00     0.131 A 
ATOM     12  C   UNL A   1      32.335  26.531  25.456  1.00  0.00     0.018 A 
ATOM     13  F   UNL A   1      30.429  26.616  26.872  1.00  0.00    -0.206 F 
BRANCH  12  14
ATOM     14  C   UNL A   1      32.034  25.149  25.059  1.00  0.00    -0.012 A 
ATOM     15  C   UNL A   1      31.109  24.860  24.043  1.00  0.00     0.009 A 
ATOM     16  C   UNL A   1      32.694  24.081  25.691  1.00  0.00     0.056 A 
ATOM     17  C   UNL A   1      30.861  23.540  23.658  1.00  0.00     0.004 A 
ATOM     18  C   UNL A   1      32.441  22.766  25.309  1.00  0.00     0.133 A 
ATOM     19  C   UNL A   1      31.527  22.492  24.291  1.00  0.00     0.047 A 
BRANCH  18  20
ATOM     20  O   UNL A   1      33.060  21.629  25.886  1.00  0.00    -0.410 OA
BRANCH  20  21
ATOM     21  C   UNL A   1      33.616  20.552  25.201  1.00  0.00     0.412 C 
ATOM     22  O   UNL A   1      33.085  19.460  25.015  1.00  0.00    -0.224 OA
ATOM     23  N   UNL A   1      34.879  20.784  24.722  1.00  0.00    -0.318 N 
ATOM     24  H   UNL A   1      35.305  20.013  24.284  1.00  0.00     0.167 HD
BRANCH  23  25
ATOM     25  C   UNL A   1      35.668  21.970  24.760  1.00  0.00     0.085 C 
ATOM     26  C   UNL A   1      36.913  22.253  23.970  1.00  0.00     0.027 C 
ATOM     27  C   UNL A   1      35.621  22.898  23.573  1.00  0.00     0.027 C 
ENDBRANCH  23  25
ENDBRANCH  20  21
ENDBRANCH  18  20
ENDBRANCH  12  14
ENDBRANCH   5   7
ENDBRANCH   3   5
ENDBRANCH   2   3
ENDBRANCH   1   2
BRANCH   1  28
ATOM     28  C   UNL A   1      35.392  34.107  28.802  1.00  0.00     0.202 C 
BRANCH  28  29
ATOM     29  O   UNL A   1      34.378  34.937  29.358  1.00  0.00    -0.374 OA
BRANCH  29  30
ATOM     30  C   UNL A   1      33.737  34.514  30.560  1.00  0.00     0.202 C 
BRANCH  30  31
ATOM     31  C   UNL A   1      34.616  34.079  31.743  1.00  0.00     0.261 C 
BRANCH  31  32
ATOM     32  O   UNL A   1      34.785  32.651  31.840  1.00  0.00    -0.460 OA
BRANCH  32  33
ATOM     33  C   UNL A   1      35.774  32.256  32.680  1.00  0.00     0.338 C 
ATOM     34  O   UNL A   1      35.810  32.378  33.893  1.00  0.00    -0.246 OA
BRANCH  33  35
ATOM     35  C   UNL A   1      36.778  31.460  31.951  1.00  0.00     0.060 A 
ATOM     36  C   UNL A   1      37.817  30.885  32.696  1.00  0.00     0.016 A 
ATOM     37  C   UNL A   1      36.772  31.376  30.559  1.00  0.00     0.016 A 
ATOM     38  C   UNL A   1      38.878  30.259  32.048  1.00  0.00     0.010 A 
ATOM     39  C   UNL A   1      37.844  30.754  29.909  1.00  0.00     0.010 A 
ATOM     40  C   UNL A   1      38.919  30.224  30.649  1.00  0.00    -0.014 A 
BRANCH  40  41
ATOM     41  C   UNL A   1      40.151  29.761  29.964  1.00  0.00     0.031 A 
ATOM     42  C   UNL A   1      41.287  30.728  29.766  1.00  0.00     0.074 A 
ATOM     43  C   UNL A   1      40.273  28.486  29.557  1.00  0.00     0.049 A 
ATOM     44  N   UNL A   1      42.432  30.551  29.157  1.00  0.00    -0.248 NA
ATOM     45  C   UNL A   1      41.106  32.076  30.328  1.00  0.00     0.031 C 
ATOM     46  C   UNL A   1      39.262  27.445  29.733  1.00  0.00     0.029 A 
ATOM     47  N   UNL A   1      41.300  27.854  28.903  1.00  0.00    -0.354 N 
ATOM     48  C   UNL A   1      43.103  31.764  29.255  1.00  0.00     0.074 A 
ATOM     49  C   UNL A   1      42.224  32.678  29.949  1.00  0.00     0.031 C 
ATOM     50  C   UNL A   1      39.716  26.303  29.187  1.00  0.00     0.029 A 
ATOM     51  C   UNL A   1      41.028  26.544  28.592  1.00  0.00     0.049 A 
ATOM     52  H   UNL A   1      42.151  28.296  28.679  1.00  0.00     0.167 HD
ATOM     53  C   UNL A   1      44.345  32.082  28.815  1.00  0.00     0.037 A 
ATOM     54  C   UNL A   1      41.746  25.651  27.885  1.00  0.00     0.037 A 
ATOM     55  C   UNL A   1      45.216  31.168  28.122  1.00  0.00     0.049 A 
ATOM     56  C   UNL A   1      43.090  26.051  27.335  1.00  0.00     0.074 A 
ATOM     57  C   UNL A   1      46.497  31.391  27.647  1.00  0.00     0.029 A 
ATOM     58  N   UNL A   1      44.893  29.859  27.797  1.00  0.00    -0.354 N 
ATOM     59  N   UNL A   1      43.724  27.194  27.448  1.00  0.00    -0.248 NA
ATOM     60  C   UNL A   1      43.820  25.036  26.563  1.00  0.00     0.031 C 
ATOM     61  C   UNL A   1      46.925  30.236  26.983  1.00  0.00     0.029 A 
ATOM     62  C   UNL A   1      45.938  29.272  27.102  1.00  0.00     0.049 A 
ATOM     63  H   UNL A   1      44.045  29.413  28.027  1.00  0.00     0.167 HD
ATOM     64  C   UNL A   1      44.937  27.025  26.790  1.00  0.00     0.074 A 
ATOM     65  C   UNL A   1      44.955  25.665  26.293  1.00  0.00     0.031 C 
ATOM     66  C   UNL A   1      45.946  27.915  26.616  1.00  0.00     0.037 A 
BRANCH  53  67
ATOM     67  C   UNL A   1      44.822  33.487  29.046  1.00  0.00     0.057 A 
ATOM     68  C   UNL A   1      44.604  34.510  28.113  1.00  0.00     0.134 A 
ATOM     69  C   UNL A   1      45.483  33.830  30.233  1.00  0.00     0.134 A 
ATOM     70  F   UNL A   1      43.989  34.249  26.949  1.00  0.00    -0.206 F 
ATOM     71  C   UNL A   1      45.050  35.814  28.339  1.00  0.00     0.040 A 
ATOM     72  C   UNL A   1      45.906  35.136  30.485  1.00  0.00     0.040 A 
ATOM     73  F   UNL A   1      45.720  32.902  31.173  1.00  0.00    -0.206 F 
ATOM     74  C   UNL A   1      45.696  36.131  29.532  1.00  0.00     0.006 A 
ENDBRANCH  53  67
BRANCH  54  75
ATOM     75  C   UNL A   1      41.199  24.292  27.635  1.00  0.00     0.057 A 
ATOM     76  C   UNL A   1      41.687  23.173  28.319  1.00  0.00     0.134 A 
ATOM     77  C   UNL A   1      40.188  24.079  26.691  1.00  0.00     0.134 A 
ATOM     78  F   UNL A   1      42.672  23.308  29.219  1.00  0.00    -0.206 F 
ATOM     79  C   UNL A   1      41.202  21.889  28.061  1.00  0.00     0.040 A 
ATOM     80  C   UNL A   1      39.673  22.805  26.443  1.00  0.00     0.040 A 
ATOM     81  F   UNL A   1      39.676  25.109  26.001  1.00  0.00    -0.206 F 
ATOM     82  C   UNL A   1      40.188  21.704  27.124  1.00  0.00     0.006 A 
ENDBRANCH  54  75
BRANCH  66  83
ATOM     83  C   UNL A   1      47.173  27.435  25.893  1.00  0.00     0.057 A 
ATOM     84  C   UNL A   1      48.241  26.825  26.563  1.00  0.00     0.134 A 
ATOM     85  C   UNL A   1      47.269  27.551  24.500  1.00  0.00     0.134 A 
ATOM     86  F   UNL A   1      48.221  26.693  27.898  1.00  0.00    -0.206 F 
ATOM     87  C   UNL A   1      49.371  26.374  25.877  1.00  0.00     0.040 A 
ATOM     88  C   UNL A   1      48.377  27.074  23.800  1.00  0.00     0.040 A 
ATOM     89  F   UNL A   1      46.277  28.115  23.794  1.00  0.00    -0.206 F 
ATOM     90  C   UNL A   1      49.437  26.490  24.490  1.00  0.00     0.006 A 
ENDBRANCH  66  83
ENDBRANCH  40  41
ENDBRANCH  33  35
ENDBRANCH  32  33
ENDBRANCH  31  32
ENDBRANCH  30  31
ENDBRANCH  29  30
ENDBRANCH  28  29
ENDBRANCH   1  28
TORSDOF 19
ENDMDL
MODEL 3
REMARK VINA RESULT:     -11.3      0.619      5.983
REMARK SMILES C[C@@H](C(=O)OCCOCCOC(=O)c1ccc(-c2c3nc(c(-c4c(F)cccc4F)c4ccc([nH]4)c(-c4c(F)cccc4F)c4nc(c(-c5c(F)cccc5F)c5ccc2[nH]5)C=C4)C=C3)cc1)c1ccc(-c2cccc(OC(=O)NC3CC3)c2)c(F)c1
REMARK SMILES IDX 6 1 5 2 3 3 4 4 2 5 1 6 68 7 69 8 87 9 70 10 85 11 71 12
REMARK SMILES IDX 86 13 72 14 73 15 84 16 74 17 76 18 75 19 77 20 78 21 79 22
REMARK SMILES IDX 80 23 81 25 82 26 83 27 7 28 8 29 9 30 10 31 11 32 12 33
REMARK SMILES IDX 13 34 14 35 15 36 67 37 16 38 66 39 17 40 18 41 19 42 60 43
REMARK SMILES IDX 20 44 65 45 59 46 61 47 21 48 64 49 58 50 57 51 22 53 48 54
REMARK SMILES IDX 31 55 47 56 32 57 35 58 46 59 62 60 33 61 34 62 45 64 63 65
REMARK SMILES IDX 36 66 23 67 24 68 29 69 25 70 26 71 28 72 30 73 27 74 49 75
REMARK SMILES IDX 50 76 55 77 51 78 52 79 54 80 56 81 53 82 37 83 38 84 43 85
REMARK SMILES IDX 39 86 40 87 42 88 44 89 41 90
REMARK H PARENT 80 24 61 52 35 63
REMARK Flexibility Score: inf
ROOT
ATOM      1  C   UNL A   1      34.225  24.122  25.783  1.00  0.00     0.261 C 
ENDROOT
BRANCH   1   2
ATOM      2  O   UNL A   1      34.244  25.544  25.590  1.00  0.00    -0.463 OA
BRANCH   2   3
ATOM      3  C   UNL A   1      33.217  26.050  24.851  1.00  0.00     0.313 C 
ATOM      4  O   UNL A   1      33.104  25.885  23.640  1.00  0.00    -0.252 OA
BRANCH   3   5
ATOM      5  C   UNL A   1      32.190  26.828  25.695  1.00  0.00     0.126 C 
ATOM      6  C   UNL A   1      30.831  26.954  24.987  1.00  0.00     0.025 C 
BRANCH   5   7
ATOM      7  C   UNL A   1      32.750  28.150  26.245  1.00  0.00    -0.031 A 
ATOM      8  C   UNL A   1      34.074  28.302  26.694  1.00  0.00     0.005 A 
ATOM      9  C   UNL A   1      31.935  29.294  26.269  1.00  0.00     0.044 A 
ATOM     10  C   UNL A   1      34.546  29.535  27.183  1.00  0.00     0.012 A 
ATOM     11  C   UNL A   1      32.403  30.510  26.770  1.00  0.00     0.131 A 
ATOM     12  C   UNL A   1      33.709  30.656  27.245  1.00  0.00     0.018 A 
ATOM     13  F   UNL A   1      31.558  31.553  26.785  1.00  0.00    -0.206 F 
BRANCH  12  14
ATOM     14  C   UNL A   1      34.168  31.929  27.817  1.00  0.00    -0.012 A 
ATOM     15  C   UNL A   1      35.529  32.272  27.854  1.00  0.00     0.009 A 
ATOM     16  C   UNL A   1      33.229  32.843  28.328  1.00  0.00     0.056 A 
ATOM     17  C   UNL A   1      35.941  33.502  28.374  1.00  0.00     0.004 A 
ATOM     18  C   UNL A   1      33.643  34.066  28.851  1.00  0.00     0.133 A 
ATOM     19  C   UNL A   1      34.998  34.400  28.873  1.00  0.00     0.047 A 
BRANCH  18  20
ATOM     20  O   UNL A   1      32.771  35.048  29.384  1.00  0.00    -0.410 OA
BRANCH  20  21
ATOM     21  C   UNL A   1      33.056  36.399  29.562  1.00  0.00     0.412 C 
ATOM     22  O   UNL A   1      33.022  37.267  28.694  1.00  0.00    -0.224 OA
ATOM     23  N   UNL A   1      33.414  36.732  30.843  1.00  0.00    -0.318 N 
ATOM     24  H   UNL A   1      33.671  37.674  30.971  1.00  0.00     0.167 HD
BRANCH  23  25
ATOM     25  C   UNL A   1      33.470  35.926  32.016  1.00  0.00     0.085 C 
ATOM     26  C   UNL A   1      34.696  35.336  32.651  1.00  0.00     0.027 C 
ATOM     27  C   UNL A   1      34.043  36.532  33.273  1.00  0.00     0.027 C 
ENDBRANCH  23  25
ENDBRANCH  20  21
ENDBRANCH  18  20
ENDBRANCH  12  14
ENDBRANCH   5   7
ENDBRANCH   3   5
ENDBRANCH   2   3
ENDBRANCH   1   2
BRANCH   1  28
ATOM     28  C   UNL A   1      35.430  23.439  25.131  1.00  0.00     0.202 C 
BRANCH  28  29
ATOM     29  O   UNL A   1      35.218  22.192  24.479  1.00  0.00    -0.374 OA
BRANCH  29  30
ATOM     30  C   UNL A   1      35.538  20.994  25.184  1.00  0.00     0.202 C 
BRANCH  30  31
ATOM     31  C   UNL A   1      36.936  20.385  24.992  1.00  0.00     0.261 C 
BRANCH  31  32
ATOM     32  O   UNL A   1      37.993  21.363  24.987  1.00  0.00    -0.460 OA
BRANCH  32  33
ATOM     33  C   UNL A   1      39.040  21.065  25.798  1.00  0.00     0.338 C 
ATOM     34  O   UNL A   1      39.646  20.009  25.870  1.00  0.00    -0.246 OA
BRANCH  33  35
ATOM     35  C   UNL A   1      39.508  22.277  26.497  1.00  0.00     0.060 A 
ATOM     36  C   UNL A   1      38.929  23.501  26.133  1.00  0.00     0.016 A 
ATOM     37  C   UNL A   1      40.569  22.234  27.400  1.00  0.00     0.016 A 
ATOM     38  C   UNL A   1      39.439  24.692  26.640  1.00  0.00     0.010 A 
ATOM     39  C   UNL A   1      41.086  23.433  27.901  1.00  0.00     0.010 A 
ATOM     40  C   UNL A   1      40.547  24.670  27.496  1.00  0.00    -0.014 A 
BRANCH  40  41
ATOM     41  C   UNL A   1      41.223  25.942  27.851  1.00  0.00     0.031 A 
ATOM     42  C   UNL A   1      42.623  26.190  27.359  1.00  0.00     0.074 A 
ATOM     43  C   UNL A   1      40.586  26.880  28.571  1.00  0.00     0.049 A 
ATOM     44  N   UNL A   1      43.416  27.206  27.586  1.00  0.00    -0.248 NA
ATOM     45  C   UNL A   1      43.208  25.151  26.497  1.00  0.00     0.031 C 
ATOM     46  C   UNL A   1      39.214  26.777  29.066  1.00  0.00     0.029 A 
ATOM     47  N   UNL A   1      41.015  28.105  29.018  1.00  0.00    -0.354 N 
ATOM     48  C   UNL A   1      44.594  26.927  26.903  1.00  0.00     0.074 A 
ATOM     49  C   UNL A   1      44.425  25.630  26.285  1.00  0.00     0.031 C 
ATOM     50  C   UNL A   1      38.918  27.889  29.761  1.00  0.00     0.029 A 
ATOM     51  C   UNL A   1      40.090  28.762  29.791  1.00  0.00     0.049 A 
ATOM     52  H   UNL A   1      41.902  28.477  28.804  1.00  0.00     0.167 HD
ATOM     53  C   UNL A   1      45.710  27.688  26.794  1.00  0.00     0.037 A 
ATOM     54  C   UNL A   1      40.187  29.922  30.467  1.00  0.00     0.037 A 
ATOM     55  C   UNL A   1      45.873  28.978  27.414  1.00  0.00     0.049 A 
ATOM     56  C   UNL A   1      41.468  30.714  30.397  1.00  0.00     0.074 A 
ATOM     57  C   UNL A   1      46.960  29.832  27.353  1.00  0.00     0.029 A 
ATOM     58  N   UNL A   1      44.925  29.595  28.216  1.00  0.00    -0.354 N 
ATOM     59  N   UNL A   1      42.569  30.450  29.736  1.00  0.00    -0.248 NA
ATOM     60  C   UNL A   1      41.516  31.966  31.166  1.00  0.00     0.031 C 
ATOM     61  C   UNL A   1      46.694  30.939  28.166  1.00  0.00     0.029 A 
ATOM     62  C   UNL A   1      45.414  30.806  28.680  1.00  0.00     0.049 A 
ATOM     63  H   UNL A   1      44.035  29.228  28.425  1.00  0.00     0.167 HD
ATOM     64  C   UNL A   1      43.427  31.516  29.982  1.00  0.00     0.074 A 
ATOM     65  C   UNL A   1      42.713  32.435  30.843  1.00  0.00     0.031 C 
ATOM     66  C   UNL A   1      44.691  31.716  29.533  1.00  0.00     0.037 A 
BRANCH  53  67
ATOM     67  C   UNL A   1      46.853  27.129  25.996  1.00  0.00     0.057 A 
ATOM     68  C   UNL A   1      46.967  27.334  24.614  1.00  0.00     0.134 A 
ATOM     69  C   UNL A   1      47.873  26.402  26.625  1.00  0.00     0.134 A 
ATOM     70  F   UNL A   1      46.019  28.011  23.947  1.00  0.00    -0.206 F 
ATOM     71  C   UNL A   1      48.036  26.812  23.883  1.00  0.00     0.040 A 
ATOM     72  C   UNL A   1      48.962  25.902  25.910  1.00  0.00     0.040 A 
ATOM     73  F   UNL A   1      47.832  26.174  27.946  1.00  0.00    -0.206 F 
ATOM     74  C   UNL A   1      49.042  26.100  24.533  1.00  0.00     0.006 A 
ENDBRANCH  53  67
BRANCH  54  75
ATOM     75  C   UNL A   1      39.046  30.399  31.290  1.00  0.00     0.057 A 
ATOM     76  C   UNL A   1      38.876  29.977  32.614  1.00  0.00     0.134 A 
ATOM     77  C   UNL A   1      38.088  31.275  30.766  1.00  0.00     0.134 A 
ATOM     78  F   UNL A   1      39.747  29.119  33.166  1.00  0.00    -0.206 F 
ATOM     79  C   UNL A   1      37.785  30.392  33.379  1.00  0.00     0.040 A 
ATOM     80  C   UNL A   1      37.008  31.722  31.530  1.00  0.00     0.040 A 
ATOM     81  F   UNL A   1      38.193  31.719  29.505  1.00  0.00    -0.206 F 
ATOM     82  C   UNL A   1      36.851  31.273  32.839  1.00  0.00     0.006 A 
ENDBRANCH  54  75
BRANCH  66  83
ATOM     83  C   UNL A   1      45.371  32.997  29.929  1.00  0.00     0.057 A 
ATOM     84  C   UNL A   1      45.248  34.169  29.173  1.00  0.00     0.134 A 
ATOM     85  C   UNL A   1      46.127  33.066  31.106  1.00  0.00     0.134 A 
ATOM     86  F   UNL A   1      44.548  34.171  28.028  1.00  0.00    -0.206 F 
ATOM     87  C   UNL A   1      45.875  35.356  29.559  1.00  0.00     0.040 A 
ATOM     88  C   UNL A   1      46.731  34.254  31.520  1.00  0.00     0.040 A 
ATOM     89  F   UNL A   1      46.277  31.983  31.885  1.00  0.00    -0.206 F 
ATOM     90  C   UNL A   1      46.612  35.403  30.741  1.00  0.00     0.006 A 
ENDBRANCH  66  83
ENDBRANCH  40  41
ENDBRANCH  33  35
ENDBRANCH  32  33
ENDBRANCH  31  32
ENDBRANCH  30  31
ENDBRANCH  29  30
ENDBRANCH  28  29
ENDBRANCH   1  28
TORSDOF 19
ENDMDL
