MODEL 1
REMARK VINA RESULT:      -8.9      0.000      0.000
REMARK SMILES CC(C)C[C@H](NC(=O)[C@H](Cc1ccccc1)NC(=O)CNC(=O)CNC(=O)OCc1ccccc1)C(=O)OCCOCCOC(=O)c1ccc(-c2c3nc(c(-c4c(F)cccc4F)c4ccc([nH]4)c(-c4c(F)cccc4F)c4nc(c(-c5c(F)cccc5F)c5ccc2[nH]5)C=C4)C=C3)cc1
REMARK SMILES IDX 36 1 37 2 5 3 4 4 2 5 1 6 3 7 6 8 7 9 8 11 9 12 17 13 18 14
REMARK SMILES IDX 19 16 20 17 21 18 22 19 23 21 24 22 25 23 26 24 27 26 28 27
REMARK SMILES IDX 29 28 30 29 31 30 35 31 32 32 34 33 33 34 10 35 11 36 12 37
REMARK SMILES IDX 16 38 13 39 15 40 14 41 38 42 39 43 40 44 41 45 42 46 43 47
REMARK SMILES IDX 44 48 45 49 46 50 47 51 48 52 100 53 49 54 99 55 50 56 51 57
REMARK SMILES IDX 52 58 93 59 53 60 98 61 92 62 94 63 54 64 97 65 91 66 90 67
REMARK SMILES IDX 55 69 81 70 64 71 80 72 65 73 68 74 79 75 95 76 66 77 67 78
REMARK SMILES IDX 78 80 96 81 69 82 56 83 57 84 62 85 58 86 59 87 61 88 63 89
REMARK SMILES IDX 60 90 82 91 83 92 88 93 84 94 85 95 87 96 89 97 86 98 70 99
REMARK SMILES IDX 71 100 76 101 72 102 73 103 75 104 77 105 74 106
REMARK H PARENT 6 10 17 15 21 20 25 25 94 68 68 79
REMARK Flexibility Score: inf
ROOT
ATOM      1  C   UNL A   1      35.199  33.009  32.543  1.00  0.00     0.328 C 
ATOM      2  O   UNL A   1      34.091  32.559  32.276  1.00  0.00    -0.250 OA
ENDROOT
BRANCH   1   3
ATOM      3  C   UNL A   1      36.496  32.369  32.055  1.00  0.00     0.192 C 
BRANCH   3   4
ATOM      4  C   UNL A   1      36.996  33.087  30.802  1.00  0.00     0.040 C 
BRANCH   4   5
ATOM      5  C   UNL A   1      38.459  33.484  30.507  1.00  0.00    -0.015 C 
ATOM      6  C   UNL A   1      38.701  34.315  29.254  1.00  0.00     0.007 C 
ATOM      7  C   UNL A   1      38.977  34.290  31.711  1.00  0.00     0.007 C 
ENDBRANCH   4   5
ENDBRANCH   3   4
BRANCH   3   8
ATOM      8  N   UNL A   1      36.365  30.891  31.963  1.00  0.00    -0.341 N 
ATOM      9  C   UNL A   1      36.654  29.919  31.044  1.00  0.00     0.243 C 
ATOM     10  H   UNL A   1      35.963  30.511  32.778  1.00  0.00     0.164 HD
ATOM     11  O   UNL A   1      36.809  28.785  31.528  1.00  0.00    -0.273 OA
BRANCH   9  12
ATOM     12  C   UNL A   1      36.497  30.065  29.495  1.00  0.00     0.175 C 
BRANCH  12  13
ATOM     13  N   UNL A   1      35.381  30.854  28.982  1.00  0.00    -0.342 N 
ATOM     14  C   UNL A   1      34.527  30.579  27.949  1.00  0.00     0.240 C 
ATOM     15  H   UNL A   1      35.220  31.708  29.447  1.00  0.00     0.164 HD
ATOM     16  O   UNL A   1      33.884  31.502  27.445  1.00  0.00    -0.273 OA
BRANCH  14  17
ATOM     17  C   UNL A   1      34.385  29.149  27.427  1.00  0.00     0.216 C 
BRANCH  17  18
ATOM     18  N   UNL A   1      33.006  28.706  27.419  1.00  0.00    -0.346 N 
ATOM     19  C   UNL A   1      32.442  27.581  26.895  1.00  0.00     0.239 C 
ATOM     20  H   UNL A   1      32.374  29.317  27.862  1.00  0.00     0.164 HD
ATOM     21  O   UNL A   1      31.267  27.348  27.185  1.00  0.00    -0.273 OA
BRANCH  19  22
ATOM     22  C   UNL A   1      33.256  26.582  26.062  1.00  0.00     0.219 C 
BRANCH  22  23
ATOM     23  N   UNL A   1      33.248  26.964  24.674  1.00  0.00    -0.312 N 
ATOM     24  C   UNL A   1      33.254  26.125  23.607  1.00  0.00     0.407 C 
ATOM     25  H   UNL A   1      33.237  27.929  24.478  1.00  0.00     0.167 HD
ATOM     26  O   UNL A   1      33.683  26.497  22.533  1.00  0.00    -0.225 OA
BRANCH  24  27
ATOM     27  O   UNL A   1      32.744  24.893  23.868  1.00  0.00    -0.445 OA
BRANCH  27  28
ATOM     28  C   UNL A   1      33.438  23.854  23.151  1.00  0.00     0.270 C 
BRANCH  28  29
ATOM     29  C   UNL A   1      34.642  23.439  23.966  1.00  0.00    -0.011 A 
ATOM     30  C   UNL A   1      35.830  23.070  23.316  1.00  0.00     0.007 A 
ATOM     31  C   UNL A   1      34.498  23.165  25.333  1.00  0.00     0.007 A 
ATOM     32  C   UNL A   1      36.829  22.384  24.004  1.00  0.00     0.000 A 
ATOM     33  C   UNL A   1      35.510  22.499  26.024  1.00  0.00     0.000 A 
ATOM     34  C   UNL A   1      36.671  22.102  25.358  1.00  0.00     0.000 A 
ENDBRANCH  28  29
ENDBRANCH  27  28
ENDBRANCH  24  27
ENDBRANCH  22  23
ENDBRANCH  19  22
ENDBRANCH  17  18
ENDBRANCH  14  17
ENDBRANCH  12  13
BRANCH  12  35
ATOM     35  C   UNL A   1      37.845  30.442  28.771  1.00  0.00     0.070 C 
BRANCH  35  36
ATOM     36  C   UNL A   1      38.569  29.223  28.225  1.00  0.00    -0.045 A 
ATOM     37  C   UNL A   1      39.460  29.378  27.149  1.00  0.00     0.004 A 
ATOM     38  C   UNL A   1      38.563  28.019  28.933  1.00  0.00     0.004 A 
ATOM     39  C   UNL A   1      40.472  28.447  26.934  1.00  0.00     0.000 A 
ATOM     40  C   UNL A   1      39.534  27.053  28.665  1.00  0.00     0.000 A 
ATOM     41  C   UNL A   1      40.520  27.293  27.707  1.00  0.00     0.000 A 
ENDBRANCH  35  36
ENDBRANCH  12  35
ENDBRANCH   9  12
ENDBRANCH   3   8
ENDBRANCH   1   3
BRANCH   1  42
ATOM     42  O   UNL A   1      35.446  34.044  33.394  1.00  0.00    -0.462 OA
BRANCH  42  43
ATOM     43  C   UNL A   1      35.997  33.668  34.669  1.00  0.00     0.261 C 
BRANCH  43  44
ATOM     44  C   UNL A   1      37.416  34.169  34.856  1.00  0.00     0.202 C 
BRANCH  44  45
ATOM     45  O   UNL A   1      38.328  33.160  35.274  1.00  0.00    -0.374 OA
BRANCH  45  46
ATOM     46  C   UNL A   1      37.723  31.946  35.714  1.00  0.00     0.202 C 
BRANCH  46  47
ATOM     47  C   UNL A   1      38.510  30.694  35.315  1.00  0.00     0.261 C 
BRANCH  47  48
ATOM     48  O   UNL A   1      38.713  30.612  33.893  1.00  0.00    -0.460 OA
BRANCH  48  49
ATOM     49  C   UNL A   1      39.592  29.681  33.432  1.00  0.00     0.338 C 
ATOM     50  O   UNL A   1      39.543  28.476  33.591  1.00  0.00    -0.246 OA
BRANCH  49  51
ATOM     51  C   UNL A   1      40.556  30.364  32.535  1.00  0.00     0.060 A 
ATOM     52  C   UNL A   1      40.384  30.360  31.145  1.00  0.00     0.016 A 
ATOM     53  C   UNL A   1      41.624  31.059  33.084  1.00  0.00     0.016 A 
ATOM     54  C   UNL A   1      41.311  31.023  30.314  1.00  0.00     0.010 A 
ATOM     55  C   UNL A   1      42.472  31.797  32.259  1.00  0.00     0.010 A 
ATOM     56  C   UNL A   1      42.387  31.739  30.861  1.00  0.00    -0.014 A 
BRANCH  56  57
ATOM     57  C   UNL A   1      43.503  32.312  30.034  1.00  0.00     0.031 A 
ATOM     58  C   UNL A   1      43.455  33.779  29.623  1.00  0.00     0.074 A 
ATOM     59  C   UNL A   1      44.537  31.565  29.590  1.00  0.00     0.049 A 
ATOM     60  N   UNL A   1      44.323  34.482  28.932  1.00  0.00    -0.248 NA
ATOM     61  C   UNL A   1      42.248  34.543  29.982  1.00  0.00     0.031 C 
ATOM     62  C   UNL A   1      44.702  30.124  29.780  1.00  0.00     0.029 A 
ATOM     63  N   UNL A   1      45.659  31.928  28.874  1.00  0.00    -0.354 N 
ATOM     64  C   UNL A   1      43.743  35.737  28.764  1.00  0.00     0.074 A 
ATOM     65  C   UNL A   1      42.404  35.656  29.290  1.00  0.00     0.031 C 
ATOM     66  C   UNL A   1      45.870  29.735  29.236  1.00  0.00     0.029 A 
ATOM     67  C   UNL A   1      46.544  30.896  28.658  1.00  0.00     0.049 A 
ATOM     68  H   UNL A   1      45.813  32.843  28.548  1.00  0.00     0.167 HD
ATOM     69  C   UNL A   1      44.281  36.887  28.293  1.00  0.00     0.037 A 
ATOM     70  C   UNL A   1      47.770  30.890  28.093  1.00  0.00     0.037 A 
ATOM     71  C   UNL A   1      45.630  37.010  27.821  1.00  0.00     0.049 A 
ATOM     72  C   UNL A   1      48.380  32.182  27.603  1.00  0.00     0.074 A 
ATOM     73  C   UNL A   1      46.306  38.150  27.424  1.00  0.00     0.029 A 
ATOM     74  N   UNL A   1      46.508  35.950  27.679  1.00  0.00    -0.354 N 
ATOM     75  N   UNL A   1      47.878  33.392  27.606  1.00  0.00    -0.248 NA
ATOM     76  C   UNL A   1      49.746  32.107  27.058  1.00  0.00     0.031 C 
ATOM     77  C   UNL A   1      47.579  37.770  26.988  1.00  0.00     0.029 A 
ATOM     78  C   UNL A   1      47.713  36.404  27.175  1.00  0.00     0.049 A 
ATOM     79  H   UNL A   1      46.305  35.013  27.904  1.00  0.00     0.167 HD
ATOM     80  C   UNL A   1      48.879  34.224  27.111  1.00  0.00     0.074 A 
ATOM     81  C   UNL A   1      50.020  33.383  26.829  1.00  0.00     0.031 C 
ATOM     82  C   UNL A   1      48.855  35.566  26.916  1.00  0.00     0.037 A 
BRANCH  69  83
ATOM     83  C   UNL A   1      43.410  38.115  28.317  1.00  0.00     0.057 A 
ATOM     84  C   UNL A   1      43.433  39.019  29.391  1.00  0.00     0.134 A 
ATOM     85  C   UNL A   1      42.540  38.401  27.258  1.00  0.00     0.134 A 
ATOM     86  F   UNL A   1      44.236  38.805  30.444  1.00  0.00    -0.206 F 
ATOM     87  C   UNL A   1      42.585  40.127  29.437  1.00  0.00     0.040 A 
ATOM     88  C   UNL A   1      41.716  39.528  27.274  1.00  0.00     0.040 A 
ATOM     89  F   UNL A   1      42.473  37.589  26.192  1.00  0.00    -0.206 F 
ATOM     90  C   UNL A   1      41.727  40.386  28.372  1.00  0.00     0.006 A 
ENDBRANCH  69  83
BRANCH  70  91
ATOM     91  C   UNL A   1      48.569  29.633  28.038  1.00  0.00     0.057 A 
ATOM     92  C   UNL A   1      48.441  28.750  26.956  1.00  0.00     0.134 A 
ATOM     93  C   UNL A   1      49.436  29.260  29.071  1.00  0.00     0.134 A 
ATOM     94  F   UNL A   1      47.608  29.039  25.945  1.00  0.00    -0.206 F 
ATOM     95  C   UNL A   1      49.121  27.531  26.917  1.00  0.00     0.040 A 
ATOM     96  C   UNL A   1      50.143  28.054  29.032  1.00  0.00     0.040 A 
ATOM     97  F   UNL A   1      49.608  30.060  30.133  1.00  0.00    -0.206 F 
ATOM     98  C   UNL A   1      49.979  27.182  27.957  1.00  0.00     0.006 A 
ENDBRANCH  70  91
BRANCH  82  99
ATOM     99  C   UNL A   1      50.110  36.229  26.423  1.00  0.00     0.057 A 
ATOM    100  C   UNL A   1      51.082  36.730  27.298  1.00  0.00     0.134 A 
ATOM    101  C   UNL A   1      50.372  36.318  25.049  1.00  0.00     0.134 A 
ATOM    102  F   UNL A   1      50.894  36.682  28.625  1.00  0.00    -0.206 F 
ATOM    103  C   UNL A   1      52.256  37.321  26.823  1.00  0.00     0.040 A 
ATOM    104  C   UNL A   1      51.555  36.877  24.564  1.00  0.00     0.040 A 
ATOM    105  F   UNL A   1      49.492  35.844  24.155  1.00  0.00    -0.206 F 
ATOM    106  C   UNL A   1      52.498  37.388  25.453  1.00  0.00     0.006 A 
ENDBRANCH  82  99
ENDBRANCH  56  57
ENDBRANCH  49  51
ENDBRANCH  48  49
ENDBRANCH  47  48
ENDBRANCH  46  47
ENDBRANCH  45  46
ENDBRANCH  44  45
ENDBRANCH  43  44
ENDBRANCH  42  43
ENDBRANCH   1  42
TORSDOF 28
ENDMDL
MODEL 2
REMARK VINA RESULT:      -7.2      3.351      5.615
REMARK SMILES CC(C)C[C@H](NC(=O)[C@H](Cc1ccccc1)NC(=O)CNC(=O)CNC(=O)OCc1ccccc1)C(=O)OCCOCCOC(=O)c1ccc(-c2c3nc(c(-c4c(F)cccc4F)c4ccc([nH]4)c(-c4c(F)cccc4F)c4nc(c(-c5c(F)cccc5F)c5ccc2[nH]5)C=C4)C=C3)cc1
REMARK SMILES IDX 36 1 37 2 5 3 4 4 2 5 1 6 3 7 6 8 7 9 8 11 9 12 17 13 18 14
REMARK SMILES IDX 19 16 20 17 21 18 22 19 23 21 24 22 25 23 26 24 27 26 28 27
REMARK SMILES IDX 29 28 30 29 31 30 35 31 32 32 34 33 33 34 10 35 11 36 12 37
REMARK SMILES IDX 16 38 13 39 15 40 14 41 38 42 39 43 40 44 41 45 42 46 43 47
REMARK SMILES IDX 44 48 45 49 46 50 47 51 48 52 100 53 49 54 99 55 50 56 51 57
REMARK SMILES IDX 52 58 93 59 53 60 98 61 92 62 94 63 54 64 97 65 91 66 90 67
REMARK SMILES IDX 55 69 81 70 64 71 80 72 65 73 68 74 79 75 95 76 66 77 67 78
REMARK SMILES IDX 78 80 96 81 69 82 56 83 57 84 62 85 58 86 59 87 61 88 63 89
REMARK SMILES IDX 60 90 82 91 83 92 88 93 84 94 85 95 87 96 89 97 86 98 70 99
REMARK SMILES IDX 71 100 76 101 72 102 73 103 75 104 77 105 74 106
REMARK H PARENT 6 10 17 15 21 20 25 25 94 68 68 79
REMARK Flexibility Score: inf
ROOT
ATOM      1  C   UNL A   1      36.616  32.949  32.601  1.00  0.00     0.328 C 
ATOM      2  O   UNL A   1      35.670  32.495  33.232  1.00  0.00    -0.250 OA
ENDROOT
BRANCH   1   3
ATOM      3  C   UNL A   1      37.612  32.071  31.847  1.00  0.00     0.192 C 
BRANCH   3   4
ATOM      4  C   UNL A   1      37.985  32.724  30.517  1.00  0.00     0.040 C 
BRANCH   4   5
ATOM      5  C   UNL A   1      39.230  33.601  30.254  1.00  0.00    -0.015 C 
ATOM      6  C   UNL A   1      40.217  33.088  29.215  1.00  0.00     0.007 C 
ATOM      7  C   UNL A   1      38.739  34.984  29.793  1.00  0.00     0.007 C 
ENDBRANCH   4   5
ENDBRANCH   3   4
BRANCH   3   8
ATOM      8  N   UNL A   1      37.144  30.661  31.783  1.00  0.00    -0.341 N 
ATOM      9  C   UNL A   1      37.061  29.680  30.834  1.00  0.00     0.243 C 
ATOM     10  H   UNL A   1      36.805  30.351  32.655  1.00  0.00     0.164 HD
ATOM     11  O   UNL A   1      37.037  28.525  31.290  1.00  0.00    -0.273 OA
BRANCH   9  12
ATOM     12  C   UNL A   1      36.693  29.907  29.330  1.00  0.00     0.175 C 
BRANCH  12  13
ATOM     13  N   UNL A   1      35.629  30.854  29.012  1.00  0.00    -0.342 N 
ATOM     14  C   UNL A   1      34.816  30.906  27.912  1.00  0.00     0.240 C 
ATOM     15  H   UNL A   1      35.473  31.555  29.685  1.00  0.00     0.164 HD
ATOM     16  O   UNL A   1      34.228  31.959  27.655  1.00  0.00    -0.273 OA
BRANCH  14  17
ATOM     17  C   UNL A   1      34.653  29.679  27.015  1.00  0.00     0.216 C 
BRANCH  17  18
ATOM     18  N   UNL A   1      33.638  29.876  26.001  1.00  0.00    -0.346 N 
ATOM     19  C   UNL A   1      33.168  29.026  25.044  1.00  0.00     0.239 C 
ATOM     20  H   UNL A   1      33.220  30.767  26.002  1.00  0.00     0.164 HD
ATOM     21  O   UNL A   1      32.165  29.376  24.419  1.00  0.00    -0.273 OA
BRANCH  19  22
ATOM     22  C   UNL A   1      33.791  27.642  24.815  1.00  0.00     0.219 C 
BRANCH  22  23
ATOM     23  N   UNL A   1      33.494  27.173  23.487  1.00  0.00    -0.312 N 
ATOM     24  C   UNL A   1      33.677  25.913  23.018  1.00  0.00     0.407 C 
ATOM     25  H   UNL A   1      33.122  27.831  22.856  1.00  0.00     0.167 HD
ATOM     26  O   UNL A   1      33.826  25.713  21.828  1.00  0.00    -0.225 OA
BRANCH  24  27
ATOM     27  O   UNL A   1      33.669  24.956  23.983  1.00  0.00    -0.445 OA
BRANCH  27  28
ATOM     28  C   UNL A   1      33.054  23.734  23.532  1.00  0.00     0.270 C 
BRANCH  28  29
ATOM     29  C   UNL A   1      33.992  22.590  23.842  1.00  0.00    -0.011 A 
ATOM     30  C   UNL A   1      33.470  21.342  24.217  1.00  0.00     0.007 A 
ATOM     31  C   UNL A   1      35.360  22.838  24.017  1.00  0.00     0.007 A 
ATOM     32  C   UNL A   1      34.286  20.384  24.815  1.00  0.00     0.000 A 
ATOM     33  C   UNL A   1      36.180  21.868  24.593  1.00  0.00     0.000 A 
ATOM     34  C   UNL A   1      35.641  20.645  24.999  1.00  0.00     0.000 A 
ENDBRANCH  28  29
ENDBRANCH  27  28
ENDBRANCH  24  27
ENDBRANCH  22  23
ENDBRANCH  19  22
ENDBRANCH  17  18
ENDBRANCH  14  17
ENDBRANCH  12  13
BRANCH  12  35
ATOM     35  C   UNL A   1      37.955  30.135  28.414  1.00  0.00     0.070 C 
BRANCH  35  36
ATOM     36  C   UNL A   1      39.074  29.151  28.715  1.00  0.00    -0.045 A 
ATOM     37  C   UNL A   1      39.016  27.857  28.169  1.00  0.00     0.004 A 
ATOM     38  C   UNL A   1      40.265  29.590  29.296  1.00  0.00     0.004 A 
ATOM     39  C   UNL A   1      40.179  27.112  28.003  1.00  0.00     0.000 A 
ATOM     40  C   UNL A   1      41.416  28.806  29.195  1.00  0.00     0.000 A 
ATOM     41  C   UNL A   1      41.384  27.596  28.500  1.00  0.00     0.000 A 
ENDBRANCH  35  36
ENDBRANCH  12  35
ENDBRANCH   9  12
ENDBRANCH   3   8
ENDBRANCH   1   3
BRANCH   1  42
ATOM     42  O   UNL A   1      36.993  34.259  32.576  1.00  0.00    -0.462 OA
BRANCH  42  43
ATOM     43  C   UNL A   1      37.589  34.747  33.791  1.00  0.00     0.261 C 
BRANCH  43  44
ATOM     44  C   UNL A   1      39.082  34.484  33.847  1.00  0.00     0.202 C 
BRANCH  44  45
ATOM     45  O   UNL A   1      39.608  34.454  35.169  1.00  0.00    -0.374 OA
BRANCH  45  46
ATOM     46  C   UNL A   1      38.663  34.739  36.199  1.00  0.00     0.202 C 
BRANCH  46  47
ATOM     47  C   UNL A   1      38.363  33.535  37.098  1.00  0.00     0.261 C 
BRANCH  47  48
ATOM     48  O   UNL A   1      37.684  32.484  36.387  1.00  0.00    -0.460 OA
BRANCH  48  49
ATOM     49  C   UNL A   1      38.012  31.200  36.691  1.00  0.00     0.338 C 
ATOM     50  O   UNL A   1      37.434  30.449  37.455  1.00  0.00    -0.246 OA
BRANCH  49  51
ATOM     51  C   UNL A   1      39.119  30.784  35.795  1.00  0.00     0.060 A 
ATOM     52  C   UNL A   1      38.868  30.100  34.599  1.00  0.00     0.016 A 
ATOM     53  C   UNL A   1      40.425  31.118  36.123  1.00  0.00     0.016 A 
ATOM     54  C   UNL A   1      39.937  29.723  33.760  1.00  0.00     0.010 A 
ATOM     55  C   UNL A   1      41.461  30.831  35.236  1.00  0.00     0.010 A 
ATOM     56  C   UNL A   1      41.261  30.067  34.079  1.00  0.00    -0.014 A 
BRANCH  56  57
ATOM     57  C   UNL A   1      42.453  29.544  33.328  1.00  0.00     0.031 A 
ATOM     58  C   UNL A   1      43.042  30.368  32.189  1.00  0.00     0.074 A 
ATOM     59  C   UNL A   1      43.005  28.339  33.587  1.00  0.00     0.049 A 
ATOM     60  N   UNL A   1      44.081  30.116  31.427  1.00  0.00    -0.248 NA
ATOM     61  C   UNL A   1      42.338  31.606  31.815  1.00  0.00     0.031 C 
ATOM     62  C   UNL A   1      42.515  27.359  34.557  1.00  0.00     0.029 A 
ATOM     63  N   UNL A   1      44.116  27.729  33.043  1.00  0.00    -0.354 N 
ATOM     64  C   UNL A   1      44.119  31.145  30.489  1.00  0.00     0.074 A 
ATOM     65  C   UNL A   1      42.930  31.934  30.682  1.00  0.00     0.031 C 
ATOM     66  C   UNL A   1      43.340  26.296  34.569  1.00  0.00     0.029 A 
ATOM     67  C   UNL A   1      44.422  26.513  33.610  1.00  0.00     0.049 A 
ATOM     68  H   UNL A   1      44.642  28.128  32.314  1.00  0.00     0.167 HD
ATOM     69  C   UNL A   1      45.083  31.472  29.596  1.00  0.00     0.037 A 
ATOM     70  C   UNL A   1      45.470  25.686  33.411  1.00  0.00     0.037 A 
ATOM     71  C   UNL A   1      46.305  30.741  29.427  1.00  0.00     0.049 A 
ATOM     72  C   UNL A   1      46.561  26.073  32.440  1.00  0.00     0.074 A 
ATOM     73  C   UNL A   1      47.392  31.046  28.628  1.00  0.00     0.029 A 
ATOM     74  N   UNL A   1      46.599  29.550  30.070  1.00  0.00    -0.354 N 
ATOM     75  N   UNL A   1      46.659  27.137  31.681  1.00  0.00    -0.248 NA
ATOM     76  C   UNL A   1      47.703  25.152  32.322  1.00  0.00     0.031 C 
ATOM     77  C   UNL A   1      48.323  30.009  28.745  1.00  0.00     0.029 A 
ATOM     78  C   UNL A   1      47.840  29.093  29.665  1.00  0.00     0.049 A 
ATOM     79  H   UNL A   1      46.012  29.097  30.717  1.00  0.00     0.167 HD
ATOM     80  C   UNL A   1      47.890  27.037  31.038  1.00  0.00     0.074 A 
ATOM     81  C   UNL A   1      48.507  25.814  31.502  1.00  0.00     0.031 C 
ATOM     82  C   UNL A   1      48.460  27.886  30.146  1.00  0.00     0.037 A 
BRANCH  69  83
ATOM     83  C   UNL A   1      44.864  32.710  28.768  1.00  0.00     0.057 A 
ATOM     84  C   UNL A   1      45.231  33.985  29.229  1.00  0.00     0.134 A 
ATOM     85  C   UNL A   1      44.280  32.633  27.497  1.00  0.00     0.134 A 
ATOM     86  F   UNL A   1      45.787  34.136  30.441  1.00  0.00    -0.206 F 
ATOM     87  C   UNL A   1      44.976  35.137  28.483  1.00  0.00     0.040 A 
ATOM     88  C   UNL A   1      44.057  33.775  26.725  1.00  0.00     0.040 A 
ATOM     89  F   UNL A   1      43.915  31.447  26.985  1.00  0.00    -0.206 F 
ATOM     90  C   UNL A   1      44.392  35.032  27.224  1.00  0.00     0.006 A 
ENDBRANCH  69  83
BRANCH  70  91
ATOM     91  C   UNL A   1      45.610  24.439  34.214  1.00  0.00     0.057 A 
ATOM     92  C   UNL A   1      45.067  23.229  33.758  1.00  0.00     0.134 A 
ATOM     93  C   UNL A   1      46.242  24.427  35.461  1.00  0.00     0.134 A 
ATOM     94  F   UNL A   1      44.427  23.178  32.580  1.00  0.00    -0.206 F 
ATOM     95  C   UNL A   1      45.119  22.063  34.525  1.00  0.00     0.040 A 
ATOM     96  C   UNL A   1      46.324  23.261  36.229  1.00  0.00     0.040 A 
ATOM     97  F   UNL A   1      46.788  25.549  35.955  1.00  0.00    -0.206 F 
ATOM     98  C   UNL A   1      45.753  22.078  35.765  1.00  0.00     0.006 A 
ENDBRANCH  70  91
BRANCH  82  99
ATOM     99  C   UNL A   1      49.840  27.564  29.649  1.00  0.00     0.057 A 
ATOM    100  C   UNL A   1      50.059  26.835  28.473  1.00  0.00     0.134 A 
ATOM    101  C   UNL A   1      50.969  28.041  30.331  1.00  0.00     0.134 A 
ATOM    102  F   UNL A   1      49.025  26.345  27.773  1.00  0.00    -0.206 F 
ATOM    103  C   UNL A   1      51.350  26.566  28.011  1.00  0.00     0.040 A 
ATOM    104  C   UNL A   1      52.261  27.807  29.861  1.00  0.00     0.040 A 
ATOM    105  F   UNL A   1      50.832  28.759  31.455  1.00  0.00    -0.206 F 
ATOM    106  C   UNL A   1      52.454  27.060  28.702  1.00  0.00     0.006 A 
ENDBRANCH  82  99
ENDBRANCH  56  57
ENDBRANCH  49  51
ENDBRANCH  48  49
ENDBRANCH  47  48
ENDBRANCH  46  47
ENDBRANCH  45  46
ENDBRANCH  44  45
ENDBRANCH  43  44
ENDBRANCH  42  43
ENDBRANCH   1  42
TORSDOF 28
ENDMDL
MODEL 3
REMARK VINA RESULT:      -7.1      6.019     11.353
REMARK SMILES CC(C)C[C@H](NC(=O)[C@H](Cc1ccccc1)NC(=O)CNC(=O)CNC(=O)OCc1ccccc1)C(=O)OCCOCCOC(=O)c1ccc(-c2c3nc(c(-c4c(F)cccc4F)c4ccc([nH]4)c(-c4c(F)cccc4F)c4nc(c(-c5c(F)cccc5F)c5ccc2[nH]5)C=C4)C=C3)cc1
REMARK SMILES IDX 36 1 37 2 5 3 4 4 2 5 1 6 3 7 6 8 7 9 8 11 9 12 17 13 18 14
REMARK SMILES IDX 19 16 20 17 21 18 22 19 23 21 24 22 25 23 26 24 27 26 28 27
REMARK SMILES IDX 29 28 30 29 31 30 35 31 32 32 34 33 33 34 10 35 11 36 12 37
REMARK SMILES IDX 16 38 13 39 15 40 14 41 38 42 39 43 40 44 41 45 42 46 43 47
REMARK SMILES IDX 44 48 45 49 46 50 47 51 48 52 100 53 49 54 99 55 50 56 51 57
REMARK SMILES IDX 52 58 93 59 53 60 98 61 92 62 94 63 54 64 97 65 91 66 90 67
REMARK SMILES IDX 55 69 81 70 64 71 80 72 65 73 68 74 79 75 95 76 66 77 67 78
REMARK SMILES IDX 78 80 96 81 69 82 56 83 57 84 62 85 58 86 59 87 61 88 63 89
REMARK SMILES IDX 60 90 82 91 83 92 88 93 84 94 85 95 87 96 89 97 86 98 70 99
REMARK SMILES IDX 71 100 76 101 72 102 73 103 75 104 77 105 74 106
REMARK H PARENT 6 10 17 15 21 20 25 25 94 68 68 79
REMARK Flexibility Score: inf
ROOT
ATOM      1  C   UNL A   1      39.786  28.389  27.919  1.00  0.00     0.328 C 
ATOM      2  O   UNL A   1      40.200  28.890  26.881  1.00  0.00    -0.250 OA
ENDROOT
BRANCH   1   3
ATOM      3  C   UNL A   1      40.492  27.234  28.625  1.00  0.00     0.192 C 
BRANCH   3   4
ATOM      4  C   UNL A   1      39.587  26.003  28.653  1.00  0.00     0.040 C 
BRANCH   4   5
ATOM      5  C   UNL A   1      39.861  24.659  27.942  1.00  0.00    -0.015 C 
ATOM      6  C   UNL A   1      39.683  24.640  26.430  1.00  0.00     0.007 C 
ATOM      7  C   UNL A   1      41.312  24.255  28.249  1.00  0.00     0.007 C 
ENDBRANCH   4   5
ENDBRANCH   3   4
BRANCH   3   8
ATOM      8  N   UNL A   1      41.057  27.669  29.931  1.00  0.00    -0.341 N 
ATOM      9  C   UNL A   1      41.814  28.710  30.393  1.00  0.00     0.243 C 
ATOM     10  H   UNL A   1      40.825  27.041  30.653  1.00  0.00     0.164 HD
ATOM     11  O   UNL A   1      41.685  28.940  31.607  1.00  0.00    -0.273 OA
BRANCH   9  12
ATOM     12  C   UNL A   1      42.996  29.381  29.618  1.00  0.00     0.175 C 
BRANCH  12  13
ATOM     13  N   UNL A   1      42.765  29.821  28.246  1.00  0.00    -0.342 N 
ATOM     14  C   UNL A   1      43.609  29.782  27.169  1.00  0.00     0.240 C 
ATOM     15  H   UNL A   1      41.873  30.200  28.069  1.00  0.00     0.164 HD
ATOM     16  O   UNL A   1      43.371  30.504  26.199  1.00  0.00    -0.273 OA
BRANCH  14  17
ATOM     17  C   UNL A   1      44.830  28.862  27.181  1.00  0.00     0.216 C 
BRANCH  17  18
ATOM     18  N   UNL A   1      45.722  29.127  26.071  1.00  0.00    -0.346 N 
ATOM     19  C   UNL A   1      46.124  28.320  25.048  1.00  0.00     0.239 C 
ATOM     20  H   UNL A   1      46.100  30.035  26.052  1.00  0.00     0.164 HD
ATOM     21  O   UNL A   1      46.746  28.844  24.123  1.00  0.00    -0.273 OA
BRANCH  19  22
ATOM     22  C   UNL A   1      45.734  26.837  24.988  1.00  0.00     0.219 C 
BRANCH  22  23
ATOM     23  N   UNL A   1      44.305  26.691  25.085  1.00  0.00    -0.312 N 
ATOM     24  C   UNL A   1      43.612  25.523  25.083  1.00  0.00     0.407 C 
ATOM     25  H   UNL A   1      43.778  27.519  25.160  1.00  0.00     0.167 HD
ATOM     26  O   UNL A   1      42.450  25.497  24.728  1.00  0.00    -0.225 OA
BRANCH  24  27
ATOM     27  O   UNL A   1      44.331  24.452  25.508  1.00  0.00    -0.445 OA
BRANCH  27  28
ATOM     28  C   UNL A   1      44.333  23.381  24.544  1.00  0.00     0.270 C 
BRANCH  28  29
ATOM     29  C   UNL A   1      43.804  22.136  25.219  1.00  0.00    -0.011 A 
ATOM     30  C   UNL A   1      44.460  20.910  25.031  1.00  0.00     0.007 A 
ATOM     31  C   UNL A   1      42.529  22.147  25.801  1.00  0.00     0.007 A 
ATOM     32  C   UNL A   1      43.828  19.711  25.360  1.00  0.00     0.000 A 
ATOM     33  C   UNL A   1      41.909  20.947  26.151  1.00  0.00     0.000 A 
ATOM     34  C   UNL A   1      42.556  19.731  25.924  1.00  0.00     0.000 A 
ENDBRANCH  28  29
ENDBRANCH  27  28
ENDBRANCH  24  27
ENDBRANCH  22  23
ENDBRANCH  19  22
ENDBRANCH  17  18
ENDBRANCH  14  17
ENDBRANCH  12  13
BRANCH  12  35
ATOM     35  C   UNL A   1      43.732  30.493  30.459  1.00  0.00     0.070 C 
BRANCH  35  36
ATOM     36  C   UNL A   1      42.954  31.798  30.499  1.00  0.00    -0.045 A 
ATOM     37  C   UNL A   1      42.164  32.091  31.624  1.00  0.00     0.004 A 
ATOM     38  C   UNL A   1      43.217  32.807  29.571  1.00  0.00     0.004 A 
ATOM     39  C   UNL A   1      41.839  33.409  31.929  1.00  0.00     0.000 A 
ATOM     40  C   UNL A   1      42.823  34.119  29.844  1.00  0.00     0.000 A 
ATOM     41  C   UNL A   1      42.187  34.426  31.047  1.00  0.00     0.000 A 
ENDBRANCH  35  36
ENDBRANCH  12  35
ENDBRANCH   9  12
ENDBRANCH   3   8
ENDBRANCH   1   3
BRANCH   1  42
ATOM     42  O   UNL A   1      38.599  28.687  28.521  1.00  0.00    -0.462 OA
BRANCH  42  43
ATOM     43  C   UNL A   1      37.783  29.642  27.822  1.00  0.00     0.261 C 
BRANCH  43  44
ATOM     44  C   UNL A   1      36.953  30.493  28.765  1.00  0.00     0.202 C 
BRANCH  44  45
ATOM     45  O   UNL A   1      37.352  31.858  28.804  1.00  0.00    -0.374 OA
BRANCH  45  46
ATOM     46  C   UNL A   1      36.356  32.789  28.383  1.00  0.00     0.202 C 
BRANCH  46  47
ATOM     47  C   UNL A   1      35.318  33.100  29.465  1.00  0.00     0.261 C 
BRANCH  47  48
ATOM     48  O   UNL A   1      35.821  34.018  30.452  1.00  0.00    -0.460 OA
BRANCH  48  49
ATOM     49  C   UNL A   1      35.274  33.972  31.696  1.00  0.00     0.338 C 
ATOM     50  O   UNL A   1      34.096  34.048  31.990  1.00  0.00    -0.246 OA
BRANCH  49  51
ATOM     51  C   UNL A   1      36.351  33.635  32.659  1.00  0.00     0.060 A 
ATOM     52  C   UNL A   1      36.124  32.759  33.728  1.00  0.00     0.016 A 
ATOM     53  C   UNL A   1      37.621  34.162  32.474  1.00  0.00     0.016 A 
ATOM     54  C   UNL A   1      37.167  32.449  34.625  1.00  0.00     0.010 A 
ATOM     55  C   UNL A   1      38.668  33.765  33.305  1.00  0.00     0.010 A 
ATOM     56  C   UNL A   1      38.458  32.967  34.438  1.00  0.00    -0.014 A 
BRANCH  56  57
ATOM     57  C   UNL A   1      39.560  32.823  35.449  1.00  0.00     0.031 A 
ATOM     58  C   UNL A   1      40.452  31.588  35.415  1.00  0.00     0.074 A 
ATOM     59  C   UNL A   1      39.769  33.726  36.431  1.00  0.00     0.049 A 
ATOM     60  N   UNL A   1      41.474  31.274  36.177  1.00  0.00    -0.248 NA
ATOM     61  C   UNL A   1      40.117  30.538  34.438  1.00  0.00     0.031 C 
ATOM     62  C   UNL A   1      38.953  34.910  36.700  1.00  0.00     0.029 A 
ATOM     63  N   UNL A   1      40.748  33.782  37.401  1.00  0.00    -0.354 N 
ATOM     64  C   UNL A   1      41.863  29.998  35.780  1.00  0.00     0.074 A 
ATOM     65  C   UNL A   1      40.889  29.539  34.823  1.00  0.00     0.031 C 
ATOM     66  C   UNL A   1      39.486  35.594  37.728  1.00  0.00     0.029 A 
ATOM     67  C   UNL A   1      40.685  34.902  38.198  1.00  0.00     0.049 A 
ATOM     68  H   UNL A   1      41.432  33.083  37.511  1.00  0.00     0.167 HD
ATOM     69  C   UNL A   1      42.969  29.285  36.104  1.00  0.00     0.037 A 
ATOM     70  C   UNL A   1      41.515  35.342  39.168  1.00  0.00     0.037 A 
ATOM     71  C   UNL A   1      43.986  29.744  37.006  1.00  0.00     0.049 A 
ATOM     72  C   UNL A   1      42.765  34.562  39.501  1.00  0.00     0.074 A 
ATOM     73  C   UNL A   1      45.194  29.149  37.321  1.00  0.00     0.029 A 
ATOM     74  N   UNL A   1      43.908  30.914  37.742  1.00  0.00    -0.354 N 
ATOM     75  N   UNL A   1      43.202  33.435  38.993  1.00  0.00    -0.248 NA
ATOM     76  C   UNL A   1      43.653  35.135  40.525  1.00  0.00     0.031 C 
ATOM     77  C   UNL A   1      45.824  29.933  38.292  1.00  0.00     0.029 A 
ATOM     78  C   UNL A   1      45.036  31.046  38.531  1.00  0.00     0.049 A 
ATOM     79  H   UNL A   1      43.161  31.555  37.708  1.00  0.00     0.167 HD
ATOM     80  C   UNL A   1      44.433  33.194  39.598  1.00  0.00     0.074 A 
ATOM     81  C   UNL A   1      44.678  34.295  40.502  1.00  0.00     0.031 C 
ATOM     82  C   UNL A   1      45.286  32.156  39.415  1.00  0.00     0.037 A 
BRANCH  69  83
ATOM     83  C   UNL A   1      43.149  27.950  35.433  1.00  0.00     0.057 A 
ATOM     84  C   UNL A   1      43.846  27.818  34.220  1.00  0.00     0.134 A 
ATOM     85  C   UNL A   1      42.625  26.782  36.000  1.00  0.00     0.134 A 
ATOM     86  F   UNL A   1      44.368  28.896  33.615  1.00  0.00    -0.206 F 
ATOM     87  C   UNL A   1      43.964  26.588  33.571  1.00  0.00     0.040 A 
ATOM     88  C   UNL A   1      42.772  25.540  35.380  1.00  0.00     0.040 A 
ATOM     89  F   UNL A   1      41.959  26.828  37.163  1.00  0.00    -0.206 F 
ATOM     90  C   UNL A   1      43.430  25.443  34.155  1.00  0.00     0.006 A 
ENDBRANCH  69  83
BRANCH  70  91
ATOM     91  C   UNL A   1      41.258  36.643  39.848  1.00  0.00     0.057 A 
ATOM     92  C   UNL A   1      41.877  37.819  39.401  1.00  0.00     0.134 A 
ATOM     93  C   UNL A   1      40.434  36.740  40.974  1.00  0.00     0.134 A 
ATOM     94  F   UNL A   1      42.698  37.788  38.341  1.00  0.00    -0.206 F 
ATOM     95  C   UNL A   1      41.712  39.036  40.066  1.00  0.00     0.040 A 
ATOM     96  C   UNL A   1      40.239  37.957  41.634  1.00  0.00     0.040 A 
ATOM     97  F   UNL A   1      39.807  35.655  41.452  1.00  0.00    -0.206 F 
ATOM     98  C   UNL A   1      40.887  39.107  41.185  1.00  0.00     0.006 A 
ENDBRANCH  70  91
BRANCH  82  99
ATOM     99  C   UNL A   1      46.591  32.175  40.158  1.00  0.00     0.057 A 
ATOM    100  C   UNL A   1      46.747  31.563  41.408  1.00  0.00     0.134 A 
ATOM    101  C   UNL A   1      47.724  32.771  39.586  1.00  0.00     0.134 A 
ATOM    102  F   UNL A   1      45.704  30.979  42.015  1.00  0.00    -0.206 F 
ATOM    103  C   UNL A   1      47.975  31.568  42.075  1.00  0.00     0.040 A 
ATOM    104  C   UNL A   1      48.963  32.754  40.227  1.00  0.00     0.040 A 
ATOM    105  F   UNL A   1      47.649  33.361  38.384  1.00  0.00    -0.206 F 
ATOM    106  C   UNL A   1      49.089  32.158  41.479  1.00  0.00     0.006 A 
ENDBRANCH  82  99
ENDBRANCH  56  57
ENDBRANCH  49  51
ENDBRANCH  48  49
ENDBRANCH  47  48
ENDBRANCH  46  47
ENDBRANCH  45  46
ENDBRANCH  44  45
ENDBRANCH  43  44
ENDBRANCH  42  43
ENDBRANCH   1  42
TORSDOF 28
ENDMDL
