MODEL 1
REMARK VINA RESULT:     -11.4      0.000      0.000
REMARK SMILES C#Cc1cc(Cl)cc2c1O[C@H](C(F)(F)F)C(C(=O)OCCOCCOC(=O)c1ccc(-c3c4nc(c(-c5c(F)cccc5F)c5ccc([nH]5)c(-c5c(F)cccc5F)c5nc(c(-c6c(F)cccc6F)c6ccc3[nH]6)C=C5)C=C4)cc1)=C2
REMARK SMILES IDX 23 1 22 2 21 3 20 4 19 5 17 6 18 7 16 8 3 9 4 10 9 11 5 12
REMARK SMILES IDX 8 13 10 14 6 15 7 16 82 17 11 18 2 19 1 20 12 21 13 22 14 23
REMARK SMILES IDX 15 24 24 25 25 26 26 27 27 28 28 29 29 30 81 31 30 32 80 33
REMARK SMILES IDX 31 34 32 35 33 36 74 37 34 38 79 39 73 40 75 41 35 42 78 43
REMARK SMILES IDX 72 44 71 45 36 47 62 48 45 49 61 50 46 51 49 52 60 53 76 54
REMARK SMILES IDX 47 55 48 56 59 58 77 59 50 60 37 61 38 62 43 63 39 64 40 65
REMARK SMILES IDX 42 66 44 67 41 68 63 69 64 70 69 71 65 72 66 73 68 74 70 75
REMARK SMILES IDX 67 76 51 77 52 78 57 79 53 80 54 81 56 82 58 83 55 84
REMARK H PARENT 75 46 49 57
REMARK Flexibility Score: inf
ROOT
ATOM      1  C   UNL A   1      31.391  31.962  26.668  1.00  0.00     0.202 C 
ENDROOT
BRANCH   1   2
ATOM      2  O   UNL A   1      31.812  30.608  26.810  1.00  0.00    -0.374 OA
BRANCH   2   3
ATOM      3  C   UNL A   1      32.466  29.965  25.722  1.00  0.00     0.202 C 
BRANCH   3   4
ATOM      4  C   UNL A   1      31.754  28.827  24.987  1.00  0.00     0.261 C 
BRANCH   4   5
ATOM      5  O   UNL A   1      32.428  27.570  25.133  1.00  0.00    -0.460 OA
BRANCH   5   6
ATOM      6  C   UNL A   1      31.847  26.737  26.029  1.00  0.00     0.338 C 
ATOM      7  O   UNL A   1      30.990  27.024  26.848  1.00  0.00    -0.246 OA
BRANCH   6   8
ATOM      8  C   UNL A   1      32.302  25.355  25.789  1.00  0.00     0.087 C 
ATOM      9  C   UNL A   1      33.853  21.667  24.619  1.00  0.00     0.068 A 
ATOM     10  C   UNL A   1      35.233  21.451  24.704  1.00  0.00     0.041 A 
ATOM     11  C   UNL A   1      33.296  22.856  25.115  1.00  0.00     0.143 A 
ATOM     12  C   UNL A   1      36.049  22.409  25.300  1.00  0.00     0.043 A 
ATOM     13  C   UNL A   1      34.134  23.828  25.674  1.00  0.00     0.020 A 
ATOM     14  O   UNL A   1      31.938  23.013  25.033  1.00  0.00    -0.474 OA
ATOM     15  Cl  UNL A   1      37.747  22.147  25.397  1.00  0.00    -0.084 Cl
ATOM     16  C   UNL A   1      35.507  23.592  25.790  1.00  0.00     0.032 A 
ATOM     17  C   UNL A   1      33.593  25.120  26.051  1.00  0.00     0.027 C 
ATOM     18  C   UNL A   1      31.353  24.324  25.249  1.00  0.00     0.316 C 
BRANCH   9  19
ATOM     19  C   UNL A   1      33.043  20.683  23.965  1.00  0.00    -0.067 C 
ATOM     20  C   UNL A   1      32.366  19.836  23.445  1.00  0.00     0.010 C 
ENDBRANCH   9  19
BRANCH  18  21
ATOM     21  C   UNL A   1      30.672  24.774  23.948  1.00  0.00     0.430 C 
ATOM     22  F   UNL A   1      29.662  25.642  24.196  1.00  0.00    -0.167 F 
ATOM     23  F   UNL A   1      31.535  25.413  23.123  1.00  0.00    -0.167 F 
ATOM     24  F   UNL A   1      30.154  23.730  23.262  1.00  0.00    -0.167 F 
ENDBRANCH  18  21
ENDBRANCH   6   8
ENDBRANCH   5   6
ENDBRANCH   4   5
ENDBRANCH   3   4
ENDBRANCH   2   3
ENDBRANCH   1   2
BRANCH   1  25
ATOM     25  C   UNL A   1      32.391  33.107  26.882  1.00  0.00     0.261 C 
BRANCH  25  26
ATOM     26  O   UNL A   1      32.189  33.845  28.097  1.00  0.00    -0.460 OA
BRANCH  26  27
ATOM     27  C   UNL A   1      33.250  34.607  28.466  1.00  0.00     0.338 C 
ATOM     28  O   UNL A   1      33.263  35.804  28.691  1.00  0.00    -0.246 OA
BRANCH  27  29
ATOM     29  C   UNL A   1      34.406  33.741  28.750  1.00  0.00     0.060 A 
ATOM     30  C   UNL A   1      34.171  32.506  29.369  1.00  0.00     0.016 A 
ATOM     31  C   UNL A   1      35.705  34.181  28.503  1.00  0.00     0.016 A 
ATOM     32  C   UNL A   1      35.242  31.717  29.773  1.00  0.00     0.010 A 
ATOM     33  C   UNL A   1      36.779  33.393  28.923  1.00  0.00     0.010 A 
ATOM     34  C   UNL A   1      36.553  32.174  29.588  1.00  0.00    -0.014 A 
BRANCH  34  35
ATOM     35  C   UNL A   1      37.677  31.446  30.222  1.00  0.00     0.031 A 
ATOM     36  C   UNL A   1      37.987  31.703  31.671  1.00  0.00     0.074 A 
ATOM     37  C   UNL A   1      38.384  30.538  29.526  1.00  0.00     0.049 A 
ATOM     38  N   UNL A   1      38.950  31.216  32.410  1.00  0.00    -0.248 NA
ATOM     39  C   UNL A   1      37.094  32.632  32.383  1.00  0.00     0.031 C 
ATOM     40  C   UNL A   1      38.140  30.165  28.134  1.00  0.00     0.029 A 
ATOM     41  N   UNL A   1      39.455  29.766  29.899  1.00  0.00    -0.354 N 
ATOM     42  C   UNL A   1      38.778  31.778  33.669  1.00  0.00     0.074 A 
ATOM     43  C   UNL A   1      37.648  32.674  33.586  1.00  0.00     0.031 C 
ATOM     44  C   UNL A   1      39.036  29.232  27.770  1.00  0.00     0.029 A 
ATOM     45  C   UNL A   1      39.942  28.975  28.887  1.00  0.00     0.049 A 
ATOM     46  H   UNL A   1      39.838  29.778  30.806  1.00  0.00     0.167 HD
ATOM     47  C   UNL A   1      39.491  31.548  34.796  1.00  0.00     0.037 A 
ATOM     48  C   UNL A   1      41.009  28.153  28.862  1.00  0.00     0.037 A 
ATOM     49  C   UNL A   1      40.611  30.647  34.875  1.00  0.00     0.049 A 
ATOM     50  C   UNL A   1      41.846  27.995  30.106  1.00  0.00     0.074 A 
ATOM     51  C   UNL A   1      41.395  30.348  35.975  1.00  0.00     0.029 A 
ATOM     52  N   UNL A   1      41.105  29.904  33.814  1.00  0.00    -0.354 N 
ATOM     53  N   UNL A   1      41.669  28.520  31.295  1.00  0.00    -0.248 NA
ATOM     54  C   UNL A   1      43.033  27.132  30.005  1.00  0.00     0.031 C 
ATOM     55  C   UNL A   1      42.400  29.469  35.567  1.00  0.00     0.029 A 
ATOM     56  C   UNL A   1      42.203  29.168  34.229  1.00  0.00     0.049 A 
ATOM     57  H   UNL A   1      40.734  29.900  32.903  1.00  0.00     0.167 HD
ATOM     58  C   UNL A   1      42.697  28.024  32.089  1.00  0.00     0.074 A 
ATOM     59  C   UNL A   1      43.484  27.143  31.251  1.00  0.00     0.031 C 
ATOM     60  C   UNL A   1      42.969  28.280  33.391  1.00  0.00     0.037 A 
BRANCH  47  61
ATOM     61  C   UNL A   1      39.091  32.276  36.047  1.00  0.00     0.057 A 
ATOM     62  C   UNL A   1      39.505  33.591  36.296  1.00  0.00     0.134 A 
ATOM     63  C   UNL A   1      38.199  31.694  36.957  1.00  0.00     0.134 A 
ATOM     64  F   UNL A   1      40.368  34.201  35.471  1.00  0.00    -0.206 F 
ATOM     65  C   UNL A   1      39.047  34.300  37.409  1.00  0.00     0.040 A 
ATOM     66  C   UNL A   1      37.712  32.403  38.057  1.00  0.00     0.040 A 
ATOM     67  F   UNL A   1      37.760  30.440  36.774  1.00  0.00    -0.206 F 
ATOM     68  C   UNL A   1      38.135  33.711  38.283  1.00  0.00     0.006 A 
ENDBRANCH  47  61
BRANCH  48  69
ATOM     69  C   UNL A   1      41.353  27.413  27.620  1.00  0.00     0.057 A 
ATOM     70  C   UNL A   1      40.906  26.103  27.411  1.00  0.00     0.134 A 
ATOM     71  C   UNL A   1      42.151  27.985  26.620  1.00  0.00     0.134 A 
ATOM     72  F   UNL A   1      40.157  25.489  28.340  1.00  0.00    -0.206 F 
ATOM     73  C   UNL A   1      41.253  25.383  26.266  1.00  0.00     0.040 A 
ATOM     74  C   UNL A   1      42.478  27.288  25.456  1.00  0.00     0.040 A 
ATOM     75  F   UNL A   1      42.614  29.236  26.755  1.00  0.00    -0.206 F 
ATOM     76  C   UNL A   1      42.036  25.979  25.280  1.00  0.00     0.006 A 
ENDBRANCH  48  69
BRANCH  60  77
ATOM     77  C   UNL A   1      44.143  27.580  34.016  1.00  0.00     0.057 A 
ATOM     78  C   UNL A   1      45.407  28.176  34.087  1.00  0.00     0.134 A 
ATOM     79  C   UNL A   1      43.983  26.330  34.632  1.00  0.00     0.134 A 
ATOM     80  F   UNL A   1      45.630  29.368  33.512  1.00  0.00    -0.206 F 
ATOM     81  C   UNL A   1      46.474  27.551  34.733  1.00  0.00     0.040 A 
ATOM     82  C   UNL A   1      45.033  25.711  35.310  1.00  0.00     0.040 A 
ATOM     83  F   UNL A   1      42.795  25.708  34.616  1.00  0.00    -0.206 F 
ATOM     84  C   UNL A   1      46.286  26.320  35.358  1.00  0.00     0.006 A 
ENDBRANCH  60  77
ENDBRANCH  34  35
ENDBRANCH  27  29
ENDBRANCH  26  27
ENDBRANCH  25  26
ENDBRANCH   1  25
TORSDOF 16
ENDMDL
MODEL 2
REMARK VINA RESULT:     -11.1      0.501      6.218
REMARK SMILES C#Cc1cc(Cl)cc2c1O[C@H](C(F)(F)F)C(C(=O)OCCOCCOC(=O)c1ccc(-c3c4nc(c(-c5c(F)cccc5F)c5ccc([nH]5)c(-c5c(F)cccc5F)c5nc(c(-c6c(F)cccc6F)c6ccc3[nH]6)C=C5)C=C4)cc1)=C2
REMARK SMILES IDX 23 1 22 2 21 3 20 4 19 5 17 6 18 7 16 8 3 9 4 10 9 11 5 12
REMARK SMILES IDX 8 13 10 14 6 15 7 16 82 17 11 18 2 19 1 20 12 21 13 22 14 23
REMARK SMILES IDX 15 24 24 25 25 26 26 27 27 28 28 29 29 30 81 31 30 32 80 33
REMARK SMILES IDX 31 34 32 35 33 36 74 37 34 38 79 39 73 40 75 41 35 42 78 43
REMARK SMILES IDX 72 44 71 45 36 47 62 48 45 49 61 50 46 51 49 52 60 53 76 54
REMARK SMILES IDX 47 55 48 56 59 58 77 59 50 60 37 61 38 62 43 63 39 64 40 65
REMARK SMILES IDX 42 66 44 67 41 68 63 69 64 70 69 71 65 72 66 73 68 74 70 75
REMARK SMILES IDX 67 76 51 77 52 78 57 79 53 80 54 81 56 82 58 83 55 84
REMARK H PARENT 75 46 49 57
REMARK Flexibility Score: inf
ROOT
ATOM      1  C   UNL A   1      31.395  31.949  26.627  1.00  0.00     0.202 C 
ENDROOT
BRANCH   1   2
ATOM      2  O   UNL A   1      31.820  30.593  26.734  1.00  0.00    -0.374 OA
BRANCH   2   3
ATOM      3  C   UNL A   1      32.442  29.969  25.617  1.00  0.00     0.202 C 
BRANCH   3   4
ATOM      4  C   UNL A   1      31.769  28.757  24.967  1.00  0.00     0.261 C 
BRANCH   4   5
ATOM      5  O   UNL A   1      32.488  27.539  25.198  1.00  0.00    -0.460 OA
BRANCH   5   6
ATOM      6  C   UNL A   1      31.878  26.698  26.068  1.00  0.00     0.338 C 
ATOM      7  O   UNL A   1      30.998  26.980  26.864  1.00  0.00    -0.246 OA
BRANCH   6   8
ATOM      8  C   UNL A   1      32.336  25.317  25.828  1.00  0.00     0.087 C 
ATOM      9  C   UNL A   1      33.893  21.632  24.657  1.00  0.00     0.068 A 
ATOM     10  C   UNL A   1      35.274  21.420  24.735  1.00  0.00     0.041 A 
ATOM     11  C   UNL A   1      33.335  22.820  25.153  1.00  0.00     0.143 A 
ATOM     12  C   UNL A   1      36.090  22.381  25.326  1.00  0.00     0.043 A 
ATOM     13  C   UNL A   1      34.172  23.796  25.707  1.00  0.00     0.020 A 
ATOM     14  O   UNL A   1      31.976  22.973  25.077  1.00  0.00    -0.474 OA
ATOM     15  Cl  UNL A   1      37.789  22.125  25.415  1.00  0.00    -0.084 Cl
ATOM     16  C   UNL A   1      35.547  23.564  25.817  1.00  0.00     0.032 A 
ATOM     17  C   UNL A   1      33.630  25.086  26.084  1.00  0.00     0.027 C 
ATOM     18  C   UNL A   1      31.387  24.283  25.294  1.00  0.00     0.316 C 
BRANCH   9  19
ATOM     19  C   UNL A   1      33.083  20.644  24.009  1.00  0.00    -0.067 C 
ATOM     20  C   UNL A   1      32.402  19.796  23.494  1.00  0.00     0.010 C 
ENDBRANCH   9  19
BRANCH  18  21
ATOM     21  C   UNL A   1      30.699  24.728  23.996  1.00  0.00     0.430 C 
ATOM     22  F   UNL A   1      30.200  23.670  23.314  1.00  0.00    -0.167 F 
ATOM     23  F   UNL A   1      29.655  25.557  24.239  1.00  0.00    -0.167 F 
ATOM     24  F   UNL A   1      31.549  25.381  23.172  1.00  0.00    -0.167 F 
ENDBRANCH  18  21
ENDBRANCH   6   8
ENDBRANCH   5   6
ENDBRANCH   4   5
ENDBRANCH   3   4
ENDBRANCH   2   3
ENDBRANCH   1   2
BRANCH   1  25
ATOM     25  C   UNL A   1      32.392  33.091  26.875  1.00  0.00     0.261 C 
BRANCH  25  26
ATOM     26  O   UNL A   1      32.171  33.810  28.098  1.00  0.00    -0.460 OA
BRANCH  26  27
ATOM     27  C   UNL A   1      33.196  34.626  28.454  1.00  0.00     0.338 C 
ATOM     28  O   UNL A   1      33.169  35.836  28.593  1.00  0.00    -0.246 OA
BRANCH  27  29
ATOM     29  C   UNL A   1      34.359  33.815  28.848  1.00  0.00     0.060 A 
ATOM     30  C   UNL A   1      34.138  32.681  29.642  1.00  0.00     0.016 A 
ATOM     31  C   UNL A   1      35.654  34.220  28.526  1.00  0.00     0.016 A 
ATOM     32  C   UNL A   1      35.219  31.964  30.144  1.00  0.00     0.010 A 
ATOM     33  C   UNL A   1      36.737  33.506  29.044  1.00  0.00     0.010 A 
ATOM     34  C   UNL A   1      36.524  32.395  29.881  1.00  0.00    -0.014 A 
BRANCH  34  35
ATOM     35  C   UNL A   1      37.659  31.772  30.601  1.00  0.00     0.031 A 
ATOM     36  C   UNL A   1      38.483  30.727  29.899  1.00  0.00     0.074 A 
ATOM     37  C   UNL A   1      37.976  32.163  31.848  1.00  0.00     0.049 A 
ATOM     38  N   UNL A   1      39.485  30.022  30.354  1.00  0.00    -0.248 NA
ATOM     39  C   UNL A   1      38.130  30.439  28.499  1.00  0.00     0.031 C 
ATOM     40  C   UNL A   1      37.287  33.205  32.607  1.00  0.00     0.029 A 
ATOM     41  N   UNL A   1      38.962  31.726  32.696  1.00  0.00    -0.354 N 
ATOM     42  C   UNL A   1      39.881  29.208  29.300  1.00  0.00     0.074 A 
ATOM     43  C   UNL A   1      38.987  29.474  28.196  1.00  0.00     0.031 C 
ATOM     44  C   UNL A   1      37.873  33.327  33.810  1.00  0.00     0.029 A 
ATOM     45  C   UNL A   1      38.949  32.345  33.921  1.00  0.00     0.049 A 
ATOM     46  H   UNL A   1      39.617  31.033  32.449  1.00  0.00     0.167 HD
ATOM     47  C   UNL A   1      40.912  28.333  29.254  1.00  0.00     0.037 A 
ATOM     48  C   UNL A   1      39.707  32.129  35.015  1.00  0.00     0.037 A 
ATOM     49  C   UNL A   1      41.805  28.078  30.354  1.00  0.00     0.049 A 
ATOM     50  C   UNL A   1      40.783  31.075  34.967  1.00  0.00     0.074 A 
ATOM     51  C   UNL A   1      42.881  27.210  30.401  1.00  0.00     0.029 A 
ATOM     52  N   UNL A   1      41.726  28.688  31.596  1.00  0.00    -0.354 N 
ATOM     53  N   UNL A   1      41.159  30.321  33.962  1.00  0.00    -0.248 NA
ATOM     54  C   UNL A   1      41.540  30.840  36.205  1.00  0.00     0.031 C 
ATOM     55  C   UNL A   1      43.417  27.249  31.690  1.00  0.00     0.029 A 
ATOM     56  C   UNL A   1      42.718  28.192  32.426  1.00  0.00     0.049 A 
ATOM     57  H   UNL A   1      41.064  29.371  31.851  1.00  0.00     0.167 HD
ATOM     58  C   UNL A   1      42.215  29.550  34.436  1.00  0.00     0.074 A 
ATOM     59  C   UNL A   1      42.431  29.941  35.813  1.00  0.00     0.031 C 
ATOM     60  C   UNL A   1      42.935  28.602  33.791  1.00  0.00     0.037 A 
BRANCH  47  61
ATOM     61  C   UNL A   1      41.144  27.579  27.977  1.00  0.00     0.057 A 
ATOM     62  C   UNL A   1      40.531  26.344  27.731  1.00  0.00     0.134 A 
ATOM     63  C   UNL A   1      41.903  28.142  26.942  1.00  0.00     0.134 A 
ATOM     64  F   UNL A   1      39.802  25.744  28.683  1.00  0.00    -0.206 F 
ATOM     65  C   UNL A   1      40.667  25.696  26.501  1.00  0.00     0.040 A 
ATOM     66  C   UNL A   1      42.021  27.518  25.700  1.00  0.00     0.040 A 
ATOM     67  F   UNL A   1      42.512  29.326  27.111  1.00  0.00    -0.206 F 
ATOM     68  C   UNL A   1      41.400  26.291  25.477  1.00  0.00     0.006 A 
ENDBRANCH  47  61
BRANCH  48  69
ATOM     69  C   UNL A   1      39.480  32.924  36.250  1.00  0.00     0.057 A 
ATOM     70  C   UNL A   1      40.180  34.113  36.484  1.00  0.00     0.134 A 
ATOM     71  C   UNL A   1      38.576  32.508  37.236  1.00  0.00     0.134 A 
ATOM     72  F   UNL A   1      41.078  34.555  35.590  1.00  0.00    -0.206 F 
ATOM     73  C   UNL A   1      40.004  34.850  37.657  1.00  0.00     0.040 A 
ATOM     74  C   UNL A   1      38.366  33.251  38.399  1.00  0.00     0.040 A 
ATOM     75  F   UNL A   1      37.872  31.377  37.077  1.00  0.00    -0.206 F 
ATOM     76  C   UNL A   1      39.089  34.422  38.616  1.00  0.00     0.006 A 
ENDBRANCH  48  69
BRANCH  60  77
ATOM     77  C   UNL A   1      44.052  27.934  34.543  1.00  0.00     0.057 A 
ATOM     78  C   UNL A   1      45.336  28.489  34.609  1.00  0.00     0.134 A 
ATOM     79  C   UNL A   1      43.816  26.765  35.282  1.00  0.00     0.134 A 
ATOM     80  F   UNL A   1      45.631  29.602  33.919  1.00  0.00    -0.206 F 
ATOM     81  C   UNL A   1      46.348  27.901  35.368  1.00  0.00     0.040 A 
ATOM     82  C   UNL A   1      44.811  26.187  36.071  1.00  0.00     0.040 A 
ATOM     83  F   UNL A   1      42.606  26.187  35.277  1.00  0.00    -0.206 F 
ATOM     84  C   UNL A   1      46.083  26.753  36.112  1.00  0.00     0.006 A 
ENDBRANCH  60  77
ENDBRANCH  34  35
ENDBRANCH  27  29
ENDBRANCH  26  27
ENDBRANCH  25  26
ENDBRANCH   1  25
TORSDOF 16
ENDMDL
MODEL 3
REMARK VINA RESULT:     -11.1      4.092      7.829
REMARK SMILES C#Cc1cc(Cl)cc2c1O[C@H](C(F)(F)F)C(C(=O)OCCOCCOC(=O)c1ccc(-c3c4nc(c(-c5c(F)cccc5F)c5ccc([nH]5)c(-c5c(F)cccc5F)c5nc(c(-c6c(F)cccc6F)c6ccc3[nH]6)C=C5)C=C4)cc1)=C2
REMARK SMILES IDX 23 1 22 2 21 3 20 4 19 5 17 6 18 7 16 8 3 9 4 10 9 11 5 12
REMARK SMILES IDX 8 13 10 14 6 15 7 16 82 17 11 18 2 19 1 20 12 21 13 22 14 23
REMARK SMILES IDX 15 24 24 25 25 26 26 27 27 28 28 29 29 30 81 31 30 32 80 33
REMARK SMILES IDX 31 34 32 35 33 36 74 37 34 38 79 39 73 40 75 41 35 42 78 43
REMARK SMILES IDX 72 44 71 45 36 47 62 48 45 49 61 50 46 51 49 52 60 53 76 54
REMARK SMILES IDX 47 55 48 56 59 58 77 59 50 60 37 61 38 62 43 63 39 64 40 65
REMARK SMILES IDX 42 66 44 67 41 68 63 69 64 70 69 71 65 72 66 73 68 74 70 75
REMARK SMILES IDX 67 76 51 77 52 78 57 79 53 80 54 81 56 82 58 83 55 84
REMARK H PARENT 75 46 49 57
REMARK Flexibility Score: inf
ROOT
ATOM      1  C   UNL A   1      35.210  20.597  25.133  1.00  0.00     0.202 C 
ENDROOT
BRANCH   1   2
ATOM      2  O   UNL A   1      34.753  21.920  24.869  1.00  0.00    -0.374 OA
BRANCH   2   3
ATOM      3  C   UNL A   1      34.114  22.201  23.629  1.00  0.00     0.202 C 
BRANCH   3   4
ATOM      4  C   UNL A   1      32.607  21.975  23.495  1.00  0.00     0.261 C 
BRANCH   4   5
ATOM      5  O   UNL A   1      31.860  23.197  23.546  1.00  0.00    -0.460 OA
BRANCH   5   6
ATOM      6  C   UNL A   1      31.336  23.471  24.765  1.00  0.00     0.338 C 
ATOM      7  O   UNL A   1      31.124  22.676  25.666  1.00  0.00    -0.246 OA
BRANCH   6   8
ATOM      8  C   UNL A   1      31.175  24.929  24.921  1.00  0.00     0.087 C 
ATOM      9  C   UNL A   1      31.040  29.094  24.856  1.00  0.00     0.068 A 
ATOM     10  C   UNL A   1      30.275  29.735  23.875  1.00  0.00     0.041 A 
ATOM     11  C   UNL A   1      31.008  27.695  24.969  1.00  0.00     0.143 A 
ATOM     12  C   UNL A   1      29.466  28.985  23.026  1.00  0.00     0.043 A 
ATOM     13  C   UNL A   1      30.222  26.951  24.082  1.00  0.00     0.020 A 
ATOM     14  O   UNL A   1      31.753  27.114  25.960  1.00  0.00    -0.474 OA
ATOM     15  Cl  UNL A   1      28.533  29.773  21.815  1.00  0.00    -0.084 Cl
ATOM     16  C   UNL A   1      29.432  27.598  23.127  1.00  0.00     0.032 A 
ATOM     17  C   UNL A   1      30.297  25.503  24.089  1.00  0.00     0.027 C 
ATOM     18  C   UNL A   1      31.991  25.681  25.931  1.00  0.00     0.316 C 
BRANCH   9  19
ATOM     19  C   UNL A   1      31.892  29.888  25.690  1.00  0.00    -0.067 C 
ATOM     20  C   UNL A   1      32.628  30.527  26.395  1.00  0.00     0.010 C 
ENDBRANCH   9  19
BRANCH  18  21
ATOM     21  C   UNL A   1      33.499  25.441  25.768  1.00  0.00     0.430 C 
ATOM     22  F   UNL A   1      33.833  25.273  24.467  1.00  0.00    -0.167 F 
ATOM     23  F   UNL A   1      34.227  26.489  26.221  1.00  0.00    -0.167 F 
ATOM     24  F   UNL A   1      33.910  24.342  26.441  1.00  0.00    -0.167 F 
ENDBRANCH  18  21
ENDBRANCH   6   8
ENDBRANCH   5   6
ENDBRANCH   4   5
ENDBRANCH   3   4
ENDBRANCH   2   3
ENDBRANCH   1   2
BRANCH   1  25
ATOM     25  C   UNL A   1      36.702  20.255  25.001  1.00  0.00     0.261 C 
BRANCH  25  26
ATOM     26  O   UNL A   1      37.580  21.378  25.175  1.00  0.00    -0.460 OA
BRANCH  26  27
ATOM     27  C   UNL A   1      38.750  21.076  25.795  1.00  0.00     0.338 C 
ATOM     28  O   UNL A   1      39.364  20.025  25.751  1.00  0.00    -0.246 OA
BRANCH  27  29
ATOM     29  C   UNL A   1      39.310  22.288  26.413  1.00  0.00     0.060 A 
ATOM     30  C   UNL A   1      38.761  23.528  26.055  1.00  0.00     0.016 A 
ATOM     31  C   UNL A   1      40.421  22.214  27.251  1.00  0.00     0.016 A 
ATOM     32  C   UNL A   1      39.345  24.704  26.514  1.00  0.00     0.010 A 
ATOM     33  C   UNL A   1      41.013  23.397  27.699  1.00  0.00     0.010 A 
ATOM     34  C   UNL A   1      40.498  24.646  27.306  1.00  0.00    -0.014 A 
BRANCH  34  35
ATOM     35  C   UNL A   1      41.246  25.891  27.599  1.00  0.00     0.031 A 
ATOM     36  C   UNL A   1      40.572  26.978  28.390  1.00  0.00     0.074 A 
ATOM     37  C   UNL A   1      42.523  26.032  27.200  1.00  0.00     0.049 A 
ATOM     38  N   UNL A   1      41.021  28.162  28.717  1.00  0.00    -0.248 NA
ATOM     39  C   UNL A   1      39.212  26.695  28.876  1.00  0.00     0.031 C 
ATOM     40  C   UNL A   1      43.298  25.025  26.478  1.00  0.00     0.029 A 
ATOM     41  N   UNL A   1      43.393  27.082  27.348  1.00  0.00    -0.354 N 
ATOM     42  C   UNL A   1      40.001  28.762  29.445  1.00  0.00     0.074 A 
ATOM     43  C   UNL A   1      38.895  27.833  29.477  1.00  0.00     0.031 C 
ATOM     44  C   UNL A   1      44.530  25.507  26.246  1.00  0.00     0.029 A 
ATOM     45  C   UNL A   1      44.617  26.870  26.766  1.00  0.00     0.049 A 
ATOM     46  H   UNL A   1      43.160  27.911  27.828  1.00  0.00     0.167 HD
ATOM     47  C   UNL A   1      40.000  29.973  30.049  1.00  0.00     0.037 A 
ATOM     48  C   UNL A   1      45.680  27.690  26.648  1.00  0.00     0.037 A 
ATOM     49  C   UNL A   1      41.108  30.891  30.022  1.00  0.00     0.049 A 
ATOM     50  C   UNL A   1      45.611  29.073  27.244  1.00  0.00     0.074 A 
ATOM     51  C   UNL A   1      41.200  32.142  30.607  1.00  0.00     0.029 A 
ATOM     52  N   UNL A   1      42.312  30.660  29.376  1.00  0.00    -0.354 N 
ATOM     53  N   UNL A   1      44.649  29.627  27.942  1.00  0.00    -0.248 NA
ATOM     54  C   UNL A   1      46.776  29.947  27.035  1.00  0.00     0.031 C 
ATOM     55  C   UNL A   1      42.437  32.693  30.266  1.00  0.00     0.029 A 
ATOM     56  C   UNL A   1      43.143  31.759  29.525  1.00  0.00     0.049 A 
ATOM     57  H   UNL A   1      42.543  29.839  28.885  1.00  0.00     0.167 HD
ATOM     58  C   UNL A   1      45.105  30.895  28.283  1.00  0.00     0.074 A 
ATOM     59  C   UNL A   1      46.437  31.023  27.731  1.00  0.00     0.031 C 
ATOM     60  C   UNL A   1      44.475  31.868  28.985  1.00  0.00     0.037 A 
BRANCH  47  61
ATOM     61  C   UNL A   1      38.766  30.389  30.797  1.00  0.00     0.057 A 
ATOM     62  C   UNL A   1      38.602  30.106  32.159  1.00  0.00     0.134 A 
ATOM     63  C   UNL A   1      37.783  31.170  30.176  1.00  0.00     0.134 A 
ATOM     64  F   UNL A   1      39.500  29.352  32.811  1.00  0.00    -0.206 F 
ATOM     65  C   UNL A   1      37.503  30.584  32.875  1.00  0.00     0.040 A 
ATOM     66  C   UNL A   1      36.695  31.678  30.888  1.00  0.00     0.040 A 
ATOM     67  F   UNL A   1      37.882  31.482  28.875  1.00  0.00    -0.206 F 
ATOM     68  C   UNL A   1      36.554  31.385  32.243  1.00  0.00     0.006 A 
ENDBRANCH  47  61
BRANCH  48  69
ATOM     69  C   UNL A   1      46.903  27.232  25.938  1.00  0.00     0.057 A 
ATOM     70  C   UNL A   1      47.067  27.453  24.565  1.00  0.00     0.134 A 
ATOM     71  C   UNL A   1      47.927  26.547  26.604  1.00  0.00     0.134 A 
ATOM     72  F   UNL A   1      46.113  28.083  23.863  1.00  0.00    -0.206 F 
ATOM     73  C   UNL A   1      48.193  26.995  23.878  1.00  0.00     0.040 A 
ATOM     74  C   UNL A   1      49.073  26.112  25.936  1.00  0.00     0.040 A 
ATOM     75  F   UNL A   1      47.834  26.302  27.919  1.00  0.00    -0.206 F 
ATOM     76  C   UNL A   1      49.204  26.328  24.567  1.00  0.00     0.006 A 
ENDBRANCH  48  69
BRANCH  60  77
ATOM     77  C   UNL A   1      45.218  33.150  29.234  1.00  0.00     0.057 A 
ATOM     78  C   UNL A   1      45.070  34.265  28.401  1.00  0.00     0.134 A 
ATOM     79  C   UNL A   1      46.025  33.298  30.372  1.00  0.00     0.134 A 
ATOM     80  F   UNL A   1      44.318  34.190  27.292  1.00  0.00    -0.206 F 
ATOM     81  C   UNL A   1      45.707  35.475  28.681  1.00  0.00     0.040 A 
ATOM     82  C   UNL A   1      46.640  34.512  30.679  1.00  0.00     0.040 A 
ATOM     83  F   UNL A   1      46.200  32.275  31.222  1.00  0.00    -0.206 F 
ATOM     84  C   UNL A   1      46.485  35.604  29.829  1.00  0.00     0.006 A 
ENDBRANCH  60  77
ENDBRANCH  34  35
ENDBRANCH  27  29
ENDBRANCH  26  27
ENDBRANCH  25  26
ENDBRANCH   1  25
TORSDOF 16
ENDMDL
