MODEL 1
REMARK VINA RESULT:     -11.6      0.000      0.000
REMARK SMILES Cc1cc(C)c2c(c1)C=C(C(=O)OCCOCCOC(=O)c1ccc(-c3c4nc(c(-c5c(F)cccc5F)c5ccc([nH]5)c(-c5c(F)cccc5F)c5nc(c(-c6c(F)cccc6F)c6ccc3[nH]6)C=C5)C=C4)cc1)[C@@H](C(F)(F)F)O2
REMARK SMILES IDX 17 1 16 2 15 3 14 4 13 5 11 6 12 7 10 8 1 9 2 10 3 11 8 12
REMARK SMILES IDX 4 13 7 14 5 15 6 16 9 17 81 18 76 19 77 20 78 21 79 22 80 23
REMARK SMILES IDX 18 24 19 25 20 26 21 27 22 28 23 29 75 30 24 31 74 32 25 33
REMARK SMILES IDX 26 34 27 35 68 36 28 37 73 38 67 39 69 40 29 41 72 42 66 43
REMARK SMILES IDX 65 44 30 46 56 47 39 48 55 49 40 50 43 51 54 52 70 53 41 54
REMARK SMILES IDX 42 55 53 57 71 58 44 59 31 60 32 61 37 62 33 63 34 64 36 65
REMARK SMILES IDX 38 66 35 67 57 68 58 69 63 70 59 71 60 72 62 73 64 74 61 75
REMARK SMILES IDX 45 76 46 77 51 78 47 79 48 80 50 81 52 82 49 83
REMARK H PARENT 69 45 43 56
REMARK Flexibility Score: inf
ROOT
ATOM      1  C   UNL A   1      42.046  21.045  26.229  1.00  0.00     0.202 C 
ENDROOT
BRANCH   1   2
ATOM      2  O   UNL A   1      40.811  21.104  25.511  1.00  0.00    -0.374 OA
BRANCH   2   3
ATOM      3  C   UNL A   1      39.720  21.783  26.129  1.00  0.00     0.202 C 
BRANCH   3   4
ATOM      4  C   UNL A   1      38.327  21.452  25.589  1.00  0.00     0.261 C 
BRANCH   4   5
ATOM      5  O   UNL A   1      37.513  22.630  25.486  1.00  0.00    -0.460 OA
BRANCH   5   6
ATOM      6  C   UNL A   1      36.750  22.694  24.370  1.00  0.00     0.338 C 
ATOM      7  O   UNL A   1      37.061  22.314  23.249  1.00  0.00    -0.246 OA
BRANCH   6   8
ATOM      8  C   UNL A   1      35.405  23.191  24.706  1.00  0.00     0.087 C 
ATOM      9  C   UNL A   1      32.706  28.291  26.816  1.00  0.00     0.044 C 
ATOM     10  C   UNL A   1      32.774  26.859  26.370  1.00  0.00    -0.050 A 
ATOM     11  C   UNL A   1      31.679  26.000  26.514  1.00  0.00     0.010 A 
ATOM     12  C   UNL A   1      33.959  26.362  25.821  1.00  0.00     0.015 A 
ATOM     13  C   UNL A   1      31.756  24.657  26.108  1.00  0.00    -0.008 A 
ATOM     14  C   UNL A   1      34.055  25.022  25.431  1.00  0.00     0.018 A 
ATOM     15  C   UNL A   1      30.574  23.748  26.302  1.00  0.00     0.048 C 
ATOM     16  C   UNL A   1      32.951  24.176  25.551  1.00  0.00     0.130 A 
ATOM     17  C   UNL A   1      35.326  24.500  24.970  1.00  0.00     0.027 C 
ATOM     18  O   UNL A   1      32.968  22.870  25.142  1.00  0.00    -0.475 OA
ATOM     19  C   UNL A   1      34.232  22.254  24.767  1.00  0.00     0.316 C 
BRANCH  19  20
ATOM     20  C   UNL A   1      34.476  21.058  25.699  1.00  0.00     0.430 C 
ATOM     21  F   UNL A   1      33.311  20.449  26.031  1.00  0.00    -0.167 F 
ATOM     22  F   UNL A   1      35.247  20.112  25.110  1.00  0.00    -0.167 F 
ATOM     23  F   UNL A   1      35.088  21.420  26.848  1.00  0.00    -0.167 F 
ENDBRANCH  19  20
ENDBRANCH   6   8
ENDBRANCH   5   6
ENDBRANCH   4   5
ENDBRANCH   3   4
ENDBRANCH   2   3
ENDBRANCH   1   2
BRANCH   1  24
ATOM     24  C   UNL A   1      43.256  21.716  25.568  1.00  0.00     0.261 C 
BRANCH  24  25
ATOM     25  O   UNL A   1      42.879  22.889  24.822  1.00  0.00    -0.460 OA
BRANCH  25  26
ATOM     26  C   UNL A   1      43.650  23.978  25.044  1.00  0.00     0.338 C 
ATOM     27  O   UNL A   1      44.714  24.260  24.506  1.00  0.00    -0.246 OA
BRANCH  26  28
ATOM     28  C   UNL A   1      42.945  24.924  25.924  1.00  0.00     0.060 A 
ATOM     29  C   UNL A   1      43.494  26.205  26.072  1.00  0.00     0.016 A 
ATOM     30  C   UNL A   1      41.823  24.540  26.662  1.00  0.00     0.016 A 
ATOM     31  C   UNL A   1      42.950  27.093  26.996  1.00  0.00     0.010 A 
ATOM     32  C   UNL A   1      41.287  25.429  27.600  1.00  0.00     0.010 A 
ATOM     33  C   UNL A   1      41.871  26.694  27.795  1.00  0.00    -0.014 A 
BRANCH  33  34
ATOM     34  C   UNL A   1      41.463  27.543  28.939  1.00  0.00     0.031 A 
ATOM     35  C   UNL A   1      42.259  27.479  30.212  1.00  0.00     0.074 A 
ATOM     36  C   UNL A   1      40.433  28.400  28.828  1.00  0.00     0.049 A 
ATOM     37  N   UNL A   1      42.085  28.131  31.334  1.00  0.00    -0.248 NA
ATOM     38  C   UNL A   1      43.412  26.563  30.222  1.00  0.00     0.031 C 
ATOM     39  C   UNL A   1      39.621  28.591  27.628  1.00  0.00     0.029 A 
ATOM     40  N   UNL A   1      39.901  29.274  29.741  1.00  0.00    -0.354 N 
ATOM     41  C   UNL A   1      43.105  27.711  32.176  1.00  0.00     0.074 A 
ATOM     42  C   UNL A   1      43.876  26.724  31.453  1.00  0.00     0.031 C 
ATOM     43  C   UNL A   1      38.690  29.529  27.878  1.00  0.00     0.029 A 
ATOM     44  C   UNL A   1      38.824  29.980  29.263  1.00  0.00     0.049 A 
ATOM     45  H   UNL A   1      40.255  29.385  30.652  1.00  0.00     0.167 HD
ATOM     46  C   UNL A   1      43.384  28.122  33.435  1.00  0.00     0.037 A 
ATOM     47  C   UNL A   1      38.032  30.879  29.879  1.00  0.00     0.037 A 
ATOM     48  C   UNL A   1      42.614  29.099  34.158  1.00  0.00     0.049 A 
ATOM     49  C   UNL A   1      38.303  31.248  31.313  1.00  0.00     0.074 A 
ATOM     50  C   UNL A   1      42.818  29.579  35.440  1.00  0.00     0.029 A 
ATOM     51  N   UNL A   1      41.490  29.742  33.662  1.00  0.00    -0.354 N 
ATOM     52  N   UNL A   1      39.273  30.848  32.098  1.00  0.00    -0.248 NA
ATOM     53  C   UNL A   1      37.366  32.189  31.946  1.00  0.00     0.031 C 
ATOM     54  C   UNL A   1      41.792  30.482  35.735  1.00  0.00     0.029 A 
ATOM     55  C   UNL A   1      40.975  30.596  34.623  1.00  0.00     0.049 A 
ATOM     56  H   UNL A   1      41.115  29.610  32.761  1.00  0.00     0.167 HD
ATOM     57  C   UNL A   1      39.077  31.501  33.310  1.00  0.00     0.074 A 
ATOM     58  C   UNL A   1      37.902  32.333  33.151  1.00  0.00     0.031 C 
ATOM     59  C   UNL A   1      39.806  31.419  34.450  1.00  0.00     0.037 A 
BRANCH  46  60
ATOM     60  C   UNL A   1      44.567  27.507  34.120  1.00  0.00     0.057 A 
ATOM     61  C   UNL A   1      45.840  28.088  34.047  1.00  0.00     0.134 A 
ATOM     62  C   UNL A   1      44.424  26.353  34.898  1.00  0.00     0.134 A 
ATOM     63  F   UNL A   1      46.045  29.186  33.306  1.00  0.00    -0.206 F 
ATOM     64  C   UNL A   1      46.932  27.533  34.717  1.00  0.00     0.040 A 
ATOM     65  C   UNL A   1      45.504  25.802  35.589  1.00  0.00     0.040 A 
ATOM     66  F   UNL A   1      43.231  25.749  35.010  1.00  0.00    -0.206 F 
ATOM     67  C   UNL A   1      46.764  26.391  35.497  1.00  0.00     0.006 A 
ENDBRANCH  46  60
BRANCH  47  68
ATOM     68  C   UNL A   1      36.902  31.496  29.139  1.00  0.00     0.057 A 
ATOM     69  C   UNL A   1      35.727  30.779  28.887  1.00  0.00     0.134 A 
ATOM     70  C   UNL A   1      36.970  32.813  28.670  1.00  0.00     0.134 A 
ATOM     71  F   UNL A   1      35.614  29.506  29.291  1.00  0.00    -0.206 F 
ATOM     72  C   UNL A   1      34.661  31.349  28.189  1.00  0.00     0.040 A 
ATOM     73  C   UNL A   1      35.903  33.402  27.990  1.00  0.00     0.040 A 
ATOM     74  F   UNL A   1      38.071  33.551  28.878  1.00  0.00    -0.206 F 
ATOM     75  C   UNL A   1      34.745  32.668  27.744  1.00  0.00     0.006 A 
ENDBRANCH  47  68
BRANCH  59  76
ATOM     76  C   UNL A   1      39.371  32.257  35.615  1.00  0.00     0.057 A 
ATOM     77  C   UNL A   1      39.810  33.577  35.773  1.00  0.00     0.134 A 
ATOM     78  C   UNL A   1      38.447  31.765  36.545  1.00  0.00     0.134 A 
ATOM     79  F   UNL A   1      40.703  34.104  34.923  1.00  0.00    -0.206 F 
ATOM     80  C   UNL A   1      39.350  34.376  36.821  1.00  0.00     0.040 A 
ATOM     81  C   UNL A   1      37.962  32.561  37.583  1.00  0.00     0.040 A 
ATOM     82  F   UNL A   1      37.979  30.511  36.442  1.00  0.00    -0.206 F 
ATOM     83  C   UNL A   1      38.415  33.871  37.724  1.00  0.00     0.006 A 
ENDBRANCH  59  76
ENDBRANCH  33  34
ENDBRANCH  26  28
ENDBRANCH  25  26
ENDBRANCH  24  25
ENDBRANCH   1  24
TORSDOF 15
ENDMDL
MODEL 2
REMARK VINA RESULT:     -11.4      3.500      8.226
REMARK SMILES Cc1cc(C)c2c(c1)C=C(C(=O)OCCOCCOC(=O)c1ccc(-c3c4nc(c(-c5c(F)cccc5F)c5ccc([nH]5)c(-c5c(F)cccc5F)c5nc(c(-c6c(F)cccc6F)c6ccc3[nH]6)C=C5)C=C4)cc1)[C@@H](C(F)(F)F)O2
REMARK SMILES IDX 17 1 16 2 15 3 14 4 13 5 11 6 12 7 10 8 1 9 2 10 3 11 8 12
REMARK SMILES IDX 4 13 7 14 5 15 6 16 9 17 81 18 76 19 77 20 78 21 79 22 80 23
REMARK SMILES IDX 18 24 19 25 20 26 21 27 22 28 23 29 75 30 24 31 74 32 25 33
REMARK SMILES IDX 26 34 27 35 68 36 28 37 73 38 67 39 69 40 29 41 72 42 66 43
REMARK SMILES IDX 65 44 30 46 56 47 39 48 55 49 40 50 43 51 54 52 70 53 41 54
REMARK SMILES IDX 42 55 53 57 71 58 44 59 31 60 32 61 37 62 33 63 34 64 36 65
REMARK SMILES IDX 38 66 35 67 57 68 58 69 63 70 59 71 60 72 62 73 64 74 61 75
REMARK SMILES IDX 45 76 46 77 51 78 47 79 48 80 50 81 52 82 49 83
REMARK H PARENT 69 45 43 56
REMARK Flexibility Score: inf
ROOT
ATOM      1  C   UNL A   1      31.517  31.545  26.487  1.00  0.00     0.202 C 
ENDROOT
BRANCH   1   2
ATOM      2  O   UNL A   1      32.590  30.681  26.107  1.00  0.00    -0.374 OA
BRANCH   2   3
ATOM      3  C   UNL A   1      32.941  29.629  27.003  1.00  0.00     0.202 C 
BRANCH   3   4
ATOM      4  C   UNL A   1      33.690  28.443  26.390  1.00  0.00     0.261 C 
BRANCH   4   5
ATOM      5  O   UNL A   1      33.679  28.502  24.955  1.00  0.00    -0.460 OA
BRANCH   5   6
ATOM      6  C   UNL A   1      33.173  27.403  24.349  1.00  0.00     0.338 C 
ATOM      7  O   UNL A   1      33.727  26.320  24.217  1.00  0.00    -0.246 OA
BRANCH   6   8
ATOM      8  C   UNL A   1      31.775  27.644  23.954  1.00  0.00     0.087 C 
ATOM      9  C   UNL A   1      28.303  32.117  21.571  1.00  0.00     0.044 C 
ATOM     10  C   UNL A   1      28.580  30.775  22.182  1.00  0.00    -0.050 A 
ATOM     11  C   UNL A   1      27.540  29.927  22.576  1.00  0.00     0.010 A 
ATOM     12  C   UNL A   1      29.901  30.368  22.384  1.00  0.00     0.015 A 
ATOM     13  C   UNL A   1      27.808  28.678  23.162  1.00  0.00    -0.008 A 
ATOM     14  C   UNL A   1      30.183  29.135  22.983  1.00  0.00     0.018 A 
ATOM     15  C   UNL A   1      26.671  27.799  23.604  1.00  0.00     0.048 C 
ATOM     16  C   UNL A   1      29.141  28.280  23.351  1.00  0.00     0.130 A 
ATOM     17  C   UNL A   1      31.555  28.783  23.287  1.00  0.00     0.027 C 
ATOM     18  O   UNL A   1      29.353  27.043  23.896  1.00  0.00    -0.475 OA
ATOM     19  C   UNL A   1      30.693  26.668  24.320  1.00  0.00     0.316 C 
BRANCH  19  20
ATOM     20  C   UNL A   1      30.651  26.365  25.825  1.00  0.00     0.430 C 
ATOM     21  F   UNL A   1      30.742  27.503  26.557  1.00  0.00    -0.167 F 
ATOM     22  F   UNL A   1      29.489  25.770  26.185  1.00  0.00    -0.167 F 
ATOM     23  F   UNL A   1      31.659  25.553  26.212  1.00  0.00    -0.167 F 
ENDBRANCH  19  20
ENDBRANCH   6   8
ENDBRANCH   5   6
ENDBRANCH   4   5
ENDBRANCH   3   4
ENDBRANCH   2   3
ENDBRANCH   1   2
BRANCH   1  24
ATOM     24  C   UNL A   1      31.870  33.022  26.704  1.00  0.00     0.261 C 
BRANCH  24  25
ATOM     25  O   UNL A   1      32.363  33.266  28.035  1.00  0.00    -0.460 OA
BRANCH  25  26
ATOM     26  C   UNL A   1      33.444  34.075  28.102  1.00  0.00     0.338 C 
ATOM     27  O   UNL A   1      33.460  35.301  28.081  1.00  0.00    -0.246 OA
BRANCH  26  28
ATOM     28  C   UNL A   1      34.649  33.283  28.395  1.00  0.00     0.060 A 
ATOM     29  C   UNL A   1      34.469  32.003  28.936  1.00  0.00     0.016 A 
ATOM     30  C   UNL A   1      35.931  33.813  28.233  1.00  0.00     0.016 A 
ATOM     31  C   UNL A   1      35.570  31.266  29.361  1.00  0.00     0.010 A 
ATOM     32  C   UNL A   1      37.035  33.077  28.673  1.00  0.00     0.010 A 
ATOM     33  C   UNL A   1      36.855  31.816  29.272  1.00  0.00    -0.014 A 
BRANCH  33  34
ATOM     34  C   UNL A   1      37.984  31.137  29.951  1.00  0.00     0.031 A 
ATOM     35  C   UNL A   1      38.259  31.450  31.395  1.00  0.00     0.074 A 
ATOM     36  C   UNL A   1      38.719  30.213  29.307  1.00  0.00     0.049 A 
ATOM     37  N   UNL A   1      39.189  30.975  32.185  1.00  0.00    -0.248 NA
ATOM     38  C   UNL A   1      37.361  32.423  32.039  1.00  0.00     0.031 C 
ATOM     39  C   UNL A   1      38.514  29.785  27.925  1.00  0.00     0.029 A 
ATOM     40  N   UNL A   1      39.785  29.465  29.740  1.00  0.00    -0.354 N 
ATOM     41  C   UNL A   1      38.984  31.584  33.415  1.00  0.00     0.074 A 
ATOM     42  C   UNL A   1      37.865  32.488  33.263  1.00  0.00     0.031 C 
ATOM     43  C   UNL A   1      39.426  28.846  27.621  1.00  0.00     0.029 A 
ATOM     44  C   UNL A   1      40.295  28.629  28.777  1.00  0.00     0.049 A 
ATOM     45  H   UNL A   1      40.149  29.522  30.652  1.00  0.00     0.167 HD
ATOM     46  C   UNL A   1      39.659  31.396  34.574  1.00  0.00     0.037 A 
ATOM     47  C   UNL A   1      41.351  27.794  28.824  1.00  0.00     0.037 A 
ATOM     48  C   UNL A   1      40.776  30.502  34.724  1.00  0.00     0.049 A 
ATOM     49  C   UNL A   1      42.148  27.674  30.095  1.00  0.00     0.074 A 
ATOM     50  C   UNL A   1      41.526  30.245  35.859  1.00  0.00     0.029 A 
ATOM     51  N   UNL A   1      41.306  29.722  33.708  1.00  0.00    -0.354 N 
ATOM     52  N   UNL A   1      41.943  28.251  31.255  1.00  0.00    -0.248 NA
ATOM     53  C   UNL A   1      43.324  26.792  30.064  1.00  0.00     0.031 C 
ATOM     54  C   UNL A   1      42.536  29.341  35.517  1.00  0.00     0.029 A 
ATOM     55  C   UNL A   1      42.389  29.003  34.182  1.00  0.00     0.049 A 
ATOM     56  H   UNL A   1      40.962  29.687  32.785  1.00  0.00     0.167 HD
ATOM     57  C   UNL A   1      42.950  27.789  32.094  1.00  0.00     0.074 A 
ATOM     58  C   UNL A   1      43.757  26.873  31.314  1.00  0.00     0.031 C 
ATOM     59  C   UNL A   1      43.182  28.094  33.394  1.00  0.00     0.037 A 
BRANCH  46  60
ATOM     60  C   UNL A   1      39.215  32.182  35.770  1.00  0.00     0.057 A 
ATOM     61  C   UNL A   1      38.325  31.647  36.710  1.00  0.00     0.134 A 
ATOM     62  C   UNL A   1      39.721  33.464  36.012  1.00  0.00     0.134 A 
ATOM     63  F   UNL A   1      37.794  30.429  36.527  1.00  0.00    -0.206 F 
ATOM     64  C   UNL A   1      37.943  32.367  37.843  1.00  0.00     0.040 A 
ATOM     65  C   UNL A   1      39.363  34.185  37.153  1.00  0.00     0.040 A 
ATOM     66  F   UNL A   1      40.579  34.032  35.152  1.00  0.00    -0.206 F 
ATOM     67  C   UNL A   1      38.469  33.637  38.071  1.00  0.00     0.006 A 
ENDBRANCH  46  60
BRANCH  47  68
ATOM     68  C   UNL A   1      41.718  27.001  27.624  1.00  0.00     0.057 A 
ATOM     69  C   UNL A   1      41.260  25.690  27.456  1.00  0.00     0.134 A 
ATOM     70  C   UNL A   1      42.534  27.535  26.619  1.00  0.00     0.134 A 
ATOM     71  F   UNL A   1      40.495  25.117  28.396  1.00  0.00    -0.206 F 
ATOM     72  C   UNL A   1      41.602  24.935  26.333  1.00  0.00     0.040 A 
ATOM     73  C   UNL A   1      42.867  26.799  25.481  1.00  0.00     0.040 A 
ATOM     74  F   UNL A   1      43.007  28.785  26.724  1.00  0.00    -0.206 F 
ATOM     75  C   UNL A   1      42.403  25.493  25.337  1.00  0.00     0.006 A 
ENDBRANCH  47  68
BRANCH  59  76
ATOM     76  C   UNL A   1      44.344  27.428  34.069  1.00  0.00     0.057 A 
ATOM     77  C   UNL A   1      44.222  26.167  34.664  1.00  0.00     0.134 A 
ATOM     78  C   UNL A   1      45.614  28.018  34.055  1.00  0.00     0.134 A 
ATOM     79  F   UNL A   1      43.030  25.553  34.720  1.00  0.00    -0.206 F 
ATOM     80  C   UNL A   1      45.321  25.520  35.231  1.00  0.00     0.040 A 
ATOM     81  C   UNL A   1      46.725  27.371  34.597  1.00  0.00     0.040 A 
ATOM     82  F   UNL A   1      45.800  29.221  33.489  1.00  0.00    -0.206 F 
ATOM     83  C   UNL A   1      46.580  26.118  35.189  1.00  0.00     0.006 A 
ENDBRANCH  59  76
ENDBRANCH  33  34
ENDBRANCH  26  28
ENDBRANCH  25  26
ENDBRANCH  24  25
ENDBRANCH   1  24
TORSDOF 15
ENDMDL
MODEL 3
REMARK VINA RESULT:     -11.3      0.501      6.239
REMARK SMILES Cc1cc(C)c2c(c1)C=C(C(=O)OCCOCCOC(=O)c1ccc(-c3c4nc(c(-c5c(F)cccc5F)c5ccc([nH]5)c(-c5c(F)cccc5F)c5nc(c(-c6c(F)cccc6F)c6ccc3[nH]6)C=C5)C=C4)cc1)[C@@H](C(F)(F)F)O2
REMARK SMILES IDX 17 1 16 2 15 3 14 4 13 5 11 6 12 7 10 8 1 9 2 10 3 11 8 12
REMARK SMILES IDX 4 13 7 14 5 15 6 16 9 17 81 18 76 19 77 20 78 21 79 22 80 23
REMARK SMILES IDX 18 24 19 25 20 26 21 27 22 28 23 29 75 30 24 31 74 32 25 33
REMARK SMILES IDX 26 34 27 35 68 36 28 37 73 38 67 39 69 40 29 41 72 42 66 43
REMARK SMILES IDX 65 44 30 46 56 47 39 48 55 49 40 50 43 51 54 52 70 53 41 54
REMARK SMILES IDX 42 55 53 57 71 58 44 59 31 60 32 61 37 62 33 63 34 64 36 65
REMARK SMILES IDX 38 66 35 67 57 68 58 69 63 70 59 71 60 72 62 73 64 74 61 75
REMARK SMILES IDX 45 76 46 77 51 78 47 79 48 80 50 81 52 82 49 83
REMARK H PARENT 69 45 43 56
REMARK Flexibility Score: inf
ROOT
ATOM      1  C   UNL A   1      41.964  21.482  26.160  1.00  0.00     0.202 C 
ENDROOT
BRANCH   1   2
ATOM      2  O   UNL A   1      40.739  22.004  25.641  1.00  0.00    -0.374 OA
BRANCH   2   3
ATOM      3  C   UNL A   1      39.572  21.879  26.450  1.00  0.00     0.202 C 
BRANCH   3   4
ATOM      4  C   UNL A   1      38.269  21.566  25.711  1.00  0.00     0.261 C 
BRANCH   4   5
ATOM      5  O   UNL A   1      37.470  22.747  25.535  1.00  0.00    -0.460 OA
BRANCH   5   6
ATOM      6  C   UNL A   1      36.705  22.750  24.420  1.00  0.00     0.338 C 
ATOM      7  O   UNL A   1      37.027  22.346  23.311  1.00  0.00    -0.246 OA
BRANCH   6   8
ATOM      8  C   UNL A   1      35.344  23.213  24.743  1.00  0.00     0.087 C 
ATOM      9  C   UNL A   1      32.492  28.257  26.785  1.00  0.00     0.044 C 
ATOM     10  C   UNL A   1      32.603  26.823  26.354  1.00  0.00    -0.050 A 
ATOM     11  C   UNL A   1      31.531  25.936  26.500  1.00  0.00     0.010 A 
ATOM     12  C   UNL A   1      33.804  26.354  25.817  1.00  0.00     0.015 A 
ATOM     13  C   UNL A   1      31.648  24.591  26.109  1.00  0.00    -0.008 A 
ATOM     14  C   UNL A   1      33.941  25.013  25.441  1.00  0.00     0.018 A 
ATOM     15  C   UNL A   1      30.490  23.652  26.304  1.00  0.00     0.048 C 
ATOM     16  C   UNL A   1      32.859  24.138  25.563  1.00  0.00     0.130 A 
ATOM     17  C   UNL A   1      35.228  24.522  24.993  1.00  0.00     0.027 C 
ATOM     18  O   UNL A   1      32.915  22.829  25.168  1.00  0.00    -0.475 OA
ATOM     19  C   UNL A   1      34.198  22.244  24.807  1.00  0.00     0.316 C 
BRANCH  19  20
ATOM     20  C   UNL A   1      34.469  21.065  25.752  1.00  0.00     0.430 C 
ATOM     21  F   UNL A   1      33.316  20.448  26.109  1.00  0.00    -0.167 F 
ATOM     22  F   UNL A   1      35.243  20.120  25.166  1.00  0.00    -0.167 F 
ATOM     23  F   UNL A   1      35.092  21.452  26.887  1.00  0.00    -0.167 F 
ENDBRANCH  19  20
ENDBRANCH   6   8
ENDBRANCH   5   6
ENDBRANCH   4   5
ENDBRANCH   3   4
ENDBRANCH   2   3
ENDBRANCH   1   2
BRANCH   1  24
ATOM     24  C   UNL A   1      43.253  22.185  25.715  1.00  0.00     0.261 C 
BRANCH  24  25
ATOM     25  O   UNL A   1      42.979  23.388  24.972  1.00  0.00    -0.460 OA
BRANCH  25  26
ATOM     26  C   UNL A   1      43.772  24.440  25.278  1.00  0.00     0.338 C 
ATOM     27  O   UNL A   1      44.851  24.730  24.775  1.00  0.00    -0.246 OA
BRANCH  26  28
ATOM     28  C   UNL A   1      43.075  25.343  26.208  1.00  0.00     0.060 A 
ATOM     29  C   UNL A   1      43.641  26.605  26.433  1.00  0.00     0.016 A 
ATOM     30  C   UNL A   1      41.944  24.933  26.916  1.00  0.00     0.016 A 
ATOM     31  C   UNL A   1      43.104  27.445  27.404  1.00  0.00     0.010 A 
ATOM     32  C   UNL A   1      41.414  25.772  27.902  1.00  0.00     0.010 A 
ATOM     33  C   UNL A   1      42.015  27.016  28.174  1.00  0.00    -0.014 A 
BRANCH  33  34
ATOM     34  C   UNL A   1      41.612  27.802  29.363  1.00  0.00     0.031 A 
ATOM     35  C   UNL A   1      40.418  28.709  29.266  1.00  0.00     0.074 A 
ATOM     36  C   UNL A   1      42.268  27.670  30.530  1.00  0.00     0.049 A 
ATOM     37  N   UNL A   1      39.889  29.486  30.177  1.00  0.00    -0.248 NA
ATOM     38  C   UNL A   1      39.720  28.740  27.970  1.00  0.00     0.031 C 
ATOM     39  C   UNL A   1      43.405  26.783  30.763  1.00  0.00     0.029 A 
ATOM     40  N   UNL A   1      42.061  28.282  31.741  1.00  0.00    -0.354 N 
ATOM     41  C   UNL A   1      38.797  30.090  29.569  1.00  0.00     0.074 A 
ATOM     42  C   UNL A   1      38.755  29.619  28.202  1.00  0.00     0.031 C 
ATOM     43  C   UNL A   1      43.798  26.906  32.042  1.00  0.00     0.029 A 
ATOM     44  C   UNL A   1      42.958  27.901  32.708  1.00  0.00     0.049 A 
ATOM     45  H   UNL A   1      41.340  28.932  31.900  1.00  0.00     0.167 HD
ATOM     46  C   UNL A   1      37.899  30.949  30.106  1.00  0.00     0.037 A 
ATOM     47  C   UNL A   1      43.090  28.318  33.982  1.00  0.00     0.037 A 
ATOM     48  C   UNL A   1      37.943  31.423  31.464  1.00  0.00     0.049 A 
ATOM     49  C   UNL A   1      42.140  29.349  34.528  1.00  0.00     0.074 A 
ATOM     50  C   UNL A   1      37.078  32.297  32.099  1.00  0.00     0.029 A 
ATOM     51  N   UNL A   1      38.907  31.065  32.393  1.00  0.00    -0.354 N 
ATOM     52  N   UNL A   1      41.108  29.911  33.946  1.00  0.00    -0.248 NA
ATOM     53  C   UNL A   1      42.374  29.808  35.906  1.00  0.00     0.031 C 
ATOM     54  C   UNL A   1      37.543  32.501  33.401  1.00  0.00     0.029 A 
ATOM     55  C   UNL A   1      38.672  31.721  33.590  1.00  0.00     0.049 A 
ATOM     56  H   UNL A   1      39.648  30.438  32.226  1.00  0.00     0.167 HD
ATOM     57  C   UNL A   1      40.559  30.772  34.889  1.00  0.00     0.074 A 
ATOM     58  C   UNL A   1      41.365  30.649  36.086  1.00  0.00     0.031 C 
ATOM     59  C   UNL A   1      39.483  31.588  34.774  1.00  0.00     0.037 A 
BRANCH  46  60
ATOM     60  C   UNL A   1      36.796  31.443  29.219  1.00  0.00     0.057 A 
ATOM     61  C   UNL A   1      35.713  30.626  28.871  1.00  0.00     0.134 A 
ATOM     62  C   UNL A   1      36.791  32.762  28.751  1.00  0.00     0.134 A 
ATOM     63  F   UNL A   1      35.667  29.348  29.276  1.00  0.00    -0.206 F 
ATOM     64  C   UNL A   1      34.669  31.102  28.076  1.00  0.00     0.040 A 
ATOM     65  C   UNL A   1      35.741  33.255  27.973  1.00  0.00     0.040 A 
ATOM     66  F   UNL A   1      37.798  33.597  29.051  1.00  0.00    -0.206 F 
ATOM     67  C   UNL A   1      34.677  32.422  27.632  1.00  0.00     0.006 A 
ENDBRANCH  46  60
BRANCH  47  68
ATOM     68  C   UNL A   1      44.171  27.760  34.833  1.00  0.00     0.057 A 
ATOM     69  C   UNL A   1      43.946  26.643  35.646  1.00  0.00     0.134 A 
ATOM     70  C   UNL A   1      45.450  28.327  34.852  1.00  0.00     0.134 A 
ATOM     71  F   UNL A   1      42.734  26.072  35.687  1.00  0.00    -0.206 F 
ATOM     72  C   UNL A   1      44.954  26.113  36.452  1.00  0.00     0.040 A 
ATOM     73  C   UNL A   1      46.474  27.794  35.638  1.00  0.00     0.040 A 
ATOM     74  F   UNL A   1      45.728  29.400  34.097  1.00  0.00    -0.206 F 
ATOM     75  C   UNL A   1      46.226  26.685  36.444  1.00  0.00     0.006 A 
ENDBRANCH  47  68
BRANCH  59  76
ATOM     76  C   UNL A   1      39.098  32.405  35.970  1.00  0.00     0.057 A 
ATOM     77  C   UNL A   1      38.295  31.881  36.990  1.00  0.00     0.134 A 
ATOM     78  C   UNL A   1      39.598  33.703  36.141  1.00  0.00     0.134 A 
ATOM     79  F   UNL A   1      37.777  30.648  36.882  1.00  0.00    -0.206 F 
ATOM     80  C   UNL A   1      37.996  32.621  38.135  1.00  0.00     0.040 A 
ATOM     81  C   UNL A   1      39.324  34.444  37.291  1.00  0.00     0.040 A 
ATOM     82  F   UNL A   1      40.382  34.259  35.205  1.00  0.00    -0.206 F 
ATOM     83  C   UNL A   1      38.519  33.904  38.292  1.00  0.00     0.006 A 
ENDBRANCH  59  76
ENDBRANCH  33  34
ENDBRANCH  26  28
ENDBRANCH  25  26
ENDBRANCH  24  25
ENDBRANCH   1  24
TORSDOF 15
ENDMDL
