MODEL 1
REMARK VINA RESULT:     -12.1      0.000      0.000
REMARK SMILES CSc1ccc(/C=C2\C(C)=C(CC(=O)OCCOCCOC(=O)c3ccc(-c4c5nc(c(-c6c(F)cccc6F)c6ccc([nH]6)c(-c6c(F)cccc6F)c6nc(c(-c7c(F)cccc7F)c7ccc4[nH]7)C=C6)C=C5)cc3)c3cc(F)ccc32)cc1
REMARK SMILES IDX 17 1 16 2 15 3 13 4 14 5 12 6 11 7 7 8 8 9 9 10 84 11 10 12
REMARK SMILES IDX 78 13 83 14 79 15 82 16 80 17 81 18 6 19 3 20 4 21 86 22
REMARK SMILES IDX 5 23 85 24 2 25 1 26 18 27 19 28 20 29 21 30 22 31 23 32
REMARK SMILES IDX 24 33 25 34 77 35 26 36 76 37 27 38 28 39 29 40 70 41 30 42
REMARK SMILES IDX 75 43 69 44 71 45 31 46 74 47 68 48 67 49 32 51 58 52 41 53
REMARK SMILES IDX 57 54 42 55 45 56 56 57 72 58 43 59 44 60 55 62 73 63 46 64
REMARK SMILES IDX 33 65 34 66 39 67 35 68 36 69 38 70 40 71 37 72 59 73 60 74
REMARK SMILES IDX 65 75 61 76 62 77 64 78 66 79 63 80 47 81 48 82 53 83 49 84
REMARK SMILES IDX 50 85 52 86 54 87 51 88
REMARK H PARENT 71 50 45 61
REMARK Flexibility Score: inf
ROOT
ATOM      1  C   UNL A   1      41.132  20.944  26.347  1.00  0.00     0.202 C 
ENDROOT
BRANCH   1   2
ATOM      2  C   UNL A   1      40.007  21.788  26.953  1.00  0.00     0.261 C 
BRANCH   2   3
ATOM      3  O   UNL A   1      38.924  21.979  26.029  1.00  0.00    -0.463 OA
BRANCH   3   4
ATOM      4  C   UNL A   1      38.251  23.157  26.139  1.00  0.00     0.310 C 
ATOM      5  O   UNL A   1      38.589  24.096  26.850  1.00  0.00    -0.252 OA
BRANCH   4   6
ATOM      6  C   UNL A   1      36.987  23.185  25.307  1.00  0.00     0.159 C 
BRANCH   6   7
ATOM      7  C   UNL A   1      35.828  22.433  25.931  1.00  0.00    -0.025 C 
ATOM      8  C   UNL A   1      33.239  24.439  25.005  1.00  0.00     0.017 C 
ATOM      9  C   UNL A   1      33.868  23.325  25.400  1.00  0.00    -0.014 C 
ATOM     10  C   UNL A   1      34.797  23.107  26.525  1.00  0.00    -0.039 C 
ATOM     11  C   UNL A   1      33.882  22.055  24.665  1.00  0.00    -0.010 A 
ATOM     12  C   UNL A   1      34.064  22.407  27.677  1.00  0.00     0.045 C 
ATOM     13  C   UNL A   1      35.127  21.493  24.992  1.00  0.00    -0.011 A 
ATOM     14  C   UNL A   1      32.784  21.255  24.368  1.00  0.00     0.012 A 
ATOM     15  C   UNL A   1      35.346  20.131  24.877  1.00  0.00     0.048 A 
ATOM     16  C   UNL A   1      32.969  19.869  24.379  1.00  0.00     0.040 A 
ATOM     17  C   UNL A   1      34.240  19.326  24.609  1.00  0.00     0.123 A 
ATOM     18  F   UNL A   1      34.371  17.996  24.712  1.00  0.00    -0.207 F 
BRANCH   8  19
ATOM     19  C   UNL A   1      32.714  25.546  25.844  1.00  0.00    -0.025 A 
ATOM     20  C   UNL A   1      31.744  28.128  25.472  1.00  0.00     0.007 A 
ATOM     21  C   UNL A   1      30.855  27.064  25.580  1.00  0.00     0.015 A 
ATOM     22  C   UNL A   1      33.083  27.937  25.824  1.00  0.00     0.015 A 
ATOM     23  C   UNL A   1      31.337  25.785  25.837  1.00  0.00     0.009 A 
ATOM     24  C   UNL A   1      33.569  26.640  26.028  1.00  0.00     0.009 A 
BRANCH  20  25
ATOM     25  S   UNL A   1      31.197  29.574  24.585  1.00  0.00    -0.130 SA
ATOM     26  C   UNL A   1      30.112  28.826  23.365  1.00  0.00     0.091 C 
ENDBRANCH  20  25
ENDBRANCH   8  19
ENDBRANCH   6   7
ENDBRANCH   4   6
ENDBRANCH   3   4
ENDBRANCH   2   3
ENDBRANCH   1   2
BRANCH   1  27
ATOM     27  O   UNL A   1      42.470  21.415  26.499  1.00  0.00    -0.374 OA
BRANCH  27  28
ATOM     28  C   UNL A   1      43.423  21.051  25.506  1.00  0.00     0.202 C 
BRANCH  28  29
ATOM     29  C   UNL A   1      44.231  22.177  24.848  1.00  0.00     0.261 C 
BRANCH  29  30
ATOM     30  O   UNL A   1      43.489  23.394  24.705  1.00  0.00    -0.460 OA
BRANCH  30  31
ATOM     31  C   UNL A   1      44.185  24.506  25.046  1.00  0.00     0.338 C 
ATOM     32  O   UNL A   1      45.257  24.880  24.614  1.00  0.00    -0.246 OA
BRANCH  31  33
ATOM     33  C   UNL A   1      43.365  25.338  25.938  1.00  0.00     0.060 A 
ATOM     34  C   UNL A   1      43.786  26.657  26.138  1.00  0.00     0.016 A 
ATOM     35  C   UNL A   1      42.278  24.812  26.637  1.00  0.00     0.016 A 
ATOM     36  C   UNL A   1      43.153  27.443  27.089  1.00  0.00     0.010 A 
ATOM     37  C   UNL A   1      41.638  25.604  27.589  1.00  0.00     0.010 A 
ATOM     38  C   UNL A   1      42.106  26.904  27.849  1.00  0.00    -0.014 A 
BRANCH  38  39
ATOM     39  C   UNL A   1      41.630  27.656  29.026  1.00  0.00     0.031 A 
ATOM     40  C   UNL A   1      42.380  27.527  30.319  1.00  0.00     0.074 A 
ATOM     41  C   UNL A   1      40.579  28.484  28.913  1.00  0.00     0.049 A 
ATOM     42  N   UNL A   1      42.167  28.117  31.466  1.00  0.00    -0.248 NA
ATOM     43  C   UNL A   1      43.523  26.599  30.322  1.00  0.00     0.031 C 
ATOM     44  C   UNL A   1      39.803  28.692  27.691  1.00  0.00     0.029 A 
ATOM     45  N   UNL A   1      39.989  29.304  29.836  1.00  0.00    -0.354 N 
ATOM     46  C   UNL A   1      43.143  27.628  32.327  1.00  0.00     0.074 A 
ATOM     47  C   UNL A   1      43.921  26.662  31.582  1.00  0.00     0.031 C 
ATOM     48  C   UNL A   1      38.832  29.585  27.942  1.00  0.00     0.029 A 
ATOM     49  C   UNL A   1      38.905  29.985  29.345  1.00  0.00     0.049 A 
ATOM     50  H   UNL A   1      40.311  29.396  30.763  1.00  0.00     0.167 HD
ATOM     51  C   UNL A   1      43.372  27.965  33.618  1.00  0.00     0.037 A 
ATOM     52  C   UNL A   1      38.060  30.828  29.967  1.00  0.00     0.037 A 
ATOM     53  C   UNL A   1      42.579  28.926  34.340  1.00  0.00     0.049 A 
ATOM     54  C   UNL A   1      38.307  31.162  31.412  1.00  0.00     0.074 A 
ATOM     55  C   UNL A   1      42.730  29.368  35.642  1.00  0.00     0.029 A 
ATOM     56  N   UNL A   1      41.473  29.584  33.817  1.00  0.00    -0.354 N 
ATOM     57  N   UNL A   1      39.254  30.726  32.210  1.00  0.00    -0.248 NA
ATOM     58  C   UNL A   1      37.381  32.112  32.039  1.00  0.00     0.031 C 
ATOM     59  C   UNL A   1      41.678  30.248  35.925  1.00  0.00     0.029 A 
ATOM     60  C   UNL A   1      40.910  30.405  34.780  1.00  0.00     0.049 A 
ATOM     61  H   UNL A   1      41.139  29.482  32.898  1.00  0.00     0.167 HD
ATOM     62  C   UNL A   1      39.051  31.361  33.428  1.00  0.00     0.074 A 
ATOM     63  C   UNL A   1      37.898  32.224  33.255  1.00  0.00     0.031 C 
ATOM     64  C   UNL A   1      39.754  31.246  34.583  1.00  0.00     0.037 A 
BRANCH  51  65
ATOM     65  C   UNL A   1      44.490  27.251  34.326  1.00  0.00     0.057 A 
ATOM     66  C   UNL A   1      45.801  27.750  34.354  1.00  0.00     0.134 A 
ATOM     67  C   UNL A   1      44.258  26.027  34.968  1.00  0.00     0.134 A 
ATOM     68  F   UNL A   1      46.099  28.909  33.745  1.00  0.00    -0.206 F 
ATOM     69  C   UNL A   1      46.843  27.039  34.952  1.00  0.00     0.040 A 
ATOM     70  C   UNL A   1      45.286  25.323  35.598  1.00  0.00     0.040 A 
ATOM     71  F   UNL A   1      43.029  25.489  34.986  1.00  0.00    -0.206 F 
ATOM     72  C   UNL A   1      46.586  25.823  35.579  1.00  0.00     0.006 A 
ENDBRANCH  51  65
BRANCH  52  73
ATOM     73  C   UNL A   1      36.920  31.403  29.213  1.00  0.00     0.057 A 
ATOM     74  C   UNL A   1      36.956  32.711  28.718  1.00  0.00     0.134 A 
ATOM     75  C   UNL A   1      35.785  30.634  28.922  1.00  0.00     0.134 A 
ATOM     76  F   UNL A   1      38.007  33.501  28.975  1.00  0.00    -0.206 F 
ATOM     77  C   UNL A   1      35.905  33.234  27.961  1.00  0.00     0.040 A 
ATOM     78  C   UNL A   1      34.739  31.135  28.145  1.00  0.00     0.040 A 
ATOM     79  F   UNL A   1      35.694  29.369  29.359  1.00  0.00    -0.206 F 
ATOM     80  C   UNL A   1      34.798  32.441  27.664  1.00  0.00     0.006 A 
ENDBRANCH  52  73
BRANCH  64  81
ATOM     81  C   UNL A   1      39.304  32.091  35.740  1.00  0.00     0.057 A 
ATOM     82  C   UNL A   1      38.427  31.605  36.718  1.00  0.00     0.134 A 
ATOM     83  C   UNL A   1      39.788  33.397  35.895  1.00  0.00     0.134 A 
ATOM     84  F   UNL A   1      37.920  30.367  36.621  1.00  0.00    -0.206 F 
ATOM     85  C   UNL A   1      38.025  32.398  37.793  1.00  0.00     0.040 A 
ATOM     86  C   UNL A   1      39.417  34.188  36.983  1.00  0.00     0.040 A 
ATOM     87  F   UNL A   1      40.639  33.920  35.000  1.00  0.00    -0.206 F 
ATOM     88  C   UNL A   1      38.527  33.690  37.933  1.00  0.00     0.006 A 
ENDBRANCH  64  81
ENDBRANCH  38  39
ENDBRANCH  31  33
ENDBRANCH  30  31
ENDBRANCH  29  30
ENDBRANCH  28  29
ENDBRANCH  27  28
ENDBRANCH   1  27
TORSDOF 17
ENDMDL
MODEL 2
REMARK VINA RESULT:     -12.1      0.977      1.804
REMARK SMILES CSc1ccc(/C=C2\C(C)=C(CC(=O)OCCOCCOC(=O)c3ccc(-c4c5nc(c(-c6c(F)cccc6F)c6ccc([nH]6)c(-c6c(F)cccc6F)c6nc(c(-c7c(F)cccc7F)c7ccc4[nH]7)C=C6)C=C5)cc3)c3cc(F)ccc32)cc1
REMARK SMILES IDX 17 1 16 2 15 3 13 4 14 5 12 6 11 7 7 8 8 9 9 10 84 11 10 12
REMARK SMILES IDX 78 13 83 14 79 15 82 16 80 17 81 18 6 19 3 20 4 21 86 22
REMARK SMILES IDX 5 23 85 24 2 25 1 26 18 27 19 28 20 29 21 30 22 31 23 32
REMARK SMILES IDX 24 33 25 34 77 35 26 36 76 37 27 38 28 39 29 40 70 41 30 42
REMARK SMILES IDX 75 43 69 44 71 45 31 46 74 47 68 48 67 49 32 51 58 52 41 53
REMARK SMILES IDX 57 54 42 55 45 56 56 57 72 58 43 59 44 60 55 62 73 63 46 64
REMARK SMILES IDX 33 65 34 66 39 67 35 68 36 69 38 70 40 71 37 72 59 73 60 74
REMARK SMILES IDX 65 75 61 76 62 77 64 78 66 79 63 80 47 81 48 82 53 83 49 84
REMARK SMILES IDX 50 85 52 86 54 87 51 88
REMARK H PARENT 71 50 45 61
REMARK Flexibility Score: inf
ROOT
ATOM      1  C   UNL A   1      40.356  21.174  26.268  1.00  0.00     0.202 C 
ENDROOT
BRANCH   1   2
ATOM      2  C   UNL A   1      39.358  22.303  26.545  1.00  0.00     0.261 C 
BRANCH   2   3
ATOM      3  O   UNL A   1      38.302  22.334  25.571  1.00  0.00    -0.463 OA
BRANCH   3   4
ATOM      4  C   UNL A   1      37.481  23.418  25.622  1.00  0.00     0.310 C 
ATOM      5  O   UNL A   1      37.539  24.305  26.465  1.00  0.00    -0.252 OA
BRANCH   4   6
ATOM      6  C   UNL A   1      36.432  23.405  24.532  1.00  0.00     0.159 C 
BRANCH   6   7
ATOM      7  C   UNL A   1      35.025  23.160  25.040  1.00  0.00    -0.025 C 
ATOM      8  C   UNL A   1      33.219  24.349  22.410  1.00  0.00     0.017 C 
ATOM      9  C   UNL A   1      33.488  23.638  23.513  1.00  0.00    -0.014 C 
ATOM     10  C   UNL A   1      34.031  24.074  24.813  1.00  0.00    -0.039 C 
ATOM     11  C   UNL A   1      33.437  22.175  23.611  1.00  0.00    -0.010 A 
ATOM     12  C   UNL A   1      32.901  24.160  25.848  1.00  0.00     0.045 C 
ATOM     13  C   UNL A   1      34.416  21.869  24.570  1.00  0.00    -0.011 A 
ATOM     14  C   UNL A   1      32.315  21.370  23.442  1.00  0.00     0.012 A 
ATOM     15  C   UNL A   1      34.380  20.675  25.270  1.00  0.00     0.048 A 
ATOM     16  C   UNL A   1      32.209  20.228  24.242  1.00  0.00     0.040 A 
ATOM     17  C   UNL A   1      33.243  19.883  25.123  1.00  0.00     0.123 A 
ATOM     18  F   UNL A   1      33.074  18.840  25.948  1.00  0.00    -0.207 F 
BRANCH   8  19
ATOM     19  C   UNL A   1      32.727  25.747  22.314  1.00  0.00    -0.025 A 
ATOM     20  C   UNL A   1      32.649  28.016  23.923  1.00  0.00     0.007 A 
ATOM     21  C   UNL A   1      33.667  27.866  22.987  1.00  0.00     0.015 A 
ATOM     22  C   UNL A   1      31.535  27.175  23.860  1.00  0.00     0.015 A 
ATOM     23  C   UNL A   1      33.665  26.767  22.135  1.00  0.00     0.009 A 
ATOM     24  C   UNL A   1      31.566  26.042  23.038  1.00  0.00     0.009 A 
BRANCH  20  25
ATOM     25  S   UNL A   1      32.977  29.047  25.340  1.00  0.00    -0.130 SA
ATOM     26  C   UNL A   1      33.602  27.829  26.502  1.00  0.00     0.091 C 
ENDBRANCH  20  25
ENDBRANCH   8  19
ENDBRANCH   6   7
ENDBRANCH   4   6
ENDBRANCH   3   4
ENDBRANCH   2   3
ENDBRANCH   1   2
BRANCH   1  27
ATOM     27  O   UNL A   1      41.719  21.391  26.629  1.00  0.00    -0.374 OA
BRANCH  27  28
ATOM     28  C   UNL A   1      42.729  20.899  25.756  1.00  0.00     0.202 C 
BRANCH  28  29
ATOM     29  C   UNL A   1      43.742  21.907  25.198  1.00  0.00     0.261 C 
BRANCH  29  30
ATOM     30  O   UNL A   1      43.143  23.145  24.797  1.00  0.00    -0.460 OA
BRANCH  30  31
ATOM     31  C   UNL A   1      43.893  24.237  25.083  1.00  0.00     0.338 C 
ATOM     32  O   UNL A   1      44.977  24.541  24.626  1.00  0.00    -0.246 OA
BRANCH  31  33
ATOM     33  C   UNL A   1      43.122  25.145  25.943  1.00  0.00     0.060 A 
ATOM     34  C   UNL A   1      43.691  26.393  26.217  1.00  0.00     0.016 A 
ATOM     35  C   UNL A   1      41.928  24.746  26.544  1.00  0.00     0.016 A 
ATOM     36  C   UNL A   1      43.093  27.230  27.148  1.00  0.00     0.010 A 
ATOM     37  C   UNL A   1      41.324  25.590  27.476  1.00  0.00     0.010 A 
ATOM     38  C   UNL A   1      41.934  26.811  27.813  1.00  0.00    -0.014 A 
BRANCH  38  39
ATOM     39  C   UNL A   1      41.470  27.589  28.980  1.00  0.00     0.031 A 
ATOM     40  C   UNL A   1      42.213  27.459  30.277  1.00  0.00     0.074 A 
ATOM     41  C   UNL A   1      40.439  28.438  28.853  1.00  0.00     0.049 A 
ATOM     42  N   UNL A   1      42.010  28.068  31.415  1.00  0.00    -0.248 NA
ATOM     43  C   UNL A   1      43.335  26.506  30.295  1.00  0.00     0.031 C 
ATOM     44  C   UNL A   1      39.672  28.648  27.625  1.00  0.00     0.029 A 
ATOM     45  N   UNL A   1      39.864  29.283  29.763  1.00  0.00    -0.354 N 
ATOM     46  C   UNL A   1      42.972  27.567  32.285  1.00  0.00     0.074 A 
ATOM     47  C   UNL A   1      43.730  26.575  31.556  1.00  0.00     0.031 C 
ATOM     48  C   UNL A   1      38.720  29.566  27.862  1.00  0.00     0.029 A 
ATOM     49  C   UNL A   1      38.797  29.982  29.260  1.00  0.00     0.049 A 
ATOM     50  H   UNL A   1      40.185  29.379  30.690  1.00  0.00     0.167 HD
ATOM     51  C   UNL A   1      43.204  27.915  33.573  1.00  0.00     0.037 A 
ATOM     52  C   UNL A   1      37.970  30.851  29.869  1.00  0.00     0.037 A 
ATOM     53  C   UNL A   1      42.431  28.903  34.281  1.00  0.00     0.049 A 
ATOM     54  C   UNL A   1      38.219  31.197  31.310  1.00  0.00     0.074 A 
ATOM     55  C   UNL A   1      42.587  29.358  35.578  1.00  0.00     0.029 A 
ATOM     56  N   UNL A   1      41.342  29.579  33.746  1.00  0.00    -0.354 N 
ATOM     57  N   UNL A   1      39.154  30.750  32.117  1.00  0.00    -0.248 NA
ATOM     58  C   UNL A   1      37.312  32.175  31.923  1.00  0.00     0.031 C 
ATOM     59  C   UNL A   1      41.554  30.264  35.846  1.00  0.00     0.029 A 
ATOM     60  C   UNL A   1      40.794  30.425  34.697  1.00  0.00     0.049 A 
ATOM     61  H   UNL A   1      41.008  29.473  32.827  1.00  0.00     0.167 HD
ATOM     62  C   UNL A   1      38.961  31.405  33.327  1.00  0.00     0.074 A 
ATOM     63  C   UNL A   1      37.829  32.292  33.139  1.00  0.00     0.031 C 
ATOM     64  C   UNL A   1      39.658  31.288  34.485  1.00  0.00     0.037 A 
BRANCH  51  65
ATOM     65  C   UNL A   1      44.303  27.185  34.294  1.00  0.00     0.057 A 
ATOM     66  C   UNL A   1      45.625  27.656  34.321  1.00  0.00     0.134 A 
ATOM     67  C   UNL A   1      44.043  25.974  34.949  1.00  0.00     0.134 A 
ATOM     68  F   UNL A   1      45.951  28.801  33.701  1.00  0.00    -0.206 F 
ATOM     69  C   UNL A   1      46.649  26.930  34.932  1.00  0.00     0.040 A 
ATOM     70  C   UNL A   1      45.052  25.255  35.591  1.00  0.00     0.040 A 
ATOM     71  F   UNL A   1      42.802  25.464  34.968  1.00  0.00    -0.206 F 
ATOM     72  C   UNL A   1      46.363  25.726  35.572  1.00  0.00     0.006 A 
ENDBRANCH  51  65
BRANCH  52  73
ATOM     73  C   UNL A   1      36.845  31.442  29.103  1.00  0.00     0.057 A 
ATOM     74  C   UNL A   1      35.675  30.718  28.849  1.00  0.00     0.134 A 
ATOM     75  C   UNL A   1      36.894  32.767  28.653  1.00  0.00     0.134 A 
ATOM     76  F   UNL A   1      35.572  29.440  29.242  1.00  0.00    -0.206 F 
ATOM     77  C   UNL A   1      34.594  31.291  28.176  1.00  0.00     0.040 A 
ATOM     78  C   UNL A   1      35.812  33.361  28.001  1.00  0.00     0.040 A 
ATOM     79  F   UNL A   1      37.984  33.517  28.874  1.00  0.00    -0.206 F 
ATOM     80  C   UNL A   1      34.657  32.619  27.759  1.00  0.00     0.006 A 
ENDBRANCH  52  73
BRANCH  64  81
ATOM     81  C   UNL A   1      39.223  32.158  35.630  1.00  0.00     0.057 A 
ATOM     82  C   UNL A   1      39.702  33.464  35.793  1.00  0.00     0.134 A 
ATOM     83  C   UNL A   1      38.285  31.691  36.559  1.00  0.00     0.134 A 
ATOM     84  F   UNL A   1      40.611  33.966  34.944  1.00  0.00    -0.206 F 
ATOM     85  C   UNL A   1      39.283  34.265  36.856  1.00  0.00     0.040 A 
ATOM     86  C   UNL A   1      37.835  32.494  37.608  1.00  0.00     0.040 A 
ATOM     87  F   UNL A   1      37.778  30.453  36.454  1.00  0.00    -0.206 F 
ATOM     88  C   UNL A   1      38.340  33.783  37.763  1.00  0.00     0.006 A 
ENDBRANCH  64  81
ENDBRANCH  38  39
ENDBRANCH  31  33
ENDBRANCH  30  31
ENDBRANCH  29  30
ENDBRANCH  28  29
ENDBRANCH  27  28
ENDBRANCH   1  27
TORSDOF 17
ENDMDL
MODEL 3
REMARK VINA RESULT:     -11.9      3.977      6.673
REMARK SMILES CSc1ccc(/C=C2\C(C)=C(CC(=O)OCCOCCOC(=O)c3ccc(-c4c5nc(c(-c6c(F)cccc6F)c6ccc([nH]6)c(-c6c(F)cccc6F)c6nc(c(-c7c(F)cccc7F)c7ccc4[nH]7)C=C6)C=C5)cc3)c3cc(F)ccc32)cc1
REMARK SMILES IDX 17 1 16 2 15 3 13 4 14 5 12 6 11 7 7 8 8 9 9 10 84 11 10 12
REMARK SMILES IDX 78 13 83 14 79 15 82 16 80 17 81 18 6 19 3 20 4 21 86 22
REMARK SMILES IDX 5 23 85 24 2 25 1 26 18 27 19 28 20 29 21 30 22 31 23 32
REMARK SMILES IDX 24 33 25 34 77 35 26 36 76 37 27 38 28 39 29 40 70 41 30 42
REMARK SMILES IDX 75 43 69 44 71 45 31 46 74 47 68 48 67 49 32 51 58 52 41 53
REMARK SMILES IDX 57 54 42 55 45 56 56 57 72 58 43 59 44 60 55 62 73 63 46 64
REMARK SMILES IDX 33 65 34 66 39 67 35 68 36 69 38 70 40 71 37 72 59 73 60 74
REMARK SMILES IDX 65 75 61 76 62 77 64 78 66 79 63 80 47 81 48 82 53 83 49 84
REMARK SMILES IDX 50 85 52 86 54 87 51 88
REMARK H PARENT 71 50 45 61
REMARK Flexibility Score: inf
ROOT
ATOM      1  C   UNL A   1      33.561  20.267  24.998  1.00  0.00     0.202 C 
ENDROOT
BRANCH   1   2
ATOM      2  C   UNL A   1      33.158  21.733  25.191  1.00  0.00     0.261 C 
BRANCH   2   3
ATOM      3  O   UNL A   1      32.906  22.042  26.570  1.00  0.00    -0.463 OA
BRANCH   3   4
ATOM      4  C   UNL A   1      32.535  23.325  26.832  1.00  0.00     0.310 C 
ATOM      5  O   UNL A   1      31.586  23.653  27.534  1.00  0.00    -0.252 OA
BRANCH   4   6
ATOM      6  C   UNL A   1      33.405  24.339  26.121  1.00  0.00     0.159 C 
BRANCH   6   7
ATOM      7  C   UNL A   1      32.622  25.419  25.402  1.00  0.00    -0.025 C 
ATOM      8  C   UNL A   1      34.506  28.146  26.177  1.00  0.00     0.017 C 
ATOM      9  C   UNL A   1      33.634  27.391  25.497  1.00  0.00    -0.014 C 
ATOM     10  C   UNL A   1      32.448  26.652  25.970  1.00  0.00    -0.039 C 
ATOM     11  C   UNL A   1      33.771  26.998  24.090  1.00  0.00    -0.010 A 
ATOM     12  C   UNL A   1      31.173  27.425  25.607  1.00  0.00     0.045 C 
ATOM     13  C   UNL A   1      33.140  25.745  24.029  1.00  0.00    -0.011 A 
ATOM     14  C   UNL A   1      33.797  27.847  22.989  1.00  0.00     0.012 A 
ATOM     15  C   UNL A   1      32.659  25.246  22.831  1.00  0.00     0.048 A 
ATOM     16  C   UNL A   1      33.196  27.399  21.808  1.00  0.00     0.040 A 
ATOM     17  C   UNL A   1      32.659  26.106  21.735  1.00  0.00     0.123 A 
ATOM     18  F   UNL A   1      32.002  25.738  20.626  1.00  0.00    -0.207 F 
BRANCH   8  19
ATOM     19  C   UNL A   1      34.248  29.019  27.350  1.00  0.00    -0.025 A 
ATOM     20  C   UNL A   1      34.773  31.643  28.117  1.00  0.00     0.007 A 
ATOM     21  C   UNL A   1      33.541  31.318  27.560  1.00  0.00     0.015 A 
ATOM     22  C   UNL A   1      35.623  30.617  28.538  1.00  0.00     0.015 A 
ATOM     23  C   UNL A   1      33.253  29.994  27.243  1.00  0.00     0.009 A 
ATOM     24  C   UNL A   1      35.352  29.294  28.167  1.00  0.00     0.009 A 
BRANCH  20  25
ATOM     25  S   UNL A   1      35.331  33.328  27.960  1.00  0.00    -0.130 SA
ATOM     26  C   UNL A   1      33.819  34.218  28.346  1.00  0.00     0.091 C 
ENDBRANCH  20  25
ENDBRANCH   8  19
ENDBRANCH   6   7
ENDBRANCH   4   6
ENDBRANCH   3   4
ENDBRANCH   2   3
ENDBRANCH   1   2
BRANCH   1  27
ATOM     27  O   UNL A   1      34.948  19.975  24.842  1.00  0.00    -0.374 OA
BRANCH  27  28
ATOM     28  C   UNL A   1      35.881  21.029  25.052  1.00  0.00     0.202 C 
BRANCH  28  29
ATOM     29  C   UNL A   1      37.374  20.691  24.940  1.00  0.00     0.261 C 
BRANCH  29  30
ATOM     30  O   UNL A   1      38.227  21.802  25.240  1.00  0.00    -0.460 OA
BRANCH  30  31
ATOM     31  C   UNL A   1      39.277  21.489  26.038  1.00  0.00     0.338 C 
ATOM     32  O   UNL A   1      39.870  20.432  26.114  1.00  0.00    -0.246 OA
BRANCH  31  33
ATOM     33  C   UNL A   1      39.743  22.701  26.726  1.00  0.00     0.060 A 
ATOM     34  C   UNL A   1      39.166  23.914  26.333  1.00  0.00     0.016 A 
ATOM     35  C   UNL A   1      40.785  22.662  27.653  1.00  0.00     0.016 A 
ATOM     36  C   UNL A   1      39.674  25.107  26.826  1.00  0.00     0.010 A 
ATOM     37  C   UNL A   1      41.292  23.861  28.152  1.00  0.00     0.010 A 
ATOM     38  C   UNL A   1      40.768  25.086  27.701  1.00  0.00    -0.014 A 
BRANCH  38  39
ATOM     39  C   UNL A   1      41.457  26.357  27.999  1.00  0.00     0.031 A 
ATOM     40  C   UNL A   1      42.844  26.569  27.466  1.00  0.00     0.074 A 
ATOM     41  C   UNL A   1      40.821  27.320  28.684  1.00  0.00     0.049 A 
ATOM     42  N   UNL A   1      43.623  27.614  27.570  1.00  0.00    -0.248 NA
ATOM     43  C   UNL A   1      43.436  25.448  26.719  1.00  0.00     0.031 C 
ATOM     44  C   UNL A   1      39.465  27.212  29.221  1.00  0.00     0.029 A 
ATOM     45  N   UNL A   1      41.230  28.576  29.040  1.00  0.00    -0.354 N 
ATOM     46  C   UNL A   1      44.797  27.273  26.910  1.00  0.00     0.074 A 
ATOM     47  C   UNL A   1      44.644  25.912  26.445  1.00  0.00     0.031 C 
ATOM     48  C   UNL A   1      39.154  28.360  29.844  1.00  0.00     0.029 A 
ATOM     49  C   UNL A   1      40.297  29.266  29.771  1.00  0.00     0.049 A 
ATOM     50  H   UNL A   1      42.109  28.949  28.796  1.00  0.00     0.167 HD
ATOM     51  C   UNL A   1      45.898  28.035  26.702  1.00  0.00     0.037 A 
ATOM     52  C   UNL A   1      40.369  30.489  30.328  1.00  0.00     0.037 A 
ATOM     53  C   UNL A   1      46.029  29.387  27.180  1.00  0.00     0.049 A 
ATOM     54  C   UNL A   1      41.613  31.306  30.120  1.00  0.00     0.074 A 
ATOM     55  C   UNL A   1      47.083  30.266  27.011  1.00  0.00     0.029 A 
ATOM     56  N   UNL A   1      45.070  30.049  27.936  1.00  0.00    -0.354 N 
ATOM     57  N   UNL A   1      42.705  30.994  29.462  1.00  0.00    -0.248 NA
ATOM     58  C   UNL A   1      41.632  32.647  30.718  1.00  0.00     0.031 C 
ATOM     59  C   UNL A   1      46.787  31.438  27.717  1.00  0.00     0.029 A 
ATOM     60  C   UNL A   1      45.521  31.316  28.270  1.00  0.00     0.049 A 
ATOM     61  H   UNL A   1      44.199  29.675  28.196  1.00  0.00     0.167 HD
ATOM     62  C   UNL A   1      43.535  32.104  29.548  1.00  0.00     0.074 A 
ATOM     63  C   UNL A   1      42.810  33.102  30.311  1.00  0.00     0.031 C 
ATOM     64  C   UNL A   1      44.781  32.286  29.042  1.00  0.00     0.037 A 
BRANCH  51  65
ATOM     65  C   UNL A   1      47.047  27.397  25.972  1.00  0.00     0.057 A 
ATOM     66  C   UNL A   1      48.080  26.723  26.641  1.00  0.00     0.134 A 
ATOM     67  C   UNL A   1      47.138  27.481  24.576  1.00  0.00     0.134 A 
ATOM     68  F   UNL A   1      48.066  26.618  27.979  1.00  0.00    -0.206 F 
ATOM     69  C   UNL A   1      49.178  26.200  25.956  1.00  0.00     0.040 A 
ATOM     70  C   UNL A   1      48.214  26.933  23.877  1.00  0.00     0.040 A 
ATOM     71  F   UNL A   1      46.185  28.107  23.868  1.00  0.00    -0.206 F 
ATOM     72  C   UNL A   1      49.245  26.302  24.568  1.00  0.00     0.006 A 
ENDBRANCH  51  65
BRANCH  52  73
ATOM     73  C   UNL A   1      39.223  30.993  31.123  1.00  0.00     0.057 A 
ATOM     74  C   UNL A   1      38.267  31.850  30.566  1.00  0.00     0.134 A 
ATOM     75  C   UNL A   1      39.027  30.584  32.449  1.00  0.00     0.134 A 
ATOM     76  F   UNL A   1      38.405  32.288  29.307  1.00  0.00    -0.206 F 
ATOM     77  C   UNL A   1      37.158  32.281  31.298  1.00  0.00     0.040 A 
ATOM     78  C   UNL A   1      37.911  30.988  33.184  1.00  0.00     0.040 A 
ATOM     79  F   UNL A   1      39.903  29.757  33.038  1.00  0.00    -0.206 F 
ATOM     80  C   UNL A   1      36.973  31.841  32.607  1.00  0.00     0.006 A 
ENDBRANCH  52  73
BRANCH  64  81
ATOM     81  C   UNL A   1      45.425  33.621  29.280  1.00  0.00     0.057 A 
ATOM     82  C   UNL A   1      46.259  33.857  30.380  1.00  0.00     0.134 A 
ATOM     83  C   UNL A   1      45.234  34.672  28.373  1.00  0.00     0.134 A 
ATOM     84  F   UNL A   1      46.471  32.895  31.291  1.00  0.00    -0.206 F 
ATOM     85  C   UNL A   1      46.858  35.100  30.585  1.00  0.00     0.040 A 
ATOM     86  C   UNL A   1      45.855  35.909  28.551  1.00  0.00     0.040 A 
ATOM     87  F   UNL A   1      44.457  34.509  27.293  1.00  0.00    -0.206 F 
ATOM     88  C   UNL A   1      46.664  36.128  29.664  1.00  0.00     0.006 A 
ENDBRANCH  64  81
ENDBRANCH  38  39
ENDBRANCH  31  33
ENDBRANCH  30  31
ENDBRANCH  29  30
ENDBRANCH  28  29
ENDBRANCH  27  28
ENDBRANCH   1  27
TORSDOF 17
ENDMDL
