MODEL 1
REMARK VINA RESULT:     -11.2      0.000      0.000
REMARK SMILES Cc1ccn2c([C@H]3C[C@@H]3C(=O)OCCOCCOC(=O)c3ccc(-c4c5nc(c(-c6c(F)cccc6F)c6ccc([nH]6)c(-c6c(F)cccc6F)c6nc(c(-c7c(F)cccc7F)c7ccc4[nH]7)C=C6)C=C5)cc3)nnc2c1
REMARK SMILES IDX 16 1 15 2 14 3 13 4 12 5 10 6 11 7 9 8 7 9 8 10 6 11 1 12
REMARK SMILES IDX 2 13 3 14 78 15 4 16 77 17 5 18 76 19 75 20 17 21 18 22
REMARK SMILES IDX 19 23 20 24 21 25 22 26 74 27 23 28 73 29 24 30 25 31 26 32
REMARK SMILES IDX 67 33 27 34 72 35 66 36 68 37 28 38 71 39 65 40 64 41 29 43
REMARK SMILES IDX 55 44 38 45 54 46 39 47 42 48 53 49 69 50 40 51 41 52 52 54
REMARK SMILES IDX 70 55 43 56 30 57 31 58 36 59 32 60 33 61 35 62 37 63 34 64
REMARK SMILES IDX 56 65 57 66 62 67 58 68 59 69 61 70 63 71 60 72 44 73 45 74
REMARK SMILES IDX 50 75 46 76 47 77 49 78 51 79 48 80
REMARK H PARENT 68 42 42 53
REMARK Flexibility Score: inf
ROOT
ATOM      1  C   UNL A   1      42.558  19.242  26.061  1.00  0.00     0.202 C 
ENDROOT
BRANCH   1   2
ATOM      2  O   UNL A   1      41.768  20.395  25.774  1.00  0.00    -0.374 OA
BRANCH   2   3
ATOM      3  C   UNL A   1      40.498  20.516  26.404  1.00  0.00     0.202 C 
BRANCH   3   4
ATOM      4  C   UNL A   1      39.768  21.867  26.445  1.00  0.00     0.261 C 
BRANCH   4   5
ATOM      5  O   UNL A   1      38.469  21.847  25.848  1.00  0.00    -0.463 OA
BRANCH   5   6
ATOM      6  C   UNL A   1      37.820  23.043  25.911  1.00  0.00     0.309 C 
ATOM      7  O   UNL A   1      38.334  24.141  25.962  1.00  0.00    -0.252 OA
BRANCH   6   8
ATOM      8  C   UNL A   1      36.349  22.869  25.838  1.00  0.00     0.110 C 
ATOM      9  C   UNL A   1      35.671  22.276  24.617  1.00  0.00     0.073 C 
ATOM     10  C   UNL A   1      35.579  23.750  24.876  1.00  0.00     0.028 C 
BRANCH   9  11
ATOM     11  C   UNL A   1      34.409  21.448  24.783  1.00  0.00     0.141 A 
ATOM     12  C   UNL A   1      33.243  16.000  24.513  1.00  0.00     0.044 C 
ATOM     13  C   UNL A   1      33.580  17.453  24.670  1.00  0.00    -0.046 A 
ATOM     14  C   UNL A   1      34.996  17.818  24.587  1.00  0.00     0.022 A 
ATOM     15  C   UNL A   1      32.631  18.403  24.836  1.00  0.00     0.053 A 
ATOM     16  C   UNL A   1      35.347  19.113  24.663  1.00  0.00     0.095 A 
ATOM     17  C   UNL A   1      33.003  19.774  24.893  1.00  0.00     0.161 A 
ATOM     18  N   UNL A   1      34.352  20.075  24.811  1.00  0.00    -0.286 N 
ATOM     19  N   UNL A   1      32.306  20.890  24.939  1.00  0.00    -0.130 NA
ATOM     20  N   UNL A   1      33.190  21.944  24.822  1.00  0.00    -0.134 NA
ENDBRANCH   9  11
ENDBRANCH   6   8
ENDBRANCH   5   6
ENDBRANCH   4   5
ENDBRANCH   3   4
ENDBRANCH   2   3
ENDBRANCH   1   2
BRANCH   1  21
ATOM     21  C   UNL A   1      43.793  18.893  25.210  1.00  0.00     0.261 C 
BRANCH  21  22
ATOM     22  O   UNL A   1      44.827  19.874  25.339  1.00  0.00    -0.460 OA
BRANCH  22  23
ATOM     23  C   UNL A   1      44.909  20.765  24.313  1.00  0.00     0.338 C 
ATOM     24  O   UNL A   1      44.792  20.539  23.124  1.00  0.00    -0.246 OA
BRANCH  23  25
ATOM     25  C   UNL A   1      44.739  22.096  24.933  1.00  0.00     0.060 A 
ATOM     26  C   UNL A   1      45.382  22.420  26.129  1.00  0.00     0.016 A 
ATOM     27  C   UNL A   1      43.657  22.862  24.464  1.00  0.00     0.016 A 
ATOM     28  C   UNL A   1      44.883  23.475  26.889  1.00  0.00     0.010 A 
ATOM     29  C   UNL A   1      43.139  23.890  25.247  1.00  0.00     0.010 A 
ATOM     30  C   UNL A   1      43.733  24.182  26.475  1.00  0.00    -0.014 A 
BRANCH  30  31
ATOM     31  C   UNL A   1      43.415  25.434  27.177  1.00  0.00     0.031 A 
ATOM     32  C   UNL A   1      44.433  26.467  26.841  1.00  0.00     0.074 A 
ATOM     33  C   UNL A   1      42.325  25.749  27.915  1.00  0.00     0.049 A 
ATOM     34  N   UNL A   1      45.343  26.944  27.622  1.00  0.00    -0.248 NA
ATOM     35  C   UNL A   1      44.599  26.839  25.425  1.00  0.00     0.031 C 
ATOM     36  C   UNL A   1      41.115  24.954  28.129  1.00  0.00     0.029 A 
ATOM     37  N   UNL A   1      42.037  26.913  28.587  1.00  0.00    -0.354 N 
ATOM     38  C   UNL A   1      46.060  27.849  26.847  1.00  0.00     0.074 A 
ATOM     39  C   UNL A   1      45.701  27.589  25.481  1.00  0.00     0.031 C 
ATOM     40  C   UNL A   1      40.151  25.734  28.680  1.00  0.00     0.029 A 
ATOM     41  C   UNL A   1      40.702  27.047  28.978  1.00  0.00     0.049 A 
ATOM     42  H   UNL A   1      42.718  27.598  28.779  1.00  0.00     0.167 HD
ATOM     43  C   UNL A   1      46.632  28.937  27.426  1.00  0.00     0.037 A 
ATOM     44  C   UNL A   1      40.090  28.156  29.483  1.00  0.00     0.037 A 
ATOM     45  C   UNL A   1      46.779  28.739  28.849  1.00  0.00     0.049 A 
ATOM     46  C   UNL A   1      41.144  29.048  30.009  1.00  0.00     0.074 A 
ATOM     47  C   UNL A   1      47.443  27.856  29.678  1.00  0.00     0.029 A 
ATOM     48  N   UNL A   1      45.844  29.362  29.630  1.00  0.00    -0.354 N 
ATOM     49  N   UNL A   1      41.837  28.801  31.081  1.00  0.00    -0.248 NA
ATOM     50  C   UNL A   1      41.698  30.054  29.120  1.00  0.00     0.031 C 
ATOM     51  C   UNL A   1      46.604  27.709  30.826  1.00  0.00     0.029 A 
ATOM     52  C   UNL A   1      45.501  28.547  30.669  1.00  0.00     0.049 A 
ATOM     53  H   UNL A   1      45.475  30.260  29.467  1.00  0.00     0.167 HD
ATOM     54  C   UNL A   1      43.112  29.235  30.767  1.00  0.00     0.074 A 
ATOM     55  C   UNL A   1      42.935  30.119  29.617  1.00  0.00     0.031 C 
ATOM     56  C   UNL A   1      44.198  28.590  31.288  1.00  0.00     0.037 A 
BRANCH  43  57
ATOM     57  C   UNL A   1      46.520  30.334  26.834  1.00  0.00     0.057 A 
ATOM     58  C   UNL A   1      45.306  31.020  26.609  1.00  0.00     0.134 A 
ATOM     59  C   UNL A   1      47.666  31.154  26.851  1.00  0.00     0.134 A 
ATOM     60  F   UNL A   1      44.117  30.412  26.581  1.00  0.00    -0.206 F 
ATOM     61  C   UNL A   1      45.228  32.411  26.501  1.00  0.00     0.040 A 
ATOM     62  C   UNL A   1      47.591  32.551  26.792  1.00  0.00     0.040 A 
ATOM     63  F   UNL A   1      48.884  30.628  27.048  1.00  0.00    -0.206 F 
ATOM     64  C   UNL A   1      46.366  33.185  26.636  1.00  0.00     0.006 A 
ENDBRANCH  43  57
BRANCH  44  65
ATOM     65  C   UNL A   1      38.691  28.652  29.367  1.00  0.00     0.057 A 
ATOM     66  C   UNL A   1      38.270  29.370  28.238  1.00  0.00     0.134 A 
ATOM     67  C   UNL A   1      37.834  28.715  30.483  1.00  0.00     0.134 A 
ATOM     68  F   UNL A   1      39.040  29.442  27.143  1.00  0.00    -0.206 F 
ATOM     69  C   UNL A   1      37.090  30.126  28.224  1.00  0.00     0.040 A 
ATOM     70  C   UNL A   1      36.651  29.472  30.484  1.00  0.00     0.040 A 
ATOM     71  F   UNL A   1      38.159  28.106  31.632  1.00  0.00    -0.206 F 
ATOM     72  C   UNL A   1      36.283  30.193  29.355  1.00  0.00     0.006 A 
ENDBRANCH  44  65
BRANCH  56  73
ATOM     73  C   UNL A   1      43.968  27.717  32.488  1.00  0.00     0.057 A 
ATOM     74  C   UNL A   1      43.940  28.326  33.748  1.00  0.00     0.134 A 
ATOM     75  C   UNL A   1      43.838  26.319  32.455  1.00  0.00     0.134 A 
ATOM     76  F   UNL A   1      44.105  29.654  33.859  1.00  0.00    -0.206 F 
ATOM     77  C   UNL A   1      43.772  27.590  34.920  1.00  0.00     0.040 A 
ATOM     78  C   UNL A   1      43.629  25.575  33.621  1.00  0.00     0.040 A 
ATOM     79  F   UNL A   1      43.943  25.637  31.307  1.00  0.00    -0.206 F 
ATOM     80  C   UNL A   1      43.599  26.211  34.859  1.00  0.00     0.006 A 
ENDBRANCH  56  73
ENDBRANCH  30  31
ENDBRANCH  23  25
ENDBRANCH  22  23
ENDBRANCH  21  22
ENDBRANCH   1  21
TORSDOF 15
ENDMDL
MODEL 2
REMARK VINA RESULT:     -11.1      1.632      2.765
REMARK SMILES Cc1ccn2c([C@H]3C[C@@H]3C(=O)OCCOCCOC(=O)c3ccc(-c4c5nc(c(-c6c(F)cccc6F)c6ccc([nH]6)c(-c6c(F)cccc6F)c6nc(c(-c7c(F)cccc7F)c7ccc4[nH]7)C=C6)C=C5)cc3)nnc2c1
REMARK SMILES IDX 16 1 15 2 14 3 13 4 12 5 10 6 11 7 9 8 7 9 8 10 6 11 1 12
REMARK SMILES IDX 2 13 3 14 78 15 4 16 77 17 5 18 76 19 75 20 17 21 18 22
REMARK SMILES IDX 19 23 20 24 21 25 22 26 74 27 23 28 73 29 24 30 25 31 26 32
REMARK SMILES IDX 67 33 27 34 72 35 66 36 68 37 28 38 71 39 65 40 64 41 29 43
REMARK SMILES IDX 55 44 38 45 54 46 39 47 42 48 53 49 69 50 40 51 41 52 52 54
REMARK SMILES IDX 70 55 43 56 30 57 31 58 36 59 32 60 33 61 35 62 37 63 34 64
REMARK SMILES IDX 56 65 57 66 62 67 58 68 59 69 61 70 63 71 60 72 44 73 45 74
REMARK SMILES IDX 50 75 46 76 47 77 49 78 51 79 48 80
REMARK H PARENT 68 42 42 53
REMARK Flexibility Score: inf
ROOT
ATOM      1  C   UNL A   1      42.894  19.386  26.173  1.00  0.00     0.202 C 
ENDROOT
BRANCH   1   2
ATOM      2  O   UNL A   1      41.850  20.199  25.641  1.00  0.00    -0.374 OA
BRANCH   2   3
ATOM      3  C   UNL A   1      40.596  20.212  26.315  1.00  0.00     0.202 C 
BRANCH   3   4
ATOM      4  C   UNL A   1      39.826  21.526  26.514  1.00  0.00     0.261 C 
BRANCH   4   5
ATOM      5  O   UNL A   1      38.777  21.737  25.566  1.00  0.00    -0.463 OA
BRANCH   5   6
ATOM      6  C   UNL A   1      38.076  22.887  25.772  1.00  0.00     0.309 C 
ATOM      7  O   UNL A   1      38.205  23.652  26.705  1.00  0.00    -0.252 OA
BRANCH   6   8
ATOM      8  C   UNL A   1      37.138  23.161  24.657  1.00  0.00     0.110 C 
ATOM      9  C   UNL A   1      35.644  23.303  24.881  1.00  0.00     0.073 C 
ATOM     10  C   UNL A   1      36.185  22.058  24.245  1.00  0.00     0.028 C 
BRANCH   9  11
ATOM     11  C   UNL A   1      34.837  24.249  24.011  1.00  0.00     0.141 A 
ATOM     12  C   UNL A   1      31.366  28.496  25.025  1.00  0.00     0.044 C 
ATOM     13  C   UNL A   1      32.367  27.411  24.758  1.00  0.00    -0.046 A 
ATOM     14  C   UNL A   1      33.061  26.849  25.919  1.00  0.00     0.022 A 
ATOM     15  C   UNL A   1      32.599  26.930  23.516  1.00  0.00     0.053 A 
ATOM     16  C   UNL A   1      33.925  25.835  25.742  1.00  0.00     0.095 A 
ATOM     17  C   UNL A   1      33.496  25.841  23.333  1.00  0.00     0.161 A 
ATOM     18  N   UNL A   1      34.131  25.341  24.457  1.00  0.00    -0.286 N 
ATOM     19  N   UNL A   1      33.824  25.117  22.285  1.00  0.00    -0.130 NA
ATOM     20  N   UNL A   1      34.631  24.085  22.721  1.00  0.00    -0.134 NA
ENDBRANCH   9  11
ENDBRANCH   6   8
ENDBRANCH   5   6
ENDBRANCH   4   5
ENDBRANCH   3   4
ENDBRANCH   2   3
ENDBRANCH   1   2
BRANCH   1  21
ATOM     21  C   UNL A   1      44.033  18.869  25.274  1.00  0.00     0.261 C 
BRANCH  21  22
ATOM     22  O   UNL A   1      45.140  19.775  25.237  1.00  0.00    -0.460 OA
BRANCH  22  23
ATOM     23  C   UNL A   1      45.124  20.664  24.207  1.00  0.00     0.338 C 
ATOM     24  O   UNL A   1      44.939  20.429  23.027  1.00  0.00    -0.246 OA
BRANCH  23  25
ATOM     25  C   UNL A   1      44.946  21.991  24.834  1.00  0.00     0.060 A 
ATOM     26  C   UNL A   1      45.563  22.301  26.047  1.00  0.00     0.016 A 
ATOM     27  C   UNL A   1      43.878  22.766  24.346  1.00  0.00     0.016 A 
ATOM     28  C   UNL A   1      45.052  23.352  26.804  1.00  0.00     0.010 A 
ATOM     29  C   UNL A   1      43.349  23.790  25.125  1.00  0.00     0.010 A 
ATOM     30  C   UNL A   1      43.915  24.069  26.369  1.00  0.00    -0.014 A 
BRANCH  30  31
ATOM     31  C   UNL A   1      43.588  25.317  27.074  1.00  0.00     0.031 A 
ATOM     32  C   UNL A   1      44.615  26.349  26.766  1.00  0.00     0.074 A 
ATOM     33  C   UNL A   1      42.485  25.630  27.793  1.00  0.00     0.049 A 
ATOM     34  N   UNL A   1      45.512  26.817  27.567  1.00  0.00    -0.248 NA
ATOM     35  C   UNL A   1      44.809  26.731  25.355  1.00  0.00     0.031 C 
ATOM     36  C   UNL A   1      41.269  24.837  27.978  1.00  0.00     0.029 A 
ATOM     37  N   UNL A   1      42.187  26.790  28.469  1.00  0.00    -0.354 N 
ATOM     38  C   UNL A   1      46.245  27.726  26.812  1.00  0.00     0.074 A 
ATOM     39  C   UNL A   1      45.912  27.477  25.438  1.00  0.00     0.031 C 
ATOM     40  C   UNL A   1      40.297  25.616  28.517  1.00  0.00     0.029 A 
ATOM     41  C   UNL A   1      40.846  26.926  28.835  1.00  0.00     0.049 A 
ATOM     42  H   UNL A   1      42.867  27.471  28.678  1.00  0.00     0.167 HD
ATOM     43  C   UNL A   1      46.810  28.808  27.410  1.00  0.00     0.037 A 
ATOM     44  C   UNL A   1      40.227  28.032  29.337  1.00  0.00     0.037 A 
ATOM     45  C   UNL A   1      46.929  28.599  28.835  1.00  0.00     0.049 A 
ATOM     46  C   UNL A   1      41.273  28.917  29.888  1.00  0.00     0.074 A 
ATOM     47  C   UNL A   1      47.574  27.709  29.669  1.00  0.00     0.029 A 
ATOM     48  N   UNL A   1      45.981  29.219  29.602  1.00  0.00    -0.354 N 
ATOM     49  N   UNL A   1      41.945  28.661  30.971  1.00  0.00    -0.248 NA
ATOM     50  C   UNL A   1      41.847  29.927  29.018  1.00  0.00     0.031 C 
ATOM     51  C   UNL A   1      46.713  27.556  30.800  1.00  0.00     0.029 A 
ATOM     52  C   UNL A   1      45.616  28.399  30.628  1.00  0.00     0.049 A 
ATOM     53  H   UNL A   1      45.618  30.120  29.439  1.00  0.00     0.167 HD
ATOM     54  C   UNL A   1      43.227  29.092  30.685  1.00  0.00     0.074 A 
ATOM     55  C   UNL A   1      43.075  29.986  29.538  1.00  0.00     0.031 C 
ATOM     56  C   UNL A   1      44.301  28.441  31.223  1.00  0.00     0.037 A 
BRANCH  43  57
ATOM     57  C   UNL A   1      46.713  30.210  26.826  1.00  0.00     0.057 A 
ATOM     58  C   UNL A   1      45.505  30.893  26.563  1.00  0.00     0.134 A 
ATOM     59  C   UNL A   1      47.854  31.034  26.892  1.00  0.00     0.134 A 
ATOM     60  F   UNL A   1      44.320  30.280  26.487  1.00  0.00    -0.206 F 
ATOM     61  C   UNL A   1      45.425  32.284  26.465  1.00  0.00     0.040 A 
ATOM     62  C   UNL A   1      47.775  32.431  26.842  1.00  0.00     0.040 A 
ATOM     63  F   UNL A   1      49.066  30.511  27.128  1.00  0.00    -0.206 F 
ATOM     64  C   UNL A   1      46.554  33.062  26.647  1.00  0.00     0.006 A 
ENDBRANCH  43  57
BRANCH  44  65
ATOM     65  C   UNL A   1      38.833  28.533  29.197  1.00  0.00     0.057 A 
ATOM     66  C   UNL A   1      38.447  29.302  28.089  1.00  0.00     0.134 A 
ATOM     67  C   UNL A   1      37.939  28.546  30.286  1.00  0.00     0.134 A 
ATOM     68  F   UNL A   1      39.252  29.424  27.024  1.00  0.00    -0.206 F 
ATOM     69  C   UNL A   1      37.267  30.058  28.071  1.00  0.00     0.040 A 
ATOM     70  C   UNL A   1      36.756  29.302  30.283  1.00  0.00     0.040 A 
ATOM     71  F   UNL A   1      38.227  27.885  31.417  1.00  0.00    -0.206 F 
ATOM     72  C   UNL A   1      36.424  30.074  29.176  1.00  0.00     0.006 A 
ENDBRANCH  44  65
BRANCH  56  73
ATOM     73  C   UNL A   1      44.045  27.559  32.411  1.00  0.00     0.057 A 
ATOM     74  C   UNL A   1      44.041  28.153  33.679  1.00  0.00     0.134 A 
ATOM     75  C   UNL A   1      43.870  26.167  32.360  1.00  0.00     0.134 A 
ATOM     76  F   UNL A   1      44.250  29.473  33.807  1.00  0.00    -0.206 F 
ATOM     77  C   UNL A   1      43.852  27.407  34.842  1.00  0.00     0.040 A 
ATOM     78  C   UNL A   1      43.640  25.415  33.516  1.00  0.00     0.040 A 
ATOM     79  F   UNL A   1      43.950  25.497  31.202  1.00  0.00    -0.206 F 
ATOM     80  C   UNL A   1      43.633  26.035  34.763  1.00  0.00     0.006 A 
ENDBRANCH  56  73
ENDBRANCH  30  31
ENDBRANCH  23  25
ENDBRANCH  22  23
ENDBRANCH  21  22
ENDBRANCH   1  21
TORSDOF 15
ENDMDL
MODEL 3
REMARK VINA RESULT:     -10.8      3.698      6.242
REMARK SMILES Cc1ccn2c([C@H]3C[C@@H]3C(=O)OCCOCCOC(=O)c3ccc(-c4c5nc(c(-c6c(F)cccc6F)c6ccc([nH]6)c(-c6c(F)cccc6F)c6nc(c(-c7c(F)cccc7F)c7ccc4[nH]7)C=C6)C=C5)cc3)nnc2c1
REMARK SMILES IDX 16 1 15 2 14 3 13 4 12 5 10 6 11 7 9 8 7 9 8 10 6 11 1 12
REMARK SMILES IDX 2 13 3 14 78 15 4 16 77 17 5 18 76 19 75 20 17 21 18 22
REMARK SMILES IDX 19 23 20 24 21 25 22 26 74 27 23 28 73 29 24 30 25 31 26 32
REMARK SMILES IDX 67 33 27 34 72 35 66 36 68 37 28 38 71 39 65 40 64 41 29 43
REMARK SMILES IDX 55 44 38 45 54 46 39 47 42 48 53 49 69 50 40 51 41 52 52 54
REMARK SMILES IDX 70 55 43 56 30 57 31 58 36 59 32 60 33 61 35 62 37 63 34 64
REMARK SMILES IDX 56 65 57 66 62 67 58 68 59 69 61 70 63 71 60 72 44 73 45 74
REMARK SMILES IDX 50 75 46 76 47 77 49 78 51 79 48 80
REMARK H PARENT 68 42 42 53
REMARK Flexibility Score: inf
ROOT
ATOM      1  C   UNL A   1      42.254  19.350  26.735  1.00  0.00     0.202 C 
ENDROOT
BRANCH   1   2
ATOM      2  O   UNL A   1      42.774  18.427  25.780  1.00  0.00    -0.374 OA
BRANCH   2   3
ATOM      3  C   UNL A   1      44.141  18.546  25.403  1.00  0.00     0.202 C 
BRANCH   3   4
ATOM      4  C   UNL A   1      44.529  19.107  24.027  1.00  0.00     0.261 C 
BRANCH   4   5
ATOM      5  O   UNL A   1      44.572  20.535  23.969  1.00  0.00    -0.463 OA
BRANCH   5   6
ATOM      6  C   UNL A   1      45.662  21.075  24.581  1.00  0.00     0.309 C 
ATOM      7  O   UNL A   1      46.775  20.593  24.628  1.00  0.00    -0.252 OA
BRANCH   6   8
ATOM      8  C   UNL A   1      45.360  22.408  25.155  1.00  0.00     0.110 C 
ATOM      9  C   UNL A   1      44.673  22.566  26.498  1.00  0.00     0.073 C 
ATOM     10  C   UNL A   1      43.908  22.832  25.236  1.00  0.00     0.028 C 
BRANCH   9  11
ATOM     11  C   UNL A   1      45.010  23.752  27.384  1.00  0.00     0.141 A 
ATOM     12  C   UNL A   1      44.153  24.991  32.755  1.00  0.00     0.044 C 
ATOM     13  C   UNL A   1      44.457  24.614  31.335  1.00  0.00    -0.046 A 
ATOM     14  C   UNL A   1      44.083  23.262  30.914  1.00  0.00     0.022 A 
ATOM     15  C   UNL A   1      45.007  25.483  30.457  1.00  0.00     0.053 A 
ATOM     16  C   UNL A   1      44.280  22.893  29.636  1.00  0.00     0.095 A 
ATOM     17  C   UNL A   1      45.193  25.098  29.100  1.00  0.00     0.161 A 
ATOM     18  N   UNL A   1      44.828  23.811  28.745  1.00  0.00    -0.286 N 
ATOM     19  N   UNL A   1      45.593  25.752  28.031  1.00  0.00    -0.130 NA
ATOM     20  N   UNL A   1      45.433  24.918  26.942  1.00  0.00    -0.134 NA
ENDBRANCH   9  11
ENDBRANCH   6   8
ENDBRANCH   5   6
ENDBRANCH   4   5
ENDBRANCH   3   4
ENDBRANCH   2   3
ENDBRANCH   1   2
BRANCH   1  21
ATOM     21  C   UNL A   1      40.901  20.050  26.508  1.00  0.00     0.261 C 
BRANCH  21  22
ATOM     22  O   UNL A   1      40.908  21.398  26.988  1.00  0.00    -0.460 OA
BRANCH  22  23
ATOM     23  C   UNL A   1      39.944  22.203  26.462  1.00  0.00     0.338 C 
ATOM     24  O   UNL A   1      39.012  21.877  25.752  1.00  0.00    -0.246 OA
BRANCH  23  25
ATOM     25  C   UNL A   1      39.996  23.450  27.254  1.00  0.00     0.060 A 
ATOM     26  C   UNL A   1      39.084  24.483  27.030  1.00  0.00     0.016 A 
ATOM     27  C   UNL A   1      41.187  23.678  27.968  1.00  0.00     0.016 A 
ATOM     28  C   UNL A   1      39.410  25.765  27.465  1.00  0.00     0.010 A 
ATOM     29  C   UNL A   1      41.523  24.969  28.366  1.00  0.00     0.010 A 
ATOM     30  C   UNL A   1      40.650  26.022  28.091  1.00  0.00    -0.014 A 
BRANCH  30  31
ATOM     31  C   UNL A   1      40.821  27.324  28.751  1.00  0.00     0.031 A 
ATOM     32  C   UNL A   1      42.019  28.011  28.196  1.00  0.00     0.074 A 
ATOM     33  C   UNL A   1      40.003  27.955  29.626  1.00  0.00     0.049 A 
ATOM     34  N   UNL A   1      43.143  28.218  28.795  1.00  0.00    -0.248 NA
ATOM     35  C   UNL A   1      42.045  28.294  26.750  1.00  0.00     0.031 C 
ATOM     36  C   UNL A   1      38.671  27.548  30.075  1.00  0.00     0.029 A 
ATOM     37  N   UNL A   1      40.172  29.164  30.257  1.00  0.00    -0.354 N 
ATOM     38  C   UNL A   1      43.947  28.863  27.861  1.00  0.00     0.074 A 
ATOM     39  C   UNL A   1      43.307  28.694  26.586  1.00  0.00     0.031 C 
ATOM     40  C   UNL A   1      38.073  28.584  30.716  1.00  0.00     0.029 A 
ATOM     41  C   UNL A   1      39.014  29.686  30.839  1.00  0.00     0.049 A 
ATOM     42  H   UNL A   1      41.041  29.625  30.296  1.00  0.00     0.167 HD
ATOM     43  C   UNL A   1      44.892  29.749  28.272  1.00  0.00     0.037 A 
ATOM     44  C   UNL A   1      38.833  30.933  31.360  1.00  0.00     0.037 A 
ATOM     45  C   UNL A   1      45.211  29.543  29.666  1.00  0.00     0.049 A 
ATOM     46  C   UNL A   1      40.168  31.491  31.657  1.00  0.00     0.074 A 
ATOM     47  C   UNL A   1      45.727  28.521  30.438  1.00  0.00     0.029 A 
ATOM     48  N   UNL A   1      44.634  30.424  30.539  1.00  0.00    -0.354 N 
ATOM     49  N   UNL A   1      40.931  31.074  32.623  1.00  0.00    -0.248 NA
ATOM     50  C   UNL A   1      40.828  32.277  30.630  1.00  0.00     0.031 C 
ATOM     51  C   UNL A   1      45.083  28.644  31.709  1.00  0.00     0.029 A 
ATOM     52  C   UNL A   1      44.253  29.763  31.669  1.00  0.00     0.049 A 
ATOM     53  H   UNL A   1      44.512  31.387  30.377  1.00  0.00     0.167 HD
ATOM     54  C   UNL A   1      42.206  31.114  32.089  1.00  0.00     0.074 A 
ATOM     55  C   UNL A   1      42.098  31.991  30.925  1.00  0.00     0.031 C 
ATOM     56  C   UNL A   1      43.137  30.192  32.478  1.00  0.00     0.037 A 
BRANCH  43  57
ATOM     57  C   UNL A   1      45.082  31.108  27.615  1.00  0.00     0.057 A 
ATOM     58  C   UNL A   1      44.134  32.154  27.634  1.00  0.00     0.134 A 
ATOM     59  C   UNL A   1      46.394  31.508  27.289  1.00  0.00     0.134 A 
ATOM     60  F   UNL A   1      42.847  31.969  27.942  1.00  0.00    -0.206 F 
ATOM     61  C   UNL A   1      44.477  33.494  27.437  1.00  0.00     0.040 A 
ATOM     62  C   UNL A   1      46.753  32.852  27.138  1.00  0.00     0.040 A 
ATOM     63  F   UNL A   1      47.390  30.611  27.229  1.00  0.00    -0.206 F 
ATOM     64  C   UNL A   1      45.796  33.853  27.232  1.00  0.00     0.006 A 
ENDBRANCH  43  57
BRANCH  44  65
ATOM     65  C   UNL A   1      37.633  31.811  31.428  1.00  0.00     0.057 A 
ATOM     66  C   UNL A   1      36.811  31.826  32.565  1.00  0.00     0.134 A 
ATOM     67  C   UNL A   1      37.084  32.406  30.274  1.00  0.00     0.134 A 
ATOM     68  F   UNL A   1      37.197  31.225  33.699  1.00  0.00    -0.206 F 
ATOM     69  C   UNL A   1      35.519  32.369  32.553  1.00  0.00     0.040 A 
ATOM     70  C   UNL A   1      35.791  32.950  30.247  1.00  0.00     0.040 A 
ATOM     71  F   UNL A   1      37.762  32.406  29.116  1.00  0.00    -0.206 F 
ATOM     72  C   UNL A   1      34.997  32.920  31.387  1.00  0.00     0.006 A 
ENDBRANCH  44  65
BRANCH  56  73
ATOM     73  C   UNL A   1      42.871  29.445  33.753  1.00  0.00     0.057 A 
ATOM     74  C   UNL A   1      43.489  29.903  34.922  1.00  0.00     0.134 A 
ATOM     75  C   UNL A   1      42.098  28.278  33.858  1.00  0.00     0.134 A 
ATOM     76  F   UNL A   1      44.282  30.987  34.888  1.00  0.00    -0.206 F 
ATOM     77  C   UNL A   1      43.333  29.249  36.144  1.00  0.00     0.040 A 
ATOM     78  C   UNL A   1      41.903  27.636  35.085  1.00  0.00     0.040 A 
ATOM     79  F   UNL A   1      41.543  27.711  32.778  1.00  0.00    -0.206 F 
ATOM     80  C   UNL A   1      42.524  28.121  36.233  1.00  0.00     0.006 A 
ENDBRANCH  56  73
ENDBRANCH  30  31
ENDBRANCH  23  25
ENDBRANCH  22  23
ENDBRANCH  21  22
ENDBRANCH   1  21
TORSDOF 15
ENDMDL
