MODEL 1
REMARK VINA RESULT:     -10.6      0.000      0.000
REMARK SMILES Cc1ccccc1-n1c(S[C@@H](C)C(=O)OCCOCCOC(=O)c2ccc(-c3c4nc(c(-c5c(F)cccc5F)c5ccc([nH]5)c(-c5c(F)cccc5F)c5nc(c(-c6c(F)cccc6F)c6ccc3[nH]6)C=C5)C=C4)cc2)nc2sc3c(c2c1=O)C[C@@H](C(C)C)OC3
REMARK SMILES IDX 17 1 16 2 15 3 13 4 14 5 11 6 12 7 10 8 9 9 8 10 84 11 78 12
REMARK SMILES IDX 83 13 85 14 79 15 82 16 80 17 81 18 86 19 92 20 87 21 91 22
REMARK SMILES IDX 7 23 1 24 2 25 3 26 4 27 6 28 5 29 88 30 89 31 90 32 18 33
REMARK SMILES IDX 19 34 20 35 21 36 22 37 23 38 24 39 25 40 77 41 26 42 76 43
REMARK SMILES IDX 27 44 28 45 29 46 70 47 30 48 75 49 69 50 71 51 31 52 74 53
REMARK SMILES IDX 68 54 67 55 32 57 58 58 41 59 57 60 42 61 45 62 56 63 72 64
REMARK SMILES IDX 43 65 44 66 55 68 73 69 46 70 33 71 34 72 39 73 35 74 36 75
REMARK SMILES IDX 38 76 40 77 37 78 59 79 60 80 65 81 61 82 62 83 64 84 66 85
REMARK SMILES IDX 63 86 47 87 48 88 53 89 49 90 50 91 52 92 54 93 51 94
REMARK H PARENT 71 56 45 67
REMARK Flexibility Score: inf
ROOT
ATOM      1  C   UNL A   1      39.171  24.997  27.829  1.00  0.00     0.202 C 
ENDROOT
BRANCH   1   2
ATOM      2  C   UNL A   1      39.150  24.485  26.385  1.00  0.00     0.261 C 
BRANCH   2   3
ATOM      3  O   UNL A   1      37.896  23.895  26.092  1.00  0.00    -0.462 OA
BRANCH   3   4
ATOM      4  C   UNL A   1      38.075  22.664  25.559  1.00  0.00     0.319 C 
ATOM      5  O   UNL A   1      39.059  21.987  25.712  1.00  0.00    -0.251 OA
BRANCH   4   6
ATOM      6  C   UNL A   1      36.836  22.192  24.874  1.00  0.00     0.161 C 
ATOM      7  C   UNL A   1      36.967  20.737  24.511  1.00  0.00     0.032 C 
BRANCH   6   8
ATOM      8  S   UNL A   1      36.150  23.016  23.468  1.00  0.00    -0.072 SA
BRANCH   8   9
ATOM      9  C   UNL A   1      34.711  23.973  23.689  1.00  0.00     0.177 A 
ATOM     10  N   UNL A   1      33.686  23.852  24.653  1.00  0.00    -0.255 N 
ATOM     11  C   UNL A   1      32.596  24.752  24.636  1.00  0.00     0.267 A 
ATOM     12  N   UNL A   1      34.753  24.928  22.802  1.00  0.00    -0.212 NA
ATOM     13  C   UNL A   1      32.705  25.828  23.692  1.00  0.00     0.081 A 
ATOM     14  O   UNL A   1      31.631  24.712  25.398  1.00  0.00    -0.268 OA
ATOM     15  C   UNL A   1      33.784  25.855  22.857  1.00  0.00     0.132 A 
ATOM     16  C   UNL A   1      31.876  26.966  23.547  1.00  0.00    -0.014 A 
ATOM     17  S   UNL A   1      33.842  27.290  21.933  1.00  0.00    -0.117 S 
ATOM     18  C   UNL A   1      32.448  27.893  22.704  1.00  0.00     0.037 A 
ATOM     19  C   UNL A   1      30.625  27.305  24.282  1.00  0.00     0.070 C 
ATOM     20  C   UNL A   1      31.989  29.306  22.563  1.00  0.00     0.207 C 
ATOM     21  C   UNL A   1      30.604  28.819  24.541  1.00  0.00     0.125 C 
ATOM     22  O   UNL A   1      30.746  29.509  23.275  1.00  0.00    -0.372 OA
BRANCH  10  23
ATOM     23  C   UNL A   1      33.579  22.866  25.679  1.00  0.00     0.054 A 
ATOM     24  C   UNL A   1      33.096  20.892  24.127  1.00  0.00     0.046 C 
ATOM     25  C   UNL A   1      33.155  21.547  25.476  1.00  0.00    -0.027 A 
ATOM     26  C   UNL A   1      32.990  20.702  26.590  1.00  0.00     0.005 A 
ATOM     27  C   UNL A   1      33.453  21.076  27.838  1.00  0.00     0.000 A 
ATOM     28  C   UNL A   1      34.147  23.177  26.926  1.00  0.00     0.027 A 
ATOM     29  C   UNL A   1      34.131  22.267  27.966  1.00  0.00     0.002 A 
ENDBRANCH  10  23
BRANCH  21  30
ATOM     30  C   UNL A   1      31.624  29.305  25.610  1.00  0.00     0.012 C 
ATOM     31  C   UNL A   1      31.369  30.777  25.944  1.00  0.00     0.010 C 
ATOM     32  C   UNL A   1      31.583  28.475  26.899  1.00  0.00     0.010 C 
ENDBRANCH  21  30
ENDBRANCH   8   9
ENDBRANCH   6   8
ENDBRANCH   4   6
ENDBRANCH   3   4
ENDBRANCH   2   3
ENDBRANCH   1   2
BRANCH   1  33
ATOM     33  O   UNL A   1      40.414  24.685  28.433  1.00  0.00    -0.374 OA
BRANCH  33  34
ATOM     34  C   UNL A   1      41.326  23.922  27.642  1.00  0.00     0.202 C 
BRANCH  34  35
ATOM     35  C   UNL A   1      42.872  24.201  27.660  1.00  0.00     0.261 C 
BRANCH  35  36
ATOM     36  O   UNL A   1      43.344  25.097  26.584  1.00  0.00    -0.460 OA
BRANCH  36  37
ATOM     37  C   UNL A   1      42.547  26.159  26.183  1.00  0.00     0.338 C 
ATOM     38  O   UNL A   1      42.008  26.220  25.090  1.00  0.00    -0.246 OA
BRANCH  37  39
ATOM     39  C   UNL A   1      42.663  27.374  27.140  1.00  0.00     0.060 A 
ATOM     40  C   UNL A   1      43.658  27.515  28.137  1.00  0.00     0.016 A 
ATOM     41  C   UNL A   1      41.630  28.275  27.244  1.00  0.00     0.016 A 
ATOM     42  C   UNL A   1      43.541  28.441  29.281  1.00  0.00     0.010 A 
ATOM     43  C   UNL A   1      41.454  29.037  28.432  1.00  0.00     0.010 A 
ATOM     44  C   UNL A   1      42.372  29.188  29.526  1.00  0.00    -0.014 A 
BRANCH  44  45
ATOM     45  C   UNL A   1      41.936  30.223  30.745  1.00  0.00     0.031 A 
ATOM     46  C   UNL A   1      42.417  31.578  30.260  1.00  0.00     0.074 A 
ATOM     47  C   UNL A   1      41.060  30.213  31.869  1.00  0.00     0.049 A 
ATOM     48  N   UNL A   1      41.747  32.382  29.492  1.00  0.00    -0.248 NA
ATOM     49  C   UNL A   1      43.873  31.870  30.225  1.00  0.00     0.031 C 
ATOM     50  C   UNL A   1      41.644  30.079  33.244  1.00  0.00     0.029 A 
ATOM     51  N   UNL A   1      39.890  31.000  32.270  1.00  0.00    -0.354 N 
ATOM     52  C   UNL A   1      42.607  33.450  29.185  1.00  0.00     0.074 A 
ATOM     53  C   UNL A   1      43.940  32.960  29.439  1.00  0.00     0.031 C 
ATOM     54  C   UNL A   1      40.960  30.772  34.204  1.00  0.00     0.029 A 
ATOM     55  C   UNL A   1      39.779  31.436  33.664  1.00  0.00     0.049 A 
ATOM     56  H   UNL A   1      39.192  31.230  31.615  1.00  0.00     0.167 HD
ATOM     57  C   UNL A   1      42.143  34.738  29.258  1.00  0.00     0.037 A 
ATOM     58  C   UNL A   1      38.924  32.347  34.340  1.00  0.00     0.037 A 
ATOM     59  C   UNL A   1      40.992  34.663  30.067  1.00  0.00     0.049 A 
ATOM     60  C   UNL A   1      37.685  32.817  33.603  1.00  0.00     0.074 A 
ATOM     61  C   UNL A   1      41.103  34.406  31.397  1.00  0.00     0.029 A 
ATOM     62  N   UNL A   1      39.702  34.520  29.630  1.00  0.00    -0.354 N 
ATOM     63  N   UNL A   1      37.687  33.931  32.928  1.00  0.00    -0.248 NA
ATOM     64  C   UNL A   1      36.372  32.169  33.494  1.00  0.00     0.031 C 
ATOM     65  C   UNL A   1      39.896  33.850  31.654  1.00  0.00     0.029 A 
ATOM     66  C   UNL A   1      38.966  33.945  30.640  1.00  0.00     0.049 A 
ATOM     67  H   UNL A   1      39.361  34.783  28.744  1.00  0.00     0.167 HD
ATOM     68  C   UNL A   1      36.954  33.589  31.829  1.00  0.00     0.074 A 
ATOM     69  C   UNL A   1      35.880  32.840  32.431  1.00  0.00     0.031 C 
ATOM     70  C   UNL A   1      37.566  33.506  30.594  1.00  0.00     0.037 A 
BRANCH  57  71
ATOM     71  C   UNL A   1      42.785  36.087  29.255  1.00  0.00     0.057 A 
ATOM     72  C   UNL A   1      43.641  36.483  30.331  1.00  0.00     0.134 A 
ATOM     73  C   UNL A   1      42.425  37.089  28.369  1.00  0.00     0.134 A 
ATOM     74  F   UNL A   1      44.105  35.629  31.256  1.00  0.00    -0.206 F 
ATOM     75  C   UNL A   1      44.043  37.788  30.551  1.00  0.00     0.040 A 
ATOM     76  C   UNL A   1      42.840  38.413  28.577  1.00  0.00     0.040 A 
ATOM     77  F   UNL A   1      41.626  36.823  27.327  1.00  0.00    -0.206 F 
ATOM     78  C   UNL A   1      43.627  38.767  29.678  1.00  0.00     0.006 A 
ENDBRANCH  57  71
BRANCH  58  79
ATOM     79  C   UNL A   1      39.330  33.494  35.364  1.00  0.00     0.057 A 
ATOM     80  C   UNL A   1      40.608  34.054  35.438  1.00  0.00     0.134 A 
ATOM     81  C   UNL A   1      38.563  33.779  36.545  1.00  0.00     0.134 A 
ATOM     82  F   UNL A   1      41.514  33.788  34.488  1.00  0.00    -0.206 F 
ATOM     83  C   UNL A   1      41.042  34.856  36.540  1.00  0.00     0.040 A 
ATOM     84  C   UNL A   1      38.981  34.544  37.645  1.00  0.00     0.040 A 
ATOM     85  F   UNL A   1      37.363  33.265  36.777  1.00  0.00    -0.206 F 
ATOM     86  C   UNL A   1      40.231  35.102  37.647  1.00  0.00     0.006 A 
ENDBRANCH  58  79
BRANCH  70  87
ATOM     87  C   UNL A   1      36.886  32.935  29.378  1.00  0.00     0.057 A 
ATOM     88  C   UNL A   1      37.215  31.695  28.813  1.00  0.00     0.134 A 
ATOM     89  C   UNL A   1      35.777  33.548  28.776  1.00  0.00     0.134 A 
ATOM     90  F   UNL A   1      38.452  31.188  28.875  1.00  0.00    -0.206 F 
ATOM     91  C   UNL A   1      36.314  30.958  28.049  1.00  0.00     0.040 A 
ATOM     92  C   UNL A   1      34.885  32.855  27.963  1.00  0.00     0.040 A 
ATOM     93  F   UNL A   1      35.495  34.845  28.929  1.00  0.00    -0.206 F 
ATOM     94  C   UNL A   1      35.098  31.516  27.692  1.00  0.00     0.006 A 
ENDBRANCH  70  87
ENDBRANCH  44  45
ENDBRANCH  37  39
ENDBRANCH  36  37
ENDBRANCH  35  36
ENDBRANCH  34  35
ENDBRANCH  33  34
ENDBRANCH   1  33
TORSDOF 18
ENDMDL
MODEL 2
REMARK VINA RESULT:     -10.5      5.060     10.474
REMARK SMILES Cc1ccccc1-n1c(S[C@@H](C)C(=O)OCCOCCOC(=O)c2ccc(-c3c4nc(c(-c5c(F)cccc5F)c5ccc([nH]5)c(-c5c(F)cccc5F)c5nc(c(-c6c(F)cccc6F)c6ccc3[nH]6)C=C5)C=C4)cc2)nc2sc3c(c2c1=O)C[C@@H](C(C)C)OC3
REMARK SMILES IDX 17 1 16 2 15 3 13 4 14 5 11 6 12 7 10 8 9 9 8 10 84 11 78 12
REMARK SMILES IDX 83 13 85 14 79 15 82 16 80 17 81 18 86 19 92 20 87 21 91 22
REMARK SMILES IDX 7 23 1 24 2 25 3 26 4 27 6 28 5 29 88 30 89 31 90 32 18 33
REMARK SMILES IDX 19 34 20 35 21 36 22 37 23 38 24 39 25 40 77 41 26 42 76 43
REMARK SMILES IDX 27 44 28 45 29 46 70 47 30 48 75 49 69 50 71 51 31 52 74 53
REMARK SMILES IDX 68 54 67 55 32 57 58 58 41 59 57 60 42 61 45 62 56 63 72 64
REMARK SMILES IDX 43 65 44 66 55 68 73 69 46 70 33 71 34 72 39 73 35 74 36 75
REMARK SMILES IDX 38 76 40 77 37 78 59 79 60 80 65 81 61 82 62 83 64 84 66 85
REMARK SMILES IDX 63 86 47 87 48 88 53 89 49 90 50 91 52 92 54 93 51 94
REMARK H PARENT 71 56 45 67
REMARK Flexibility Score: inf
ROOT
ATOM      1  C   UNL A   1      33.703  33.569  28.621  1.00  0.00     0.202 C 
ENDROOT
BRANCH   1   2
ATOM      2  C   UNL A   1      34.261  32.493  27.683  1.00  0.00     0.261 C 
BRANCH   2   3
ATOM      3  O   UNL A   1      33.888  31.204  28.137  1.00  0.00    -0.462 OA
BRANCH   3   4
ATOM      4  C   UNL A   1      33.306  30.509  27.133  1.00  0.00     0.319 C 
ATOM      5  O   UNL A   1      32.432  30.932  26.422  1.00  0.00    -0.251 OA
BRANCH   4   6
ATOM      6  C   UNL A   1      33.987  29.196  26.926  1.00  0.00     0.161 C 
ATOM      7  C   UNL A   1      35.450  29.312  27.265  1.00  0.00     0.032 C 
BRANCH   6   8
ATOM      8  S   UNL A   1      33.878  28.293  25.409  1.00  0.00    -0.072 SA
BRANCH   8   9
ATOM      9  C   UNL A   1      33.139  26.717  25.435  1.00  0.00     0.177 A 
ATOM     10  N   UNL A   1      31.942  26.270  24.834  1.00  0.00    -0.255 N 
ATOM     11  C   UNL A   1      31.531  24.928  24.997  1.00  0.00     0.267 A 
ATOM     12  N   UNL A   1      33.948  25.932  26.091  1.00  0.00    -0.212 NA
ATOM     13  C   UNL A   1      32.473  24.077  25.667  1.00  0.00     0.081 A 
ATOM     14  O   UNL A   1      30.489  24.446  24.556  1.00  0.00    -0.268 OA
ATOM     15  C   UNL A   1      33.624  24.630  26.148  1.00  0.00     0.132 A 
ATOM     16  C   UNL A   1      32.433  22.672  25.836  1.00  0.00    -0.014 A 
ATOM     17  S   UNL A   1      34.699  23.449  26.751  1.00  0.00    -0.117 S 
ATOM     18  C   UNL A   1      33.636  22.194  26.308  1.00  0.00     0.037 A 
ATOM     19  C   UNL A   1      31.363  21.717  25.434  1.00  0.00     0.070 C 
ATOM     20  C   UNL A   1      34.028  20.755  26.321  1.00  0.00     0.207 C 
ATOM     21  C   UNL A   1      32.023  20.425  24.929  1.00  0.00     0.125 C 
ATOM     22  O   UNL A   1      32.903  19.918  25.961  1.00  0.00    -0.372 OA
BRANCH  10  23
ATOM     23  C   UNL A   1      31.020  27.046  24.070  1.00  0.00     0.054 A 
ATOM     24  C   UNL A   1      32.497  27.283  21.996  1.00  0.00     0.046 C 
ATOM     25  C   UNL A   1      31.312  27.651  22.842  1.00  0.00    -0.027 A 
ATOM     26  C   UNL A   1      30.348  28.481  22.240  1.00  0.00     0.005 A 
ATOM     27  C   UNL A   1      29.051  28.523  22.719  1.00  0.00     0.000 A 
ATOM     28  C   UNL A   1      29.672  27.013  24.467  1.00  0.00     0.027 A 
ATOM     29  C   UNL A   1      28.700  27.698  23.762  1.00  0.00     0.002 A 
ENDBRANCH  10  23
BRANCH  21  30
ATOM     30  C   UNL A   1      32.727  20.558  23.548  1.00  0.00     0.012 C 
ATOM     31  C   UNL A   1      32.558  19.264  22.749  1.00  0.00     0.010 C 
ATOM     32  C   UNL A   1      32.208  21.740  22.721  1.00  0.00     0.010 C 
ENDBRANCH  21  30
ENDBRANCH   8   9
ENDBRANCH   6   8
ENDBRANCH   4   6
ENDBRANCH   3   4
ENDBRANCH   2   3
ENDBRANCH   1   2
BRANCH   1  33
ATOM     33  O   UNL A   1      34.064  33.275  29.959  1.00  0.00    -0.374 OA
BRANCH  33  34
ATOM     34  C   UNL A   1      35.452  33.380  30.277  1.00  0.00     0.202 C 
BRANCH  34  35
ATOM     35  C   UNL A   1      36.178  32.320  31.181  1.00  0.00     0.261 C 
BRANCH  35  36
ATOM     36  O   UNL A   1      37.298  31.619  30.521  1.00  0.00    -0.460 OA
BRANCH  36  37
ATOM     37  C   UNL A   1      37.250  30.240  30.376  1.00  0.00     0.338 C 
ATOM     38  O   UNL A   1      36.499  29.523  31.016  1.00  0.00    -0.246 OA
BRANCH  37  39
ATOM     39  C   UNL A   1      38.445  29.696  29.550  1.00  0.00     0.060 A 
ATOM     40  C   UNL A   1      38.585  28.349  29.138  1.00  0.00     0.016 A 
ATOM     41  C   UNL A   1      39.581  30.453  29.393  1.00  0.00     0.016 A 
ATOM     42  C   UNL A   1      39.869  27.754  28.715  1.00  0.00     0.010 A 
ATOM     43  C   UNL A   1      40.835  29.830  29.145  1.00  0.00     0.010 A 
ATOM     44  C   UNL A   1      41.084  28.461  28.789  1.00  0.00    -0.014 A 
BRANCH  44  45
ATOM     45  C   UNL A   1      42.652  28.035  28.464  1.00  0.00     0.031 A 
ATOM     46  C   UNL A   1      43.111  27.344  29.734  1.00  0.00     0.074 A 
ATOM     47  C   UNL A   1      43.490  27.903  27.318  1.00  0.00     0.049 A 
ATOM     48  N   UNL A   1      42.945  26.085  30.007  1.00  0.00    -0.248 NA
ATOM     49  C   UNL A   1      43.344  28.146  30.962  1.00  0.00     0.031 C 
ATOM     50  C   UNL A   1      44.537  28.944  27.059  1.00  0.00     0.029 A 
ATOM     51  N   UNL A   1      44.214  26.791  26.695  1.00  0.00    -0.354 N 
ATOM     52  C   UNL A   1      43.396  25.900  31.325  1.00  0.00     0.074 A 
ATOM     53  C   UNL A   1      43.379  27.210  31.929  1.00  0.00     0.031 C 
ATOM     54  C   UNL A   1      45.678  28.450  26.492  1.00  0.00     0.029 A 
ATOM     55  C   UNL A   1      45.580  27.021  26.218  1.00  0.00     0.049 A 
ATOM     56  H   UNL A   1      43.791  25.907  26.598  1.00  0.00     0.167 HD
ATOM     57  C   UNL A   1      44.203  24.833  31.623  1.00  0.00     0.037 A 
ATOM     58  C   UNL A   1      46.617  26.162  25.765  1.00  0.00     0.037 A 
ATOM     59  C   UNL A   1      44.734  24.423  30.384  1.00  0.00     0.049 A 
ATOM     60  C   UNL A   1      46.242  24.730  25.437  1.00  0.00     0.074 A 
ATOM     61  C   UNL A   1      45.643  25.198  29.738  1.00  0.00     0.029 A 
ATOM     62  N   UNL A   1      44.224  23.451  29.565  1.00  0.00    -0.354 N 
ATOM     63  N   UNL A   1      46.376  23.780  26.318  1.00  0.00    -0.248 NA
ATOM     64  C   UNL A   1      45.687  24.182  24.192  1.00  0.00     0.031 C 
ATOM     65  C   UNL A   1      45.443  24.816  28.454  1.00  0.00     0.029 A 
ATOM     66  C   UNL A   1      44.639  23.710  28.279  1.00  0.00     0.049 A 
ATOM     67  H   UNL A   1      43.658  22.696  29.849  1.00  0.00     0.167 HD
ATOM     68  C   UNL A   1      45.253  23.038  26.097  1.00  0.00     0.074 A 
ATOM     69  C   UNL A   1      45.217  23.005  24.657  1.00  0.00     0.031 C 
ATOM     70  C   UNL A   1      44.256  23.001  27.052  1.00  0.00     0.037 A 
BRANCH  57  71
ATOM     71  C   UNL A   1      45.051  24.452  32.792  1.00  0.00     0.057 A 
ATOM     72  C   UNL A   1      46.249  25.178  33.083  1.00  0.00     0.134 A 
ATOM     73  C   UNL A   1      44.868  23.277  33.503  1.00  0.00     0.134 A 
ATOM     74  F   UNL A   1      46.560  26.348  32.506  1.00  0.00    -0.206 F 
ATOM     75  C   UNL A   1      47.225  24.730  33.956  1.00  0.00     0.040 A 
ATOM     76  C   UNL A   1      45.847  22.823  34.400  1.00  0.00     0.040 A 
ATOM     77  F   UNL A   1      43.779  22.523  33.305  1.00  0.00    -0.206 F 
ATOM     78  C   UNL A   1      47.033  23.534  34.609  1.00  0.00     0.006 A 
ENDBRANCH  57  71
BRANCH  58  79
ATOM     79  C   UNL A   1      48.147  26.163  26.200  1.00  0.00     0.057 A 
ATOM     80  C   UNL A   1      48.610  26.665  27.419  1.00  0.00     0.134 A 
ATOM     81  C   UNL A   1      49.217  26.020  25.251  1.00  0.00     0.134 A 
ATOM     82  F   UNL A   1      47.740  26.986  28.385  1.00  0.00    -0.206 F 
ATOM     83  C   UNL A   1      49.991  26.934  27.675  1.00  0.00     0.040 A 
ATOM     84  C   UNL A   1      50.573  26.302  25.477  1.00  0.00     0.040 A 
ATOM     85  F   UNL A   1      49.027  25.677  23.984  1.00  0.00    -0.206 F 
ATOM     86  C   UNL A   1      50.976  26.755  26.704  1.00  0.00     0.006 A 
ENDBRANCH  58  79
BRANCH  70  87
ATOM     87  C   UNL A   1      42.903  22.386  26.803  1.00  0.00     0.057 A 
ATOM     88  C   UNL A   1      42.669  21.005  26.788  1.00  0.00     0.134 A 
ATOM     89  C   UNL A   1      41.736  23.155  26.682  1.00  0.00     0.134 A 
ATOM     90  F   UNL A   1      43.603  20.126  26.406  1.00  0.00    -0.206 F 
ATOM     91  C   UNL A   1      41.418  20.456  27.055  1.00  0.00     0.040 A 
ATOM     92  C   UNL A   1      40.465  22.626  26.888  1.00  0.00     0.040 A 
ATOM     93  F   UNL A   1      41.752  24.449  26.350  1.00  0.00    -0.206 F 
ATOM     94  C   UNL A   1      40.317  21.285  27.191  1.00  0.00     0.006 A 
ENDBRANCH  70  87
ENDBRANCH  44  45
ENDBRANCH  37  39
ENDBRANCH  36  37
ENDBRANCH  35  36
ENDBRANCH  34  35
ENDBRANCH  33  34
ENDBRANCH   1  33
TORSDOF 18
ENDMDL
MODEL 3
REMARK VINA RESULT:     -10.2      3.446      6.667
REMARK SMILES Cc1ccccc1-n1c(S[C@@H](C)C(=O)OCCOCCOC(=O)c2ccc(-c3c4nc(c(-c5c(F)cccc5F)c5ccc([nH]5)c(-c5c(F)cccc5F)c5nc(c(-c6c(F)cccc6F)c6ccc3[nH]6)C=C5)C=C4)cc2)nc2sc3c(c2c1=O)C[C@@H](C(C)C)OC3
REMARK SMILES IDX 17 1 16 2 15 3 13 4 14 5 11 6 12 7 10 8 9 9 8 10 84 11 78 12
REMARK SMILES IDX 83 13 85 14 79 15 82 16 80 17 81 18 86 19 92 20 87 21 91 22
REMARK SMILES IDX 7 23 1 24 2 25 3 26 4 27 6 28 5 29 88 30 89 31 90 32 18 33
REMARK SMILES IDX 19 34 20 35 21 36 22 37 23 38 24 39 25 40 77 41 26 42 76 43
REMARK SMILES IDX 27 44 28 45 29 46 70 47 30 48 75 49 69 50 71 51 31 52 74 53
REMARK SMILES IDX 68 54 67 55 32 57 58 58 41 59 57 60 42 61 45 62 56 63 72 64
REMARK SMILES IDX 43 65 44 66 55 68 73 69 46 70 33 71 34 72 39 73 35 74 36 75
REMARK SMILES IDX 38 76 40 77 37 78 59 79 60 80 65 81 61 82 62 83 64 84 66 85
REMARK SMILES IDX 63 86 47 87 48 88 53 89 49 90 50 91 52 92 54 93 51 94
REMARK H PARENT 71 56 45 67
REMARK Flexibility Score: inf
ROOT
ATOM      1  C   UNL A   1      41.012  21.365  27.631  1.00  0.00     0.202 C 
ENDROOT
BRANCH   1   2
ATOM      2  C   UNL A   1      40.217  22.575  27.128  1.00  0.00     0.261 C 
BRANCH   2   3
ATOM      3  O   UNL A   1      39.154  22.152  26.294  1.00  0.00    -0.462 OA
BRANCH   3   4
ATOM      4  C   UNL A   1      38.251  23.149  26.150  1.00  0.00     0.319 C 
ATOM      5  O   UNL A   1      38.509  24.323  26.217  1.00  0.00    -0.251 OA
BRANCH   4   6
ATOM      6  C   UNL A   1      36.916  22.610  25.755  1.00  0.00     0.161 C 
ATOM      7  C   UNL A   1      36.821  22.509  24.255  1.00  0.00     0.032 C 
BRANCH   6   8
ATOM      8  S   UNL A   1      35.396  23.315  26.322  1.00  0.00    -0.072 SA
BRANCH   8   9
ATOM      9  C   UNL A   1      34.363  24.101  25.161  1.00  0.00     0.177 A 
ATOM     10  N   UNL A   1      33.354  23.557  24.336  1.00  0.00    -0.255 N 
ATOM     11  C   UNL A   1      32.638  24.398  23.454  1.00  0.00     0.267 A 
ATOM     12  N   UNL A   1      34.639  25.375  25.212  1.00  0.00    -0.212 NA
ATOM     13  C   UNL A   1      32.919  25.800  23.582  1.00  0.00     0.081 A 
ATOM     14  O   UNL A   1      31.773  24.025  22.664  1.00  0.00    -0.268 OA
ATOM     15  C   UNL A   1      33.881  26.194  24.465  1.00  0.00     0.132 A 
ATOM     16  C   UNL A   1      32.260  26.894  22.971  1.00  0.00    -0.014 A 
ATOM     17  S   UNL A   1      33.956  27.893  24.615  1.00  0.00    -0.117 S 
ATOM     18  C   UNL A   1      32.653  28.088  23.535  1.00  0.00     0.037 A 
ATOM     19  C   UNL A   1      31.155  26.874  21.972  1.00  0.00     0.070 C 
ATOM     20  C   UNL A   1      31.953  29.390  23.334  1.00  0.00     0.207 C 
ATOM     21  C   UNL A   1      30.188  28.026  22.288  1.00  0.00     0.125 C 
ATOM     22  O   UNL A   1      30.935  29.266  22.312  1.00  0.00    -0.372 OA
BRANCH  10  23
ATOM     23  C   UNL A   1      32.962  22.189  24.244  1.00  0.00     0.054 A 
ATOM     24  C   UNL A   1      31.773  22.079  26.505  1.00  0.00     0.046 C 
ATOM     25  C   UNL A   1      32.382  21.453  25.284  1.00  0.00    -0.027 A 
ATOM     26  C   UNL A   1      32.139  20.079  25.099  1.00  0.00     0.005 A 
ATOM     27  C   UNL A   1      32.248  19.502  23.846  1.00  0.00     0.000 A 
ATOM     28  C   UNL A   1      32.952  21.611  22.962  1.00  0.00     0.027 A 
ATOM     29  C   UNL A   1      32.544  20.305  22.768  1.00  0.00     0.002 A 
ENDBRANCH  10  23
BRANCH  21  30
ATOM     30  C   UNL A   1      29.330  27.814  23.568  1.00  0.00     0.012 C 
ATOM     31  C   UNL A   1      27.947  28.441  23.379  1.00  0.00     0.010 C 
ATOM     32  C   UNL A   1      29.172  26.336  23.947  1.00  0.00     0.010 C 
ENDBRANCH  21  30
ENDBRANCH   8   9
ENDBRANCH   6   8
ENDBRANCH   4   6
ENDBRANCH   3   4
ENDBRANCH   2   3
ENDBRANCH   1   2
BRANCH   1  33
ATOM     33  O   UNL A   1      42.371  21.489  27.253  1.00  0.00    -0.374 OA
BRANCH  33  34
ATOM     34  C   UNL A   1      42.682  21.166  25.898  1.00  0.00     0.202 C 
BRANCH  34  35
ATOM     35  C   UNL A   1      43.196  22.250  24.884  1.00  0.00     0.261 C 
BRANCH  35  36
ATOM     36  O   UNL A   1      44.485  21.923  24.241  1.00  0.00    -0.460 OA
BRANCH  36  37
ATOM     37  C   UNL A   1      45.645  21.918  25.002  1.00  0.00     0.338 C 
ATOM     38  O   UNL A   1      46.330  20.924  25.179  1.00  0.00    -0.246 OA
BRANCH  37  39
ATOM     39  C   UNL A   1      45.805  23.217  25.834  1.00  0.00     0.060 A 
ATOM     40  C   UNL A   1      45.437  23.347  27.195  1.00  0.00     0.016 A 
ATOM     41  C   UNL A   1      46.079  24.411  25.209  1.00  0.00     0.016 A 
ATOM     42  C   UNL A   1      45.216  24.646  27.860  1.00  0.00     0.010 A 
ATOM     43  C   UNL A   1      45.704  25.643  25.812  1.00  0.00     0.010 A 
ATOM     44  C   UNL A   1      45.255  25.866  27.158  1.00  0.00    -0.014 A 
BRANCH  44  45
ATOM     45  C   UNL A   1      44.976  27.434  27.615  1.00  0.00     0.031 A 
ATOM     46  C   UNL A   1      43.465  27.522  27.709  1.00  0.00     0.074 A 
ATOM     47  C   UNL A   1      45.722  28.516  28.169  1.00  0.00     0.049 A 
ATOM     48  N   UNL A   1      42.758  27.213  28.752  1.00  0.00    -0.248 NA
ATOM     49  C   UNL A   1      42.651  27.501  26.467  1.00  0.00     0.031 C 
ATOM     50  C   UNL A   1      46.110  29.661  27.282  1.00  0.00     0.029 A 
ATOM     51  N   UNL A   1      45.640  29.295  29.408  1.00  0.00    -0.354 N 
ATOM     52  C   UNL A   1      41.410  27.314  28.365  1.00  0.00     0.074 A 
ATOM     53  C   UNL A   1      41.413  27.238  26.925  1.00  0.00     0.031 C 
ATOM     54  C   UNL A   1      46.124  30.871  27.917  1.00  0.00     0.029 A 
ATOM     55  C   UNL A   1      45.812  30.748  29.337  1.00  0.00     0.049 A 
ATOM     56  H   UNL A   1      45.473  28.851  30.270  1.00  0.00     0.167 HD
ATOM     57  C   UNL A   1      40.515  27.952  29.184  1.00  0.00     0.037 A 
ATOM     58  C   UNL A   1      45.604  31.805  30.263  1.00  0.00     0.037 A 
ATOM     59  C   UNL A   1      41.307  28.741  30.042  1.00  0.00     0.049 A 
ATOM     60  C   UNL A   1      45.407  31.428  31.718  1.00  0.00     0.074 A 
ATOM     61  C   UNL A   1      41.962  29.830  29.561  1.00  0.00     0.029 A 
ATOM     62  N   UNL A   1      41.761  28.384  31.284  1.00  0.00    -0.354 N 
ATOM     63  N   UNL A   1      44.214  31.280  32.219  1.00  0.00    -0.248 NA
ATOM     64  C   UNL A   1      46.419  31.159  32.748  1.00  0.00     0.031 C 
ATOM     65  C   UNL A   1      42.987  29.924  30.441  1.00  0.00     0.029 A 
ATOM     66  C   UNL A   1      42.894  29.116  31.554  1.00  0.00     0.049 A 
ATOM     67  H   UNL A   1      41.348  27.717  31.879  1.00  0.00     0.167 HD
ATOM     68  C   UNL A   1      44.389  30.198  33.032  1.00  0.00     0.074 A 
ATOM     69  C   UNL A   1      45.651  30.513  33.651  1.00  0.00     0.031 C 
ATOM     70  C   UNL A   1      43.783  28.998  32.717  1.00  0.00     0.037 A 
BRANCH  57  71
ATOM     71  C   UNL A   1      39.121  28.462  29.021  1.00  0.00     0.057 A 
ATOM     72  C   UNL A   1      38.772  29.262  27.887  1.00  0.00     0.134 A 
ATOM     73  C   UNL A   1      38.172  28.395  30.027  1.00  0.00     0.134 A 
ATOM     74  F   UNL A   1      39.565  29.406  26.815  1.00  0.00    -0.206 F 
ATOM     75  C   UNL A   1      37.605  30.000  27.798  1.00  0.00     0.040 A 
ATOM     76  C   UNL A   1      36.979  29.129  29.939  1.00  0.00     0.040 A 
ATOM     77  F   UNL A   1      38.401  27.672  31.132  1.00  0.00    -0.206 F 
ATOM     78  C   UNL A   1      36.706  29.948  28.839  1.00  0.00     0.006 A 
ENDBRANCH  57  71
BRANCH  58  79
ATOM     79  C   UNL A   1      44.840  33.179  30.023  1.00  0.00     0.057 A 
ATOM     80  C   UNL A   1      44.939  34.284  30.873  1.00  0.00     0.134 A 
ATOM     81  C   UNL A   1      43.699  33.285  29.157  1.00  0.00     0.134 A 
ATOM     82  F   UNL A   1      45.866  34.306  31.840  1.00  0.00    -0.206 F 
ATOM     83  C   UNL A   1      44.035  35.390  30.818  1.00  0.00     0.040 A 
ATOM     84  C   UNL A   1      42.787  34.351  29.106  1.00  0.00     0.040 A 
ATOM     85  F   UNL A   1      43.312  32.315  28.339  1.00  0.00    -0.206 F 
ATOM     86  C   UNL A   1      42.955  35.427  29.936  1.00  0.00     0.006 A 
ENDBRANCH  58  79
BRANCH  70  87
ATOM     87  C   UNL A   1      44.090  27.710  33.435  1.00  0.00     0.057 A 
ATOM     88  C   UNL A   1      43.815  27.491  34.791  1.00  0.00     0.134 A 
ATOM     89  C   UNL A   1      44.574  26.573  32.770  1.00  0.00     0.134 A 
ATOM     90  F   UNL A   1      43.824  28.481  35.691  1.00  0.00    -0.206 F 
ATOM     91  C   UNL A   1      43.628  26.217  35.320  1.00  0.00     0.040 A 
ATOM     92  C   UNL A   1      44.453  25.290  33.294  1.00  0.00     0.040 A 
ATOM     93  F   UNL A   1      45.196  26.634  31.589  1.00  0.00    -0.206 F 
ATOM     94  C   UNL A   1      43.869  25.103  34.533  1.00  0.00     0.006 A 
ENDBRANCH  70  87
ENDBRANCH  44  45
ENDBRANCH  37  39
ENDBRANCH  36  37
ENDBRANCH  35  36
ENDBRANCH  34  35
ENDBRANCH  33  34
ENDBRANCH   1  33
TORSDOF 18
ENDMDL
