MODEL 1
REMARK VINA RESULT:     -11.6      0.000      0.000
REMARK SMILES CC1=C(C(=O)OCCOCCOC(=O)c2ccc(-c3c4nc(c(-c5c(F)cccc5F)c5ccc([nH]5)c(-c5c(F)cccc5F)c5nc(c(-c6c(F)cccc6F)c6ccc3[nH]6)C=C5)C=C4)cc2)N2C(=O)[C@@H](NC(=O)c3ccn(C)n3)[C@H]2SC1
REMARK SMILES IDX 9 1 8 2 7 3 6 4 4 5 5 6 3 7 1 8 2 9 84 10 69 11 83 12 70 13
REMARK SMILES IDX 82 14 71 15 72 16 73 17 74 18 75 20 76 21 77 22 81 23 78 24
REMARK SMILES IDX 79 25 80 26 10 27 11 28 12 29 13 30 14 31 15 32 16 33 68 34
REMARK SMILES IDX 17 35 67 36 18 37 19 38 20 39 61 40 21 41 66 42 60 43 62 44
REMARK SMILES IDX 22 45 65 46 59 47 58 48 23 50 49 51 32 52 48 53 33 54 36 55
REMARK SMILES IDX 47 56 63 57 34 58 35 59 46 61 64 62 37 63 24 64 25 65 30 66
REMARK SMILES IDX 26 67 27 68 29 69 31 70 28 71 50 72 51 73 56 74 52 75 53 76
REMARK SMILES IDX 55 77 57 78 54 79 38 80 39 81 44 82 40 83 41 84 43 85 45 86
REMARK SMILES IDX 42 87
REMARK H PARENT 73 19 62 49 36 60
REMARK Flexibility Score: inf
ROOT
ATOM      1  O   UNL A   1      31.749  30.822  26.590  1.00  0.00    -0.374 OA
ENDROOT
BRANCH   1   2
ATOM      2  C   UNL A   1      33.039  30.278  26.875  1.00  0.00     0.202 C 
BRANCH   2   3
ATOM      3  C   UNL A   1      33.673  29.478  25.737  1.00  0.00     0.261 C 
BRANCH   3   4
ATOM      4  O   UNL A   1      32.882  29.641  24.546  1.00  0.00    -0.459 OA
BRANCH   4   5
ATOM      5  C   UNL A   1      32.860  28.560  23.732  1.00  0.00     0.355 C 
ATOM      6  O   UNL A   1      33.818  28.071  23.151  1.00  0.00    -0.244 OA
BRANCH   5   7
ATOM      7  C   UNL A   1      31.494  27.950  23.678  1.00  0.00     0.131 C 
ATOM      8  C   UNL A   1      30.476  29.743  22.210  1.00  0.00     0.043 C 
ATOM      9  C   UNL A   1      30.433  28.469  23.016  1.00  0.00    -0.032 C 
ATOM     10  C   UNL A   1      29.052  27.821  22.996  1.00  0.00     0.105 C 
ATOM     11  N   UNL A   1      31.384  26.736  24.272  1.00  0.00    -0.289 N 
ATOM     12  S   UNL A   1      28.790  26.521  24.251  1.00  0.00    -0.129 SA
ATOM     13  C   UNL A   1      31.918  26.099  25.332  1.00  0.00     0.253 C 
ATOM     14  C   UNL A   1      30.395  25.750  23.925  1.00  0.00     0.181 C 
ATOM     15  O   UNL A   1      32.694  26.450  26.192  1.00  0.00    -0.272 OA
ATOM     16  C   UNL A   1      31.037  24.850  25.017  1.00  0.00     0.206 C 
BRANCH  16  17
ATOM     17  N   UNL A   1      30.154  24.329  26.086  1.00  0.00    -0.336 N 
ATOM     18  C   UNL A   1      30.400  23.212  26.859  1.00  0.00     0.272 C 
ATOM     19  H   UNL A   1      29.321  24.823  26.262  1.00  0.00     0.164 HD
ATOM     20  O   UNL A   1      29.536  22.792  27.624  1.00  0.00    -0.267 OA
BRANCH  18  21
ATOM     21  C   UNL A   1      31.718  22.583  26.704  1.00  0.00     0.150 A 
ATOM     22  C   UNL A   1      32.907  22.910  27.408  1.00  0.00     0.056 A 
ATOM     23  N   UNL A   1      31.963  21.666  25.748  1.00  0.00    -0.168 NA
ATOM     24  C   UNL A   1      33.888  22.127  26.849  1.00  0.00     0.109 A 
ATOM     25  N   UNL A   1      33.270  21.383  25.889  1.00  0.00    -0.275 N 
ATOM     26  C   UNL A   1      33.899  20.413  25.024  1.00  0.00     0.173 C 
ENDBRANCH  18  21
ENDBRANCH  16  17
ENDBRANCH   5   7
ENDBRANCH   4   5
ENDBRANCH   3   4
ENDBRANCH   2   3
ENDBRANCH   1   2
BRANCH   1  27
ATOM     27  C   UNL A   1      31.592  32.235  26.712  1.00  0.00     0.202 C 
BRANCH  27  28
ATOM     28  C   UNL A   1      32.701  32.956  27.489  1.00  0.00     0.261 C 
BRANCH  28  29
ATOM     29  O   UNL A   1      32.285  34.234  28.002  1.00  0.00    -0.460 OA
BRANCH  29  30
ATOM     30  C   UNL A   1      33.225  34.868  28.747  1.00  0.00     0.338 C 
ATOM     31  O   UNL A   1      33.156  35.981  29.241  1.00  0.00    -0.246 OA
BRANCH  30  32
ATOM     32  C   UNL A   1      34.352  33.957  29.024  1.00  0.00     0.060 A 
ATOM     33  C   UNL A   1      34.104  32.854  29.850  1.00  0.00     0.016 A 
ATOM     34  C   UNL A   1      35.642  34.217  28.556  1.00  0.00     0.016 A 
ATOM     35  C   UNL A   1      35.153  32.030  30.248  1.00  0.00     0.010 A 
ATOM     36  C   UNL A   1      36.697  33.394  28.965  1.00  0.00     0.010 A 
ATOM     37  C   UNL A   1      36.462  32.317  29.837  1.00  0.00    -0.014 A 
BRANCH  37  38
ATOM     38  C   UNL A   1      37.594  31.571  30.438  1.00  0.00     0.031 A 
ATOM     39  C   UNL A   1      37.963  31.831  31.871  1.00  0.00     0.074 A 
ATOM     40  C   UNL A   1      38.265  30.651  29.724  1.00  0.00     0.049 A 
ATOM     41  N   UNL A   1      38.917  31.297  32.592  1.00  0.00    -0.248 NA
ATOM     42  C   UNL A   1      37.149  32.824  32.588  1.00  0.00     0.031 C 
ATOM     43  C   UNL A   1      37.984  30.286  28.337  1.00  0.00     0.029 A 
ATOM     44  N   UNL A   1      39.329  29.857  30.072  1.00  0.00    -0.354 N 
ATOM     45  C   UNL A   1      38.818  31.888  33.844  1.00  0.00     0.074 A 
ATOM     46  C   UNL A   1      37.732  32.843  33.778  1.00  0.00     0.031 C 
ATOM     47  C   UNL A   1      38.860  29.344  27.948  1.00  0.00     0.029 A 
ATOM     48  C   UNL A   1      39.777  29.057  29.051  1.00  0.00     0.049 A 
ATOM     49  H   UNL A   1      39.733  29.861  30.971  1.00  0.00     0.167 HD
ATOM     50  C   UNL A   1      39.557  31.651  34.954  1.00  0.00     0.037 A 
ATOM     51  C   UNL A   1      40.816  28.202  29.008  1.00  0.00     0.037 A 
ATOM     52  C   UNL A   1      40.638  30.703  35.023  1.00  0.00     0.049 A 
ATOM     53  C   UNL A   1      41.664  28.001  30.235  1.00  0.00     0.074 A 
ATOM     54  C   UNL A   1      41.429  30.375  36.109  1.00  0.00     0.029 A 
ATOM     55  N   UNL A   1      41.081  29.936  33.957  1.00  0.00    -0.354 N 
ATOM     56  N   UNL A   1      41.541  28.543  31.422  1.00  0.00    -0.248 NA
ATOM     57  C   UNL A   1      42.793  27.066  30.115  1.00  0.00     0.031 C 
ATOM     58  C   UNL A   1      42.381  29.439  35.689  1.00  0.00     0.029 A 
ATOM     59  C   UNL A   1      42.154  29.154  34.353  1.00  0.00     0.049 A 
ATOM     60  H   UNL A   1      40.692  29.946  33.053  1.00  0.00     0.167 HD
ATOM     61  C   UNL A   1      42.560  28.000  32.197  1.00  0.00     0.074 A 
ATOM     62  C   UNL A   1      43.284  27.078  31.346  1.00  0.00     0.031 C 
ATOM     63  C   UNL A   1      42.865  28.241  33.495  1.00  0.00     0.037 A 
BRANCH  50  64
ATOM     64  C   UNL A   1      39.230  32.450  36.180  1.00  0.00     0.057 A 
ATOM     65  C   UNL A   1      39.793  33.712  36.410  1.00  0.00     0.134 A 
ATOM     66  C   UNL A   1      38.327  31.960  37.130  1.00  0.00     0.134 A 
ATOM     67  F   UNL A   1      40.677  34.230  35.545  1.00  0.00    -0.206 F 
ATOM     68  C   UNL A   1      39.485  34.448  37.555  1.00  0.00     0.040 A 
ATOM     69  C   UNL A   1      37.994  32.697  38.268  1.00  0.00     0.040 A 
ATOM     70  F   UNL A   1      37.751  30.759  36.968  1.00  0.00    -0.206 F 
ATOM     71  C   UNL A   1      38.578  33.943  38.486  1.00  0.00     0.006 A 
ENDBRANCH  50  64
BRANCH  51  72
ATOM     72  C   UNL A   1      41.120  27.472  27.754  1.00  0.00     0.057 A 
ATOM     73  C   UNL A   1      40.594  26.200  27.509  1.00  0.00     0.134 A 
ATOM     74  C   UNL A   1      41.953  28.027  26.775  1.00  0.00     0.134 A 
ATOM     75  F   UNL A   1      39.808  25.607  28.421  1.00  0.00    -0.206 F 
ATOM     76  C   UNL A   1      40.894  25.497  26.341  1.00  0.00     0.040 A 
ATOM     77  C   UNL A   1      42.246  27.344  25.593  1.00  0.00     0.040 A 
ATOM     78  F   UNL A   1      42.488  29.244  26.950  1.00  0.00    -0.206 F 
ATOM     79  C   UNL A   1      41.719  26.073  25.376  1.00  0.00     0.006 A 
ENDBRANCH  51  72
BRANCH  63  80
ATOM     80  C   UNL A   1      44.016  27.480  34.083  1.00  0.00     0.057 A 
ATOM     81  C   UNL A   1      45.316  28.000  34.091  1.00  0.00     0.134 A 
ATOM     82  C   UNL A   1      43.814  26.231  34.683  1.00  0.00     0.134 A 
ATOM     83  F   UNL A   1      45.577  29.186  33.521  1.00  0.00    -0.206 F 
ATOM     84  C   UNL A   1      46.378  27.296  34.661  1.00  0.00     0.040 A 
ATOM     85  C   UNL A   1      44.863  25.528  35.276  1.00  0.00     0.040 A 
ATOM     86  F   UNL A   1      42.591  25.680  34.715  1.00  0.00    -0.206 F 
ATOM     87  C   UNL A   1      46.151  26.059  35.261  1.00  0.00     0.006 A 
ENDBRANCH  63  80
ENDBRANCH  37  38
ENDBRANCH  30  32
ENDBRANCH  29  30
ENDBRANCH  28  29
ENDBRANCH  27  28
ENDBRANCH   1  27
TORSDOF 16
ENDMDL
MODEL 2
REMARK VINA RESULT:     -11.6      1.184      2.117
REMARK SMILES CC1=C(C(=O)OCCOCCOC(=O)c2ccc(-c3c4nc(c(-c5c(F)cccc5F)c5ccc([nH]5)c(-c5c(F)cccc5F)c5nc(c(-c6c(F)cccc6F)c6ccc3[nH]6)C=C5)C=C4)cc2)N2C(=O)[C@@H](NC(=O)c3ccn(C)n3)[C@H]2SC1
REMARK SMILES IDX 9 1 8 2 7 3 6 4 4 5 5 6 3 7 1 8 2 9 84 10 69 11 83 12 70 13
REMARK SMILES IDX 82 14 71 15 72 16 73 17 74 18 75 20 76 21 77 22 81 23 78 24
REMARK SMILES IDX 79 25 80 26 10 27 11 28 12 29 13 30 14 31 15 32 16 33 68 34
REMARK SMILES IDX 17 35 67 36 18 37 19 38 20 39 61 40 21 41 66 42 60 43 62 44
REMARK SMILES IDX 22 45 65 46 59 47 58 48 23 50 49 51 32 52 48 53 33 54 36 55
REMARK SMILES IDX 47 56 63 57 34 58 35 59 46 61 64 62 37 63 24 64 25 65 30 66
REMARK SMILES IDX 26 67 27 68 29 69 31 70 28 71 50 72 51 73 56 74 52 75 53 76
REMARK SMILES IDX 55 77 57 78 54 79 38 80 39 81 44 82 40 83 41 84 43 85 45 86
REMARK SMILES IDX 42 87
REMARK H PARENT 73 19 62 49 36 60
REMARK Flexibility Score: inf
ROOT
ATOM      1  O   UNL A   1      32.291  30.418  25.447  1.00  0.00    -0.374 OA
ENDROOT
BRANCH   1   2
ATOM      2  C   UNL A   1      33.171  29.293  25.508  1.00  0.00     0.202 C 
BRANCH   2   3
ATOM      3  C   UNL A   1      33.919  28.982  24.211  1.00  0.00     0.261 C 
BRANCH   3   4
ATOM      4  O   UNL A   1      32.969  28.840  23.140  1.00  0.00    -0.459 OA
BRANCH   4   5
ATOM      5  C   UNL A   1      32.803  27.572  22.698  1.00  0.00     0.355 C 
ATOM      6  O   UNL A   1      33.470  27.010  21.841  1.00  0.00    -0.244 OA
BRANCH   5   7
ATOM      7  C   UNL A   1      31.721  26.871  23.458  1.00  0.00     0.131 C 
ATOM      8  C   UNL A   1      29.832  28.324  22.605  1.00  0.00     0.043 C 
ATOM      9  C   UNL A   1      30.408  27.201  23.430  1.00  0.00    -0.032 C 
ATOM     10  C   UNL A   1      29.336  26.467  24.231  1.00  0.00     0.105 C 
ATOM     11  N   UNL A   1      32.120  25.767  24.137  1.00  0.00    -0.289 N 
ATOM     12  S   UNL A   1      29.970  25.377  25.553  1.00  0.00    -0.129 SA
ATOM     13  C   UNL A   1      33.219  25.352  24.796  1.00  0.00     0.253 C 
ATOM     14  C   UNL A   1      31.253  24.673  24.488  1.00  0.00     0.181 C 
ATOM     15  O   UNL A   1      34.271  25.892  25.054  1.00  0.00    -0.272 OA
ATOM     16  C   UNL A   1      32.498  24.012  25.141  1.00  0.00     0.206 C 
BRANCH  16  17
ATOM     17  N   UNL A   1      32.400  23.616  26.564  1.00  0.00    -0.336 N 
ATOM     18  C   UNL A   1      33.090  22.579  27.161  1.00  0.00     0.272 C 
ATOM     19  H   UNL A   1      31.792  24.139  27.136  1.00  0.00     0.164 HD
ATOM     20  O   UNL A   1      32.830  22.253  28.317  1.00  0.00    -0.267 OA
BRANCH  18  21
ATOM     21  C   UNL A   1      34.113  21.917  26.344  1.00  0.00     0.150 A 
ATOM     22  C   UNL A   1      33.951  20.745  25.557  1.00  0.00     0.056 A 
ATOM     23  N   UNL A   1      35.401  22.313  26.354  1.00  0.00    -0.168 NA
ATOM     24  C   UNL A   1      35.202  20.460  25.066  1.00  0.00     0.109 A 
ATOM     25  N   UNL A   1      36.022  21.439  25.543  1.00  0.00    -0.275 N 
ATOM     26  C   UNL A   1      37.440  21.558  25.299  1.00  0.00     0.173 C 
ENDBRANCH  18  21
ENDBRANCH  16  17
ENDBRANCH   5   7
ENDBRANCH   4   5
ENDBRANCH   3   4
ENDBRANCH   2   3
ENDBRANCH   1   2
BRANCH   1  27
ATOM     27  C   UNL A   1      31.722  30.872  26.675  1.00  0.00     0.202 C 
BRANCH  27  28
ATOM     28  C   UNL A   1      31.526  32.389  26.789  1.00  0.00     0.261 C 
BRANCH  28  29
ATOM     29  O   UNL A   1      32.756  33.123  26.662  1.00  0.00    -0.460 OA
BRANCH  29  30
ATOM     30  C   UNL A   1      33.234  33.616  27.831  1.00  0.00     0.338 C 
ATOM     31  O   UNL A   1      32.692  34.409  28.582  1.00  0.00    -0.246 OA
BRANCH  30  32
ATOM     32  C   UNL A   1      34.501  32.945  28.184  1.00  0.00     0.060 A 
ATOM     33  C   UNL A   1      34.439  31.591  28.535  1.00  0.00     0.016 A 
ATOM     34  C   UNL A   1      35.710  33.641  28.251  1.00  0.00     0.016 A 
ATOM     35  C   UNL A   1      35.578  30.937  28.996  1.00  0.00     0.010 A 
ATOM     36  C   UNL A   1      36.851  32.985  28.725  1.00  0.00     0.010 A 
ATOM     37  C   UNL A   1      36.783  31.641  29.129  1.00  0.00    -0.014 A 
BRANCH  37  38
ATOM     38  C   UNL A   1      37.927  31.001  29.822  1.00  0.00     0.031 A 
ATOM     39  C   UNL A   1      38.177  31.320  31.268  1.00  0.00     0.074 A 
ATOM     40  C   UNL A   1      38.716  30.124  29.178  1.00  0.00     0.049 A 
ATOM     41  N   UNL A   1      39.119  30.881  32.065  1.00  0.00    -0.248 NA
ATOM     42  C   UNL A   1      37.239  32.259  31.905  1.00  0.00     0.031 C 
ATOM     43  C   UNL A   1      38.559  29.709  27.785  1.00  0.00     0.029 A 
ATOM     44  N   UNL A   1      39.814  29.427  29.616  1.00  0.00    -0.354 N 
ATOM     45  C   UNL A   1      38.889  31.488  33.292  1.00  0.00     0.074 A 
ATOM     46  C   UNL A   1      37.737  32.349  33.129  1.00  0.00     0.031 C 
ATOM     47  C   UNL A   1      39.532  28.833  27.480  1.00  0.00     0.029 A 
ATOM     48  C   UNL A   1      40.391  28.644  28.648  1.00  0.00     0.049 A 
ATOM     49  H   UNL A   1      40.154  29.482  30.539  1.00  0.00     0.167 HD
ATOM     50  C   UNL A   1      39.568  31.334  34.453  1.00  0.00     0.037 A 
ATOM     51  C   UNL A   1      41.496  27.875  28.696  1.00  0.00     0.037 A 
ATOM     52  C   UNL A   1      40.713  30.479  34.619  1.00  0.00     0.049 A 
ATOM     53  C   UNL A   1      42.272  27.769  29.981  1.00  0.00     0.074 A 
ATOM     54  C   UNL A   1      41.453  30.238  35.763  1.00  0.00     0.029 A 
ATOM     55  N   UNL A   1      41.287  29.728  33.604  1.00  0.00    -0.354 N 
ATOM     56  N   UNL A   1      42.027  28.324  31.143  1.00  0.00    -0.248 NA
ATOM     57  C   UNL A   1      43.477  26.926  29.960  1.00  0.00     0.031 C 
ATOM     58  C   UNL A   1      42.502  29.374  35.431  1.00  0.00     0.029 A 
ATOM     59  C   UNL A   1      42.389  29.044  34.090  1.00  0.00     0.049 A 
ATOM     60  H   UNL A   1      40.960  29.687  32.677  1.00  0.00     0.167 HD
ATOM     61  C   UNL A   1      43.030  27.881  31.997  1.00  0.00     0.074 A 
ATOM     62  C   UNL A   1      43.882  27.003  31.220  1.00  0.00     0.031 C 
ATOM     63  C   UNL A   1      43.227  28.174  33.306  1.00  0.00     0.037 A 
BRANCH  50  64
ATOM     64  C   UNL A   1      39.096  32.129  35.634  1.00  0.00     0.057 A 
ATOM     65  C   UNL A   1      38.246  31.580  36.602  1.00  0.00     0.134 A 
ATOM     66  C   UNL A   1      39.514  33.453  35.815  1.00  0.00     0.134 A 
ATOM     67  F   UNL A   1      37.798  30.322  36.478  1.00  0.00    -0.206 F 
ATOM     68  C   UNL A   1      37.810  32.328  37.697  1.00  0.00     0.040 A 
ATOM     69  C   UNL A   1      39.103  34.203  36.918  1.00  0.00     0.040 A 
ATOM     70  F   UNL A   1      40.332  34.037  34.925  1.00  0.00    -0.206 F 
ATOM     71  C   UNL A   1      38.244  33.642  37.860  1.00  0.00     0.006 A 
ENDBRANCH  50  64
BRANCH  51  72
ATOM     72  C   UNL A   1      41.941  27.146  27.484  1.00  0.00     0.057 A 
ATOM     73  C   UNL A   1      42.747  27.764  26.522  1.00  0.00     0.134 A 
ATOM     74  C   UNL A   1      41.563  25.818  27.255  1.00  0.00     0.134 A 
ATOM     75  F   UNL A   1      43.122  29.042  26.675  1.00  0.00    -0.206 F 
ATOM     76  C   UNL A   1      43.151  27.091  25.368  1.00  0.00     0.040 A 
ATOM     77  C   UNL A   1      41.976  25.127  26.115  1.00  0.00     0.040 A 
ATOM     78  F   UNL A   1      40.792  25.171  28.141  1.00  0.00    -0.206 F 
ATOM     79  C   UNL A   1      42.770  25.766  25.165  1.00  0.00     0.006 A 
ENDBRANCH  51  72
BRANCH  63  80
ATOM     80  C   UNL A   1      44.392  27.521  33.988  1.00  0.00     0.057 A 
ATOM     81  C   UNL A   1      44.287  26.255  34.576  1.00  0.00     0.134 A 
ATOM     82  C   UNL A   1      45.643  28.148  34.021  1.00  0.00     0.134 A 
ATOM     83  F   UNL A   1      43.111  25.607  34.588  1.00  0.00    -0.206 F 
ATOM     84  C   UNL A   1      45.381  25.643  35.189  1.00  0.00     0.040 A 
ATOM     85  C   UNL A   1      46.750  27.538  34.612  1.00  0.00     0.040 A 
ATOM     86  F   UNL A   1      45.813  29.360  33.470  1.00  0.00    -0.206 F 
ATOM     87  C   UNL A   1      46.619  26.283  35.202  1.00  0.00     0.006 A 
ENDBRANCH  63  80
ENDBRANCH  37  38
ENDBRANCH  30  32
ENDBRANCH  29  30
ENDBRANCH  28  29
ENDBRANCH  27  28
ENDBRANCH   1  27
TORSDOF 16
ENDMDL
MODEL 3
REMARK VINA RESULT:     -11.5      1.153      6.204
REMARK SMILES CC1=C(C(=O)OCCOCCOC(=O)c2ccc(-c3c4nc(c(-c5c(F)cccc5F)c5ccc([nH]5)c(-c5c(F)cccc5F)c5nc(c(-c6c(F)cccc6F)c6ccc3[nH]6)C=C5)C=C4)cc2)N2C(=O)[C@@H](NC(=O)c3ccn(C)n3)[C@H]2SC1
REMARK SMILES IDX 9 1 8 2 7 3 6 4 4 5 5 6 3 7 1 8 2 9 84 10 69 11 83 12 70 13
REMARK SMILES IDX 82 14 71 15 72 16 73 17 74 18 75 20 76 21 77 22 81 23 78 24
REMARK SMILES IDX 79 25 80 26 10 27 11 28 12 29 13 30 14 31 15 32 16 33 68 34
REMARK SMILES IDX 17 35 67 36 18 37 19 38 20 39 61 40 21 41 66 42 60 43 62 44
REMARK SMILES IDX 22 45 65 46 59 47 58 48 23 50 49 51 32 52 48 53 33 54 36 55
REMARK SMILES IDX 47 56 63 57 34 58 35 59 46 61 64 62 37 63 24 64 25 65 30 66
REMARK SMILES IDX 26 67 27 68 29 69 31 70 28 71 50 72 51 73 56 74 52 75 53 76
REMARK SMILES IDX 55 77 57 78 54 79 38 80 39 81 44 82 40 83 41 84 43 85 45 86
REMARK SMILES IDX 42 87
REMARK H PARENT 73 19 62 49 36 60
REMARK Flexibility Score: inf
ROOT
ATOM      1  O   UNL A   1      32.392  30.187  25.309  1.00  0.00    -0.374 OA
ENDROOT
BRANCH   1   2
ATOM      2  C   UNL A   1      33.384  29.168  25.458  1.00  0.00     0.202 C 
BRANCH   2   3
ATOM      3  C   UNL A   1      34.129  28.794  24.177  1.00  0.00     0.261 C 
BRANCH   3   4
ATOM      4  O   UNL A   1      33.196  28.746  23.083  1.00  0.00    -0.459 OA
BRANCH   4   5
ATOM      5  C   UNL A   1      32.922  27.501  22.630  1.00  0.00     0.355 C 
ATOM      6  O   UNL A   1      33.521  26.902  21.748  1.00  0.00    -0.244 OA
BRANCH   5   7
ATOM      7  C   UNL A   1      31.811  26.872  23.412  1.00  0.00     0.131 C 
ATOM      8  C   UNL A   1      30.003  28.436  22.581  1.00  0.00     0.043 C 
ATOM      9  C   UNL A   1      30.521  27.283  23.403  1.00  0.00    -0.032 C 
ATOM     10  C   UNL A   1      29.419  26.622  24.226  1.00  0.00     0.105 C 
ATOM     11  N   UNL A   1      32.152  25.749  24.091  1.00  0.00    -0.289 N 
ATOM     12  S   UNL A   1      30.006  25.501  25.544  1.00  0.00    -0.129 SA
ATOM     13  C   UNL A   1      33.233  25.269  24.734  1.00  0.00     0.253 C 
ATOM     14  C   UNL A   1      31.225  24.713  24.462  1.00  0.00     0.181 C 
ATOM     15  O   UNL A   1      34.321  25.743  24.972  1.00  0.00    -0.272 OA
ATOM     16  C   UNL A   1      32.436  23.978  25.099  1.00  0.00     0.206 C 
BRANCH  16  17
ATOM     17  N   UNL A   1      32.337  23.597  26.526  1.00  0.00    -0.336 N 
ATOM     18  C   UNL A   1      33.054  22.589  27.141  1.00  0.00     0.272 C 
ATOM     19  H   UNL A   1      31.708  24.107  27.086  1.00  0.00     0.164 HD
ATOM     20  O   UNL A   1      32.794  22.268  28.298  1.00  0.00    -0.267 OA
BRANCH  18  21
ATOM     21  C   UNL A   1      34.106  21.950  26.342  1.00  0.00     0.150 A 
ATOM     22  C   UNL A   1      33.998  20.747  25.594  1.00  0.00     0.056 A 
ATOM     23  N   UNL A   1      35.373  22.408  26.331  1.00  0.00    -0.168 NA
ATOM     24  C   UNL A   1      35.260  20.506  25.107  1.00  0.00     0.109 A 
ATOM     25  N   UNL A   1      36.033  21.539  25.547  1.00  0.00    -0.275 N 
ATOM     26  C   UNL A   1      37.443  21.719  25.292  1.00  0.00     0.173 C 
ENDBRANCH  18  21
ENDBRANCH  16  17
ENDBRANCH   5   7
ENDBRANCH   4   5
ENDBRANCH   3   4
ENDBRANCH   2   3
ENDBRANCH   1   2
BRANCH   1  27
ATOM     27  C   UNL A   1      31.602  30.505  26.454  1.00  0.00     0.202 C 
BRANCH  27  28
ATOM     28  C   UNL A   1      31.448  32.002  26.752  1.00  0.00     0.261 C 
BRANCH  28  29
ATOM     29  O   UNL A   1      32.657  32.746  26.523  1.00  0.00    -0.460 OA
BRANCH  29  30
ATOM     30  C   UNL A   1      33.115  33.415  27.610  1.00  0.00     0.338 C 
ATOM     31  O   UNL A   1      32.554  34.305  28.227  1.00  0.00    -0.246 OA
BRANCH  30  32
ATOM     32  C   UNL A   1      34.383  32.820  28.075  1.00  0.00     0.060 A 
ATOM     33  C   UNL A   1      34.356  31.483  28.490  1.00  0.00     0.016 A 
ATOM     34  C   UNL A   1      35.556  33.572  28.180  1.00  0.00     0.016 A 
ATOM     35  C   UNL A   1      35.490  30.904  29.053  1.00  0.00     0.010 A 
ATOM     36  C   UNL A   1      36.691  32.992  28.756  1.00  0.00     0.010 A 
ATOM     37  C   UNL A   1      36.653  31.667  29.223  1.00  0.00    -0.014 A 
BRANCH  37  38
ATOM     38  C   UNL A   1      37.777  31.114  30.018  1.00  0.00     0.031 A 
ATOM     39  C   UNL A   1      38.721  30.142  29.371  1.00  0.00     0.074 A 
ATOM     40  C   UNL A   1      37.971  31.498  31.292  1.00  0.00     0.049 A 
ATOM     41  N   UNL A   1      39.763  29.533  29.879  1.00  0.00    -0.248 NA
ATOM     42  C   UNL A   1      38.457  29.809  27.962  1.00  0.00     0.031 C 
ATOM     43  C   UNL A   1      37.143  32.457  32.021  1.00  0.00     0.029 A 
ATOM     44  N   UNL A   1      38.929  31.119  32.199  1.00  0.00    -0.354 N 
ATOM     45  C   UNL A   1      40.278  28.749  28.856  1.00  0.00     0.074 A 
ATOM     46  C   UNL A   1      39.418  28.933  27.706  1.00  0.00     0.031 C 
ATOM     47  C   UNL A   1      37.626  32.586  33.269  1.00  0.00     0.029 A 
ATOM     48  C   UNL A   1      38.779  31.703  33.432  1.00  0.00     0.049 A 
ATOM     49  H   UNL A   1      39.654  30.489  31.984  1.00  0.00     0.167 HD
ATOM     50  C   UNL A   1      41.374  27.954  28.868  1.00  0.00     0.037 A 
ATOM     51  C   UNL A   1      39.487  31.533  34.565  1.00  0.00     0.037 A 
ATOM     52  C   UNL A   1      42.231  27.768  30.008  1.00  0.00     0.049 A 
ATOM     53  C   UNL A   1      40.664  30.595  34.573  1.00  0.00     0.074 A 
ATOM     54  C   UNL A   1      43.379  27.002  30.110  1.00  0.00     0.029 A 
ATOM     55  N   UNL A   1      42.027  28.351  31.249  1.00  0.00    -0.354 N 
ATOM     56  N   UNL A   1      41.159  29.882  33.590  1.00  0.00    -0.248 NA
ATOM     57  C   UNL A   1      41.382  30.442  35.847  1.00  0.00     0.031 C 
ATOM     58  C   UNL A   1      43.847  27.089  31.426  1.00  0.00     0.029 A 
ATOM     59  C   UNL A   1      43.014  27.941  32.131  1.00  0.00     0.049 A 
ATOM     60  H   UNL A   1      41.291  28.965  31.471  1.00  0.00     0.167 HD
ATOM     61  C   UNL A   1      42.258  29.215  34.119  1.00  0.00     0.074 A 
ATOM     62  C   UNL A   1      42.362  29.616  35.507  1.00  0.00     0.031 C 
ATOM     63  C   UNL A   1      43.105  28.349  33.510  1.00  0.00     0.037 A 
BRANCH  50  64
ATOM     64  C   UNL A   1      41.695  27.208  27.607  1.00  0.00     0.057 A 
ATOM     65  C   UNL A   1      42.456  27.784  26.582  1.00  0.00     0.134 A 
ATOM     66  C   UNL A   1      41.254  25.892  27.425  1.00  0.00     0.134 A 
ATOM     67  F   UNL A   1      42.894  29.047  26.688  1.00  0.00    -0.206 F 
ATOM     68  C   UNL A   1      42.748  27.084  25.410  1.00  0.00     0.040 A 
ATOM     69  C   UNL A   1      41.559  25.174  26.268  1.00  0.00     0.040 A 
ATOM     70  F   UNL A   1      40.523  25.281  28.371  1.00  0.00    -0.206 F 
ATOM     71  C   UNL A   1      42.304  25.772  25.253  1.00  0.00     0.006 A 
ENDBRANCH  50  64
BRANCH  51  72
ATOM     72  C   UNL A   1      39.096  32.262  35.796  1.00  0.00     0.057 A 
ATOM     73  C   UNL A   1      38.269  31.672  36.757  1.00  0.00     0.134 A 
ATOM     74  C   UNL A   1      39.534  33.571  36.033  1.00  0.00     0.134 A 
ATOM     75  F   UNL A   1      37.800  30.429  36.573  1.00  0.00    -0.206 F 
ATOM     76  C   UNL A   1      37.879  32.361  37.906  1.00  0.00     0.040 A 
ATOM     77  C   UNL A   1      39.168  34.264  37.188  1.00  0.00     0.040 A 
ATOM     78  F   UNL A   1      40.330  34.190  35.150  1.00  0.00    -0.206 F 
ATOM     79  C   UNL A   1      38.334  33.660  38.127  1.00  0.00     0.006 A 
ENDBRANCH  51  72
BRANCH  63  80
ATOM     80  C   UNL A   1      44.231  27.798  34.330  1.00  0.00     0.057 A 
ATOM     81  C   UNL A   1      44.120  26.580  35.012  1.00  0.00     0.134 A 
ATOM     82  C   UNL A   1      45.456  28.473  34.408  1.00  0.00     0.134 A 
ATOM     83  F   UNL A   1      42.968  25.891  34.987  1.00  0.00    -0.206 F 
ATOM     84  C   UNL A   1      45.181  26.061  35.755  1.00  0.00     0.040 A 
ATOM     85  C   UNL A   1      46.531  27.955  35.130  1.00  0.00     0.040 A 
ATOM     86  F   UNL A   1      45.631  29.642  33.773  1.00  0.00    -0.206 F 
ATOM     87  C   UNL A   1      46.393  26.746  35.810  1.00  0.00     0.006 A 
ENDBRANCH  63  80
ENDBRANCH  37  38
ENDBRANCH  30  32
ENDBRANCH  29  30
ENDBRANCH  28  29
ENDBRANCH  27  28
ENDBRANCH   1  27
TORSDOF 16
ENDMDL
