MODEL 1
REMARK VINA RESULT:     -10.2      0.000      0.000
REMARK SMILES O=C(OCCOCCOC(=O)[C@H]1CC[C@@H](CNc2cccc(F)c2[N+](=O)[O-])O1)c1ccc(-c2c3nc(c(-c4c(F)cccc4F)c4ccc([nH]4)c(-c4c(F)cccc4F)c4nc(c(-c5c(F)cccc5F)c5ccc2[nH]5)C=C4)C=C3)cc1
REMARK SMILES IDX 7 1 6 2 5 3 4 4 3 5 2 6 1 7 29 8 30 9 82 10 31 11 81 12
REMARK SMILES IDX 32 13 33 14 34 15 75 16 35 17 80 18 74 19 76 20 36 21 79 22
REMARK SMILES IDX 73 23 72 24 37 26 63 27 46 28 62 29 47 30 50 31 61 32 77 33
REMARK SMILES IDX 48 34 49 35 60 37 78 38 51 39 38 40 39 41 44 42 40 43 41 44
REMARK SMILES IDX 43 45 45 46 42 47 64 48 65 49 70 50 66 51 67 52 69 53 71 54
REMARK SMILES IDX 68 55 52 56 53 57 58 58 54 59 55 60 57 61 59 62 56 63 8 64
REMARK SMILES IDX 9 65 10 66 11 67 12 68 13 69 28 70 14 71 15 72 16 73 17 74
REMARK SMILES IDX 18 76 19 77 24 78 20 79 22 80 21 81 23 82 25 83 26 84 27 85
REMARK H PARENT 76 25 50 36 17 75
REMARK Flexibility Score: inf
ROOT
ATOM      1  C   UNL A   1      37.779  23.479  26.086  1.00  0.00     0.202 C 
ENDROOT
BRANCH   1   2
ATOM      2  O   UNL A   1      38.528  22.340  25.657  1.00  0.00    -0.374 OA
BRANCH   2   3
ATOM      3  C   UNL A   1      37.770  21.150  25.418  1.00  0.00     0.202 C 
BRANCH   3   4
ATOM      4  C   UNL A   1      38.571  19.978  24.843  1.00  0.00     0.261 C 
BRANCH   4   5
ATOM      5  O   UNL A   1      39.440  19.410  25.834  1.00  0.00    -0.460 OA
BRANCH   5   6
ATOM      6  C   UNL A   1      40.754  19.663  26.035  1.00  0.00     0.338 C 
ATOM      7  O   UNL A   1      41.576  18.829  25.660  1.00  0.00    -0.246 OA
BRANCH   6   8
ATOM      8  C   UNL A   1      41.277  20.925  26.648  1.00  0.00     0.060 A 
ATOM      9  C   UNL A   1      41.258  21.230  28.008  1.00  0.00     0.016 A 
ATOM     10  C   UNL A   1      41.883  21.852  25.779  1.00  0.00     0.016 A 
ATOM     11  C   UNL A   1      41.755  22.421  28.492  1.00  0.00     0.010 A 
ATOM     12  C   UNL A   1      42.413  23.054  26.262  1.00  0.00     0.010 A 
ATOM     13  C   UNL A   1      42.321  23.344  27.624  1.00  0.00    -0.014 A 
BRANCH  13  14
ATOM     14  C   UNL A   1      42.611  24.665  28.199  1.00  0.00     0.031 A 
ATOM     15  C   UNL A   1      44.048  25.055  28.340  1.00  0.00     0.074 A 
ATOM     16  C   UNL A   1      41.613  25.555  28.329  1.00  0.00     0.049 A 
ATOM     17  N   UNL A   1      44.561  26.183  28.745  1.00  0.00    -0.248 NA
ATOM     18  C   UNL A   1      45.046  24.048  27.935  1.00  0.00     0.031 C 
ATOM     19  C   UNL A   1      40.203  25.288  28.026  1.00  0.00     0.029 A 
ATOM     20  N   UNL A   1      41.634  26.874  28.685  1.00  0.00    -0.354 N 
ATOM     21  C   UNL A   1      45.937  26.012  28.668  1.00  0.00     0.074 A 
ATOM     22  C   UNL A   1      46.184  24.676  28.180  1.00  0.00     0.031 C 
ATOM     23  C   UNL A   1      39.501  26.421  28.180  1.00  0.00     0.029 A 
ATOM     24  C   UNL A   1      40.396  27.468  28.660  1.00  0.00     0.049 A 
ATOM     25  H   UNL A   1      42.458  27.353  28.936  1.00  0.00     0.167 HD
ATOM     26  C   UNL A   1      46.901  26.903  28.988  1.00  0.00     0.037 A 
ATOM     27  C   UNL A   1      40.035  28.715  29.018  1.00  0.00     0.037 A 
ATOM     28  C   UNL A   1      46.614  28.222  29.475  1.00  0.00     0.049 A 
ATOM     29  C   UNL A   1      41.116  29.646  29.490  1.00  0.00     0.074 A 
ATOM     30  C   UNL A   1      47.489  29.185  29.935  1.00  0.00     0.029 A 
ATOM     31  N   UNL A   1      45.335  28.760  29.561  1.00  0.00    -0.354 N 
ATOM     32  N   UNL A   1      42.415  29.447  29.531  1.00  0.00    -0.248 NA
ATOM     33  C   UNL A   1      40.693  30.963  29.979  1.00  0.00     0.031 C 
ATOM     34  C   UNL A   1      46.735  30.289  30.344  1.00  0.00     0.029 A 
ATOM     35  C   UNL A   1      45.395  30.040  30.078  1.00  0.00     0.049 A 
ATOM     36  H   UNL A   1      44.508  28.297  29.294  1.00  0.00     0.167 HD
ATOM     37  C   UNL A   1      42.966  30.617  30.033  1.00  0.00     0.074 A 
ATOM     38  C   UNL A   1      41.859  31.526  30.267  1.00  0.00     0.031 C 
ATOM     39  C   UNL A   1      44.266  30.915  30.282  1.00  0.00     0.037 A 
BRANCH  26  40
ATOM     40  C   UNL A   1      48.323  26.434  28.895  1.00  0.00     0.057 A 
ATOM     41  C   UNL A   1      48.909  25.751  29.968  1.00  0.00     0.134 A 
ATOM     42  C   UNL A   1      49.102  26.625  27.747  1.00  0.00     0.134 A 
ATOM     43  F   UNL A   1      48.214  25.523  31.092  1.00  0.00    -0.206 F 
ATOM     44  C   UNL A   1      50.220  25.277  29.904  1.00  0.00     0.040 A 
ATOM     45  C   UNL A   1      50.407  26.132  27.661  1.00  0.00     0.040 A 
ATOM     46  F   UNL A   1      48.589  27.239  26.670  1.00  0.00    -0.206 F 
ATOM     47  C   UNL A   1      50.971  25.461  28.745  1.00  0.00     0.006 A 
ENDBRANCH  26  40
BRANCH  27  48
ATOM     48  C   UNL A   1      38.605  29.116  28.979  1.00  0.00     0.057 A 
ATOM     49  C   UNL A   1      38.027  29.625  27.806  1.00  0.00     0.134 A 
ATOM     50  C   UNL A   1      37.786  29.027  30.108  1.00  0.00     0.134 A 
ATOM     51  F   UNL A   1      38.755  29.737  26.685  1.00  0.00    -0.206 F 
ATOM     52  C   UNL A   1      36.700  30.056  27.767  1.00  0.00     0.040 A 
ATOM     53  C   UNL A   1      36.447  29.427  30.076  1.00  0.00     0.040 A 
ATOM     54  F   UNL A   1      38.270  28.530  31.256  1.00  0.00    -0.206 F 
ATOM     55  C   UNL A   1      35.904  29.953  28.904  1.00  0.00     0.006 A 
ENDBRANCH  27  48
BRANCH  39  56
ATOM     56  C   UNL A   1      44.567  32.290  30.798  1.00  0.00     0.057 A 
ATOM     57  C   UNL A   1      44.809  33.340  29.903  1.00  0.00     0.134 A 
ATOM     58  C   UNL A   1      44.710  32.551  32.165  1.00  0.00     0.134 A 
ATOM     59  F   UNL A   1      44.701  33.147  28.579  1.00  0.00    -0.206 F 
ATOM     60  C   UNL A   1      45.202  34.600  30.351  1.00  0.00     0.040 A 
ATOM     61  C   UNL A   1      45.074  33.816  32.626  1.00  0.00     0.040 A 
ATOM     62  F   UNL A   1      44.483  31.586  33.069  1.00  0.00    -0.206 F 
ATOM     63  C   UNL A   1      45.333  34.840  31.717  1.00  0.00     0.006 A 
ENDBRANCH  39  56
ENDBRANCH  13  14
ENDBRANCH   6   8
ENDBRANCH   5   6
ENDBRANCH   4   5
ENDBRANCH   3   4
ENDBRANCH   2   3
ENDBRANCH   1   2
BRANCH   1  64
ATOM     64  C   UNL A   1      36.571  23.714  25.177  1.00  0.00     0.261 C 
BRANCH  64  65
ATOM     65  O   UNL A   1      35.400  23.884  25.991  1.00  0.00    -0.461 OA
BRANCH  65  66
ATOM     66  C   UNL A   1      34.226  23.562  25.371  1.00  0.00     0.335 C 
ATOM     67  O   UNL A   1      33.105  23.748  25.830  1.00  0.00    -0.249 OA
BRANCH  66  68
ATOM     68  C   UNL A   1      34.511  23.052  23.956  1.00  0.00     0.228 C 
ATOM     69  C   UNL A   1      33.531  21.985  23.519  1.00  0.00     0.047 C 
ATOM     70  O   UNL A   1      34.381  24.134  23.017  1.00  0.00    -0.361 OA
ATOM     71  C   UNL A   1      32.427  22.802  22.887  1.00  0.00     0.037 C 
ATOM     72  C   UNL A   1      33.192  23.941  22.227  1.00  0.00     0.138 C 
BRANCH  72  73
ATOM     73  C   UNL A   1      32.446  25.281  21.992  1.00  0.00     0.145 C 
BRANCH  73  74
ATOM     74  N   UNL A   1      31.666  25.718  23.142  1.00  0.00    -0.377 N 
ATOM     75  H   UNL A   1      30.749  25.368  23.212  1.00  0.00     0.160 HD
BRANCH  74  76
ATOM     76  C   UNL A   1      32.081  26.573  24.149  1.00  0.00     0.116 A 
ATOM     77  C   UNL A   1      33.282  27.295  24.031  1.00  0.00     0.033 A 
ATOM     78  C   UNL A   1      31.342  26.759  25.343  1.00  0.00     0.327 A 
ATOM     79  C   UNL A   1      33.707  28.183  25.028  1.00  0.00     0.006 A 
ATOM     80  C   UNL A   1      31.782  27.623  26.350  1.00  0.00     0.202 A 
ATOM     81  C   UNL A   1      32.960  28.340  26.190  1.00  0.00     0.047 A 
ATOM     82  F   UNL A   1      31.073  27.830  27.469  1.00  0.00    -0.199 F 
BRANCH  78  83
ATOM     83  N   UNL A   1      30.059  26.094  25.538  1.00  0.00     0.068 N 
ATOM     84  O   UNL A   1      29.978  25.274  26.472  1.00  0.00    -0.258 OA
ATOM     85  O   UNL A   1      29.135  26.341  24.751  1.00  0.00    -0.258 OA
ENDBRANCH  78  83
ENDBRANCH  74  76
ENDBRANCH  73  74
ENDBRANCH  72  73
ENDBRANCH  66  68
ENDBRANCH  65  66
ENDBRANCH  64  65
ENDBRANCH   1  64
TORSDOF 18
ENDMDL
MODEL 2
REMARK VINA RESULT:     -10.2      1.318      2.056
REMARK SMILES O=C(OCCOCCOC(=O)[C@H]1CC[C@@H](CNc2cccc(F)c2[N+](=O)[O-])O1)c1ccc(-c2c3nc(c(-c4c(F)cccc4F)c4ccc([nH]4)c(-c4c(F)cccc4F)c4nc(c(-c5c(F)cccc5F)c5ccc2[nH]5)C=C4)C=C3)cc1
REMARK SMILES IDX 7 1 6 2 5 3 4 4 3 5 2 6 1 7 29 8 30 9 82 10 31 11 81 12
REMARK SMILES IDX 32 13 33 14 34 15 75 16 35 17 80 18 74 19 76 20 36 21 79 22
REMARK SMILES IDX 73 23 72 24 37 26 63 27 46 28 62 29 47 30 50 31 61 32 77 33
REMARK SMILES IDX 48 34 49 35 60 37 78 38 51 39 38 40 39 41 44 42 40 43 41 44
REMARK SMILES IDX 43 45 45 46 42 47 64 48 65 49 70 50 66 51 67 52 69 53 71 54
REMARK SMILES IDX 68 55 52 56 53 57 58 58 54 59 55 60 57 61 59 62 56 63 8 64
REMARK SMILES IDX 9 65 10 66 11 67 12 68 13 69 28 70 14 71 15 72 16 73 17 74
REMARK SMILES IDX 18 76 19 77 24 78 20 79 22 80 21 81 23 82 25 83 26 84 27 85
REMARK H PARENT 76 25 50 36 17 75
REMARK Flexibility Score: inf
ROOT
ATOM      1  C   UNL A   1      37.909  23.405  26.086  1.00  0.00     0.202 C 
ENDROOT
BRANCH   1   2
ATOM      2  O   UNL A   1      38.697  22.261  25.751  1.00  0.00    -0.374 OA
BRANCH   2   3
ATOM      3  C   UNL A   1      37.972  21.047  25.533  1.00  0.00     0.202 C 
BRANCH   3   4
ATOM      4  C   UNL A   1      38.780  19.918  24.886  1.00  0.00     0.261 C 
BRANCH   4   5
ATOM      5  O   UNL A   1      39.648  19.290  25.842  1.00  0.00    -0.460 OA
BRANCH   5   6
ATOM      6  C   UNL A   1      40.975  19.487  26.020  1.00  0.00     0.338 C 
ATOM      7  O   UNL A   1      41.748  18.583  25.708  1.00  0.00    -0.246 OA
BRANCH   6   8
ATOM      8  C   UNL A   1      41.568  20.762  26.532  1.00  0.00     0.060 A 
ATOM      9  C   UNL A   1      41.688  21.116  27.874  1.00  0.00     0.016 A 
ATOM     10  C   UNL A   1      42.095  21.650  25.574  1.00  0.00     0.016 A 
ATOM     11  C   UNL A   1      42.242  22.317  28.263  1.00  0.00     0.010 A 
ATOM     12  C   UNL A   1      42.682  22.861  25.957  1.00  0.00     0.010 A 
ATOM     13  C   UNL A   1      42.728  23.201  27.310  1.00  0.00    -0.014 A 
BRANCH  13  14
ATOM     14  C   UNL A   1      43.087  24.536  27.805  1.00  0.00     0.031 A 
ATOM     15  C   UNL A   1      44.517  24.956  27.684  1.00  0.00     0.074 A 
ATOM     16  C   UNL A   1      42.109  25.411  28.097  1.00  0.00     0.049 A 
ATOM     17  N   UNL A   1      45.070  26.100  27.975  1.00  0.00    -0.248 NA
ATOM     18  C   UNL A   1      45.450  23.959  27.124  1.00  0.00     0.031 C 
ATOM     19  C   UNL A   1      40.673  25.112  28.051  1.00  0.00     0.029 A 
ATOM     20  N   UNL A   1      42.165  26.737  28.424  1.00  0.00    -0.354 N 
ATOM     21  C   UNL A   1      46.414  25.953  27.659  1.00  0.00     0.074 A 
ATOM     22  C   UNL A   1      46.599  24.613  27.155  1.00  0.00     0.031 C 
ATOM     23  C   UNL A   1      39.985  26.235  28.310  1.00  0.00     0.029 A 
ATOM     24  C   UNL A   1      40.929  27.307  28.608  1.00  0.00     0.049 A 
ATOM     25  H   UNL A   1      43.009  27.235  28.517  1.00  0.00     0.167 HD
ATOM     26  C   UNL A   1      47.401  26.867  27.790  1.00  0.00     0.037 A 
ATOM     27  C   UNL A   1      40.611  28.553  29.005  1.00  0.00     0.037 A 
ATOM     28  C   UNL A   1      47.176  28.189  28.301  1.00  0.00     0.049 A 
ATOM     29  C   UNL A   1      41.738  29.513  29.266  1.00  0.00     0.074 A 
ATOM     30  C   UNL A   1      48.098  29.176  28.585  1.00  0.00     0.029 A 
ATOM     31  N   UNL A   1      45.921  28.705  28.604  1.00  0.00    -0.354 N 
ATOM     32  N   UNL A   1      43.027  29.339  29.079  1.00  0.00    -0.248 NA
ATOM     33  C   UNL A   1      41.380  30.831  29.802  1.00  0.00     0.031 C 
ATOM     34  C   UNL A   1      47.404  30.274  29.104  1.00  0.00     0.029 A 
ATOM     35  C   UNL A   1      46.044  29.995  29.083  1.00  0.00     0.049 A 
ATOM     36  H   UNL A   1      45.070  28.222  28.493  1.00  0.00     0.167 HD
ATOM     37  C   UNL A   1      43.634  30.527  29.458  1.00  0.00     0.074 A 
ATOM     38  C   UNL A   1      42.566  31.420  29.871  1.00  0.00     0.031 C 
ATOM     39  C   UNL A   1      44.950  30.853  29.470  1.00  0.00     0.037 A 
BRANCH  26  40
ATOM     40  C   UNL A   1      48.793  26.423  27.455  1.00  0.00     0.057 A 
ATOM     41  C   UNL A   1      49.570  25.759  28.413  1.00  0.00     0.134 A 
ATOM     42  C   UNL A   1      49.358  26.616  26.187  1.00  0.00     0.134 A 
ATOM     43  F   UNL A   1      49.085  25.529  29.642  1.00  0.00    -0.206 F 
ATOM     44  C   UNL A   1      50.859  25.308  28.125  1.00  0.00     0.040 A 
ATOM     45  C   UNL A   1      50.638  26.146  25.879  1.00  0.00     0.040 A 
ATOM     46  F   UNL A   1      48.654  27.212  25.212  1.00  0.00    -0.206 F 
ATOM     47  C   UNL A   1      51.394  25.495  26.852  1.00  0.00     0.006 A 
ENDBRANCH  26  40
BRANCH  27  48
ATOM     48  C   UNL A   1      39.188  28.927  29.214  1.00  0.00     0.057 A 
ATOM     49  C   UNL A   1      38.565  28.744  30.457  1.00  0.00     0.134 A 
ATOM     50  C   UNL A   1      38.407  29.450  28.180  1.00  0.00     0.134 A 
ATOM     51  F   UNL A   1      39.256  28.247  31.494  1.00  0.00    -0.206 F 
ATOM     52  C   UNL A   1      37.216  29.040  30.656  1.00  0.00     0.040 A 
ATOM     53  C   UNL A   1      37.062  29.779  28.371  1.00  0.00     0.040 A 
ATOM     54  F   UNL A   1      38.945  29.669  26.971  1.00  0.00    -0.206 F 
ATOM     55  C   UNL A   1      36.461  29.565  29.611  1.00  0.00     0.006 A 
ENDBRANCH  27  48
BRANCH  39  56
ATOM     56  C   UNL A   1      45.308  32.243  29.903  1.00  0.00     0.057 A 
ATOM     57  C   UNL A   1      45.551  32.518  31.256  1.00  0.00     0.134 A 
ATOM     58  C   UNL A   1      45.318  33.317  29.007  1.00  0.00     0.134 A 
ATOM     59  F   UNL A   1      45.542  31.530  32.164  1.00  0.00    -0.206 F 
ATOM     60  C   UNL A   1      45.774  33.818  31.704  1.00  0.00     0.040 A 
ATOM     61  C   UNL A   1      45.568  34.619  29.440  1.00  0.00     0.040 A 
ATOM     62  F   UNL A   1      45.099  33.114  27.699  1.00  0.00    -0.206 F 
ATOM     63  C   UNL A   1      45.785  34.873  30.793  1.00  0.00     0.006 A 
ENDBRANCH  39  56
ENDBRANCH  13  14
ENDBRANCH   6   8
ENDBRANCH   5   6
ENDBRANCH   4   5
ENDBRANCH   3   4
ENDBRANCH   2   3
ENDBRANCH   1   2
BRANCH   1  64
ATOM     64  C   UNL A   1      36.872  23.693  25.000  1.00  0.00     0.261 C 
BRANCH  64  65
ATOM     65  O   UNL A   1      35.558  23.478  25.539  1.00  0.00    -0.461 OA
BRANCH  65  66
ATOM     66  C   UNL A   1      34.712  22.790  24.717  1.00  0.00     0.335 C 
ATOM     67  O   UNL A   1      34.471  21.591  24.788  1.00  0.00    -0.249 OA
BRANCH  66  68
ATOM     68  C   UNL A   1      34.002  23.764  23.773  1.00  0.00     0.228 C 
ATOM     69  C   UNL A   1      33.283  23.055  22.647  1.00  0.00     0.047 C 
ATOM     70  O   UNL A   1      33.000  24.497  24.499  1.00  0.00    -0.361 OA
ATOM     71  C   UNL A   1      31.916  22.806  23.244  1.00  0.00     0.037 C 
ATOM     72  C   UNL A   1      31.692  24.051  24.091  1.00  0.00     0.138 C 
BRANCH  72  73
ATOM     73  C   UNL A   1      30.728  23.945  25.302  1.00  0.00     0.145 C 
BRANCH  73  74
ATOM     74  N   UNL A   1      30.037  25.193  25.602  1.00  0.00    -0.377 N 
ATOM     75  H   UNL A   1      29.424  25.184  26.371  1.00  0.00     0.160 HD
BRANCH  74  76
ATOM     76  C   UNL A   1      30.154  26.391  24.917  1.00  0.00     0.116 A 
ATOM     77  C   UNL A   1      29.393  26.638  23.762  1.00  0.00     0.033 A 
ATOM     78  C   UNL A   1      31.043  27.416  25.325  1.00  0.00     0.327 A 
ATOM     79  C   UNL A   1      29.480  27.852  23.068  1.00  0.00     0.006 A 
ATOM     80  C   UNL A   1      31.151  28.616  24.616  1.00  0.00     0.202 A 
ATOM     81  C   UNL A   1      30.365  28.837  23.492  1.00  0.00     0.047 A 
ATOM     82  F   UNL A   1      31.965  29.605  25.012  1.00  0.00    -0.199 F 
BRANCH  78  83
ATOM     83  N   UNL A   1      31.838  27.277  26.538  1.00  0.00     0.068 N 
ATOM     84  O   UNL A   1      31.242  27.372  27.627  1.00  0.00    -0.258 OA
ATOM     85  O   UNL A   1      33.062  27.114  26.432  1.00  0.00    -0.258 OA
ENDBRANCH  78  83
ENDBRANCH  74  76
ENDBRANCH  73  74
ENDBRANCH  72  73
ENDBRANCH  66  68
ENDBRANCH  65  66
ENDBRANCH  64  65
ENDBRANCH   1  64
TORSDOF 18
ENDMDL
MODEL 3
REMARK VINA RESULT:     -10.1      4.429      9.185
REMARK SMILES O=C(OCCOCCOC(=O)[C@H]1CC[C@@H](CNc2cccc(F)c2[N+](=O)[O-])O1)c1ccc(-c2c3nc(c(-c4c(F)cccc4F)c4ccc([nH]4)c(-c4c(F)cccc4F)c4nc(c(-c5c(F)cccc5F)c5ccc2[nH]5)C=C4)C=C3)cc1
REMARK SMILES IDX 7 1 6 2 5 3 4 4 3 5 2 6 1 7 29 8 30 9 82 10 31 11 81 12
REMARK SMILES IDX 32 13 33 14 34 15 75 16 35 17 80 18 74 19 76 20 36 21 79 22
REMARK SMILES IDX 73 23 72 24 37 26 63 27 46 28 62 29 47 30 50 31 61 32 77 33
REMARK SMILES IDX 48 34 49 35 60 37 78 38 51 39 38 40 39 41 44 42 40 43 41 44
REMARK SMILES IDX 43 45 45 46 42 47 64 48 65 49 70 50 66 51 67 52 69 53 71 54
REMARK SMILES IDX 68 55 52 56 53 57 58 58 54 59 55 60 57 61 59 62 56 63 8 64
REMARK SMILES IDX 9 65 10 66 11 67 12 68 13 69 28 70 14 71 15 72 16 73 17 74
REMARK SMILES IDX 18 76 19 77 24 78 20 79 22 80 21 81 23 82 25 83 26 84 27 85
REMARK H PARENT 76 25 50 36 17 75
REMARK Flexibility Score: inf
ROOT
ATOM      1  C   UNL A   1      32.918  29.938  25.875  1.00  0.00     0.202 C 
ENDROOT
BRANCH   1   2
ATOM      2  O   UNL A   1      32.516  30.644  27.051  1.00  0.00    -0.374 OA
BRANCH   2   3
ATOM      3  C   UNL A   1      31.505  31.639  26.865  1.00  0.00     0.202 C 
BRANCH   3   4
ATOM      4  C   UNL A   1      32.029  33.065  26.667  1.00  0.00     0.261 C 
BRANCH   4   5
ATOM      5  O   UNL A   1      32.112  33.764  27.917  1.00  0.00    -0.460 OA
BRANCH   5   6
ATOM      6  C   UNL A   1      33.201  34.334  28.485  1.00  0.00     0.338 C 
ATOM      7  O   UNL A   1      33.174  35.540  28.722  1.00  0.00    -0.246 OA
BRANCH   6   8
ATOM      8  C   UNL A   1      34.426  33.574  28.887  1.00  0.00     0.060 A 
ATOM      9  C   UNL A   1      34.439  32.286  29.418  1.00  0.00     0.016 A 
ATOM     10  C   UNL A   1      35.667  34.198  28.659  1.00  0.00     0.016 A 
ATOM     11  C   UNL A   1      35.614  31.657  29.771  1.00  0.00     0.010 A 
ATOM     12  C   UNL A   1      36.868  33.561  28.991  1.00  0.00     0.010 A 
ATOM     13  C   UNL A   1      36.831  32.294  29.574  1.00  0.00    -0.014 A 
BRANCH  13  14
ATOM     14  C   UNL A   1      37.997  31.642  30.186  1.00  0.00     0.031 A 
ATOM     15  C   UNL A   1      38.223  31.863  31.648  1.00  0.00     0.074 A 
ATOM     16  C   UNL A   1      38.648  30.688  29.499  1.00  0.00     0.049 A 
ATOM     17  N   UNL A   1      39.127  31.345  32.432  1.00  0.00    -0.248 NA
ATOM     18  C   UNL A   1      37.277  32.766  32.330  1.00  0.00     0.031 C 
ATOM     19  C   UNL A   1      38.348  30.293  28.118  1.00  0.00     0.029 A 
ATOM     20  N   UNL A   1      39.647  29.837  29.881  1.00  0.00    -0.354 N 
ATOM     21  C   UNL A   1      38.876  31.877  33.689  1.00  0.00     0.074 A 
ATOM     22  C   UNL A   1      37.738  32.758  33.570  1.00  0.00     0.031 C 
ATOM     23  C   UNL A   1      39.128  29.253  27.783  1.00  0.00     0.029 A 
ATOM     24  C   UNL A   1      40.026  28.960  28.895  1.00  0.00     0.049 A 
ATOM     25  H   UNL A   1      40.055  29.850  30.778  1.00  0.00     0.167 HD
ATOM     26  C   UNL A   1      39.551  31.646  34.836  1.00  0.00     0.037 A 
ATOM     27  C   UNL A   1      41.014  28.045  28.893  1.00  0.00     0.037 A 
ATOM     28  C   UNL A   1      40.681  30.765  34.911  1.00  0.00     0.049 A 
ATOM     29  C   UNL A   1      41.832  27.898  30.146  1.00  0.00     0.074 A 
ATOM     30  C   UNL A   1      41.519  30.522  35.980  1.00  0.00     0.029 A 
ATOM     31  N   UNL A   1      41.128  29.978  33.857  1.00  0.00    -0.354 N 
ATOM     32  N   UNL A   1      41.670  28.490  31.309  1.00  0.00    -0.248 NA
ATOM     33  C   UNL A   1      42.972  26.977  30.093  1.00  0.00     0.031 C 
ATOM     34  C   UNL A   1      42.503  29.622  35.558  1.00  0.00     0.029 A 
ATOM     35  C   UNL A   1      42.239  29.255  34.245  1.00  0.00     0.049 A 
ATOM     36  H   UNL A   1      40.714  29.942  32.964  1.00  0.00     0.167 HD
ATOM     37  C   UNL A   1      42.676  28.001  32.130  1.00  0.00     0.074 A 
ATOM     38  C   UNL A   1      43.433  27.053  31.334  1.00  0.00     0.031 C 
ATOM     39  C   UNL A   1      42.954  28.309  33.421  1.00  0.00     0.037 A 
BRANCH  26  40
ATOM     40  C   UNL A   1      39.125  32.421  36.048  1.00  0.00     0.057 A 
ATOM     41  C   UNL A   1      39.594  33.725  36.249  1.00  0.00     0.134 A 
ATOM     42  C   UNL A   1      38.235  31.901  36.996  1.00  0.00     0.134 A 
ATOM     43  F   UNL A   1      40.438  34.288  35.372  1.00  0.00    -0.206 F 
ATOM     44  C   UNL A   1      39.196  34.483  37.351  1.00  0.00     0.040 A 
ATOM     45  C   UNL A   1      37.809  32.659  38.090  1.00  0.00     0.040 A 
ATOM     46  F   UNL A   1      37.720  30.671  36.844  1.00  0.00    -0.206 F 
ATOM     47  C   UNL A   1      38.295  33.952  38.272  1.00  0.00     0.006 A 
ENDBRANCH  26  40
BRANCH  27  48
ATOM     48  C   UNL A   1      41.293  27.253  27.668  1.00  0.00     0.057 A 
ATOM     49  C   UNL A   1      40.723  25.985  27.479  1.00  0.00     0.134 A 
ATOM     50  C   UNL A   1      42.150  27.723  26.669  1.00  0.00     0.134 A 
ATOM     51  F   UNL A   1      39.890  25.473  28.397  1.00  0.00    -0.206 F 
ATOM     52  C   UNL A   1      41.016  25.206  26.359  1.00  0.00     0.040 A 
ATOM     53  C   UNL A   1      42.431  26.965  25.528  1.00  0.00     0.040 A 
ATOM     54  F   UNL A   1      42.713  28.935  26.777  1.00  0.00    -0.206 F 
ATOM     55  C   UNL A   1      41.869  25.698  25.376  1.00  0.00     0.006 A 
ENDBRANCH  27  48
BRANCH  39  56
ATOM     56  C   UNL A   1      44.097  27.586  34.067  1.00  0.00     0.057 A 
ATOM     57  C   UNL A   1      43.875  26.381  34.746  1.00  0.00     0.134 A 
ATOM     58  C   UNL A   1      45.388  28.125  34.099  1.00  0.00     0.134 A 
ATOM     59  F   UNL A   1      42.655  25.823  34.762  1.00  0.00    -0.206 F 
ATOM     60  C   UNL A   1      44.895  25.745  35.451  1.00  0.00     0.040 A 
ATOM     61  C   UNL A   1      46.424  27.483  34.777  1.00  0.00     0.040 A 
ATOM     62  F   UNL A   1      45.662  29.272  33.460  1.00  0.00    -0.206 F 
ATOM     63  C   UNL A   1      46.176  26.296  35.465  1.00  0.00     0.006 A 
ENDBRANCH  39  56
ENDBRANCH  13  14
ENDBRANCH   6   8
ENDBRANCH   5   6
ENDBRANCH   4   5
ENDBRANCH   3   4
ENDBRANCH   2   3
ENDBRANCH   1   2
BRANCH   1  64
ATOM     64  C   UNL A   1      33.284  28.490  26.205  1.00  0.00     0.261 C 
BRANCH  64  65
ATOM     65  O   UNL A   1      33.422  27.753  24.979  1.00  0.00    -0.461 OA
BRANCH  65  66
ATOM     66  C   UNL A   1      32.241  27.440  24.369  1.00  0.00     0.335 C 
ATOM     67  O   UNL A   1      31.878  27.849  23.272  1.00  0.00    -0.249 OA
BRANCH  66  68
ATOM     68  C   UNL A   1      31.490  26.395  25.199  1.00  0.00     0.228 C 
ATOM     69  C   UNL A   1      30.038  26.271  24.793  1.00  0.00     0.047 C 
ATOM     70  O   UNL A   1      32.082  25.100  24.995  1.00  0.00    -0.361 OA
ATOM     71  C   UNL A   1      30.095  25.215  23.712  1.00  0.00     0.037 C 
ATOM     72  C   UNL A   1      31.188  24.283  24.216  1.00  0.00     0.138 C 
BRANCH  72  73
ATOM     73  C   UNL A   1      31.962  23.436  23.171  1.00  0.00     0.145 C 
BRANCH  73  74
ATOM     74  N   UNL A   1      32.755  22.368  23.766  1.00  0.00    -0.377 N 
ATOM     75  H   UNL A   1      32.263  21.578  24.085  1.00  0.00     0.160 HD
BRANCH  74  76
ATOM     76  C   UNL A   1      34.130  22.348  23.930  1.00  0.00     0.116 A 
ATOM     77  C   UNL A   1      34.972  23.027  23.033  1.00  0.00     0.033 A 
ATOM     78  C   UNL A   1      34.761  21.644  24.986  1.00  0.00     0.327 A 
ATOM     79  C   UNL A   1      36.363  23.038  23.195  1.00  0.00     0.006 A 
ATOM     80  C   UNL A   1      36.150  21.631  25.129  1.00  0.00     0.202 A 
ATOM     81  C   UNL A   1      36.952  22.334  24.239  1.00  0.00     0.047 A 
ATOM     82  F   UNL A   1      36.755  20.994  26.143  1.00  0.00    -0.199 F 
BRANCH  78  83
ATOM     83  N   UNL A   1      33.972  20.950  25.997  1.00  0.00     0.068 N 
ATOM     84  O   UNL A   1      33.316  19.958  25.628  1.00  0.00    -0.258 OA
ATOM     85  O   UNL A   1      33.959  21.398  27.152  1.00  0.00    -0.258 OA
ENDBRANCH  78  83
ENDBRANCH  74  76
ENDBRANCH  73  74
ENDBRANCH  72  73
ENDBRANCH  66  68
ENDBRANCH  65  66
ENDBRANCH  64  65
ENDBRANCH   1  64
TORSDOF 18
ENDMDL
