MODEL 1
REMARK VINA RESULT:     -11.0      0.000      0.000
REMARK SMILES [NH3+][C@@]1(C(=O)OCCOCCOC(=O)c2ccc(-c3c4nc(c(-c5c(F)cccc5F)c5ccc([nH]5)c(-c5c(F)cccc5F)c5nc(c(-c6c(F)cccc6F)c6ccc3[nH]6)C=C5)C=C4)cc2)CC[C@@H]([N@H+]2CC[C@H]([NH+]3CCOCC3)C2)C1
REMARK SMILES IDX 8 1 7 2 6 3 5 4 3 5 4 6 2 7 68 8 82 9 69 10 70 11 1 12 71 16
REMARK SMILES IDX 72 17 81 18 73 20 74 21 75 22 76 23 80 24 77 26 79 27 78 28
REMARK SMILES IDX 9 29 10 30 11 31 12 32 13 33 14 34 15 35 67 36 16 37 66 38
REMARK SMILES IDX 17 39 18 40 19 41 60 42 20 43 65 44 59 45 61 46 21 47 64 48
REMARK SMILES IDX 58 49 57 50 22 52 48 53 31 54 47 55 32 56 35 57 46 58 62 59
REMARK SMILES IDX 33 60 34 61 45 63 63 64 36 65 23 66 24 67 29 68 25 69 26 70
REMARK SMILES IDX 28 71 30 72 27 73 49 74 50 75 55 76 51 77 52 78 54 79 56 80
REMARK SMILES IDX 53 81 37 82 38 83 43 84 39 85 40 86 42 87 44 88 41 89
REMARK H PARENT 1 13 1 14 1 15 71 19 75 25 61 51 35 62
REMARK Flexibility Score: inf
ROOT
ATOM      1  O   UNL A   1      33.296  34.450  29.883  1.00  0.00    -0.374 OA
ENDROOT
BRANCH   1   2
ATOM      2  C   UNL A   1      33.281  34.081  28.504  1.00  0.00     0.202 C 
BRANCH   2   3
ATOM      3  C   UNL A   1      34.155  32.892  28.101  1.00  0.00     0.261 C 
BRANCH   3   4
ATOM      4  O   UNL A   1      33.354  31.806  27.605  1.00  0.00    -0.459 OA
BRANCH   4   5
ATOM      5  C   UNL A   1      34.010  30.622  27.465  1.00  0.00     0.368 C 
ATOM      6  O   UNL A   1      35.159  30.428  27.846  1.00  0.00    -0.245 OA
BRANCH   5   7
ATOM      7  C   UNL A   1      33.128  29.522  26.795  1.00  0.00     0.198 C 
ATOM      8  C   UNL A   1      34.040  28.341  26.434  1.00  0.00     0.087 C 
ATOM      9  C   UNL A   1      32.430  29.932  25.471  1.00  0.00     0.145 C 
ATOM     10  C   UNL A   1      34.291  28.493  24.939  1.00  0.00     0.072 C 
ATOM     11  C   UNL A   1      32.975  29.018  24.353  1.00  0.00     0.191 C 
BRANCH   7  12
ATOM     12  N   UNL A   1      32.129  29.101  27.808  1.00  0.00    -0.343 N 
ATOM     13  H   UNL A   1      31.502  28.408  27.400  1.00  0.00     0.345 HD
ATOM     14  H   UNL A   1      31.588  29.912  28.109  1.00  0.00     0.345 HD
ATOM     15  H   UNL A   1      32.608  28.695  28.611  1.00  0.00     0.345 HD
ENDBRANCH   7  12
BRANCH  11  16
ATOM     16  N   UNL A   1      32.090  27.944  23.878  1.00  0.00    -0.327 N 
ATOM     17  C   UNL A   1      30.707  28.293  23.590  1.00  0.00     0.269 C 
ATOM     18  C   UNL A   1      32.586  27.253  22.681  1.00  0.00     0.328 C 
ATOM     19  H   UNL A   1      32.104  27.347  24.705  1.00  0.00     0.348 HD
ATOM     20  C   UNL A   1      30.159  27.122  22.799  1.00  0.00     0.132 C 
ATOM     21  C   UNL A   1      31.369  26.453  22.146  1.00  0.00     0.245 C 
BRANCH  21  22
ATOM     22  N   UNL A   1      31.470  24.988  22.227  1.00  0.00    -0.324 N 
ATOM     23  C   UNL A   1      30.672  24.374  23.305  1.00  0.00     0.291 C 
ATOM     24  C   UNL A   1      32.826  24.413  22.219  1.00  0.00     0.291 C 
ATOM     25  H   UNL A   1      31.054  24.735  21.331  1.00  0.00     0.348 HD
ATOM     26  C   UNL A   1      31.387  24.203  24.658  1.00  0.00     0.221 C 
ATOM     27  C   UNL A   1      33.498  24.277  23.594  1.00  0.00     0.221 C 
ATOM     28  O   UNL A   1      32.664  23.571  24.519  1.00  0.00    -0.370 OA
ENDBRANCH  21  22
ENDBRANCH  11  16
ENDBRANCH   5   7
ENDBRANCH   4   5
ENDBRANCH   3   4
ENDBRANCH   2   3
ENDBRANCH   1   2
BRANCH   1  29
ATOM     29  C   UNL A   1      34.502  34.241  30.615  1.00  0.00     0.202 C 
BRANCH  29  30
ATOM     30  C   UNL A   1      34.358  33.803  32.079  1.00  0.00     0.261 C 
BRANCH  30  31
ATOM     31  O   UNL A   1      34.749  32.434  32.288  1.00  0.00    -0.460 OA
BRANCH  31  32
ATOM     32  C   UNL A   1      35.926  32.276  32.940  1.00  0.00     0.338 C 
ATOM     33  O   UNL A   1      36.181  32.594  34.096  1.00  0.00    -0.246 OA
BRANCH  32  34
ATOM     34  C   UNL A   1      36.864  31.481  32.131  1.00  0.00     0.060 A 
ATOM     35  C   UNL A   1      37.880  30.797  32.810  1.00  0.00     0.016 A 
ATOM     36  C   UNL A   1      36.816  31.476  30.734  1.00  0.00     0.016 A 
ATOM     37  C   UNL A   1      38.885  30.149  32.096  1.00  0.00     0.010 A 
ATOM     38  C   UNL A   1      37.834  30.833  30.018  1.00  0.00     0.010 A 
ATOM     39  C   UNL A   1      38.893  30.200  30.696  1.00  0.00    -0.014 A 
BRANCH  39  40
ATOM     40  C   UNL A   1      40.096  29.734  29.964  1.00  0.00     0.031 A 
ATOM     41  C   UNL A   1      41.246  30.684  29.768  1.00  0.00     0.074 A 
ATOM     42  C   UNL A   1      40.192  28.463  29.532  1.00  0.00     0.049 A 
ATOM     43  N   UNL A   1      42.392  30.489  29.169  1.00  0.00    -0.248 NA
ATOM     44  C   UNL A   1      41.080  32.036  30.328  1.00  0.00     0.031 C 
ATOM     45  C   UNL A   1      39.171  27.432  29.701  1.00  0.00     0.029 A 
ATOM     46  N   UNL A   1      41.207  27.827  28.862  1.00  0.00    -0.354 N 
ATOM     47  C   UNL A   1      43.087  31.687  29.283  1.00  0.00     0.074 A 
ATOM     48  C   UNL A   1      42.219  32.615  29.977  1.00  0.00     0.031 C 
ATOM     49  C   UNL A   1      39.611  26.289  29.147  1.00  0.00     0.029 A 
ATOM     50  C   UNL A   1      40.930  26.516  28.561  1.00  0.00     0.049 A 
ATOM     51  H   UNL A   1      42.054  28.268  28.622  1.00  0.00     0.167 HD
ATOM     52  C   UNL A   1      44.339  31.985  28.862  1.00  0.00     0.037 A 
ATOM     53  C   UNL A   1      41.655  25.610  27.877  1.00  0.00     0.037 A 
ATOM     54  C   UNL A   1      45.203  31.067  28.169  1.00  0.00     0.049 A 
ATOM     55  C   UNL A   1      43.010  25.992  27.344  1.00  0.00     0.074 A 
ATOM     56  C   UNL A   1      46.488  31.278  27.699  1.00  0.00     0.029 A 
ATOM     57  N   UNL A   1      44.867  29.764  27.840  1.00  0.00    -0.354 N 
ATOM     58  N   UNL A   1      43.662  27.123  27.471  1.00  0.00    -0.248 NA
ATOM     59  C   UNL A   1      43.732  24.969  26.573  1.00  0.00     0.031 C 
ATOM     60  C   UNL A   1      46.914  30.114  27.052  1.00  0.00     0.029 A 
ATOM     61  C   UNL A   1      45.912  29.164  27.158  1.00  0.00     0.049 A 
ATOM     62  H   UNL A   1      44.012  29.328  28.061  1.00  0.00     0.167 HD
ATOM     63  C   UNL A   1      44.878  26.937  26.825  1.00  0.00     0.074 A 
ATOM     64  C   UNL A   1      44.879  25.582  26.316  1.00  0.00     0.031 C 
ATOM     65  C   UNL A   1      45.903  27.810  26.668  1.00  0.00     0.037 A 
BRANCH  52  66
ATOM     66  C   UNL A   1      44.843  33.373  29.129  1.00  0.00     0.057 A 
ATOM     67  C   UNL A   1      44.612  34.425  28.232  1.00  0.00     0.134 A 
ATOM     68  C   UNL A   1      45.540  33.667  30.306  1.00  0.00     0.134 A 
ATOM     69  F   UNL A   1      43.963  34.206  27.079  1.00  0.00    -0.206 F 
ATOM     70  C   UNL A   1      45.074  35.717  28.491  1.00  0.00     0.040 A 
ATOM     71  C   UNL A   1      45.987  34.959  30.586  1.00  0.00     0.040 A 
ATOM     72  F   UNL A   1      45.791  32.705  31.208  1.00  0.00    -0.206 F 
ATOM     73  C   UNL A   1      45.758  35.988  29.674  1.00  0.00     0.006 A 
ENDBRANCH  52  66
BRANCH  53  74
ATOM     74  C   UNL A   1      41.115  24.247  27.642  1.00  0.00     0.057 A 
ATOM     75  C   UNL A   1      41.605  23.140  28.345  1.00  0.00     0.134 A 
ATOM     76  C   UNL A   1      40.122  24.014  26.682  1.00  0.00     0.134 A 
ATOM     77  F   UNL A   1      42.574  23.296  29.258  1.00  0.00    -0.206 F 
ATOM     78  C   UNL A   1      41.143  21.848  28.088  1.00  0.00     0.040 A 
ATOM     79  C   UNL A   1      39.633  22.731  26.433  1.00  0.00     0.040 A 
ATOM     80  F   UNL A   1      39.613  25.033  25.974  1.00  0.00    -0.206 F 
ATOM     81  C   UNL A   1      40.149  21.642  27.131  1.00  0.00     0.006 A 
ENDBRANCH  53  74
BRANCH  65  82
ATOM     82  C   UNL A   1      47.125  27.314  25.953  1.00  0.00     0.057 A 
ATOM     83  C   UNL A   1      48.175  26.683  26.631  1.00  0.00     0.134 A 
ATOM     84  C   UNL A   1      47.236  27.437  24.561  1.00  0.00     0.134 A 
ATOM     85  F   UNL A   1      48.136  26.544  27.965  1.00  0.00    -0.206 F 
ATOM     86  C   UNL A   1      49.302  26.211  25.954  1.00  0.00     0.040 A 
ATOM     87  C   UNL A   1      48.346  26.948  23.871  1.00  0.00     0.040 A 
ATOM     88  F   UNL A   1      46.261  28.023  23.850  1.00  0.00    -0.206 F 
ATOM     89  C   UNL A   1      49.386  26.338  24.569  1.00  0.00     0.006 A 
ENDBRANCH  65  82
ENDBRANCH  39  40
ENDBRANCH  32  34
ENDBRANCH  31  32
ENDBRANCH  30  31
ENDBRANCH  29  30
ENDBRANCH   1  29
TORSDOF 17
ENDMDL
MODEL 2
REMARK VINA RESULT:     -11.0      4.623      9.761
REMARK SMILES [NH3+][C@@]1(C(=O)OCCOCCOC(=O)c2ccc(-c3c4nc(c(-c5c(F)cccc5F)c5ccc([nH]5)c(-c5c(F)cccc5F)c5nc(c(-c6c(F)cccc6F)c6ccc3[nH]6)C=C5)C=C4)cc2)CC[C@@H]([N@H+]2CC[C@H]([NH+]3CCOCC3)C2)C1
REMARK SMILES IDX 8 1 7 2 6 3 5 4 3 5 4 6 2 7 68 8 82 9 69 10 70 11 1 12 71 16
REMARK SMILES IDX 72 17 81 18 73 20 74 21 75 22 76 23 80 24 77 26 79 27 78 28
REMARK SMILES IDX 9 29 10 30 11 31 12 32 13 33 14 34 15 35 67 36 16 37 66 38
REMARK SMILES IDX 17 39 18 40 19 41 60 42 20 43 65 44 59 45 61 46 21 47 64 48
REMARK SMILES IDX 58 49 57 50 22 52 48 53 31 54 47 55 32 56 35 57 46 58 62 59
REMARK SMILES IDX 33 60 34 61 45 63 63 64 36 65 23 66 24 67 29 68 25 69 26 70
REMARK SMILES IDX 28 71 30 72 27 73 49 74 50 75 55 76 51 77 52 78 54 79 56 80
REMARK SMILES IDX 53 81 37 82 38 83 43 84 39 85 40 86 42 87 44 88 41 89
REMARK H PARENT 1 13 1 14 1 15 71 19 75 25 61 51 35 62
REMARK Flexibility Score: inf
ROOT
ATOM      1  O   UNL A   1      42.497  20.875  27.080  1.00  0.00    -0.374 OA
ENDROOT
BRANCH   1   2
ATOM      2  C   UNL A   1      41.103  20.687  27.326  1.00  0.00     0.202 C 
BRANCH   2   3
ATOM      3  C   UNL A   1      40.178  20.735  26.108  1.00  0.00     0.261 C 
BRANCH   3   4
ATOM      4  O   UNL A   1      39.111  21.678  26.307  1.00  0.00    -0.459 OA
BRANCH   4   5
ATOM      5  C   UNL A   1      38.035  21.511  25.491  1.00  0.00     0.368 C 
ATOM      6  O   UNL A   1      37.875  20.539  24.760  1.00  0.00    -0.245 OA
BRANCH   5   7
ATOM      7  C   UNL A   1      37.004  22.677  25.610  1.00  0.00     0.198 C 
ATOM      8  C   UNL A   1      35.696  22.096  26.165  1.00  0.00     0.087 C 
ATOM      9  C   UNL A   1      36.620  23.376  24.278  1.00  0.00     0.145 C 
ATOM     10  C   UNL A   1      34.793  21.949  24.947  1.00  0.00     0.072 C 
ATOM     11  C   UNL A   1      35.109  23.156  24.054  1.00  0.00     0.191 C 
BRANCH   7  12
ATOM     12  N   UNL A   1      37.575  23.654  26.570  1.00  0.00    -0.343 N 
ATOM     13  H   UNL A   1      37.978  24.438  26.059  1.00  0.00     0.345 HD
ATOM     14  H   UNL A   1      38.301  23.200  27.125  1.00  0.00     0.345 HD
ATOM     15  H   UNL A   1      36.838  23.994  27.188  1.00  0.00     0.345 HD
ENDBRANCH   7  12
BRANCH  11  16
ATOM     16  N   UNL A   1      34.223  24.302  24.305  1.00  0.00    -0.327 N 
ATOM     17  C   UNL A   1      34.542  25.162  25.435  1.00  0.00     0.269 C 
ATOM     18  C   UNL A   1      34.071  25.198  23.151  1.00  0.00     0.328 C 
ATOM     19  H   UNL A   1      33.363  23.796  24.520  1.00  0.00     0.348 HD
ATOM     20  C   UNL A   1      33.711  26.413  25.229  1.00  0.00     0.132 C 
ATOM     21  C   UNL A   1      33.434  26.489  23.727  1.00  0.00     0.245 C 
BRANCH  21  22
ATOM     22  N   UNL A   1      32.057  26.781  23.298  1.00  0.00    -0.324 N 
ATOM     23  C   UNL A   1      31.174  27.289  24.364  1.00  0.00     0.291 C 
ATOM     24  C   UNL A   1      31.364  25.732  22.530  1.00  0.00     0.291 C 
ATOM     25  H   UNL A   1      32.238  27.537  22.637  1.00  0.00     0.348 HD
ATOM     26  C   UNL A   1      30.388  26.223  25.151  1.00  0.00     0.221 C 
ATOM     27  C   UNL A   1      30.608  24.688  23.365  1.00  0.00     0.221 C 
ATOM     28  O   UNL A   1      29.706  25.307  24.289  1.00  0.00    -0.370 OA
ENDBRANCH  21  22
ENDBRANCH  11  16
ENDBRANCH   5   7
ENDBRANCH   4   5
ENDBRANCH   3   4
ENDBRANCH   2   3
ENDBRANCH   1   2
BRANCH   1  29
ATOM     29  C   UNL A   1      43.008  20.480  25.809  1.00  0.00     0.202 C 
BRANCH  29  30
ATOM     30  C   UNL A   1      43.854  21.512  25.050  1.00  0.00     0.261 C 
BRANCH  30  31
ATOM     31  O   UNL A   1      43.126  22.721  24.766  1.00  0.00    -0.460 OA
BRANCH  31  32
ATOM     32  C   UNL A   1      43.834  23.861  24.942  1.00  0.00     0.338 C 
ATOM     33  O   UNL A   1      44.863  24.191  24.364  1.00  0.00    -0.246 OA
BRANCH  32  34
ATOM     34  C   UNL A   1      43.106  24.793  25.819  1.00  0.00     0.060 A 
ATOM     35  C   UNL A   1      43.635  26.081  25.970  1.00  0.00     0.016 A 
ATOM     36  C   UNL A   1      41.986  24.396  26.554  1.00  0.00     0.016 A 
ATOM     37  C   UNL A   1      43.080  26.961  26.897  1.00  0.00     0.010 A 
ATOM     38  C   UNL A   1      41.437  25.278  27.493  1.00  0.00     0.010 A 
ATOM     39  C   UNL A   1      42.005  26.549  27.696  1.00  0.00    -0.014 A 
BRANCH  39  40
ATOM     40  C   UNL A   1      41.597  27.393  28.845  1.00  0.00     0.031 A 
ATOM     41  C   UNL A   1      42.390  27.321  30.122  1.00  0.00     0.074 A 
ATOM     42  C   UNL A   1      40.572  28.258  28.737  1.00  0.00     0.049 A 
ATOM     43  N   UNL A   1      42.218  27.971  31.244  1.00  0.00    -0.248 NA
ATOM     44  C   UNL A   1      43.533  26.394  30.131  1.00  0.00     0.031 C 
ATOM     45  C   UNL A   1      39.756  28.458  27.542  1.00  0.00     0.029 A 
ATOM     46  N   UNL A   1      40.048  29.133  29.655  1.00  0.00    -0.354 N 
ATOM     47  C   UNL A   1      43.231  27.537  32.091  1.00  0.00     0.074 A 
ATOM     48  C   UNL A   1      43.992  26.543  31.365  1.00  0.00     0.031 C 
ATOM     49  C   UNL A   1      38.829  29.398  27.800  1.00  0.00     0.029 A 
ATOM     50  C   UNL A   1      38.970  29.844  29.185  1.00  0.00     0.049 A 
ATOM     51  H   UNL A   1      40.410  29.243  30.564  1.00  0.00     0.167 HD
ATOM     52  C   UNL A   1      43.513  27.940  33.352  1.00  0.00     0.037 A 
ATOM     53  C   UNL A   1      38.182  30.740  29.808  1.00  0.00     0.037 A 
ATOM     54  C   UNL A   1      42.758  28.926  34.078  1.00  0.00     0.049 A 
ATOM     55  C   UNL A   1      38.464  31.108  31.241  1.00  0.00     0.074 A 
ATOM     56  C   UNL A   1      42.964  29.398  35.363  1.00  0.00     0.029 A 
ATOM     57  N   UNL A   1      41.645  29.587  33.584  1.00  0.00    -0.354 N 
ATOM     58  N   UNL A   1      39.433  30.702  32.025  1.00  0.00    -0.248 NA
ATOM     59  C   UNL A   1      37.542  32.063  31.874  1.00  0.00     0.031 C 
ATOM     60  C   UNL A   1      41.952  30.317  35.659  1.00  0.00     0.029 A 
ATOM     61  C   UNL A   1      41.142  30.450  34.544  1.00  0.00     0.049 A 
ATOM     62  H   UNL A   1      41.268  29.464  32.683  1.00  0.00     0.167 HD
ATOM     63  C   UNL A   1      39.256  31.373  33.230  1.00  0.00     0.074 A 
ATOM     64  C   UNL A   1      38.093  32.220  33.069  1.00  0.00     0.031 C 
ATOM     65  C   UNL A   1      39.991  31.295  34.366  1.00  0.00     0.037 A 
BRANCH  52  66
ATOM     66  C   UNL A   1      44.685  27.298  34.034  1.00  0.00     0.057 A 
ATOM     67  C   UNL A   1      44.553  26.106  34.758  1.00  0.00     0.134 A 
ATOM     68  C   UNL A   1      45.963  27.862  33.941  1.00  0.00     0.134 A 
ATOM     69  F   UNL A   1      43.353  25.524  34.897  1.00  0.00    -0.206 F 
ATOM     70  C   UNL A   1      45.650  25.508  35.382  1.00  0.00     0.040 A 
ATOM     71  C   UNL A   1      47.071  27.262  34.541  1.00  0.00     0.040 A 
ATOM     72  F   UNL A   1      46.158  29.002  33.260  1.00  0.00    -0.206 F 
ATOM     73  C   UNL A   1      46.914  26.082  35.268  1.00  0.00     0.006 A 
ENDBRANCH  52  66
BRANCH  53  74
ATOM     74  C   UNL A   1      37.035  31.351  29.090  1.00  0.00     0.057 A 
ATOM     75  C   UNL A   1      37.095  32.665  28.612  1.00  0.00     0.134 A 
ATOM     76  C   UNL A   1      35.840  30.648  28.898  1.00  0.00     0.134 A 
ATOM     77  F   UNL A   1      38.203  33.398  28.789  1.00  0.00    -0.206 F 
ATOM     78  C   UNL A   1      36.000  33.266  27.987  1.00  0.00     0.040 A 
ATOM     79  C   UNL A   1      34.746  31.227  28.253  1.00  0.00     0.040 A 
ATOM     80  F   UNL A   1      35.719  29.385  29.335  1.00  0.00    -0.206 F 
ATOM     81  C   UNL A   1      34.822  32.543  27.802  1.00  0.00     0.006 A 
ENDBRANCH  53  74
BRANCH  65  82
ATOM     82  C   UNL A   1      39.584  32.178  35.509  1.00  0.00     0.057 A 
ATOM     83  C   UNL A   1      40.087  33.476  35.658  1.00  0.00     0.134 A 
ATOM     84  C   UNL A   1      38.647  31.735  36.453  1.00  0.00     0.134 A 
ATOM     85  F   UNL A   1      40.996  33.955  34.796  1.00  0.00    -0.206 F 
ATOM     86  C   UNL A   1      39.691  34.294  36.718  1.00  0.00     0.040 A 
ATOM     87  C   UNL A   1      38.224  32.553  37.502  1.00  0.00     0.040 A 
ATOM     88  F   UNL A   1      38.118  30.505  36.362  1.00  0.00    -0.206 F 
ATOM     89  C   UNL A   1      38.752  33.835  37.640  1.00  0.00     0.006 A 
ENDBRANCH  65  82
ENDBRANCH  39  40
ENDBRANCH  32  34
ENDBRANCH  31  32
ENDBRANCH  30  31
ENDBRANCH  29  30
ENDBRANCH   1  29
TORSDOF 17
ENDMDL
MODEL 3
REMARK VINA RESULT:     -11.0      4.605      9.822
REMARK SMILES [NH3+][C@@]1(C(=O)OCCOCCOC(=O)c2ccc(-c3c4nc(c(-c5c(F)cccc5F)c5ccc([nH]5)c(-c5c(F)cccc5F)c5nc(c(-c6c(F)cccc6F)c6ccc3[nH]6)C=C5)C=C4)cc2)CC[C@@H]([N@H+]2CC[C@H]([NH+]3CCOCC3)C2)C1
REMARK SMILES IDX 8 1 7 2 6 3 5 4 3 5 4 6 2 7 68 8 82 9 69 10 70 11 1 12 71 16
REMARK SMILES IDX 72 17 81 18 73 20 74 21 75 22 76 23 80 24 77 26 79 27 78 28
REMARK SMILES IDX 9 29 10 30 11 31 12 32 13 33 14 34 15 35 67 36 16 37 66 38
REMARK SMILES IDX 17 39 18 40 19 41 60 42 20 43 65 44 59 45 61 46 21 47 64 48
REMARK SMILES IDX 58 49 57 50 22 52 48 53 31 54 47 55 32 56 35 57 46 58 62 59
REMARK SMILES IDX 33 60 34 61 45 63 63 64 36 65 23 66 24 67 29 68 25 69 26 70
REMARK SMILES IDX 28 71 30 72 27 73 49 74 50 75 55 76 51 77 52 78 54 79 56 80
REMARK SMILES IDX 53 81 37 82 38 83 43 84 39 85 40 86 42 87 44 88 41 89
REMARK H PARENT 1 13 1 14 1 15 71 19 75 25 61 51 35 62
REMARK Flexibility Score: inf
ROOT
ATOM      1  O   UNL A   1      42.659  21.204  26.425  1.00  0.00    -0.374 OA
ENDROOT
BRANCH   1   2
ATOM      2  C   UNL A   1      41.323  20.717  26.300  1.00  0.00     0.202 C 
BRANCH   2   3
ATOM      3  C   UNL A   1      40.215  21.589  26.894  1.00  0.00     0.261 C 
BRANCH   3   4
ATOM      4  O   UNL A   1      39.070  21.633  26.026  1.00  0.00    -0.459 OA
BRANCH   4   5
ATOM      5  C   UNL A   1      38.325  22.769  26.109  1.00  0.00     0.368 C 
ATOM      6  O   UNL A   1      38.762  23.846  26.500  1.00  0.00    -0.245 OA
BRANCH   5   7
ATOM      7  C   UNL A   1      36.857  22.562  25.621  1.00  0.00     0.198 C 
ATOM      8  C   UNL A   1      36.909  22.056  24.172  1.00  0.00     0.087 C 
ATOM      9  C   UNL A   1      35.971  23.836  25.587  1.00  0.00     0.145 C 
ATOM     10  C   UNL A   1      36.600  23.282  23.325  1.00  0.00     0.072 C 
ATOM     11  C   UNL A   1      35.558  24.079  24.120  1.00  0.00     0.191 C 
BRANCH   7  12
ATOM     12  N   UNL A   1      36.257  21.528  26.499  1.00  0.00    -0.343 N 
ATOM     13  H   UNL A   1      35.986  21.951  27.387  1.00  0.00     0.345 HD
ATOM     14  H   UNL A   1      36.939  20.789  26.670  1.00  0.00     0.345 HD
ATOM     15  H   UNL A   1      35.433  21.133  26.046  1.00  0.00     0.345 HD
ENDBRANCH   7  12
BRANCH  11  16
ATOM     16  N   UNL A   1      34.175  23.742  23.752  1.00  0.00    -0.327 N 
ATOM     17  C   UNL A   1      33.966  23.056  22.485  1.00  0.00     0.269 C 
ATOM     18  C   UNL A   1      33.471  22.941  24.762  1.00  0.00     0.328 C 
ATOM     19  H   UNL A   1      33.796  24.686  23.671  1.00  0.00     0.348 HD
ATOM     20  C   UNL A   1      32.546  22.530  22.549  1.00  0.00     0.132 C 
ATOM     21  C   UNL A   1      32.215  22.394  24.035  1.00  0.00     0.245 C 
BRANCH  21  22
ATOM     22  N   UNL A   1      30.919  22.913  24.500  1.00  0.00    -0.324 N 
ATOM     23  C   UNL A   1      30.652  24.317  24.138  1.00  0.00     0.291 C 
ATOM     24  C   UNL A   1      30.582  22.688  25.917  1.00  0.00     0.291 C 
ATOM     25  H   UNL A   1      30.290  22.313  23.965  1.00  0.00     0.348 HD
ATOM     26  C   UNL A   1      31.108  25.374  25.160  1.00  0.00     0.221 C 
ATOM     27  C   UNL A   1      31.073  23.766  26.895  1.00  0.00     0.221 C 
ATOM     28  O   UNL A   1      30.659  25.074  26.486  1.00  0.00    -0.370 OA
ENDBRANCH  21  22
ENDBRANCH  11  16
ENDBRANCH   5   7
ENDBRANCH   4   5
ENDBRANCH   3   4
ENDBRANCH   2   3
ENDBRANCH   1   2
BRANCH   1  29
ATOM     29  C   UNL A   1      43.577  20.906  25.376  1.00  0.00     0.202 C 
BRANCH  29  30
ATOM     30  C   UNL A   1      44.339  22.089  24.763  1.00  0.00     0.261 C 
BRANCH  30  31
ATOM     31  O   UNL A   1      43.544  23.288  24.706  1.00  0.00    -0.460 OA
BRANCH  31  32
ATOM     32  C   UNL A   1      44.199  24.417  25.065  1.00  0.00     0.338 C 
ATOM     33  O   UNL A   1      45.269  24.824  24.627  1.00  0.00    -0.246 OA
BRANCH  32  34
ATOM     34  C   UNL A   1      43.363  25.240  25.955  1.00  0.00     0.060 A 
ATOM     35  C   UNL A   1      43.698  26.594  26.083  1.00  0.00     0.016 A 
ATOM     36  C   UNL A   1      42.334  24.689  26.721  1.00  0.00     0.016 A 
ATOM     37  C   UNL A   1      43.043  27.391  27.018  1.00  0.00     0.010 A 
ATOM     38  C   UNL A   1      41.683  25.490  27.669  1.00  0.00     0.010 A 
ATOM     39  C   UNL A   1      42.062  26.833  27.848  1.00  0.00    -0.014 A 
BRANCH  39  40
ATOM     40  C   UNL A   1      41.562  27.619  29.002  1.00  0.00     0.031 A 
ATOM     41  C   UNL A   1      42.291  27.532  30.315  1.00  0.00     0.074 A 
ATOM     42  C   UNL A   1      40.510  28.447  28.870  1.00  0.00     0.049 A 
ATOM     43  N   UNL A   1      42.036  28.135  31.448  1.00  0.00    -0.248 NA
ATOM     44  C   UNL A   1      43.469  26.650  30.353  1.00  0.00     0.031 C 
ATOM     45  C   UNL A   1      39.748  28.658  27.642  1.00  0.00     0.029 A 
ATOM     46  N   UNL A   1      39.905  29.268  29.789  1.00  0.00    -0.354 N 
ATOM     47  C   UNL A   1      43.022  27.710  32.332  1.00  0.00     0.074 A 
ATOM     48  C   UNL A   1      43.858  26.772  31.613  1.00  0.00     0.031 C 
ATOM     49  C   UNL A   1      38.772  29.552  27.882  1.00  0.00     0.029 A 
ATOM     50  C   UNL A   1      38.825  29.953  29.287  1.00  0.00     0.049 A 
ATOM     51  H   UNL A   1      40.216  29.359  30.718  1.00  0.00     0.167 HD
ATOM     52  C   UNL A   1      43.223  28.078  33.619  1.00  0.00     0.037 A 
ATOM     53  C   UNL A   1      37.970  30.795  29.898  1.00  0.00     0.037 A 
ATOM     54  C   UNL A   1      42.392  29.008  34.337  1.00  0.00     0.049 A 
ATOM     55  C   UNL A   1      38.164  31.123  31.354  1.00  0.00     0.074 A 
ATOM     56  C   UNL A   1      42.514  29.442  35.647  1.00  0.00     0.029 A 
ATOM     57  N   UNL A   1      41.280  29.643  33.808  1.00  0.00    -0.354 N 
ATOM     58  N   UNL A   1      39.108  30.727  32.174  1.00  0.00    -0.248 NA
ATOM     59  C   UNL A   1      37.173  32.019  31.970  1.00  0.00     0.031 C 
ATOM     60  C   UNL A   1      41.452  30.310  35.920  1.00  0.00     0.029 A 
ATOM     61  C   UNL A   1      40.695  30.451  34.769  1.00  0.00     0.049 A 
ATOM     62  H   UNL A   1      40.955  29.537  32.885  1.00  0.00     0.167 HD
ATOM     63  C   UNL A   1      38.843  31.347  33.390  1.00  0.00     0.074 A 
ATOM     64  C   UNL A   1      37.656  32.154  33.197  1.00  0.00     0.031 C 
ATOM     65  C   UNL A   1      39.521  31.257  34.560  1.00  0.00     0.037 A 
BRANCH  52  66
ATOM     66  C   UNL A   1      44.384  27.458  34.339  1.00  0.00     0.057 A 
ATOM     67  C   UNL A   1      45.639  28.078  34.383  1.00  0.00     0.134 A 
ATOM     68  C   UNL A   1      44.237  26.244  35.021  1.00  0.00     0.134 A 
ATOM     69  F   UNL A   1      45.849  29.235  33.738  1.00  0.00    -0.206 F 
ATOM     70  C   UNL A   1      46.713  27.501  35.064  1.00  0.00     0.040 A 
ATOM     71  C   UNL A   1      45.296  25.670  35.724  1.00  0.00     0.040 A 
ATOM     72  F   UNL A   1      43.059  25.601  35.020  1.00  0.00    -0.206 F 
ATOM     73  C   UNL A   1      46.541  26.297  35.743  1.00  0.00     0.006 A 
ENDBRANCH  52  66
BRANCH  53  74
ATOM     74  C   UNL A   1      36.838  31.387  29.142  1.00  0.00     0.057 A 
ATOM     75  C   UNL A   1      35.727  30.618  28.776  1.00  0.00     0.134 A 
ATOM     76  C   UNL A   1      36.857  32.727  28.736  1.00  0.00     0.134 A 
ATOM     77  F   UNL A   1      35.663  29.323  29.114  1.00  0.00    -0.206 F 
ATOM     78  C   UNL A   1      34.686  31.153  28.016  1.00  0.00     0.040 A 
ATOM     79  C   UNL A   1      35.811  33.282  27.996  1.00  0.00     0.040 A 
ATOM     80  F   UNL A   1      37.894  33.517  29.053  1.00  0.00    -0.206 F 
ATOM     81  C   UNL A   1      34.725  32.492  27.627  1.00  0.00     0.006 A 
ENDBRANCH  53  74
BRANCH  65  82
ATOM     82  C   UNL A   1      39.021  32.082  35.709  1.00  0.00     0.057 A 
ATOM     83  C   UNL A   1      38.191  31.544  36.700  1.00  0.00     0.134 A 
ATOM     84  C   UNL A   1      39.407  33.422  35.846  1.00  0.00     0.134 A 
ATOM     85  F   UNL A   1      37.775  30.271  36.622  1.00  0.00    -0.206 F 
ATOM     86  C   UNL A   1      37.743  32.317  37.774  1.00  0.00     0.040 A 
ATOM     87  C   UNL A   1      38.986  34.197  36.927  1.00  0.00     0.040 A 
ATOM     88  F   UNL A   1      40.209  33.996  34.936  1.00  0.00    -0.206 F 
ATOM     89  C   UNL A   1      38.145  33.645  37.892  1.00  0.00     0.006 A 
ENDBRANCH  65  82
ENDBRANCH  39  40
ENDBRANCH  32  34
ENDBRANCH  31  32
ENDBRANCH  30  31
ENDBRANCH  29  30
ENDBRANCH   1  29
TORSDOF 17
ENDMDL
