MODEL 1
REMARK VINA RESULT:     -11.3      0.000      0.000
REMARK SMILES C[C@@H](C(=O)OCCOCCOC(=O)c1ccc(-c2c3nc(c(-c4c(F)cccc4F)c4ccc([nH]4)c(-c4c(F)cccc4F)c4nc(c(-c5c(F)cccc5F)c5ccc2[nH]5)C=C4)C=C3)cc1)c1cccc(C(=O)c2ccccc2)c1
REMARK SMILES IDX 7 1 6 2 5 3 3 4 4 5 2 6 1 7 68 8 69 9 81 10 70 11 72 12
REMARK SMILES IDX 71 13 73 14 74 15 75 16 76 17 80 18 77 19 79 20 78 21 8 22
REMARK SMILES IDX 9 23 10 24 11 25 12 26 13 27 14 28 15 29 67 30 16 31 66 32
REMARK SMILES IDX 17 33 18 34 19 35 60 36 20 37 65 38 59 39 61 40 21 41 64 42
REMARK SMILES IDX 58 43 57 44 22 46 48 47 31 48 47 49 32 50 35 51 46 52 62 53
REMARK SMILES IDX 33 54 34 55 45 57 63 58 36 59 23 60 24 61 29 62 25 63 26 64
REMARK SMILES IDX 28 65 30 66 27 67 49 68 50 69 55 70 51 71 52 72 54 73 56 74
REMARK SMILES IDX 53 75 37 76 38 77 43 78 39 79 40 80 42 81 44 82 41 83
REMARK H PARENT 61 45 35 56
REMARK Flexibility Score: inf
ROOT
ATOM      1  C   UNL A   1      41.619  20.083  26.556  1.00  0.00     0.202 C 
ENDROOT
BRANCH   1   2
ATOM      2  C   UNL A   1      40.643  21.080  27.189  1.00  0.00     0.261 C 
BRANCH   2   3
ATOM      3  O   UNL A   1      40.250  22.067  26.215  1.00  0.00    -0.463 OA
BRANCH   3   4
ATOM      4  C   UNL A   1      38.937  22.054  25.864  1.00  0.00     0.313 C 
ATOM      5  O   UNL A   1      38.276  21.031  25.710  1.00  0.00    -0.252 OA
BRANCH   4   6
ATOM      6  C   UNL A   1      38.349  23.463  25.703  1.00  0.00     0.126 C 
ATOM      7  C   UNL A   1      38.371  24.343  26.954  1.00  0.00     0.025 C 
BRANCH   6   8
ATOM      8  C   UNL A   1      36.969  23.375  25.055  1.00  0.00    -0.033 A 
ATOM      9  C   UNL A   1      36.767  23.042  23.709  1.00  0.00     0.004 A 
ATOM     10  C   UNL A   1      35.858  23.770  25.812  1.00  0.00     0.016 A 
ATOM     11  C   UNL A   1      35.502  23.154  23.126  1.00  0.00     0.001 A 
ATOM     12  C   UNL A   1      34.589  23.909  25.234  1.00  0.00     0.023 A 
ATOM     13  C   UNL A   1      34.417  23.599  23.882  1.00  0.00     0.012 A 
BRANCH  12  14
ATOM     14  C   UNL A   1      33.409  24.364  26.026  1.00  0.00     0.193 C 
ATOM     15  O   UNL A   1      32.748  23.568  26.687  1.00  0.00    -0.289 OA
BRANCH  14  16
ATOM     16  C   UNL A   1      33.064  25.800  26.087  1.00  0.00     0.022 A 
ATOM     17  C   UNL A   1      31.776  26.151  26.498  1.00  0.00     0.012 A 
ATOM     18  C   UNL A   1      34.022  26.785  25.821  1.00  0.00     0.012 A 
ATOM     19  C   UNL A   1      31.462  27.493  26.699  1.00  0.00     0.001 A 
ATOM     20  C   UNL A   1      33.704  28.126  26.032  1.00  0.00     0.001 A 
ATOM     21  C   UNL A   1      32.429  28.477  26.479  1.00  0.00     0.000 A 
ENDBRANCH  14  16
ENDBRANCH  12  14
ENDBRANCH   6   8
ENDBRANCH   4   6
ENDBRANCH   3   4
ENDBRANCH   2   3
ENDBRANCH   1   2
BRANCH   1  22
ATOM     22  O   UNL A   1      42.389  20.567  25.452  1.00  0.00    -0.374 OA
BRANCH  22  23
ATOM     23  C   UNL A   1      43.678  21.101  25.740  1.00  0.00     0.202 C 
BRANCH  23  24
ATOM     24  C   UNL A   1      44.255  22.090  24.721  1.00  0.00     0.261 C 
BRANCH  24  25
ATOM     25  O   UNL A   1      43.511  23.318  24.665  1.00  0.00    -0.460 OA
BRANCH  25  26
ATOM     26  C   UNL A   1      44.214  24.409  25.045  1.00  0.00     0.338 C 
ATOM     27  O   UNL A   1      45.311  24.768  24.633  1.00  0.00    -0.246 OA
BRANCH  26  28
ATOM     28  C   UNL A   1      43.402  25.255  25.935  1.00  0.00     0.060 A 
ATOM     29  C   UNL A   1      43.822  26.579  26.114  1.00  0.00     0.016 A 
ATOM     30  C   UNL A   1      42.304  24.754  26.637  1.00  0.00     0.016 A 
ATOM     31  C   UNL A   1      43.178  27.394  27.040  1.00  0.00     0.010 A 
ATOM     32  C   UNL A   1      41.665  25.572  27.575  1.00  0.00     0.010 A 
ATOM     33  C   UNL A   1      42.125  26.881  27.807  1.00  0.00    -0.014 A 
BRANCH  33  34
ATOM     34  C   UNL A   1      41.626  27.668  28.959  1.00  0.00     0.031 A 
ATOM     35  C   UNL A   1      42.362  27.584  30.269  1.00  0.00     0.074 A 
ATOM     36  C   UNL A   1      40.567  28.486  28.828  1.00  0.00     0.049 A 
ATOM     37  N   UNL A   1      42.110  28.186  31.402  1.00  0.00    -0.248 NA
ATOM     38  C   UNL A   1      43.541  26.704  30.302  1.00  0.00     0.031 C 
ATOM     39  C   UNL A   1      39.802  28.686  27.599  1.00  0.00     0.029 A 
ATOM     40  N   UNL A   1      39.958  29.304  29.744  1.00  0.00    -0.354 N 
ATOM     41  C   UNL A   1      43.094  27.757  32.284  1.00  0.00     0.074 A 
ATOM     42  C   UNL A   1      43.931  26.822  31.562  1.00  0.00     0.031 C 
ATOM     43  C   UNL A   1      38.817  29.569  27.840  1.00  0.00     0.029 A 
ATOM     44  C   UNL A   1      38.870  29.975  29.243  1.00  0.00     0.049 A 
ATOM     45  H   UNL A   1      40.270  29.402  30.673  1.00  0.00     0.167 HD
ATOM     46  C   UNL A   1      43.290  28.116  33.574  1.00  0.00     0.037 A 
ATOM     47  C   UNL A   1      38.007  30.809  29.855  1.00  0.00     0.037 A 
ATOM     48  C   UNL A   1      42.461  29.051  34.288  1.00  0.00     0.049 A 
ATOM     49  C   UNL A   1      38.205  31.140  31.310  1.00  0.00     0.074 A 
ATOM     50  C   UNL A   1      42.590  29.498  35.591  1.00  0.00     0.029 A 
ATOM     51  N   UNL A   1      41.343  29.676  33.758  1.00  0.00    -0.354 N 
ATOM     52  N   UNL A   1      39.153  30.749  32.126  1.00  0.00    -0.248 NA
ATOM     53  C   UNL A   1      37.211  32.029  31.929  1.00  0.00     0.031 C 
ATOM     54  C   UNL A   1      41.522  30.359  35.865  1.00  0.00     0.029 A 
ATOM     55  C   UNL A   1      40.756  30.485  34.717  1.00  0.00     0.049 A 
ATOM     56  H   UNL A   1      41.015  29.563  32.837  1.00  0.00     0.167 HD
ATOM     57  C   UNL A   1      38.888  31.365  33.344  1.00  0.00     0.074 A 
ATOM     58  C   UNL A   1      37.695  32.163  33.157  1.00  0.00     0.031 C 
ATOM     59  C   UNL A   1      39.573  31.280  34.511  1.00  0.00     0.037 A 
BRANCH  46  60
ATOM     60  C   UNL A   1      44.433  27.476  34.303  1.00  0.00     0.057 A 
ATOM     61  C   UNL A   1      45.693  28.081  34.383  1.00  0.00     0.134 A 
ATOM     62  C   UNL A   1      44.260  26.251  34.961  1.00  0.00     0.134 A 
ATOM     63  F   UNL A   1      45.928  29.246  33.762  1.00  0.00    -0.206 F 
ATOM     64  C   UNL A   1      46.748  27.481  35.074  1.00  0.00     0.040 A 
ATOM     65  C   UNL A   1      45.299  25.653  35.674  1.00  0.00     0.040 A 
ATOM     66  F   UNL A   1      43.076  25.621  34.925  1.00  0.00    -0.206 F 
ATOM     67  C   UNL A   1      46.549  26.265  35.728  1.00  0.00     0.006 A 
ENDBRANCH  46  60
BRANCH  47  68
ATOM     68  C   UNL A   1      36.868  31.388  29.098  1.00  0.00     0.057 A 
ATOM     69  C   UNL A   1      36.882  32.720  28.672  1.00  0.00     0.134 A 
ATOM     70  C   UNL A   1      35.730  30.627  28.805  1.00  0.00     0.134 A 
ATOM     71  F   UNL A   1      37.934  33.506  28.944  1.00  0.00    -0.206 F 
ATOM     72  C   UNL A   1      35.797  33.282  27.996  1.00  0.00     0.040 A 
ATOM     73  C   UNL A   1      34.648  31.169  28.109  1.00  0.00     0.040 A 
ATOM     74  F   UNL A   1      35.656  29.344  29.187  1.00  0.00    -0.206 F 
ATOM     75  C   UNL A   1      34.677  32.503  27.709  1.00  0.00     0.006 A 
ENDBRANCH  47  68
BRANCH  59  76
ATOM     76  C   UNL A   1      39.067  32.094  35.664  1.00  0.00     0.057 A 
ATOM     77  C   UNL A   1      38.231  31.549  36.646  1.00  0.00     0.134 A 
ATOM     78  C   UNL A   1      39.460  33.431  35.818  1.00  0.00     0.134 A 
ATOM     79  F   UNL A   1      37.811  30.278  36.550  1.00  0.00    -0.206 F 
ATOM     80  C   UNL A   1      37.785  32.308  37.728  1.00  0.00     0.040 A 
ATOM     81  C   UNL A   1      39.041  34.194  36.909  1.00  0.00     0.040 A 
ATOM     82  F   UNL A   1      40.267  34.011  34.918  1.00  0.00    -0.206 F 
ATOM     83  C   UNL A   1      38.196  33.633  37.865  1.00  0.00     0.006 A 
ENDBRANCH  59  76
ENDBRANCH  33  34
ENDBRANCH  26  28
ENDBRANCH  25  26
ENDBRANCH  24  25
ENDBRANCH  23  24
ENDBRANCH  22  23
ENDBRANCH   1  22
TORSDOF 17
ENDMDL
MODEL 2
REMARK VINA RESULT:     -10.8      4.791     10.135
REMARK SMILES C[C@@H](C(=O)OCCOCCOC(=O)c1ccc(-c2c3nc(c(-c4c(F)cccc4F)c4ccc([nH]4)c(-c4c(F)cccc4F)c4nc(c(-c5c(F)cccc5F)c5ccc2[nH]5)C=C4)C=C3)cc1)c1cccc(C(=O)c2ccccc2)c1
REMARK SMILES IDX 7 1 6 2 5 3 3 4 4 5 2 6 1 7 68 8 69 9 81 10 70 11 72 12
REMARK SMILES IDX 71 13 73 14 74 15 75 16 76 17 80 18 77 19 79 20 78 21 8 22
REMARK SMILES IDX 9 23 10 24 11 25 12 26 13 27 14 28 15 29 67 30 16 31 66 32
REMARK SMILES IDX 17 33 18 34 19 35 60 36 20 37 65 38 59 39 61 40 21 41 64 42
REMARK SMILES IDX 58 43 57 44 22 46 48 47 31 48 47 49 32 50 35 51 46 52 62 53
REMARK SMILES IDX 33 54 34 55 45 57 63 58 36 59 23 60 24 61 29 62 25 63 26 64
REMARK SMILES IDX 28 65 30 66 27 67 49 68 50 69 55 70 51 71 52 72 54 73 56 74
REMARK SMILES IDX 53 75 37 76 38 77 43 78 39 79 40 80 42 81 44 82 41 83
REMARK H PARENT 61 45 35 56
REMARK Flexibility Score: inf
ROOT
ATOM      1  C   UNL A   1      34.823  33.937  29.243  1.00  0.00     0.202 C 
ENDROOT
BRANCH   1   2
ATOM      2  C   UNL A   1      34.929  32.860  28.159  1.00  0.00     0.261 C 
BRANCH   2   3
ATOM      3  O   UNL A   1      33.925  31.849  28.372  1.00  0.00    -0.463 OA
BRANCH   3   4
ATOM      4  C   UNL A   1      33.874  30.866  27.433  1.00  0.00     0.313 C 
ATOM      5  O   UNL A   1      34.729  29.995  27.302  1.00  0.00    -0.252 OA
BRANCH   4   6
ATOM      6  C   UNL A   1      32.613  30.942  26.561  1.00  0.00     0.126 C 
ATOM      7  C   UNL A   1      31.589  32.006  26.956  1.00  0.00     0.025 C 
BRANCH   6   8
ATOM      8  C   UNL A   1      32.004  29.549  26.414  1.00  0.00    -0.033 A 
ATOM      9  C   UNL A   1      32.125  28.546  27.386  1.00  0.00     0.004 A 
ATOM     10  C   UNL A   1      31.403  29.216  25.193  1.00  0.00     0.016 A 
ATOM     11  C   UNL A   1      31.707  27.239  27.122  1.00  0.00     0.001 A 
ATOM     12  C   UNL A   1      31.001  27.904  24.907  1.00  0.00     0.023 A 
ATOM     13  C   UNL A   1      31.158  26.914  25.882  1.00  0.00     0.012 A 
BRANCH  12  14
ATOM     14  C   UNL A   1      30.393  27.536  23.595  1.00  0.00     0.193 C 
ATOM     15  O   UNL A   1      30.542  26.412  23.124  1.00  0.00    -0.289 OA
BRANCH  14  16
ATOM     16  C   UNL A   1      29.535  28.502  22.877  1.00  0.00     0.022 A 
ATOM     17  C   UNL A   1      28.166  28.498  23.153  1.00  0.00     0.012 A 
ATOM     18  C   UNL A   1      30.086  29.449  22.007  1.00  0.00     0.012 A 
ATOM     19  C   UNL A   1      27.352  29.484  22.599  1.00  0.00     0.001 A 
ATOM     20  C   UNL A   1      29.268  30.439  21.463  1.00  0.00     0.001 A 
ATOM     21  C   UNL A   1      27.905  30.460  21.766  1.00  0.00     0.000 A 
ENDBRANCH  14  16
ENDBRANCH  12  14
ENDBRANCH   6   8
ENDBRANCH   4   6
ENDBRANCH   3   4
ENDBRANCH   2   3
ENDBRANCH   1   2
BRANCH   1  22
ATOM     22  O   UNL A   1      34.106  33.572  30.426  1.00  0.00    -0.374 OA
BRANCH  22  23
ATOM     23  C   UNL A   1      34.352  34.340  31.601  1.00  0.00     0.202 C 
BRANCH  23  24
ATOM     24  C   UNL A   1      34.436  33.567  32.922  1.00  0.00     0.261 C 
BRANCH  24  25
ATOM     25  O   UNL A   1      35.036  32.271  32.762  1.00  0.00    -0.460 OA
BRANCH  25  26
ATOM     26  C   UNL A   1      36.268  32.160  33.310  1.00  0.00     0.338 C 
ATOM     27  O   UNL A   1      36.609  32.477  34.443  1.00  0.00    -0.246 OA
BRANCH  26  28
ATOM     28  C   UNL A   1      37.164  31.423  32.405  1.00  0.00     0.060 A 
ATOM     29  C   UNL A   1      38.115  30.580  32.996  1.00  0.00     0.016 A 
ATOM     30  C   UNL A   1      37.134  31.603  31.020  1.00  0.00     0.016 A 
ATOM     31  C   UNL A   1      39.076  29.955  32.207  1.00  0.00     0.010 A 
ATOM     32  C   UNL A   1      38.109  30.983  30.232  1.00  0.00     0.010 A 
ATOM     33  C   UNL A   1      39.106  30.188  30.827  1.00  0.00    -0.014 A 
BRANCH  33  34
ATOM     34  C   UNL A   1      40.279  29.731  30.047  1.00  0.00     0.031 A 
ATOM     35  C   UNL A   1      41.416  30.688  29.816  1.00  0.00     0.074 A 
ATOM     36  C   UNL A   1      40.356  28.466  29.596  1.00  0.00     0.049 A 
ATOM     37  N   UNL A   1      42.539  30.504  29.171  1.00  0.00    -0.248 NA
ATOM     38  C   UNL A   1      41.265  32.034  30.393  1.00  0.00     0.031 C 
ATOM     39  C   UNL A   1      39.340  27.435  29.796  1.00  0.00     0.029 A 
ATOM     40  N   UNL A   1      41.341  27.837  28.879  1.00  0.00    -0.354 N 
ATOM     41  C   UNL A   1      43.226  31.708  29.261  1.00  0.00     0.074 A 
ATOM     42  C   UNL A   1      42.383  32.625  29.998  1.00  0.00     0.031 C 
ATOM     43  C   UNL A   1      39.753  26.299  29.208  1.00  0.00     0.029 A 
ATOM     44  C   UNL A   1      41.049  26.532  28.571  1.00  0.00     0.049 A 
ATOM     45  H   UNL A   1      42.179  28.279  28.609  1.00  0.00     0.167 HD
ATOM     46  C   UNL A   1      44.454  32.019  28.782  1.00  0.00     0.037 A 
ATOM     47  C   UNL A   1      41.742  25.635  27.845  1.00  0.00     0.037 A 
ATOM     48  C   UNL A   1      45.294  31.104  28.055  1.00  0.00     0.049 A 
ATOM     49  C   UNL A   1      43.074  26.026  27.263  1.00  0.00     0.074 A 
ATOM     50  C   UNL A   1      46.563  31.318  27.546  1.00  0.00     0.029 A 
ATOM     51  N   UNL A   1      44.943  29.804  27.726  1.00  0.00    -0.354 N 
ATOM     52  N   UNL A   1      43.726  27.158  27.376  1.00  0.00    -0.248 NA
ATOM     53  C   UNL A   1      43.767  25.014  26.452  1.00  0.00     0.031 C 
ATOM     54  C   UNL A   1      46.962  30.160  26.870  1.00  0.00     0.029 A 
ATOM     55  C   UNL A   1      45.960  29.211  26.998  1.00  0.00     0.049 A 
ATOM     56  H   UNL A   1      44.096  29.368  27.974  1.00  0.00     0.167 HD
ATOM     57  C   UNL A   1      44.915  26.985  26.677  1.00  0.00     0.074 A 
ATOM     58  C   UNL A   1      44.899  25.636  26.151  1.00  0.00     0.031 C 
ATOM     59  C   UNL A   1      45.931  27.864  26.490  1.00  0.00     0.037 A 
BRANCH  46  60
ATOM     60  C   UNL A   1      44.950  33.415  29.009  1.00  0.00     0.057 A 
ATOM     61  C   UNL A   1      45.719  33.756  30.128  1.00  0.00     0.134 A 
ATOM     62  C   UNL A   1      44.680  34.426  28.077  1.00  0.00     0.134 A 
ATOM     63  F   UNL A   1      45.999  32.838  31.065  1.00  0.00    -0.206 F 
ATOM     64  C   UNL A   1      46.185  35.058  30.325  1.00  0.00     0.040 A 
ATOM     65  C   UNL A   1      45.159  35.725  28.250  1.00  0.00     0.040 A 
ATOM     66  F   UNL A   1      43.951  34.165  26.982  1.00  0.00    -0.206 F 
ATOM     67  C   UNL A   1      45.910  36.045  29.380  1.00  0.00     0.006 A 
ENDBRANCH  46  60
BRANCH  47  68
ATOM     68  C   UNL A   1      41.190  24.276  27.617  1.00  0.00     0.057 A 
ATOM     69  C   UNL A   1      41.677  23.166  28.317  1.00  0.00     0.134 A 
ATOM     70  C   UNL A   1      40.178  24.051  26.675  1.00  0.00     0.134 A 
ATOM     71  F   UNL A   1      42.662  23.314  29.214  1.00  0.00    -0.206 F 
ATOM     72  C   UNL A   1      41.190  21.880  28.077  1.00  0.00     0.040 A 
ATOM     73  C   UNL A   1      39.666  22.774  26.442  1.00  0.00     0.040 A 
ATOM     74  F   UNL A   1      39.670  25.074  25.971  1.00  0.00    -0.206 F 
ATOM     75  C   UNL A   1      40.178  21.683  27.140  1.00  0.00     0.006 A 
ENDBRANCH  47  68
BRANCH  59  76
ATOM     76  C   UNL A   1      47.120  27.383  25.712  1.00  0.00     0.057 A 
ATOM     77  C   UNL A   1      47.230  27.579  24.330  1.00  0.00     0.134 A 
ATOM     78  C   UNL A   1      48.190  26.754  26.364  1.00  0.00     0.134 A 
ATOM     79  F   UNL A   1      46.236  28.165  23.647  1.00  0.00    -0.206 F 
ATOM     80  C   UNL A   1      48.351  27.149  23.620  1.00  0.00     0.040 A 
ATOM     81  C   UNL A   1      49.327  26.341  25.669  1.00  0.00     0.040 A 
ATOM     82  F   UNL A   1      48.151  26.544  27.688  1.00  0.00    -0.206 F 
ATOM     83  C   UNL A   1      49.407  26.534  24.292  1.00  0.00     0.006 A 
ENDBRANCH  59  76
ENDBRANCH  33  34
ENDBRANCH  26  28
ENDBRANCH  25  26
ENDBRANCH  24  25
ENDBRANCH  23  24
ENDBRANCH  22  23
ENDBRANCH   1  22
TORSDOF 17
ENDMDL
MODEL 3
REMARK VINA RESULT:     -10.5      3.945      6.668
REMARK SMILES C[C@@H](C(=O)OCCOCCOC(=O)c1ccc(-c2c3nc(c(-c4c(F)cccc4F)c4ccc([nH]4)c(-c4c(F)cccc4F)c4nc(c(-c5c(F)cccc5F)c5ccc2[nH]5)C=C4)C=C3)cc1)c1cccc(C(=O)c2ccccc2)c1
REMARK SMILES IDX 7 1 6 2 5 3 3 4 4 5 2 6 1 7 68 8 69 9 81 10 70 11 72 12
REMARK SMILES IDX 71 13 73 14 74 15 75 16 76 17 80 18 77 19 79 20 78 21 8 22
REMARK SMILES IDX 9 23 10 24 11 25 12 26 13 27 14 28 15 29 67 30 16 31 66 32
REMARK SMILES IDX 17 33 18 34 19 35 60 36 20 37 65 38 59 39 61 40 21 41 64 42
REMARK SMILES IDX 58 43 57 44 22 46 48 47 31 48 47 49 32 50 35 51 46 52 62 53
REMARK SMILES IDX 33 54 34 55 45 57 63 58 36 59 23 60 24 61 29 62 25 63 26 64
REMARK SMILES IDX 28 65 30 66 27 67 49 68 50 69 55 70 51 71 52 72 54 73 56 74
REMARK SMILES IDX 53 75 37 76 38 77 43 78 39 79 40 80 42 81 44 82 41 83
REMARK H PARENT 61 45 35 56
REMARK Flexibility Score: inf
ROOT
ATOM      1  C   UNL A   1      33.599  20.823  24.285  1.00  0.00     0.202 C 
ENDROOT
BRANCH   1   2
ATOM      2  C   UNL A   1      33.054  22.068  24.992  1.00  0.00     0.261 C 
BRANCH   2   3
ATOM      3  O   UNL A   1      32.828  23.118  24.031  1.00  0.00    -0.463 OA
BRANCH   3   4
ATOM      4  C   UNL A   1      33.947  23.721  23.547  1.00  0.00     0.313 C 
ATOM      5  O   UNL A   1      34.526  23.375  22.522  1.00  0.00    -0.252 OA
BRANCH   4   6
ATOM      6  C   UNL A   1      34.403  24.908  24.408  1.00  0.00     0.126 C 
ATOM      7  C   UNL A   1      35.285  24.563  25.609  1.00  0.00     0.025 C 
BRANCH   6   8
ATOM      8  C   UNL A   1      33.198  25.771  24.776  1.00  0.00    -0.033 A 
ATOM      9  C   UNL A   1      32.678  25.859  26.074  1.00  0.00     0.004 A 
ATOM     10  C   UNL A   1      32.500  26.406  23.740  1.00  0.00     0.016 A 
ATOM     11  C   UNL A   1      31.469  26.517  26.318  1.00  0.00     0.001 A 
ATOM     12  C   UNL A   1      31.275  27.048  23.968  1.00  0.00     0.023 A 
ATOM     13  C   UNL A   1      30.762  27.099  25.267  1.00  0.00     0.012 A 
BRANCH  12  14
ATOM     14  C   UNL A   1      30.509  27.695  22.863  1.00  0.00     0.193 C 
ATOM     15  O   UNL A   1      30.620  27.303  21.705  1.00  0.00    -0.289 OA
BRANCH  14  16
ATOM     16  C   UNL A   1      29.543  28.774  23.160  1.00  0.00     0.022 A 
ATOM     17  C   UNL A   1      30.041  29.997  23.615  1.00  0.00     0.012 A 
ATOM     18  C   UNL A   1      28.175  28.606  22.918  1.00  0.00     0.012 A 
ATOM     19  C   UNL A   1      29.173  31.076  23.772  1.00  0.00     0.001 A 
ATOM     20  C   UNL A   1      27.313  29.692  23.069  1.00  0.00     0.001 A 
ATOM     21  C   UNL A   1      27.814  30.926  23.487  1.00  0.00     0.000 A 
ENDBRANCH  14  16
ENDBRANCH  12  14
ENDBRANCH   6   8
ENDBRANCH   4   6
ENDBRANCH   3   4
ENDBRANCH   2   3
ENDBRANCH   1   2
BRANCH   1  22
ATOM     22  O   UNL A   1      34.710  20.177  24.914  1.00  0.00    -0.374 OA
BRANCH  22  23
ATOM     23  C   UNL A   1      35.823  20.991  25.269  1.00  0.00     0.202 C 
BRANCH  23  24
ATOM     24  C   UNL A   1      37.215  20.384  25.054  1.00  0.00     0.261 C 
BRANCH  24  25
ATOM     25  O   UNL A   1      38.257  21.372  25.097  1.00  0.00    -0.460 OA
BRANCH  25  26
ATOM     26  C   UNL A   1      39.250  21.092  25.971  1.00  0.00     0.338 C 
ATOM     27  O   UNL A   1      39.829  20.023  26.121  1.00  0.00    -0.246 OA
BRANCH  26  28
ATOM     28  C   UNL A   1      39.699  22.322  26.644  1.00  0.00     0.060 A 
ATOM     29  C   UNL A   1      39.103  23.524  26.241  1.00  0.00     0.016 A 
ATOM     30  C   UNL A   1      40.727  22.318  27.589  1.00  0.00     0.016 A 
ATOM     31  C   UNL A   1      39.570  24.735  26.742  1.00  0.00     0.010 A 
ATOM     32  C   UNL A   1      41.203  23.537  28.082  1.00  0.00     0.010 A 
ATOM     33  C   UNL A   1      40.652  24.751  27.631  1.00  0.00    -0.014 A 
BRANCH  33  34
ATOM     34  C   UNL A   1      41.301  26.044  27.949  1.00  0.00     0.031 A 
ATOM     35  C   UNL A   1      42.695  26.300  27.445  1.00  0.00     0.074 A 
ATOM     36  C   UNL A   1      40.640  26.998  28.628  1.00  0.00     0.049 A 
ATOM     37  N   UNL A   1      43.452  27.356  27.596  1.00  0.00    -0.248 NA
ATOM     38  C   UNL A   1      43.318  25.219  26.664  1.00  0.00     0.031 C 
ATOM     39  C   UNL A   1      39.272  26.884  29.128  1.00  0.00     0.029 A 
ATOM     40  N   UNL A   1      41.038  28.253  29.011  1.00  0.00    -0.354 N 
ATOM     41  C   UNL A   1      44.639  27.068  26.934  1.00  0.00     0.074 A 
ATOM     42  C   UNL A   1      44.514  25.727  26.404  1.00  0.00     0.031 C 
ATOM     43  C   UNL A   1      38.944  28.025  29.759  1.00  0.00     0.029 A 
ATOM     44  C   UNL A   1      40.087  28.936  29.727  1.00  0.00     0.049 A 
ATOM     45  H   UNL A   1      41.921  28.629  28.793  1.00  0.00     0.167 HD
ATOM     46  C   UNL A   1      45.730  27.852  26.773  1.00  0.00     0.037 A 
ATOM     47  C   UNL A   1      40.142  30.152  30.305  1.00  0.00     0.037 A 
ATOM     48  C   UNL A   1      45.850  29.188  27.295  1.00  0.00     0.049 A 
ATOM     49  C   UNL A   1      41.393  30.977  30.171  1.00  0.00     0.074 A 
ATOM     50  C   UNL A   1      46.907  30.072  27.167  1.00  0.00     0.029 A 
ATOM     51  N   UNL A   1      44.881  29.827  28.053  1.00  0.00    -0.354 N 
ATOM     52  N   UNL A   1      42.499  30.706  29.521  1.00  0.00    -0.248 NA
ATOM     53  C   UNL A   1      41.403  32.281  30.851  1.00  0.00     0.031 C 
ATOM     54  C   UNL A   1      46.596  31.231  27.886  1.00  0.00     0.029 A 
ATOM     55  C   UNL A   1      45.326  31.085  28.423  1.00  0.00     0.049 A 
ATOM     56  H   UNL A   1      44.007  29.444  28.292  1.00  0.00     0.167 HD
ATOM     57  C   UNL A   1      43.323  31.812  29.690  1.00  0.00     0.074 A 
ATOM     58  C   UNL A   1      42.586  32.763  30.495  1.00  0.00     0.031 C 
ATOM     59  C   UNL A   1      44.576  32.023  29.218  1.00  0.00     0.037 A 
BRANCH  46  60
ATOM     60  C   UNL A   1      46.891  27.274  26.021  1.00  0.00     0.057 A 
ATOM     61  C   UNL A   1      47.033  27.436  24.638  1.00  0.00     0.134 A 
ATOM     62  C   UNL A   1      47.897  26.571  26.697  1.00  0.00     0.134 A 
ATOM     63  F   UNL A   1      46.097  28.085  23.930  1.00  0.00    -0.206 F 
ATOM     64  C   UNL A   1      48.124  26.902  23.948  1.00  0.00     0.040 A 
ATOM     65  C   UNL A   1      49.003  26.053  26.023  1.00  0.00     0.040 A 
ATOM     66  F   UNL A   1      47.823  26.383  28.023  1.00  0.00    -0.206 F 
ATOM     67  C   UNL A   1      49.117  26.213  24.644  1.00  0.00     0.006 A 
ENDBRANCH  46  60
BRANCH  47  68
ATOM     68  C   UNL A   1      38.978  30.664  31.072  1.00  0.00     0.057 A 
ATOM     69  C   UNL A   1      38.809  30.358  32.426  1.00  0.00     0.134 A 
ATOM     70  C   UNL A   1      37.996  31.454  30.460  1.00  0.00     0.134 A 
ATOM     71  F   UNL A   1      39.703  29.586  33.060  1.00  0.00    -0.206 F 
ATOM     72  C   UNL A   1      37.696  30.803  33.142  1.00  0.00     0.040 A 
ATOM     73  C   UNL A   1      36.891  31.926  31.170  1.00  0.00     0.040 A 
ATOM     74  F   UNL A   1      38.101  31.782  29.164  1.00  0.00    -0.206 F 
ATOM     75  C   UNL A   1      36.735  31.594  32.514  1.00  0.00     0.006 A 
ENDBRANCH  47  68
BRANCH  59  76
ATOM     76  C   UNL A   1      45.215  33.343  29.532  1.00  0.00     0.057 A 
ATOM     77  C   UNL A   1      45.074  34.453  28.690  1.00  0.00     0.134 A 
ATOM     78  C   UNL A   1      45.945  33.517  30.716  1.00  0.00     0.134 A 
ATOM     79  F   UNL A   1      44.396  34.348  27.537  1.00  0.00    -0.206 F 
ATOM     80  C   UNL A   1      45.653  35.683  29.002  1.00  0.00     0.040 A 
ATOM     81  C   UNL A   1      46.509  34.748  31.051  1.00  0.00     0.040 A 
ATOM     82  F   UNL A   1      46.111  32.496  31.570  1.00  0.00    -0.206 F 
ATOM     83  C   UNL A   1      46.367  35.835  30.190  1.00  0.00     0.006 A 
ENDBRANCH  59  76
ENDBRANCH  33  34
ENDBRANCH  26  28
ENDBRANCH  25  26
ENDBRANCH  24  25
ENDBRANCH  23  24
ENDBRANCH  22  23
ENDBRANCH   1  22
TORSDOF 17
ENDMDL
