MODEL 1
REMARK VINA RESULT:     -11.1      0.000      0.000
REMARK SMILES CCC(CC)(Nc1cc2ccccc2c(=O)[nH]1)C(=O)OCCOCCOC(=O)c1ccc(-c2c3nc(c(-c4c(F)cccc4F)c4ccc([nH]4)c(-c4c(F)cccc4F)c4nc(c(-c5c(F)cccc5F)c5ccc2[nH]5)C=C4)C=C3)cc1
REMARK SMILES IDX 23 1 22 2 21 3 20 4 18 5 19 6 3 7 2 8 1 9 4 10 5 11 6 12
REMARK SMILES IDX 7 14 8 15 17 16 9 17 15 18 10 20 14 21 16 22 11 23 13 24
REMARK SMILES IDX 12 25 24 26 25 27 26 28 27 29 28 30 29 31 30 32 82 33 31 34
REMARK SMILES IDX 81 35 32 36 33 37 34 38 75 39 35 40 80 41 74 42 76 43 36 44
REMARK SMILES IDX 79 45 73 46 72 47 37 49 63 50 46 51 62 52 47 53 50 54 61 55
REMARK SMILES IDX 77 56 48 57 49 58 60 60 78 61 51 62 38 63 39 64 44 65 40 66
REMARK SMILES IDX 41 67 43 68 45 69 42 70 64 71 65 72 70 73 66 74 67 75 69 76
REMARK SMILES IDX 71 77 68 78 52 79 53 80 58 81 54 82 55 83 57 84 59 85 56 86
REMARK H PARENT 6 13 17 19 76 48 50 59
REMARK Flexibility Score: inf
ROOT
ATOM      1  O   UNL A   1      35.989  21.712  26.151  1.00  0.00    -0.374 OA
ENDROOT
BRANCH   1   2
ATOM      2  C   UNL A   1      34.761  21.730  26.878  1.00  0.00     0.202 C 
BRANCH   2   3
ATOM      3  C   UNL A   1      33.922  23.005  26.828  1.00  0.00     0.261 C 
BRANCH   3   4
ATOM      4  O   UNL A   1      33.586  23.389  25.479  1.00  0.00    -0.461 OA
BRANCH   4   5
ATOM      5  C   UNL A   1      32.660  24.384  25.435  1.00  0.00     0.331 C 
ATOM      6  O   UNL A   1      32.803  25.432  26.061  1.00  0.00    -0.249 OA
BRANCH   5   7
ATOM      7  C   UNL A   1      31.360  24.044  24.666  1.00  0.00     0.136 C 
BRANCH   7   8
ATOM      8  C   UNL A   1      30.653  22.873  25.449  1.00  0.00     0.037 C 
ATOM      9  C   UNL A   1      30.177  23.112  26.876  1.00  0.00     0.007 C 
ENDBRANCH   7   8
BRANCH   7  10
ATOM     10  C   UNL A   1      31.821  23.666  23.240  1.00  0.00     0.037 C 
ATOM     11  C   UNL A   1      32.697  24.693  22.539  1.00  0.00     0.007 C 
ENDBRANCH   7  10
BRANCH   7  12
ATOM     12  N   UNL A   1      30.271  25.053  24.562  1.00  0.00    -0.356 N 
ATOM     13  H   UNL A   1      29.394  24.645  24.742  1.00  0.00     0.163 HD
BRANCH  12  14
ATOM     14  C   UNL A   1      30.147  26.390  24.286  1.00  0.00     0.107 A 
ATOM     15  C   UNL A   1      29.035  26.814  23.647  1.00  0.00     0.053 A 
ATOM     16  N   UNL A   1      31.136  27.299  24.525  1.00  0.00    -0.308 N 
ATOM     17  C   UNL A   1      28.793  28.234  23.389  1.00  0.00    -0.009 A 
ATOM     18  C   UNL A   1      31.125  28.615  24.102  1.00  0.00     0.257 A 
ATOM     19  H   UNL A   1      31.919  26.995  25.037  1.00  0.00     0.171 HD
ATOM     20  C   UNL A   1      27.530  28.700  23.004  1.00  0.00     0.009 A 
ATOM     21  C   UNL A   1      29.820  29.147  23.617  1.00  0.00     0.047 A 
ATOM     22  O   UNL A   1      32.121  29.328  24.155  1.00  0.00    -0.269 OA
ATOM     23  C   UNL A   1      27.278  30.074  22.940  1.00  0.00     0.001 A 
ATOM     24  C   UNL A   1      29.581  30.524  23.502  1.00  0.00     0.014 A 
ATOM     25  C   UNL A   1      28.297  30.986  23.207  1.00  0.00     0.001 A 
ENDBRANCH  12  14
ENDBRANCH   7  12
ENDBRANCH   5   7
ENDBRANCH   4   5
ENDBRANCH   3   4
ENDBRANCH   2   3
ENDBRANCH   1   2
BRANCH   1  26
ATOM     26  C   UNL A   1      36.171  20.657  25.203  1.00  0.00     0.202 C 
BRANCH  26  27
ATOM     27  C   UNL A   1      37.613  20.222  24.920  1.00  0.00     0.261 C 
BRANCH  27  28
ATOM     28  O   UNL A   1      38.541  21.301  25.095  1.00  0.00    -0.460 OA
BRANCH  28  29
ATOM     29  C   UNL A   1      39.517  21.090  26.019  1.00  0.00     0.338 C 
ATOM     30  O   UNL A   1      40.133  20.060  26.203  1.00  0.00    -0.246 OA
BRANCH  29  31
ATOM     31  C   UNL A   1      39.830  22.362  26.725  1.00  0.00     0.060 A 
ATOM     32  C   UNL A   1      39.172  23.534  26.358  1.00  0.00     0.016 A 
ATOM     33  C   UNL A   1      40.779  22.408  27.742  1.00  0.00     0.016 A 
ATOM     34  C   UNL A   1      39.581  24.755  26.899  1.00  0.00     0.010 A 
ATOM     35  C   UNL A   1      41.169  23.610  28.319  1.00  0.00     0.010 A 
ATOM     36  C   UNL A   1      40.636  24.796  27.823  1.00  0.00    -0.014 A 
BRANCH  36  37
ATOM     37  C   UNL A   1      41.309  26.071  28.136  1.00  0.00     0.031 A 
ATOM     38  C   UNL A   1      42.708  26.297  27.629  1.00  0.00     0.074 A 
ATOM     39  C   UNL A   1      40.689  26.992  28.890  1.00  0.00     0.049 A 
ATOM     40  N   UNL A   1      43.416  27.397  27.608  1.00  0.00    -0.248 NA
ATOM     41  C   UNL A   1      43.418  25.121  27.095  1.00  0.00     0.031 C 
ATOM     42  C   UNL A   1      39.391  26.815  29.536  1.00  0.00     0.029 A 
ATOM     43  N   UNL A   1      41.076  28.257  29.238  1.00  0.00    -0.354 N 
ATOM     44  C   UNL A   1      44.635  27.050  27.037  1.00  0.00     0.074 A 
ATOM     45  C   UNL A   1      44.605  25.626  26.797  1.00  0.00     0.031 C 
ATOM     46  C   UNL A   1      39.075  27.945  30.189  1.00  0.00     0.029 A 
ATOM     47  C   UNL A   1      40.139  28.925  29.984  1.00  0.00     0.049 A 
ATOM     48  H   UNL A   1      41.942  28.648  28.979  1.00  0.00     0.167 HD
ATOM     49  C   UNL A   1      45.674  27.858  26.717  1.00  0.00     0.037 A 
ATOM     50  C   UNL A   1      40.134  30.200  30.411  1.00  0.00     0.037 A 
ATOM     51  C   UNL A   1      45.682  29.271  26.997  1.00  0.00     0.049 A 
ATOM     52  C   UNL A   1      41.267  31.101  29.996  1.00  0.00     0.074 A 
ATOM     53  C   UNL A   1      46.630  30.219  26.657  1.00  0.00     0.029 A 
ATOM     54  N   UNL A   1      44.692  29.931  27.712  1.00  0.00    -0.354 N 
ATOM     55  N   UNL A   1      42.345  30.814  29.304  1.00  0.00    -0.248 NA
ATOM     56  C   UNL A   1      41.159  32.512  30.383  1.00  0.00     0.031 C 
ATOM     57  C   UNL A   1      46.239  31.442  27.215  1.00  0.00     0.029 A 
ATOM     58  C   UNL A   1      45.015  31.270  27.843  1.00  0.00     0.049 A 
ATOM     59  H   UNL A   1      43.879  29.508  28.072  1.00  0.00     0.167 HD
ATOM     60  C   UNL A   1      43.024  32.013  29.138  1.00  0.00     0.074 A 
ATOM     61  C   UNL A   1      42.223  33.032  29.789  1.00  0.00     0.031 C 
ATOM     62  C   UNL A   1      44.196  32.259  28.500  1.00  0.00     0.037 A 
BRANCH  49  63
ATOM     63  C   UNL A   1      46.862  27.243  26.029  1.00  0.00     0.057 A 
ATOM     64  C   UNL A   1      47.886  26.607  26.748  1.00  0.00     0.134 A 
ATOM     65  C   UNL A   1      46.970  27.245  24.633  1.00  0.00     0.134 A 
ATOM     66  F   UNL A   1      47.855  26.570  28.089  1.00  0.00    -0.206 F 
ATOM     67  C   UNL A   1      48.982  26.022  26.107  1.00  0.00     0.040 A 
ATOM     68  C   UNL A   1      48.046  26.637  23.979  1.00  0.00     0.040 A 
ATOM     69  F   UNL A   1      46.028  27.828  23.876  1.00  0.00    -0.206 F 
ATOM     70  C   UNL A   1      49.059  26.029  24.716  1.00  0.00     0.006 A 
ENDBRANCH  49  63
BRANCH  50  71
ATOM     71  C   UNL A   1      38.969  30.716  31.171  1.00  0.00     0.057 A 
ATOM     72  C   UNL A   1      38.931  30.648  32.568  1.00  0.00     0.134 A 
ATOM     73  C   UNL A   1      37.881  31.316  30.526  1.00  0.00     0.134 A 
ATOM     74  F   UNL A   1      39.942  30.080  33.244  1.00  0.00    -0.206 F 
ATOM     75  C   UNL A   1      37.845  31.135  33.298  1.00  0.00     0.040 A 
ATOM     76  C   UNL A   1      36.800  31.832  31.243  1.00  0.00     0.040 A 
ATOM     77  F   UNL A   1      37.865  31.432  29.191  1.00  0.00    -0.206 F 
ATOM     78  C   UNL A   1      36.777  31.733  32.634  1.00  0.00     0.006 A 
ENDBRANCH  50  71
BRANCH  62  79
ATOM     79  C   UNL A   1      44.652  33.688  28.443  1.00  0.00     0.057 A 
ATOM     80  C   UNL A   1      45.514  34.235  29.404  1.00  0.00     0.134 A 
ATOM     81  C   UNL A   1      44.232  34.523  27.400  1.00  0.00     0.134 A 
ATOM     82  F   UNL A   1      45.947  33.490  30.432  1.00  0.00    -0.206 F 
ATOM     83  C   UNL A   1      45.903  35.574  29.353  1.00  0.00     0.040 A 
ATOM     84  C   UNL A   1      44.643  35.854  27.320  1.00  0.00     0.040 A 
ATOM     85  F   UNL A   1      43.419  34.059  26.439  1.00  0.00    -0.206 F 
ATOM     86  C   UNL A   1      45.471  36.386  28.306  1.00  0.00     0.006 A 
ENDBRANCH  62  79
ENDBRANCH  36  37
ENDBRANCH  29  31
ENDBRANCH  28  29
ENDBRANCH  27  28
ENDBRANCH  26  27
ENDBRANCH   1  26
TORSDOF 18
ENDMDL
MODEL 2
REMARK VINA RESULT:     -11.0      4.177      7.650
REMARK SMILES CCC(CC)(Nc1cc2ccccc2c(=O)[nH]1)C(=O)OCCOCCOC(=O)c1ccc(-c2c3nc(c(-c4c(F)cccc4F)c4ccc([nH]4)c(-c4c(F)cccc4F)c4nc(c(-c5c(F)cccc5F)c5ccc2[nH]5)C=C4)C=C3)cc1
REMARK SMILES IDX 23 1 22 2 21 3 20 4 18 5 19 6 3 7 2 8 1 9 4 10 5 11 6 12
REMARK SMILES IDX 7 14 8 15 17 16 9 17 15 18 10 20 14 21 16 22 11 23 13 24
REMARK SMILES IDX 12 25 24 26 25 27 26 28 27 29 28 30 29 31 30 32 82 33 31 34
REMARK SMILES IDX 81 35 32 36 33 37 34 38 75 39 35 40 80 41 74 42 76 43 36 44
REMARK SMILES IDX 79 45 73 46 72 47 37 49 63 50 46 51 62 52 47 53 50 54 61 55
REMARK SMILES IDX 77 56 48 57 49 58 60 60 78 61 51 62 38 63 39 64 44 65 40 66
REMARK SMILES IDX 41 67 43 68 45 69 42 70 64 71 65 72 70 73 66 74 67 75 69 76
REMARK SMILES IDX 71 77 68 78 52 79 53 80 58 81 54 82 55 83 57 84 59 85 56 86
REMARK H PARENT 6 13 17 19 76 48 50 59
REMARK Flexibility Score: inf
ROOT
ATOM      1  O   UNL A   1      39.725  20.685  26.205  1.00  0.00    -0.374 OA
ENDROOT
BRANCH   1   2
ATOM      2  C   UNL A   1      39.042  21.935  26.286  1.00  0.00     0.202 C 
BRANCH   2   3
ATOM      3  C   UNL A   1      37.999  22.248  25.214  1.00  0.00     0.261 C 
BRANCH   3   4
ATOM      4  O   UNL A   1      36.815  21.436  25.346  1.00  0.00    -0.461 OA
BRANCH   4   5
ATOM      5  C   UNL A   1      35.790  21.877  24.568  1.00  0.00     0.331 C 
ATOM      6  O   UNL A   1      35.988  22.445  23.496  1.00  0.00    -0.249 OA
BRANCH   5   7
ATOM      7  C   UNL A   1      34.380  21.746  25.194  1.00  0.00     0.136 C 
BRANCH   7   8
ATOM      8  C   UNL A   1      34.573  21.679  26.757  1.00  0.00     0.037 C 
ATOM      9  C   UNL A   1      33.477  22.219  27.667  1.00  0.00     0.007 C 
ENDBRANCH   7   8
BRANCH   7  10
ATOM     10  C   UNL A   1      33.780  20.464  24.573  1.00  0.00     0.037 C 
ATOM     11  C   UNL A   1      33.225  19.453  25.565  1.00  0.00     0.007 C 
ENDBRANCH   7  10
BRANCH   7  12
ATOM     12  N   UNL A   1      33.395  22.852  25.048  1.00  0.00    -0.356 N 
ATOM     13  H   UNL A   1      32.500  22.568  25.341  1.00  0.00     0.163 HD
BRANCH  12  14
ATOM     14  C   UNL A   1      33.385  24.155  24.620  1.00  0.00     0.107 A 
ATOM     15  C   UNL A   1      32.923  25.105  25.461  1.00  0.00     0.053 A 
ATOM     16  N   UNL A   1      33.712  24.527  23.348  1.00  0.00    -0.308 N 
ATOM     17  C   UNL A   1      32.954  26.523  25.108  1.00  0.00    -0.009 A 
ATOM     18  C   UNL A   1      33.544  25.795  22.824  1.00  0.00     0.257 A 
ATOM     19  H   UNL A   1      34.097  23.840  22.758  1.00  0.00     0.171 HD
ATOM     20  C   UNL A   1      32.762  27.521  26.072  1.00  0.00     0.009 A 
ATOM     21  C   UNL A   1      33.269  26.887  23.800  1.00  0.00     0.047 A 
ATOM     22  O   UNL A   1      33.653  26.027  21.626  1.00  0.00    -0.269 OA
ATOM     23  C   UNL A   1      32.974  28.864  25.746  1.00  0.00     0.001 A 
ATOM     24  C   UNL A   1      33.432  28.239  23.461  1.00  0.00     0.014 A 
ATOM     25  C   UNL A   1      33.328  29.221  24.447  1.00  0.00     0.001 A 
ENDBRANCH  12  14
ENDBRANCH   7  12
ENDBRANCH   5   7
ENDBRANCH   4   5
ENDBRANCH   3   4
ENDBRANCH   2   3
ENDBRANCH   1   2
BRANCH   1  26
ATOM     26  C   UNL A   1      40.983  20.583  26.874  1.00  0.00     0.202 C 
BRANCH  26  27
ATOM     27  C   UNL A   1      42.211  21.114  26.126  1.00  0.00     0.261 C 
BRANCH  27  28
ATOM     28  O   UNL A   1      42.742  22.295  26.739  1.00  0.00    -0.460 OA
BRANCH  28  29
ATOM     29  C   UNL A   1      42.774  23.402  25.949  1.00  0.00     0.338 C 
ATOM     30  O   UNL A   1      43.108  23.453  24.782  1.00  0.00    -0.246 OA
BRANCH  29  31
ATOM     31  C   UNL A   1      42.217  24.568  26.686  1.00  0.00     0.060 A 
ATOM     32  C   UNL A   1      42.761  25.835  26.485  1.00  0.00     0.016 A 
ATOM     33  C   UNL A   1      41.165  24.418  27.586  1.00  0.00     0.016 A 
ATOM     34  C   UNL A   1      42.355  26.898  27.294  1.00  0.00     0.010 A 
ATOM     35  C   UNL A   1      40.723  25.474  28.370  1.00  0.00     0.010 A 
ATOM     36  C   UNL A   1      41.390  26.693  28.293  1.00  0.00    -0.014 A 
BRANCH  36  37
ATOM     37  C   UNL A   1      41.203  27.684  29.369  1.00  0.00     0.031 A 
ATOM     38  C   UNL A   1      40.068  28.667  29.262  1.00  0.00     0.074 A 
ATOM     39  C   UNL A   1      42.056  27.724  30.404  1.00  0.00     0.049 A 
ATOM     40  N   UNL A   1      39.591  29.486  30.162  1.00  0.00    -0.248 NA
ATOM     41  C   UNL A   1      39.391  28.758  27.955  1.00  0.00     0.031 C 
ATOM     42  C   UNL A   1      43.259  26.905  30.534  1.00  0.00     0.029 A 
ATOM     43  N   UNL A   1      42.036  28.488  31.538  1.00  0.00    -0.354 N 
ATOM     44  C   UNL A   1      38.548  30.165  29.541  1.00  0.00     0.074 A 
ATOM     45  C   UNL A   1      38.509  29.722  28.167  1.00  0.00     0.031 C 
ATOM     46  C   UNL A   1      43.855  27.196  31.702  1.00  0.00     0.029 A 
ATOM     47  C   UNL A   1      43.061  28.202  32.403  1.00  0.00     0.049 A 
ATOM     48  H   UNL A   1      41.354  29.176  31.716  1.00  0.00     0.167 HD
ATOM     49  C   UNL A   1      37.684  31.057  30.082  1.00  0.00     0.037 A 
ATOM     50  C   UNL A   1      43.297  28.676  33.640  1.00  0.00     0.037 A 
ATOM     51  C   UNL A   1      37.770  31.498  31.450  1.00  0.00     0.049 A 
ATOM     52  C   UNL A   1      42.295  29.620  34.250  1.00  0.00     0.074 A 
ATOM     53  C   UNL A   1      36.918  32.334  32.149  1.00  0.00     0.029 A 
ATOM     54  N   UNL A   1      38.795  31.151  32.320  1.00  0.00    -0.354 N 
ATOM     55  N   UNL A   1      41.208  30.133  33.721  1.00  0.00    -0.248 NA
ATOM     56  C   UNL A   1      42.530  30.016  35.643  1.00  0.00     0.031 C 
ATOM     57  C   UNL A   1      37.457  32.533  33.426  1.00  0.00     0.029 A 
ATOM     58  C   UNL A   1      38.608  31.770  33.543  1.00  0.00     0.049 A 
ATOM     59  H   UNL A   1      39.544  30.551  32.100  1.00  0.00     0.167 HD
ATOM     60  C   UNL A   1      40.608  30.877  34.727  1.00  0.00     0.074 A 
ATOM     61  C   UNL A   1      41.447  30.734  35.901  1.00  0.00     0.031 C 
ATOM     62  C   UNL A   1      39.464  31.608  34.693  1.00  0.00     0.037 A 
BRANCH  49  63
ATOM     63  C   UNL A   1      36.584  31.595  29.209  1.00  0.00     0.057 A 
ATOM     64  C   UNL A   1      35.490  30.803  28.824  1.00  0.00     0.134 A 
ATOM     65  C   UNL A   1      36.588  32.927  28.778  1.00  0.00     0.134 A 
ATOM     66  F   UNL A   1      35.420  29.515  29.193  1.00  0.00    -0.206 F 
ATOM     67  C   UNL A   1      34.461  31.308  28.025  1.00  0.00     0.040 A 
ATOM     68  C   UNL A   1      35.550  33.452  28.004  1.00  0.00     0.040 A 
ATOM     69  F   UNL A   1      37.597  33.749  29.110  1.00  0.00    -0.206 F 
ATOM     70  C   UNL A   1      34.486  32.640  27.619  1.00  0.00     0.006 A 
ENDBRANCH  49  63
BRANCH  50  71
ATOM     71  C   UNL A   1      44.460  28.171  34.411  1.00  0.00     0.057 A 
ATOM     72  C   UNL A   1      45.685  28.847  34.391  1.00  0.00     0.134 A 
ATOM     73  C   UNL A   1      44.368  27.025  35.208  1.00  0.00     0.134 A 
ATOM     74  F   UNL A   1      45.837  29.950  33.644  1.00  0.00    -0.206 F 
ATOM     75  C   UNL A   1      46.787  28.389  35.117  1.00  0.00     0.040 A 
ATOM     76  C   UNL A   1      45.453  26.569  35.959  1.00  0.00     0.040 A 
ATOM     77  F   UNL A   1      43.216  26.344  35.286  1.00  0.00    -0.206 F 
ATOM     78  C   UNL A   1      46.670  27.248  35.908  1.00  0.00     0.006 A 
ENDBRANCH  50  71
BRANCH  62  79
ATOM     79  C   UNL A   1      39.041  32.267  35.974  1.00  0.00     0.057 A 
ATOM     80  C   UNL A   1      38.228  31.619  36.913  1.00  0.00     0.134 A 
ATOM     81  C   UNL A   1      39.470  33.566  36.275  1.00  0.00     0.134 A 
ATOM     82  F   UNL A   1      37.778  30.376  36.681  1.00  0.00    -0.206 F 
ATOM     83  C   UNL A   1      37.819  32.258  38.084  1.00  0.00     0.040 A 
ATOM     84  C   UNL A   1      39.097  34.201  37.459  1.00  0.00     0.040 A 
ATOM     85  F   UNL A   1      40.263  34.237  35.426  1.00  0.00    -0.206 F 
ATOM     86  C   UNL A   1      38.257  33.551  38.362  1.00  0.00     0.006 A 
ENDBRANCH  62  79
ENDBRANCH  36  37
ENDBRANCH  29  31
ENDBRANCH  28  29
ENDBRANCH  27  28
ENDBRANCH  26  27
ENDBRANCH   1  26
TORSDOF 18
ENDMDL
MODEL 3
REMARK VINA RESULT:     -10.8      6.016     10.318
REMARK SMILES CCC(CC)(Nc1cc2ccccc2c(=O)[nH]1)C(=O)OCCOCCOC(=O)c1ccc(-c2c3nc(c(-c4c(F)cccc4F)c4ccc([nH]4)c(-c4c(F)cccc4F)c4nc(c(-c5c(F)cccc5F)c5ccc2[nH]5)C=C4)C=C3)cc1
REMARK SMILES IDX 23 1 22 2 21 3 20 4 18 5 19 6 3 7 2 8 1 9 4 10 5 11 6 12
REMARK SMILES IDX 7 14 8 15 17 16 9 17 15 18 10 20 14 21 16 22 11 23 13 24
REMARK SMILES IDX 12 25 24 26 25 27 26 28 27 29 28 30 29 31 30 32 82 33 31 34
REMARK SMILES IDX 81 35 32 36 33 37 34 38 75 39 35 40 80 41 74 42 76 43 36 44
REMARK SMILES IDX 79 45 73 46 72 47 37 49 63 50 46 51 62 52 47 53 50 54 61 55
REMARK SMILES IDX 77 56 48 57 49 58 60 60 78 61 51 62 38 63 39 64 44 65 40 66
REMARK SMILES IDX 41 67 43 68 45 69 42 70 64 71 65 72 70 73 66 74 67 75 69 76
REMARK SMILES IDX 71 77 68 78 52 79 53 80 58 81 54 82 55 83 57 84 59 85 56 86
REMARK H PARENT 6 13 17 19 76 48 50 59
REMARK Flexibility Score: inf
ROOT
ATOM      1  O   UNL A   1      46.289  23.786  25.632  1.00  0.00    -0.374 OA
ENDROOT
BRANCH   1   2
ATOM      2  C   UNL A   1      46.311  22.722  24.680  1.00  0.00     0.202 C 
BRANCH   2   3
ATOM      3  C   UNL A   1      45.389  21.529  24.923  1.00  0.00     0.261 C 
BRANCH   3   4
ATOM      4  O   UNL A   1      44.590  21.685  26.114  1.00  0.00    -0.461 OA
BRANCH   4   5
ATOM      5  C   UNL A   1      43.271  21.866  25.838  1.00  0.00     0.331 C 
ATOM      6  O   UNL A   1      42.868  22.052  24.692  1.00  0.00    -0.249 OA
BRANCH   5   7
ATOM      7  C   UNL A   1      42.344  21.966  27.073  1.00  0.00     0.136 C 
BRANCH   7   8
ATOM      8  C   UNL A   1      41.596  20.585  27.203  1.00  0.00     0.037 C 
ATOM      9  C   UNL A   1      42.394  19.337  27.559  1.00  0.00     0.007 C 
ENDBRANCH   7   8
BRANCH   7  10
ATOM     10  C   UNL A   1      41.413  23.166  26.784  1.00  0.00     0.037 C 
ATOM     11  C   UNL A   1      39.989  23.033  27.304  1.00  0.00     0.007 C 
ENDBRANCH   7  10
BRANCH   7  12
ATOM     12  N   UNL A   1      42.928  22.134  28.431  1.00  0.00    -0.356 N 
ATOM     13  H   UNL A   1      42.701  21.371  29.010  1.00  0.00     0.163 HD
BRANCH  12  14
ATOM     14  C   UNL A   1      43.694  23.053  29.102  1.00  0.00     0.107 A 
ATOM     15  C   UNL A   1      43.577  23.128  30.446  1.00  0.00     0.053 A 
ATOM     16  N   UNL A   1      44.486  23.969  28.474  1.00  0.00    -0.308 N 
ATOM     17  C   UNL A   1      44.417  24.025  31.240  1.00  0.00    -0.009 A 
ATOM     18  C   UNL A   1      45.130  25.022  29.097  1.00  0.00     0.257 A 
ATOM     19  H   UNL A   1      44.607  23.875  27.502  1.00  0.00     0.171 HD
ATOM     20  C   UNL A   1      44.512  23.895  32.631  1.00  0.00     0.009 A 
ATOM     21  C   UNL A   1      45.203  24.971  30.585  1.00  0.00     0.047 A 
ATOM     22  O   UNL A   1      45.652  25.934  28.467  1.00  0.00    -0.269 OA
ATOM     23  C   UNL A   1      45.455  24.643  33.343  1.00  0.00     0.001 A 
ATOM     24  C   UNL A   1      46.112  25.757  31.307  1.00  0.00     0.014 A 
ATOM     25  C   UNL A   1      46.268  25.559  32.680  1.00  0.00     0.001 A 
ENDBRANCH  12  14
ENDBRANCH   7  12
ENDBRANCH   5   7
ENDBRANCH   4   5
ENDBRANCH   3   4
ENDBRANCH   2   3
ENDBRANCH   1   2
BRANCH   1  26
ATOM     26  C   UNL A   1      45.788  25.048  25.188  1.00  0.00     0.202 C 
BRANCH  26  27
ATOM     27  C   UNL A   1      44.269  25.170  25.018  1.00  0.00     0.261 C 
BRANCH  27  28
ATOM     28  O   UNL A   1      43.805  26.497  25.294  1.00  0.00    -0.460 OA
BRANCH  28  29
ATOM     29  C   UNL A   1      42.493  26.598  25.644  1.00  0.00     0.338 C 
ATOM     30  O   UNL A   1      41.535  26.264  24.977  1.00  0.00    -0.246 OA
BRANCH  29  31
ATOM     31  C   UNL A   1      42.379  27.079  27.048  1.00  0.00     0.060 A 
ATOM     32  C   UNL A   1      41.549  26.404  27.941  1.00  0.00     0.016 A 
ATOM     33  C   UNL A   1      43.077  28.200  27.486  1.00  0.00     0.016 A 
ATOM     34  C   UNL A   1      41.309  26.947  29.206  1.00  0.00     0.010 A 
ATOM     35  C   UNL A   1      42.879  28.730  28.754  1.00  0.00     0.010 A 
ATOM     36  C   UNL A   1      41.916  28.155  29.579  1.00  0.00    -0.014 A 
BRANCH  36  37
ATOM     37  C   UNL A   1      41.419  28.916  30.741  1.00  0.00     0.031 A 
ATOM     38  C   UNL A   1      42.123  28.765  32.062  1.00  0.00     0.074 A 
ATOM     39  C   UNL A   1      40.337  29.700  30.620  1.00  0.00     0.049 A 
ATOM     40  N   UNL A   1      41.996  29.470  33.157  1.00  0.00    -0.248 NA
ATOM     41  C   UNL A   1      43.086  27.655  32.177  1.00  0.00     0.031 C 
ATOM     42  C   UNL A   1      39.508  29.811  29.421  1.00  0.00     0.029 A 
ATOM     43  N   UNL A   1      39.751  30.546  31.521  1.00  0.00    -0.354 N 
ATOM     44  C   UNL A   1      42.877  28.906  34.073  1.00  0.00     0.074 A 
ATOM     45  C   UNL A   1      43.476  27.756  33.439  1.00  0.00     0.031 C 
ATOM     46  C   UNL A   1      38.528  30.699  29.655  1.00  0.00     0.029 A 
ATOM     47  C   UNL A   1      38.678  31.228  31.008  1.00  0.00     0.049 A 
ATOM     48  H   UNL A   1      40.068  30.653  32.448  1.00  0.00     0.167 HD
ATOM     49  C   UNL A   1      43.176  29.333  35.324  1.00  0.00     0.037 A 
ATOM     50  C   UNL A   1      37.935  32.201  31.564  1.00  0.00     0.037 A 
ATOM     51  C   UNL A   1      42.538  30.469  35.937  1.00  0.00     0.049 A 
ATOM     52  C   UNL A   1      38.319  32.705  32.930  1.00  0.00     0.074 A 
ATOM     53  C   UNL A   1      42.800  31.057  37.161  1.00  0.00     0.029 A 
ATOM     54  N   UNL A   1      41.485  31.174  35.370  1.00  0.00    -0.354 N 
ATOM     55  N   UNL A   1      39.268  32.285  33.734  1.00  0.00    -0.248 NA
ATOM     56  C   UNL A   1      37.556  33.847  33.447  1.00  0.00     0.031 C 
ATOM     57  C   UNL A   1      41.869  32.084  37.356  1.00  0.00     0.029 A 
ATOM     58  C   UNL A   1      41.072  32.179  36.225  1.00  0.00     0.049 A 
ATOM     59  H   UNL A   1      41.091  30.987  34.487  1.00  0.00     0.167 HD
ATOM     60  C   UNL A   1      39.245  33.135  34.831  1.00  0.00     0.074 A 
ATOM     61  C   UNL A   1      38.196  34.104  34.579  1.00  0.00     0.031 C 
ATOM     62  C   UNL A   1      40.021  33.126  35.944  1.00  0.00     0.037 A 
BRANCH  49  63
ATOM     63  C   UNL A   1      44.232  28.586  36.091  1.00  0.00     0.057 A 
ATOM     64  C   UNL A   1      43.914  27.497  36.919  1.00  0.00     0.134 A 
ATOM     65  C   UNL A   1      45.586  28.923  35.975  1.00  0.00     0.134 A 
ATOM     66  F   UNL A   1      42.638  27.119  37.085  1.00  0.00    -0.206 F 
ATOM     67  C   UNL A   1      44.897  26.794  37.620  1.00  0.00     0.040 A 
ATOM     68  C   UNL A   1      46.581  28.208  36.647  1.00  0.00     0.040 A 
ATOM     69  F   UNL A   1      45.970  29.948  35.198  1.00  0.00    -0.206 F 
ATOM     70  C   UNL A   1      46.238  27.145  37.478  1.00  0.00     0.006 A 
ENDBRANCH  49  63
BRANCH  50  71
ATOM     71  C   UNL A   1      36.843  32.831  30.782  1.00  0.00     0.057 A 
ATOM     72  C   UNL A   1      37.121  33.769  29.781  1.00  0.00     0.134 A 
ATOM     73  C   UNL A   1      35.502  32.491  30.991  1.00  0.00     0.134 A 
ATOM     74  F   UNL A   1      38.387  34.139  29.535  1.00  0.00    -0.206 F 
ATOM     75  C   UNL A   1      36.106  34.365  29.032  1.00  0.00     0.040 A 
ATOM     76  C   UNL A   1      34.477  33.059  30.232  1.00  0.00     0.040 A 
ATOM     77  F   UNL A   1      35.170  31.583  31.920  1.00  0.00    -0.206 F 
ATOM     78  C   UNL A   1      34.778  34.006  29.255  1.00  0.00     0.006 A 
ENDBRANCH  50  71
BRANCH  62  79
ATOM     79  C   UNL A   1      39.787  34.222  36.944  1.00  0.00     0.057 A 
ATOM     80  C   UNL A   1      40.343  35.500  36.794  1.00  0.00     0.134 A 
ATOM     81  C   UNL A   1      38.979  33.995  38.065  1.00  0.00     0.134 A 
ATOM     82  F   UNL A   1      41.132  35.780  35.746  1.00  0.00    -0.206 F 
ATOM     83  C   UNL A   1      40.140  36.497  37.748  1.00  0.00     0.040 A 
ATOM     84  C   UNL A   1      38.740  34.996  39.007  1.00  0.00     0.040 A 
ATOM     85  F   UNL A   1      38.403  32.799  38.261  1.00  0.00    -0.206 F 
ATOM     86  C   UNL A   1      39.333  36.248  38.856  1.00  0.00     0.006 A 
ENDBRANCH  62  79
ENDBRANCH  36  37
ENDBRANCH  29  31
ENDBRANCH  28  29
ENDBRANCH  27  28
ENDBRANCH  26  27
ENDBRANCH   1  26
TORSDOF 18
ENDMDL
