MODEL 1
REMARK VINA RESULT:      -9.4      0.000      0.000
REMARK SMILES Cc1cc2c(c(C)c1Cl)C=C(C(=O)OCCOCCOC(=O)c1ccc(-c3c4nc(c(-c5c(F)cccc5F)c5ccc([nH]5)c(-c5c(F)cccc5F)c5nc(c(-c6c(F)cccc6F)c6ccc3[nH]6)C=C5)C=C4)cc1)[C@@H](C(F)(F)F)O2
REMARK SMILES IDX 18 1 17 2 16 3 15 4 14 5 12 6 13 7 11 8 1 9 2 10 3 11 8 12
REMARK SMILES IDX 4 13 6 14 9 15 5 16 82 17 7 18 10 19 77 20 78 21 79 22 80 23
REMARK SMILES IDX 81 24 19 25 20 26 21 27 22 28 23 29 24 30 76 31 25 32 75 33
REMARK SMILES IDX 26 34 27 35 28 36 69 37 29 38 74 39 68 40 70 41 30 42 73 43
REMARK SMILES IDX 67 44 66 45 31 47 57 48 40 49 56 50 41 51 44 52 55 53 71 54
REMARK SMILES IDX 42 55 43 56 54 58 72 59 45 60 32 61 33 62 38 63 34 64 35 65
REMARK SMILES IDX 37 66 39 67 36 68 58 69 59 70 64 71 60 72 61 73 63 74 65 75
REMARK SMILES IDX 62 76 46 77 47 78 52 79 48 80 49 81 51 82 53 83 50 84
REMARK H PARENT 70 46 44 57
REMARK Flexibility Score: inf
ROOT
ATOM      1  C   UNL A   1      44.658  19.013  24.634  1.00  0.00     0.202 C 
ENDROOT
BRANCH   1   2
ATOM      2  O   UNL A   1      45.775  19.622  25.284  1.00  0.00    -0.374 OA
BRANCH   2   3
ATOM      3  C   UNL A   1      45.632  20.977  25.706  1.00  0.00     0.202 C 
BRANCH   3   4
ATOM      4  C   UNL A   1      46.118  22.037  24.716  1.00  0.00     0.261 C 
BRANCH   4   5
ATOM      5  O   UNL A   1      46.780  23.113  25.405  1.00  0.00    -0.460 OA
BRANCH   5   6
ATOM      6  C   UNL A   1      46.983  24.223  24.661  1.00  0.00     0.338 C 
ATOM      7  O   UNL A   1      47.363  24.268  23.500  1.00  0.00    -0.246 OA
BRANCH   6   8
ATOM      8  C   UNL A   1      46.553  25.414  25.415  1.00  0.00     0.087 C 
ATOM      9  C   UNL A   1      43.782  30.911  27.390  1.00  0.00     0.046 C 
ATOM     10  C   UNL A   1      44.056  29.521  26.882  1.00  0.00    -0.028 A 
ATOM     11  C   UNL A   1      45.339  29.000  27.106  1.00  0.00     0.052 A 
ATOM     12  C   UNL A   1      43.104  28.719  26.221  1.00  0.00     0.047 A 
ATOM     13  C   UNL A   1      45.704  27.750  26.614  1.00  0.00     0.128 A 
ATOM     14  C   UNL A   1      43.452  27.439  25.727  1.00  0.00    -0.021 A 
ATOM     15  Cl  UNL A   1      41.491  29.327  26.006  1.00  0.00    -0.084 Cl
ATOM     16  C   UNL A   1      44.784  26.982  25.893  1.00  0.00     0.022 A 
ATOM     17  O   UNL A   1      46.984  27.364  26.892  1.00  0.00    -0.475 OA
ATOM     18  C   UNL A   1      42.447  26.554  25.022  1.00  0.00     0.047 C 
ATOM     19  C   UNL A   1      45.264  25.748  25.279  1.00  0.00     0.027 C 
ATOM     20  C   UNL A   1      47.533  26.185  26.247  1.00  0.00     0.316 C 
BRANCH  20  21
ATOM     21  C   UNL A   1      48.784  26.606  25.460  1.00  0.00     0.430 C 
ATOM     22  F   UNL A   1      49.658  25.577  25.344  1.00  0.00    -0.167 F 
ATOM     23  F   UNL A   1      48.478  26.994  24.200  1.00  0.00    -0.167 F 
ATOM     24  F   UNL A   1      49.436  27.629  26.053  1.00  0.00    -0.167 F 
ENDBRANCH  20  21
ENDBRANCH   6   8
ENDBRANCH   5   6
ENDBRANCH   4   5
ENDBRANCH   3   4
ENDBRANCH   2   3
ENDBRANCH   1   2
BRANCH   1  25
ATOM     25  C   UNL A   1      43.423  18.753  25.503  1.00  0.00     0.261 C 
BRANCH  25  26
ATOM     26  O   UNL A   1      42.260  19.441  25.005  1.00  0.00    -0.460 OA
BRANCH  26  27
ATOM     27  C   UNL A   1      41.415  19.893  25.964  1.00  0.00     0.338 C 
ATOM     28  O   UNL A   1      40.430  19.326  26.410  1.00  0.00    -0.246 OA
BRANCH  27  29
ATOM     29  C   UNL A   1      41.941  21.137  26.555  1.00  0.00     0.060 A 
ATOM     30  C   UNL A   1      41.927  21.245  27.951  1.00  0.00     0.016 A 
ATOM     31  C   UNL A   1      42.358  22.208  25.762  1.00  0.00     0.016 A 
ATOM     32  C   UNL A   1      42.284  22.445  28.561  1.00  0.00     0.010 A 
ATOM     33  C   UNL A   1      42.703  23.416  26.376  1.00  0.00     0.010 A 
ATOM     34  C   UNL A   1      42.635  23.549  27.774  1.00  0.00    -0.014 A 
BRANCH  34  35
ATOM     35  C   UNL A   1      42.787  24.880  28.408  1.00  0.00     0.031 A 
ATOM     36  C   UNL A   1      44.130  25.279  28.953  1.00  0.00     0.074 A 
ATOM     37  C   UNL A   1      41.752  25.736  28.464  1.00  0.00     0.049 A 
ATOM     38  N   UNL A   1      44.478  26.374  29.578  1.00  0.00    -0.248 NA
ATOM     39  C   UNL A   1      45.228  24.318  28.763  1.00  0.00     0.031 C 
ATOM     40  C   UNL A   1      40.420  25.485  27.920  1.00  0.00     0.029 A 
ATOM     41  N   UNL A   1      41.666  26.992  29.008  1.00  0.00    -0.354 N 
ATOM     42  C   UNL A   1      45.833  26.237  29.853  1.00  0.00     0.074 A 
ATOM     43  C   UNL A   1      46.239  24.940  29.353  1.00  0.00     0.031 C 
ATOM     44  C   UNL A   1      39.643  26.555  28.161  1.00  0.00     0.029 A 
ATOM     45  C   UNL A   1      40.416  27.550  28.903  1.00  0.00     0.049 A 
ATOM     46  H   UNL A   1      42.426  27.449  29.434  1.00  0.00     0.167 HD
ATOM     47  C   UNL A   1      46.665  27.116  30.458  1.00  0.00     0.037 A 
ATOM     48  C   UNL A   1      39.947  28.725  29.366  1.00  0.00     0.037 A 
ATOM     49  C   UNL A   1      46.260  28.401  30.962  1.00  0.00     0.049 A 
ATOM     50  C   UNL A   1      40.870  29.649  30.111  1.00  0.00     0.074 A 
ATOM     51  C   UNL A   1      47.027  29.354  31.610  1.00  0.00     0.029 A 
ATOM     52  N   UNL A   1      44.974  28.912  30.876  1.00  0.00    -0.354 N 
ATOM     53  N   UNL A   1      42.145  29.503  30.380  1.00  0.00    -0.248 NA
ATOM     54  C   UNL A   1      40.291  30.901  30.619  1.00  0.00     0.031 C 
ATOM     55  C   UNL A   1      46.195  30.427  31.948  1.00  0.00     0.029 A 
ATOM     56  C   UNL A   1      44.922  30.161  31.470  1.00  0.00     0.049 A 
ATOM     57  H   UNL A   1      44.210  28.453  30.455  1.00  0.00     0.167 HD
ATOM     58  C   UNL A   1      42.528  30.654  31.059  1.00  0.00     0.074 A 
ATOM     59  C   UNL A   1      41.349  31.491  31.159  1.00  0.00     0.031 C 
ATOM     60  C   UNL A   1      43.745  30.987  31.551  1.00  0.00     0.037 A 
BRANCH  47  61
ATOM     61  C   UNL A   1      48.100  26.713  30.621  1.00  0.00     0.057 A 
ATOM     62  C   UNL A   1      48.498  25.798  31.604  1.00  0.00     0.134 A 
ATOM     63  C   UNL A   1      49.086  27.206  29.757  1.00  0.00     0.134 A 
ATOM     64  F   UNL A   1      47.605  25.302  32.473  1.00  0.00    -0.206 F 
ATOM     65  C   UNL A   1      49.829  25.394  31.728  1.00  0.00     0.040 A 
ATOM     66  C   UNL A   1      50.414  26.793  29.856  1.00  0.00     0.040 A 
ATOM     67  F   UNL A   1      48.770  28.083  28.793  1.00  0.00    -0.206 F 
ATOM     68  C   UNL A   1      50.790  25.886  30.845  1.00  0.00     0.006 A 
ENDBRANCH  47  61
BRANCH  48  69
ATOM     69  C   UNL A   1      38.529  29.095  29.132  1.00  0.00     0.057 A 
ATOM     70  C   UNL A   1      37.576  28.983  30.151  1.00  0.00     0.134 A 
ATOM     71  C   UNL A   1      38.094  29.573  27.890  1.00  0.00     0.134 A 
ATOM     72  F   UNL A   1      37.928  28.509  31.355  1.00  0.00    -0.206 F 
ATOM     73  C   UNL A   1      36.241  29.329  29.943  1.00  0.00     0.040 A 
ATOM     74  C   UNL A   1      36.767  29.944  27.675  1.00  0.00     0.040 A 
ATOM     75  F   UNL A   1      38.960  29.702  26.874  1.00  0.00    -0.206 F 
ATOM     76  C   UNL A   1      35.834  29.818  28.703  1.00  0.00     0.006 A 
ENDBRANCH  48  69
BRANCH  60  77
ATOM     77  C   UNL A   1      43.883  32.328  32.210  1.00  0.00     0.057 A 
ATOM     78  C   UNL A   1      43.695  32.498  33.586  1.00  0.00     0.134 A 
ATOM     79  C   UNL A   1      44.274  33.448  31.465  1.00  0.00     0.134 A 
ATOM     80  F   UNL A   1      43.312  31.467  34.353  1.00  0.00    -0.206 F 
ATOM     81  C   UNL A   1      43.876  33.741  34.197  1.00  0.00     0.040 A 
ATOM     82  C   UNL A   1      44.479  34.690  32.068  1.00  0.00     0.040 A 
ATOM     83  F   UNL A   1      44.481  33.349  30.143  1.00  0.00    -0.206 F 
ATOM     84  C   UNL A   1      44.277  34.839  33.437  1.00  0.00     0.006 A 
ENDBRANCH  60  77
ENDBRANCH  34  35
ENDBRANCH  27  29
ENDBRANCH  26  27
ENDBRANCH  25  26
ENDBRANCH   1  25
TORSDOF 15
ENDMDL
MODEL 2
REMARK VINA RESULT:      -8.8      5.843     11.284
REMARK SMILES Cc1cc2c(c(C)c1Cl)C=C(C(=O)OCCOCCOC(=O)c1ccc(-c3c4nc(c(-c5c(F)cccc5F)c5ccc([nH]5)c(-c5c(F)cccc5F)c5nc(c(-c6c(F)cccc6F)c6ccc3[nH]6)C=C5)C=C4)cc1)[C@@H](C(F)(F)F)O2
REMARK SMILES IDX 18 1 17 2 16 3 15 4 14 5 12 6 13 7 11 8 1 9 2 10 3 11 8 12
REMARK SMILES IDX 4 13 6 14 9 15 5 16 82 17 7 18 10 19 77 20 78 21 79 22 80 23
REMARK SMILES IDX 81 24 19 25 20 26 21 27 22 28 23 29 24 30 76 31 25 32 75 33
REMARK SMILES IDX 26 34 27 35 28 36 69 37 29 38 74 39 68 40 70 41 30 42 73 43
REMARK SMILES IDX 67 44 66 45 31 47 57 48 40 49 56 50 41 51 44 52 55 53 71 54
REMARK SMILES IDX 42 55 43 56 54 58 72 59 45 60 32 61 33 62 38 63 34 64 35 65
REMARK SMILES IDX 37 66 39 67 36 68 58 69 59 70 64 71 60 72 61 73 63 74 65 75
REMARK SMILES IDX 62 76 46 77 47 78 52 79 48 80 49 81 51 82 53 83 50 84
REMARK H PARENT 70 46 44 57
REMARK Flexibility Score: inf
ROOT
ATOM      1  C   UNL A   1      31.430  31.642  26.401  1.00  0.00     0.202 C 
ENDROOT
BRANCH   1   2
ATOM      2  O   UNL A   1      32.465  30.664  26.522  1.00  0.00    -0.374 OA
BRANCH   2   3
ATOM      3  C   UNL A   1      32.148  29.452  27.204  1.00  0.00     0.202 C 
BRANCH   3   4
ATOM      4  C   UNL A   1      31.953  28.221  26.316  1.00  0.00     0.261 C 
BRANCH   4   5
ATOM      5  O   UNL A   1      33.127  27.389  26.334  1.00  0.00    -0.460 OA
BRANCH   5   6
ATOM      6  C   UNL A   1      33.462  26.855  25.137  1.00  0.00     0.338 C 
ATOM      7  O   UNL A   1      33.848  27.459  24.148  1.00  0.00    -0.246 OA
BRANCH   6   8
ATOM      8  C   UNL A   1      33.417  25.384  25.218  1.00  0.00     0.087 C 
ATOM      9  C   UNL A   1      34.517  19.044  24.597  1.00  0.00     0.046 C 
ATOM     10  C   UNL A   1      34.632  20.521  24.863  1.00  0.00    -0.028 A 
ATOM     11  C   UNL A   1      33.436  21.245  24.976  1.00  0.00     0.052 A 
ATOM     12  C   UNL A   1      35.856  21.203  25.019  1.00  0.00     0.047 A 
ATOM     13  C   UNL A   1      33.445  22.626  25.155  1.00  0.00     0.128 A 
ATOM     14  C   UNL A   1      35.885  22.604  25.215  1.00  0.00    -0.021 A 
ATOM     15  Cl  UNL A   1      37.339  20.301  24.954  1.00  0.00    -0.084 Cl
ATOM     16  C   UNL A   1      34.658  23.317  25.236  1.00  0.00     0.022 A 
ATOM     17  O   UNL A   1      32.214  23.211  25.240  1.00  0.00    -0.475 OA
ATOM     18  C   UNL A   1      37.183  23.359  25.395  1.00  0.00     0.047 C 
ATOM     19  C   UNL A   1      34.608  24.775  25.277  1.00  0.00     0.027 C 
ATOM     20  C   UNL A   1      32.106  24.659  25.209  1.00  0.00     0.316 C 
BRANCH  20  21
ATOM     21  C   UNL A   1      31.217  25.048  24.017  1.00  0.00     0.430 C 
ATOM     22  F   UNL A   1      30.486  26.155  24.293  1.00  0.00    -0.167 F 
ATOM     23  F   UNL A   1      31.949  25.335  22.916  1.00  0.00    -0.167 F 
ATOM     24  F   UNL A   1      30.354  24.063  23.685  1.00  0.00    -0.167 F 
ENDBRANCH  20  21
ENDBRANCH   6   8
ENDBRANCH   5   6
ENDBRANCH   4   5
ENDBRANCH   3   4
ENDBRANCH   2   3
ENDBRANCH   1   2
BRANCH   1  25
ATOM     25  C   UNL A   1      31.824  33.091  26.707  1.00  0.00     0.261 C 
BRANCH  25  26
ATOM     26  O   UNL A   1      32.358  33.236  28.036  1.00  0.00    -0.460 OA
BRANCH  26  27
ATOM     27  C   UNL A   1      33.433  34.055  28.129  1.00  0.00     0.338 C 
ATOM     28  O   UNL A   1      33.439  35.276  28.108  1.00  0.00    -0.246 OA
BRANCH  27  29
ATOM     29  C   UNL A   1      34.641  33.270  28.440  1.00  0.00     0.060 A 
ATOM     30  C   UNL A   1      34.459  31.967  28.920  1.00  0.00     0.016 A 
ATOM     31  C   UNL A   1      35.920  33.821  28.346  1.00  0.00     0.016 A 
ATOM     32  C   UNL A   1      35.554  31.225  29.358  1.00  0.00     0.010 A 
ATOM     33  C   UNL A   1      37.017  33.080  28.798  1.00  0.00     0.010 A 
ATOM     34  C   UNL A   1      36.834  31.794  29.336  1.00  0.00    -0.014 A 
BRANCH  34  35
ATOM     35  C   UNL A   1      37.954  31.098  30.011  1.00  0.00     0.031 A 
ATOM     36  C   UNL A   1      38.235  31.399  31.457  1.00  0.00     0.074 A 
ATOM     37  C   UNL A   1      38.688  30.182  29.355  1.00  0.00     0.049 A 
ATOM     38  N   UNL A   1      39.184  30.935  32.230  1.00  0.00    -0.248 NA
ATOM     39  C   UNL A   1      37.323  32.343  32.121  1.00  0.00     0.031 C 
ATOM     40  C   UNL A   1      38.475  29.765  27.971  1.00  0.00     0.029 A 
ATOM     41  N   UNL A   1      39.762  29.439  29.772  1.00  0.00    -0.354 N 
ATOM     42  C   UNL A   1      38.981  31.527  33.470  1.00  0.00     0.074 A 
ATOM     43  C   UNL A   1      37.838  32.406  33.341  1.00  0.00     0.031 C 
ATOM     44  C   UNL A   1      39.395  28.840  27.649  1.00  0.00     0.029 A 
ATOM     45  C   UNL A   1      40.278  28.625  28.794  1.00  0.00     0.049 A 
ATOM     46  H   UNL A   1      40.129  29.485  30.684  1.00  0.00     0.167 HD
ATOM     47  C   UNL A   1      39.678  31.347  34.616  1.00  0.00     0.037 A 
ATOM     48  C   UNL A   1      41.351  27.810  28.819  1.00  0.00     0.037 A 
ATOM     49  C   UNL A   1      40.820  30.481  34.743  1.00  0.00     0.049 A 
ATOM     50  C   UNL A   1      42.163  27.691  30.080  1.00  0.00     0.074 A 
ATOM     51  C   UNL A   1      41.606  30.248  35.858  1.00  0.00     0.029 A 
ATOM     52  N   UNL A   1      41.339  29.706  33.717  1.00  0.00    -0.354 N 
ATOM     53  N   UNL A   1      41.972  28.266  31.242  1.00  0.00    -0.248 NA
ATOM     54  C   UNL A   1      43.339  26.810  30.033  1.00  0.00     0.031 C 
ATOM     55  C   UNL A   1      42.623  29.358  35.496  1.00  0.00     0.029 A 
ATOM     56  C   UNL A   1      42.443  29.003  34.169  1.00  0.00     0.049 A 
ATOM     57  H   UNL A   1      40.977  29.662  32.802  1.00  0.00     0.167 HD
ATOM     58  C   UNL A   1      42.982  27.796  32.072  1.00  0.00     0.074 A 
ATOM     59  C   UNL A   1      43.783  26.884  31.280  1.00  0.00     0.031 C 
ATOM     60  C   UNL A   1      43.222  28.091  33.372  1.00  0.00     0.037 A 
BRANCH  47  61
ATOM     61  C   UNL A   1      39.235  32.113  35.826  1.00  0.00     0.057 A 
ATOM     62  C   UNL A   1      39.676  33.419  36.070  1.00  0.00     0.134 A 
ATOM     63  C   UNL A   1      38.319  31.558  36.729  1.00  0.00     0.134 A 
ATOM     64  F   UNL A   1      40.566  34.001  35.252  1.00  0.00    -0.206 F 
ATOM     65  C   UNL A   1      39.230  34.144  37.177  1.00  0.00     0.040 A 
ATOM     66  C   UNL A   1      37.849  32.281  37.826  1.00  0.00     0.040 A 
ATOM     67  F   UNL A   1      37.856  30.313  36.551  1.00  0.00    -0.206 F 
ATOM     68  C   UNL A   1      38.306  33.577  38.054  1.00  0.00     0.006 A 
ENDBRANCH  47  61
BRANCH  48  69
ATOM     69  C   UNL A   1      41.715  27.037  27.606  1.00  0.00     0.057 A 
ATOM     70  C   UNL A   1      42.526  27.595  26.611  1.00  0.00     0.134 A 
ATOM     71  C   UNL A   1      41.268  25.724  27.414  1.00  0.00     0.134 A 
ATOM     72  F   UNL A   1      42.965  28.856  26.727  1.00  0.00    -0.206 F 
ATOM     73  C   UNL A   1      42.876  26.877  25.467  1.00  0.00     0.040 A 
ATOM     74  C   UNL A   1      41.629  24.987  26.286  1.00  0.00     0.040 A 
ATOM     75  F   UNL A   1      40.488  25.134  28.332  1.00  0.00    -0.206 F 
ATOM     76  C   UNL A   1      42.433  25.566  25.306  1.00  0.00     0.006 A 
ENDBRANCH  48  69
BRANCH  60  77
ATOM     77  C   UNL A   1      44.372  27.396  34.040  1.00  0.00     0.057 A 
ATOM     78  C   UNL A   1      44.230  26.138  34.637  1.00  0.00     0.134 A 
ATOM     79  C   UNL A   1      45.652  27.966  34.023  1.00  0.00     0.134 A 
ATOM     80  F   UNL A   1      43.030  25.543  34.692  1.00  0.00    -0.206 F 
ATOM     81  C   UNL A   1      45.319  25.478  35.210  1.00  0.00     0.040 A 
ATOM     82  C   UNL A   1      46.752  27.305  34.573  1.00  0.00     0.040 A 
ATOM     83  F   UNL A   1      45.858  29.165  33.457  1.00  0.00    -0.206 F 
ATOM     84  C   UNL A   1      46.586  26.059  35.172  1.00  0.00     0.006 A 
ENDBRANCH  60  77
ENDBRANCH  34  35
ENDBRANCH  27  29
ENDBRANCH  26  27
ENDBRANCH  25  26
ENDBRANCH   1  25
TORSDOF 15
ENDMDL
MODEL 3
REMARK VINA RESULT:      -8.7      4.146      9.636
REMARK SMILES Cc1cc2c(c(C)c1Cl)C=C(C(=O)OCCOCCOC(=O)c1ccc(-c3c4nc(c(-c5c(F)cccc5F)c5ccc([nH]5)c(-c5c(F)cccc5F)c5nc(c(-c6c(F)cccc6F)c6ccc3[nH]6)C=C5)C=C4)cc1)[C@@H](C(F)(F)F)O2
REMARK SMILES IDX 18 1 17 2 16 3 15 4 14 5 12 6 13 7 11 8 1 9 2 10 3 11 8 12
REMARK SMILES IDX 4 13 6 14 9 15 5 16 82 17 7 18 10 19 77 20 78 21 79 22 80 23
REMARK SMILES IDX 81 24 19 25 20 26 21 27 22 28 23 29 24 30 76 31 25 32 75 33
REMARK SMILES IDX 26 34 27 35 28 36 69 37 29 38 74 39 68 40 70 41 30 42 73 43
REMARK SMILES IDX 67 44 66 45 31 47 57 48 40 49 56 50 41 51 44 52 55 53 71 54
REMARK SMILES IDX 42 55 43 56 54 58 72 59 45 60 32 61 33 62 38 63 34 64 35 65
REMARK SMILES IDX 37 66 39 67 36 68 58 69 59 70 64 71 60 72 61 73 63 74 65 75
REMARK SMILES IDX 62 76 46 77 47 78 52 79 48 80 49 81 51 82 53 83 50 84
REMARK H PARENT 70 46 44 57
REMARK Flexibility Score: inf
ROOT
ATOM      1  C   UNL A   1      35.763  20.367  25.040  1.00  0.00     0.202 C 
ENDROOT
BRANCH   1   2
ATOM      2  O   UNL A   1      35.288  21.713  25.110  1.00  0.00    -0.374 OA
BRANCH   2   3
ATOM      3  C   UNL A   1      35.331  22.488  23.912  1.00  0.00     0.202 C 
BRANCH   3   4
ATOM      4  C   UNL A   1      35.159  23.997  24.091  1.00  0.00     0.261 C 
BRANCH   4   5
ATOM      5  O   UNL A   1      33.776  24.330  24.309  1.00  0.00    -0.460 OA
BRANCH   5   6
ATOM      6  C   UNL A   1      33.491  24.787  25.549  1.00  0.00     0.338 C 
ATOM      7  O   UNL A   1      33.687  24.207  26.606  1.00  0.00    -0.246 OA
BRANCH   6   8
ATOM      8  C   UNL A   1      33.009  26.178  25.469  1.00  0.00     0.087 C 
ATOM      9  C   UNL A   1      31.357  32.311  26.675  1.00  0.00     0.046 C 
ATOM     10  C   UNL A   1      32.091  31.006  26.521  1.00  0.00    -0.028 A 
ATOM     11  C   UNL A   1      31.496  30.031  25.706  1.00  0.00     0.052 A 
ATOM     12  C   UNL A   1      33.330  30.719  27.127  1.00  0.00     0.047 A 
ATOM     13  C   UNL A   1      32.067  28.770  25.558  1.00  0.00     0.128 A 
ATOM     14  C   UNL A   1      33.934  29.447  26.976  1.00  0.00    -0.021 A 
ATOM     15  Cl  UNL A   1      34.110  31.946  28.078  1.00  0.00    -0.084 Cl
ATOM     16  C   UNL A   1      33.260  28.457  26.217  1.00  0.00     0.022 A 
ATOM     17  O   UNL A   1      31.384  27.911  24.745  1.00  0.00    -0.475 OA
ATOM     18  C   UNL A   1      35.269  29.117  27.607  1.00  0.00     0.047 C 
ATOM     19  C   UNL A   1      33.735  27.079  26.143  1.00  0.00     0.027 C 
ATOM     20  C   UNL A   1      31.771  26.513  24.694  1.00  0.00     0.316 C 
BRANCH  20  21
ATOM     21  C   UNL A   1      30.559  25.664  25.108  1.00  0.00     0.430 C 
ATOM     22  F   UNL A   1      29.396  26.299  24.826  1.00  0.00    -0.167 F 
ATOM     23  F   UNL A   1      30.522  24.483  24.448  1.00  0.00    -0.167 F 
ATOM     24  F   UNL A   1      30.560  25.389  26.431  1.00  0.00    -0.167 F 
ENDBRANCH  20  21
ENDBRANCH   6   8
ENDBRANCH   5   6
ENDBRANCH   4   5
ENDBRANCH   3   4
ENDBRANCH   2   3
ENDBRANCH   1   2
BRANCH   1  25
ATOM     25  C   UNL A   1      37.257  20.185  24.752  1.00  0.00     0.261 C 
BRANCH  25  26
ATOM     26  O   UNL A   1      38.027  21.334  25.153  1.00  0.00    -0.460 OA
BRANCH  26  27
ATOM     27  C   UNL A   1      39.081  21.057  25.957  1.00  0.00     0.338 C 
ATOM     28  O   UNL A   1      39.657  19.988  26.083  1.00  0.00    -0.246 OA
BRANCH  27  29
ATOM     29  C   UNL A   1      39.586  22.298  26.573  1.00  0.00     0.060 A 
ATOM     30  C   UNL A   1      39.025  23.507  26.144  1.00  0.00     0.016 A 
ATOM     31  C   UNL A   1      40.643  22.288  27.486  1.00  0.00     0.016 A 
ATOM     32  C   UNL A   1      39.553  24.717  26.589  1.00  0.00     0.010 A 
ATOM     33  C   UNL A   1      41.179  23.504  27.921  1.00  0.00     0.010 A 
ATOM     34  C   UNL A   1      40.659  24.721  27.448  1.00  0.00    -0.014 A 
BRANCH  34  35
ATOM     35  C   UNL A   1      41.358  25.996  27.733  1.00  0.00     0.031 A 
ATOM     36  C   UNL A   1      40.637  27.069  28.499  1.00  0.00     0.074 A 
ATOM     37  C   UNL A   1      42.633  26.180  27.347  1.00  0.00     0.049 A 
ATOM     38  N   UNL A   1      41.042  28.270  28.825  1.00  0.00    -0.248 NA
ATOM     39  C   UNL A   1      39.279  26.744  28.964  1.00  0.00     0.031 C 
ATOM     40  C   UNL A   1      43.454  25.194  26.649  1.00  0.00     0.029 A 
ATOM     41  N   UNL A   1      43.457  27.267  27.490  1.00  0.00    -0.354 N 
ATOM     42  C   UNL A   1      39.994  28.841  29.535  1.00  0.00     0.074 A 
ATOM     43  C   UNL A   1      38.922  27.869  29.568  1.00  0.00     0.031 C 
ATOM     44  C   UNL A   1      44.668  25.722  26.420  1.00  0.00     0.029 A 
ATOM     45  C   UNL A   1      44.697  27.094  26.927  1.00  0.00     0.049 A 
ATOM     46  H   UNL A   1      43.185  28.094  27.950  1.00  0.00     0.167 HD
ATOM     47  C   UNL A   1      39.934  30.062  30.116  1.00  0.00     0.037 A 
ATOM     48  C   UNL A   1      45.731  27.950  26.821  1.00  0.00     0.037 A 
ATOM     49  C   UNL A   1      40.996  31.033  30.075  1.00  0.00     0.049 A 
ATOM     50  C   UNL A   1      45.610  29.334  27.399  1.00  0.00     0.074 A 
ATOM     51  C   UNL A   1      41.022  32.306  30.616  1.00  0.00     0.029 A 
ATOM     52  N   UNL A   1      42.221  30.835  29.456  1.00  0.00    -0.354 N 
ATOM     53  N   UNL A   1      44.609  29.870  28.055  1.00  0.00    -0.248 NA
ATOM     54  C   UNL A   1      46.761  30.231  27.224  1.00  0.00     0.031 C 
ATOM     55  C   UNL A   1      42.250  32.892  30.293  1.00  0.00     0.029 A 
ATOM     56  C   UNL A   1      43.006  31.968  29.591  1.00  0.00     0.049 A 
ATOM     57  H   UNL A   1      42.493  30.011  28.989  1.00  0.00     0.167 HD
ATOM     58  C   UNL A   1      45.019  31.153  28.396  1.00  0.00     0.074 A 
ATOM     59  C   UNL A   1      46.362  31.314  27.877  1.00  0.00     0.031 C 
ATOM     60  C   UNL A   1      44.344  32.109  29.079  1.00  0.00     0.037 A 
BRANCH  47  61
ATOM     61  C   UNL A   1      38.671  30.427  30.836  1.00  0.00     0.057 A 
ATOM     62  C   UNL A   1      38.518  30.202  32.209  1.00  0.00     0.134 A 
ATOM     63  C   UNL A   1      37.617  31.054  30.160  1.00  0.00     0.134 A 
ATOM     64  F   UNL A   1      39.484  29.591  32.911  1.00  0.00    -0.206 F 
ATOM     65  C   UNL A   1      37.356  30.579  32.885  1.00  0.00     0.040 A 
ATOM     66  C   UNL A   1      36.460  31.456  30.828  1.00  0.00     0.040 A 
ATOM     67  F   UNL A   1      37.701  31.300  28.845  1.00  0.00    -0.206 F 
ATOM     68  C   UNL A   1      36.326  31.217  32.194  1.00  0.00     0.006 A 
ENDBRANCH  47  61
BRANCH  48  69
ATOM     69  C   UNL A   1      46.977  27.519  26.140  1.00  0.00     0.057 A 
ATOM     70  C   UNL A   1      47.121  27.639  24.753  1.00  0.00     0.134 A 
ATOM     71  C   UNL A   1      48.053  26.983  26.858  1.00  0.00     0.134 A 
ATOM     72  F   UNL A   1      46.115  28.123  24.011  1.00  0.00    -0.206 F 
ATOM     73  C   UNL A   1      48.288  27.238  24.103  1.00  0.00     0.040 A 
ATOM     74  C   UNL A   1      49.235  26.599  26.223  1.00  0.00     0.040 A 
ATOM     75  F   UNL A   1      47.976  26.842  28.189  1.00  0.00    -0.206 F 
ATOM     76  C   UNL A   1      49.353  26.722  24.840  1.00  0.00     0.006 A 
ENDBRANCH  48  69
BRANCH  60  77
ATOM     77  C   UNL A   1      45.055  33.404  29.344  1.00  0.00     0.057 A 
ATOM     78  C   UNL A   1      44.947  34.496  28.476  1.00  0.00     0.134 A 
ATOM     79  C   UNL A   1      45.801  33.577  30.517  1.00  0.00     0.134 A 
ATOM     80  F   UNL A   1      44.254  34.392  27.334  1.00  0.00    -0.206 F 
ATOM     81  C   UNL A   1      45.571  35.714  28.759  1.00  0.00     0.040 A 
ATOM     82  C   UNL A   1      46.411  34.795  30.820  1.00  0.00     0.040 A 
ATOM     83  F   UNL A   1      45.934  32.571  31.395  1.00  0.00    -0.206 F 
ATOM     84  C   UNL A   1      46.299  35.866  29.937  1.00  0.00     0.006 A 
ENDBRANCH  60  77
ENDBRANCH  34  35
ENDBRANCH  27  29
ENDBRANCH  26  27
ENDBRANCH  25  26
ENDBRANCH   1  25
TORSDOF 15
ENDMDL
