MODEL 1
REMARK VINA RESULT:     -12.6      0.000      0.000
REMARK SMILES O=C(OCCOCCOC(=O)[C@H](c1c[nH]c2ccc(Cl)cc12)[NH+]1CCN(c2cccc(Cl)c2)CC1)c1ccc(-c2c3nc(c(-c4c(F)cccc4F)c4ccc([nH]4)c(-c4c(F)cccc4F)c4nc(c(-c5c(F)cccc5F)c5ccc2[nH]5)C=C4)C=C3)cc1
REMARK SMILES IDX 6 1 5 2 4 3 3 4 2 5 1 6 36 7 37 8 89 9 38 10 88 11 39 12
REMARK SMILES IDX 40 13 41 14 82 15 42 16 87 17 81 18 83 19 43 20 86 21 80 22
REMARK SMILES IDX 79 23 44 25 70 26 53 27 69 28 54 29 57 30 68 31 84 32 55 33
REMARK SMILES IDX 56 34 67 36 85 37 58 38 45 39 46 40 51 41 47 42 48 43 50 44
REMARK SMILES IDX 52 45 49 46 71 47 72 48 77 49 73 50 74 51 76 52 78 53 75 54
REMARK SMILES IDX 59 55 60 56 65 57 61 58 62 59 64 60 66 61 63 62 7 63 8 64
REMARK SMILES IDX 9 65 10 66 11 67 12 68 23 69 24 70 35 71 25 73 34 74 26 75
REMARK SMILES IDX 27 76 28 77 33 78 29 79 31 80 30 81 32 82 13 83 14 84 22 85
REMARK SMILES IDX 15 86 16 87 21 88 17 90 19 91 18 92 20 93
REMARK H PARENT 83 24 57 35 23 72 15 89
REMARK Flexibility Score: inf
ROOT
ATOM      1  O   UNL A   1      33.050  31.031  27.004  1.00  0.00    -0.374 OA
ENDROOT
BRANCH   1   2
ATOM      2  C   UNL A   1      31.817  31.744  26.926  1.00  0.00     0.202 C 
BRANCH   2   3
ATOM      3  C   UNL A   1      32.032  33.243  26.734  1.00  0.00     0.261 C 
BRANCH   3   4
ATOM      4  O   UNL A   1      32.182  33.897  28.002  1.00  0.00    -0.460 OA
BRANCH   4   5
ATOM      5  C   UNL A   1      33.330  34.410  28.504  1.00  0.00     0.338 C 
ATOM      6  O   UNL A   1      33.404  35.623  28.696  1.00  0.00    -0.246 OA
BRANCH   5   7
ATOM      7  C   UNL A   1      34.494  33.569  28.926  1.00  0.00     0.060 A 
ATOM      8  C   UNL A   1      34.417  32.308  29.524  1.00  0.00     0.016 A 
ATOM      9  C   UNL A   1      35.767  34.072  28.610  1.00  0.00     0.016 A 
ATOM     10  C   UNL A   1      35.544  31.569  29.817  1.00  0.00     0.010 A 
ATOM     11  C   UNL A   1      36.918  33.346  28.922  1.00  0.00     0.010 A 
ATOM     12  C   UNL A   1      36.796  32.101  29.546  1.00  0.00    -0.014 A 
BRANCH  12  13
ATOM     13  C   UNL A   1      37.926  31.418  30.178  1.00  0.00     0.031 A 
ATOM     14  C   UNL A   1      38.110  31.635  31.645  1.00  0.00     0.074 A 
ATOM     15  C   UNL A   1      38.598  30.479  29.493  1.00  0.00     0.049 A 
ATOM     16  N   UNL A   1      39.027  31.171  32.445  1.00  0.00    -0.248 NA
ATOM     17  C   UNL A   1      37.101  32.482  32.310  1.00  0.00     0.031 C 
ATOM     18  C   UNL A   1      38.317  30.079  28.112  1.00  0.00     0.029 A 
ATOM     19  N   UNL A   1      39.615  29.656  29.883  1.00  0.00    -0.354 N 
ATOM     20  C   UNL A   1      38.736  31.709  33.691  1.00  0.00     0.074 A 
ATOM     21  C   UNL A   1      37.553  32.523  33.551  1.00  0.00     0.031 C 
ATOM     22  C   UNL A   1      39.137  29.070  27.776  1.00  0.00     0.029 A 
ATOM     23  C   UNL A   1      40.040  28.810  28.889  1.00  0.00     0.049 A 
ATOM     24  H   UNL A   1      40.005  29.669  30.786  1.00  0.00     0.167 HD
ATOM     25  C   UNL A   1      39.424  31.543  34.843  1.00  0.00     0.037 A 
ATOM     26  C   UNL A   1      41.078  27.956  28.892  1.00  0.00     0.037 A 
ATOM     27  C   UNL A   1      40.594  30.715  34.926  1.00  0.00     0.049 A 
ATOM     28  C   UNL A   1      41.899  27.876  30.149  1.00  0.00     0.074 A 
ATOM     29  C   UNL A   1      41.442  30.509  35.995  1.00  0.00     0.029 A 
ATOM     30  N   UNL A   1      41.077  29.947  33.870  1.00  0.00    -0.354 N 
ATOM     31  N   UNL A   1      41.701  28.470  31.305  1.00  0.00    -0.248 NA
ATOM     32  C   UNL A   1      43.094  27.029  30.104  1.00  0.00     0.031 C 
ATOM     33  C   UNL A   1      42.469  29.659  35.568  1.00  0.00     0.029 A 
ATOM     34  C   UNL A   1      42.224  29.280  34.254  1.00  0.00     0.049 A 
ATOM     35  H   UNL A   1      40.661  29.888  32.979  1.00  0.00     0.167 HD
ATOM     36  C   UNL A   1      42.728  28.046  32.136  1.00  0.00     0.074 A 
ATOM     37  C   UNL A   1      43.540  27.137  31.347  1.00  0.00     0.031 C 
ATOM     38  C   UNL A   1      42.983  28.372  33.428  1.00  0.00     0.037 A 
BRANCH  25  39
ATOM     39  C   UNL A   1      38.982  32.365  36.018  1.00  0.00     0.057 A 
ATOM     40  C   UNL A   1      39.427  33.676  36.240  1.00  0.00     0.134 A 
ATOM     41  C   UNL A   1      38.162  31.791  36.999  1.00  0.00     0.134 A 
ATOM     42  F   UNL A   1      40.246  34.273  35.361  1.00  0.00    -0.206 F 
ATOM     43  C   UNL A   1      39.108  34.367  37.412  1.00  0.00     0.040 A 
ATOM     44  C   UNL A   1      37.814  32.482  38.160  1.00  0.00     0.040 A 
ATOM     45  F   UNL A   1      37.711  30.535  36.860  1.00  0.00    -0.206 F 
ATOM     46  C   UNL A   1      38.299  33.770  38.376  1.00  0.00     0.006 A 
ENDBRANCH  25  39
BRANCH  26  47
ATOM     47  C   UNL A   1      41.416  27.171  27.677  1.00  0.00     0.057 A 
ATOM     48  C   UNL A   1      40.986  25.850  27.516  1.00  0.00     0.134 A 
ATOM     49  C   UNL A   1      42.186  27.722  26.643  1.00  0.00     0.134 A 
ATOM     50  F   UNL A   1      40.260  25.256  28.475  1.00  0.00    -0.206 F 
ATOM     51  C   UNL A   1      41.319  25.102  26.384  1.00  0.00     0.040 A 
ATOM     52  C   UNL A   1      42.503  26.996  25.494  1.00  0.00     0.040 A 
ATOM     53  F   UNL A   1      42.633  28.984  26.728  1.00  0.00    -0.206 F 
ATOM     54  C   UNL A   1      42.076  25.678  25.366  1.00  0.00     0.006 A 
ENDBRANCH  26  47
BRANCH  38  55
ATOM     55  C   UNL A   1      44.147  27.684  34.074  1.00  0.00     0.057 A 
ATOM     56  C   UNL A   1      45.427  28.252  34.098  1.00  0.00     0.134 A 
ATOM     57  C   UNL A   1      43.964  26.456  34.719  1.00  0.00     0.134 A 
ATOM     58  F   UNL A   1      45.665  29.422  33.486  1.00  0.00    -0.206 F 
ATOM     59  C   UNL A   1      46.493  27.605  34.720  1.00  0.00     0.040 A 
ATOM     60  C   UNL A   1      45.015  25.816  35.374  1.00  0.00     0.040 A 
ATOM     61  F   UNL A   1      42.758  25.869  34.741  1.00  0.00    -0.206 F 
ATOM     62  C   UNL A   1      46.285  26.388  35.368  1.00  0.00     0.006 A 
ENDBRANCH  38  55
ENDBRANCH  12  13
ENDBRANCH   5   7
ENDBRANCH   4   5
ENDBRANCH   3   4
ENDBRANCH   2   3
ENDBRANCH   1   2
BRANCH   1  63
ATOM     63  C   UNL A   1      33.165  29.822  26.260  1.00  0.00     0.202 C 
BRANCH  63  64
ATOM     64  C   UNL A   1      33.093  28.659  27.234  1.00  0.00     0.261 C 
BRANCH  64  65
ATOM     65  O   UNL A   1      33.120  27.450  26.469  1.00  0.00    -0.459 OA
BRANCH  65  66
ATOM     66  C   UNL A   1      31.895  26.957  26.079  1.00  0.00     0.370 C 
ATOM     67  O   UNL A   1      30.906  26.872  26.803  1.00  0.00    -0.245 OA
BRANCH  66  68
ATOM     68  C   UNL A   1      32.010  26.474  24.630  1.00  0.00     0.328 C 
BRANCH  68  69
ATOM     69  N   UNL A   1      31.274  25.195  24.378  1.00  0.00    -0.316 N 
ATOM     70  C   UNL A   1      31.652  24.505  23.104  1.00  0.00     0.284 C 
ATOM     71  C   UNL A   1      31.316  24.187  25.450  1.00  0.00     0.284 C 
ATOM     72  H   UNL A   1      30.321  25.554  24.322  1.00  0.00     0.349 HD
ATOM     73  C   UNL A   1      32.949  23.623  23.116  1.00  0.00     0.178 C 
ATOM     74  C   UNL A   1      32.654  23.442  25.589  1.00  0.00     0.178 C 
ATOM     75  N   UNL A   1      33.004  22.791  24.322  1.00  0.00    -0.360 N 
BRANCH  75  76
ATOM     76  C   UNL A   1      33.991  21.822  24.461  1.00  0.00     0.038 A 
ATOM     77  C   UNL A   1      33.580  20.482  24.503  1.00  0.00     0.026 A 
ATOM     78  C   UNL A   1      35.345  22.111  24.656  1.00  0.00     0.046 A 
ATOM     79  C   UNL A   1      34.489  19.448  24.714  1.00  0.00     0.004 A 
ATOM     80  C   UNL A   1      36.258  21.073  24.875  1.00  0.00     0.043 A 
ATOM     81  C   UNL A   1      35.835  19.745  24.900  1.00  0.00     0.020 A 
ATOM     82  Cl  UNL A   1      37.922  21.432  25.141  1.00  0.00    -0.084 Cl
ENDBRANCH  75  76
ENDBRANCH  68  69
BRANCH  68  83
ATOM     83  C   UNL A   1      31.729  27.594  23.621  1.00  0.00     0.046 A 
ATOM     84  C   UNL A   1      32.635  28.195  22.757  1.00  0.00     0.094 A 
ATOM     85  C   UNL A   1      30.447  28.171  23.272  1.00  0.00     0.011 A 
ATOM     86  N   UNL A   1      32.023  29.221  22.097  1.00  0.00    -0.361 N 
ATOM     87  C   UNL A   1      30.680  29.208  22.362  1.00  0.00     0.046 A 
ATOM     88  C   UNL A   1      29.105  27.901  23.621  1.00  0.00     0.031 A 
ATOM     89  H   UNL A   1      32.480  29.873  21.519  1.00  0.00     0.166 HD
ATOM     90  C   UNL A   1      29.672  30.029  21.844  1.00  0.00     0.028 A 
ATOM     91  C   UNL A   1      28.080  28.678  23.061  1.00  0.00     0.041 A 
ATOM     92  C   UNL A   1      28.357  29.739  22.204  1.00  0.00     0.022 A 
ATOM     93  Cl  UNL A   1      26.437  28.299  23.419  1.00  0.00    -0.084 Cl
ENDBRANCH  68  83
ENDBRANCH  66  68
ENDBRANCH  65  66
ENDBRANCH  64  65
ENDBRANCH  63  64
ENDBRANCH   1  63
TORSDOF 17
ENDMDL
MODEL 2
REMARK VINA RESULT:     -12.5      1.253      2.013
REMARK SMILES O=C(OCCOCCOC(=O)[C@H](c1c[nH]c2ccc(Cl)cc12)[NH+]1CCN(c2cccc(Cl)c2)CC1)c1ccc(-c2c3nc(c(-c4c(F)cccc4F)c4ccc([nH]4)c(-c4c(F)cccc4F)c4nc(c(-c5c(F)cccc5F)c5ccc2[nH]5)C=C4)C=C3)cc1
REMARK SMILES IDX 6 1 5 2 4 3 3 4 2 5 1 6 36 7 37 8 89 9 38 10 88 11 39 12
REMARK SMILES IDX 40 13 41 14 82 15 42 16 87 17 81 18 83 19 43 20 86 21 80 22
REMARK SMILES IDX 79 23 44 25 70 26 53 27 69 28 54 29 57 30 68 31 84 32 55 33
REMARK SMILES IDX 56 34 67 36 85 37 58 38 45 39 46 40 51 41 47 42 48 43 50 44
REMARK SMILES IDX 52 45 49 46 71 47 72 48 77 49 73 50 74 51 76 52 78 53 75 54
REMARK SMILES IDX 59 55 60 56 65 57 61 58 62 59 64 60 66 61 63 62 7 63 8 64
REMARK SMILES IDX 9 65 10 66 11 67 12 68 23 69 24 70 35 71 25 73 34 74 26 75
REMARK SMILES IDX 27 76 28 77 33 78 29 79 31 80 30 81 32 82 13 83 14 84 22 85
REMARK SMILES IDX 15 86 16 87 21 88 17 90 19 91 18 92 20 93
REMARK H PARENT 83 24 57 35 23 72 15 89
REMARK Flexibility Score: inf
ROOT
ATOM      1  O   UNL A   1      31.561  30.833  26.057  1.00  0.00    -0.374 OA
ENDROOT
BRANCH   1   2
ATOM      2  C   UNL A   1      31.295  32.158  26.515  1.00  0.00     0.202 C 
BRANCH   2   3
ATOM      3  C   UNL A   1      32.491  32.762  27.248  1.00  0.00     0.261 C 
BRANCH   3   4
ATOM      4  O   UNL A   1      32.195  34.099  27.676  1.00  0.00    -0.460 OA
BRANCH   4   5
ATOM      5  C   UNL A   1      32.944  34.851  28.518  1.00  0.00     0.338 C 
ATOM      6  O   UNL A   1      32.547  35.976  28.820  1.00  0.00    -0.246 OA
BRANCH   5   7
ATOM      7  C   UNL A   1      34.192  34.354  29.177  1.00  0.00     0.060 A 
ATOM      8  C   UNL A   1      35.492  34.513  28.690  1.00  0.00     0.016 A 
ATOM      9  C   UNL A   1      34.029  33.749  30.434  1.00  0.00     0.016 A 
ATOM     10  C   UNL A   1      36.595  34.084  29.398  1.00  0.00     0.010 A 
ATOM     11  C   UNL A   1      35.133  33.288  31.153  1.00  0.00     0.010 A 
ATOM     12  C   UNL A   1      36.414  33.442  30.615  1.00  0.00    -0.014 A 
BRANCH  12  13
ATOM     13  C   UNL A   1      37.583  32.733  31.138  1.00  0.00     0.031 A 
ATOM     14  C   UNL A   1      38.062  33.132  32.496  1.00  0.00     0.074 A 
ATOM     15  C   UNL A   1      38.031  31.638  30.503  1.00  0.00     0.049 A 
ATOM     16  N   UNL A   1      39.074  32.686  33.185  1.00  0.00    -0.248 NA
ATOM     17  C   UNL A   1      37.273  34.171  33.186  1.00  0.00     0.031 C 
ATOM     18  C   UNL A   1      37.459  31.082  29.274  1.00  0.00     0.029 A 
ATOM     19  N   UNL A   1      39.032  30.771  30.833  1.00  0.00    -0.354 N 
ATOM     20  C   UNL A   1      39.072  33.423  34.362  1.00  0.00     0.074 A 
ATOM     21  C   UNL A   1      37.956  34.336  34.305  1.00  0.00     0.031 C 
ATOM     22  C   UNL A   1      38.112  29.951  28.963  1.00  0.00     0.029 A 
ATOM     23  C   UNL A   1      39.187  29.751  29.926  1.00  0.00     0.049 A 
ATOM     24  H   UNL A   1      39.587  30.866  31.639  1.00  0.00     0.167 HD
ATOM     25  C   UNL A   1      39.951  33.345  35.385  1.00  0.00     0.037 A 
ATOM     26  C   UNL A   1      40.131  28.796  29.882  1.00  0.00     0.037 A 
ATOM     27  C   UNL A   1      41.043  32.412  35.390  1.00  0.00     0.049 A 
ATOM     28  C   UNL A   1      41.168  28.802  30.970  1.00  0.00     0.074 A 
ATOM     29  C   UNL A   1      42.060  32.265  36.313  1.00  0.00     0.029 A 
ATOM     30  N   UNL A   1      41.249  31.454  34.402  1.00  0.00    -0.354 N 
ATOM     31  N   UNL A   1      41.245  29.571  32.034  1.00  0.00    -0.248 NA
ATOM     32  C   UNL A   1      42.258  27.830  30.850  1.00  0.00     0.031 C 
ATOM     33  C   UNL A   1      42.911  31.254  35.851  1.00  0.00     0.029 A 
ATOM     34  C   UNL A   1      42.389  30.724  34.678  1.00  0.00     0.049 A 
ATOM     35  H   UNL A   1      40.667  31.317  33.619  1.00  0.00     0.167 HD
ATOM     36  C   UNL A   1      42.373  29.157  32.727  1.00  0.00     0.074 A 
ATOM     37  C   UNL A   1      42.941  28.061  31.962  1.00  0.00     0.031 C 
ATOM     38  C   UNL A   1      42.897  29.630  33.886  1.00  0.00     0.037 A 
BRANCH  25  39
ATOM     39  C   UNL A   1      39.812  34.368  36.475  1.00  0.00     0.057 A 
ATOM     40  C   UNL A   1      40.422  35.629  36.415  1.00  0.00     0.134 A 
ATOM     41  C   UNL A   1      39.127  34.040  37.652  1.00  0.00     0.134 A 
ATOM     42  F   UNL A   1      41.128  35.993  35.334  1.00  0.00    -0.206 F 
ATOM     43  C   UNL A   1      40.389  36.507  37.502  1.00  0.00     0.040 A 
ATOM     44  C   UNL A   1      39.063  34.921  38.732  1.00  0.00     0.040 A 
ATOM     45  F   UNL A   1      38.532  32.845  37.783  1.00  0.00    -0.206 F 
ATOM     46  C   UNL A   1      39.708  36.154  38.665  1.00  0.00     0.006 A 
ENDBRANCH  25  39
BRANCH  26  47
ATOM     47  C   UNL A   1      40.164  27.815  28.765  1.00  0.00     0.057 A 
ATOM     48  C   UNL A   1      40.835  28.092  27.570  1.00  0.00     0.134 A 
ATOM     49  C   UNL A   1      39.518  26.575  28.864  1.00  0.00     0.134 A 
ATOM     50  F   UNL A   1      41.459  29.267  27.402  1.00  0.00    -0.206 F 
ATOM     51  C   UNL A   1      40.850  27.181  26.510  1.00  0.00     0.040 A 
ATOM     52  C   UNL A   1      39.549  25.644  27.824  1.00  0.00     0.040 A 
ATOM     53  F   UNL A   1      38.855  26.242  29.982  1.00  0.00    -0.206 F 
ATOM     54  C   UNL A   1      40.210  25.950  26.639  1.00  0.00     0.006 A 
ENDBRANCH  26  47
BRANCH  38  55
ATOM     55  C   UNL A   1      44.102  28.915  34.416  1.00  0.00     0.057 A 
ATOM     56  C   UNL A   1      43.996  27.797  35.252  1.00  0.00     0.134 A 
ATOM     57  C   UNL A   1      45.384  29.332  34.042  1.00  0.00     0.134 A 
ATOM     58  F   UNL A   1      42.794  27.358  35.653  1.00  0.00    -0.206 F 
ATOM     59  C   UNL A   1      45.129  27.134  35.720  1.00  0.00     0.040 A 
ATOM     60  C   UNL A   1      46.524  28.658  34.476  1.00  0.00     0.040 A 
ATOM     61  F   UNL A   1      45.549  30.390  33.233  1.00  0.00    -0.206 F 
ATOM     62  C   UNL A   1      46.397  27.560  35.324  1.00  0.00     0.006 A 
ENDBRANCH  38  55
ENDBRANCH  12  13
ENDBRANCH   5   7
ENDBRANCH   4   5
ENDBRANCH   3   4
ENDBRANCH   2   3
ENDBRANCH   1   2
BRANCH   1  63
ATOM     63  C   UNL A   1      32.706  30.168  26.580  1.00  0.00     0.202 C 
BRANCH  63  64
ATOM     64  C   UNL A   1      32.240  28.897  27.271  1.00  0.00     0.261 C 
BRANCH  64  65
ATOM     65  O   UNL A   1      31.742  28.013  26.262  1.00  0.00    -0.459 OA
BRANCH  65  66
ATOM     66  C   UNL A   1      32.629  27.069  25.798  1.00  0.00     0.370 C 
ATOM     67  O   UNL A   1      33.671  26.742  26.361  1.00  0.00    -0.245 OA
BRANCH  66  68
ATOM     68  C   UNL A   1      32.128  26.566  24.440  1.00  0.00     0.328 C 
BRANCH  68  69
ATOM     69  N   UNL A   1      31.093  25.491  24.559  1.00  0.00    -0.316 N 
ATOM     70  C   UNL A   1      30.953  24.629  23.342  1.00  0.00     0.284 C 
ATOM     71  C   UNL A   1      31.205  24.592  25.720  1.00  0.00     0.284 C 
ATOM     72  H   UNL A   1      30.261  26.067  24.687  1.00  0.00     0.349 HD
ATOM     73  C   UNL A   1      31.983  23.460  23.161  1.00  0.00     0.178 C 
ATOM     74  C   UNL A   1      32.336  23.555  25.631  1.00  0.00     0.178 C 
ATOM     75  N   UNL A   1      32.181  22.739  24.422  1.00  0.00    -0.360 N 
BRANCH  75  76
ATOM     76  C   UNL A   1      32.935  21.572  24.451  1.00  0.00     0.038 A 
ATOM     77  C   UNL A   1      32.247  20.354  24.357  1.00  0.00     0.026 A 
ATOM     78  C   UNL A   1      34.317  21.541  24.664  1.00  0.00     0.046 A 
ATOM     79  C   UNL A   1      32.909  19.133  24.452  1.00  0.00     0.004 A 
ATOM     80  C   UNL A   1      34.983  20.315  24.766  1.00  0.00     0.043 A 
ATOM     81  C   UNL A   1      34.285  19.113  24.657  1.00  0.00     0.020 A 
ATOM     82  Cl  UNL A   1      36.682  20.279  25.054  1.00  0.00    -0.084 Cl
ENDBRANCH  75  76
ENDBRANCH  68  69
BRANCH  68  83
ATOM     83  C   UNL A   1      31.762  27.716  23.494  1.00  0.00     0.046 A 
ATOM     84  C   UNL A   1      32.611  28.400  22.634  1.00  0.00     0.094 A 
ATOM     85  C   UNL A   1      30.445  28.245  23.210  1.00  0.00     0.011 A 
ATOM     86  N   UNL A   1      31.932  29.424  22.041  1.00  0.00    -0.361 N 
ATOM     87  C   UNL A   1      30.600  29.333  22.344  1.00  0.00     0.046 A 
ATOM     88  C   UNL A   1      29.128  27.895  23.585  1.00  0.00     0.031 A 
ATOM     89  H   UNL A   1      32.339  30.123  21.481  1.00  0.00     0.166 HD
ATOM     90  C   UNL A   1      29.538  30.128  21.895  1.00  0.00     0.028 A 
ATOM     91  C   UNL A   1      28.051  28.647  23.093  1.00  0.00     0.041 A 
ATOM     92  C   UNL A   1      28.250  29.758  22.280  1.00  0.00     0.022 A 
ATOM     93  Cl  UNL A   1      26.440  28.172  23.480  1.00  0.00    -0.084 Cl
ENDBRANCH  68  83
ENDBRANCH  66  68
ENDBRANCH  65  66
ENDBRANCH  64  65
ENDBRANCH  63  64
ENDBRANCH   1  63
TORSDOF 17
ENDMDL
MODEL 3
REMARK VINA RESULT:     -12.5      4.742     10.186
REMARK SMILES O=C(OCCOCCOC(=O)[C@H](c1c[nH]c2ccc(Cl)cc12)[NH+]1CCN(c2cccc(Cl)c2)CC1)c1ccc(-c2c3nc(c(-c4c(F)cccc4F)c4ccc([nH]4)c(-c4c(F)cccc4F)c4nc(c(-c5c(F)cccc5F)c5ccc2[nH]5)C=C4)C=C3)cc1
REMARK SMILES IDX 6 1 5 2 4 3 3 4 2 5 1 6 36 7 37 8 89 9 38 10 88 11 39 12
REMARK SMILES IDX 40 13 41 14 82 15 42 16 87 17 81 18 83 19 43 20 86 21 80 22
REMARK SMILES IDX 79 23 44 25 70 26 53 27 69 28 54 29 57 30 68 31 84 32 55 33
REMARK SMILES IDX 56 34 67 36 85 37 58 38 45 39 46 40 51 41 47 42 48 43 50 44
REMARK SMILES IDX 52 45 49 46 71 47 72 48 77 49 73 50 74 51 76 52 78 53 75 54
REMARK SMILES IDX 59 55 60 56 65 57 61 58 62 59 64 60 66 61 63 62 7 63 8 64
REMARK SMILES IDX 9 65 10 66 11 67 12 68 23 69 24 70 35 71 25 73 34 74 26 75
REMARK SMILES IDX 27 76 28 77 33 78 29 79 31 80 30 81 32 82 13 83 14 84 22 85
REMARK SMILES IDX 15 86 16 87 21 88 17 90 19 91 18 92 20 93
REMARK H PARENT 83 24 57 35 23 72 15 89
REMARK Flexibility Score: inf
ROOT
ATOM      1  O   UNL A   1      36.795  20.496  25.016  1.00  0.00    -0.374 OA
ENDROOT
BRANCH   1   2
ATOM      2  C   UNL A   1      37.879  19.569  24.966  1.00  0.00     0.202 C 
BRANCH   2   3
ATOM      3  C   UNL A   1      39.112  20.090  25.701  1.00  0.00     0.261 C 
BRANCH   3   4
ATOM      4  O   UNL A   1      40.218  19.193  25.525  1.00  0.00    -0.460 OA
BRANCH   4   5
ATOM      5  C   UNL A   1      41.461  19.348  26.041  1.00  0.00     0.338 C 
ATOM      6  O   UNL A   1      42.206  18.370  26.099  1.00  0.00    -0.246 OA
BRANCH   5   7
ATOM      7  C   UNL A   1      42.016  20.671  26.468  1.00  0.00     0.060 A 
ATOM      8  C   UNL A   1      42.221  21.085  27.786  1.00  0.00     0.016 A 
ATOM      9  C   UNL A   1      42.440  21.525  25.436  1.00  0.00     0.016 A 
ATOM     10  C   UNL A   1      42.804  22.297  28.089  1.00  0.00     0.010 A 
ATOM     11  C   UNL A   1      43.011  22.765  25.726  1.00  0.00     0.010 A 
ATOM     12  C   UNL A   1      43.171  23.151  27.060  1.00  0.00    -0.014 A 
BRANCH  12  13
ATOM     13  C   UNL A   1      43.469  24.529  27.455  1.00  0.00     0.031 A 
ATOM     14  C   UNL A   1      44.866  25.009  27.223  1.00  0.00     0.074 A 
ATOM     15  C   UNL A   1      42.464  25.354  27.790  1.00  0.00     0.049 A 
ATOM     16  N   UNL A   1      45.402  26.165  27.492  1.00  0.00    -0.248 NA
ATOM     17  C   UNL A   1      45.784  24.053  26.575  1.00  0.00     0.031 C 
ATOM     18  C   UNL A   1      41.047  24.985  27.829  1.00  0.00     0.029 A 
ATOM     19  N   UNL A   1      42.476  26.681  28.108  1.00  0.00    -0.354 N 
ATOM     20  C   UNL A   1      46.728  26.057  27.095  1.00  0.00     0.074 A 
ATOM     21  C   UNL A   1      46.917  24.733  26.555  1.00  0.00     0.031 C 
ATOM     22  C   UNL A   1      40.322  26.072  28.137  1.00  0.00     0.029 A 
ATOM     23  C   UNL A   1      41.230  27.184  28.387  1.00  0.00     0.049 A 
ATOM     24  H   UNL A   1      43.297  27.223  28.135  1.00  0.00     0.167 HD
ATOM     25  C   UNL A   1      47.699  26.992  27.200  1.00  0.00     0.037 A 
ATOM     26  C   UNL A   1      40.891  28.405  28.834  1.00  0.00     0.037 A 
ATOM     27  C   UNL A   1      47.452  28.299  27.742  1.00  0.00     0.049 A 
ATOM     28  C   UNL A   1      42.006  29.390  29.054  1.00  0.00     0.074 A 
ATOM     29  C   UNL A   1      48.344  29.324  27.985  1.00  0.00     0.029 A 
ATOM     30  N   UNL A   1      46.194  28.754  28.124  1.00  0.00    -0.354 N 
ATOM     31  N   UNL A   1      43.287  29.262  28.789  1.00  0.00    -0.248 NA
ATOM     32  C   UNL A   1      41.640  30.679  29.649  1.00  0.00     0.031 C 
ATOM     33  C   UNL A   1      47.632  30.379  28.568  1.00  0.00     0.029 A 
ATOM     34  C   UNL A   1      46.287  30.039  28.624  1.00  0.00     0.049 A 
ATOM     35  H   UNL A   1      45.360  28.236  28.050  1.00  0.00     0.167 HD
ATOM     36  C   UNL A   1      43.878  30.462  29.156  1.00  0.00     0.074 A 
ATOM     37  C   UNL A   1      42.807  31.307  29.654  1.00  0.00     0.031 C 
ATOM     38  C   UNL A   1      45.179  30.839  29.091  1.00  0.00     0.037 A 
BRANCH  25  39
ATOM     39  C   UNL A   1      49.090  26.564  26.835  1.00  0.00     0.057 A 
ATOM     40  C   UNL A   1      49.644  26.779  25.565  1.00  0.00     0.134 A 
ATOM     41  C   UNL A   1      49.857  25.834  27.754  1.00  0.00     0.134 A 
ATOM     42  F   UNL A   1      48.950  27.436  24.623  1.00  0.00    -0.206 F 
ATOM     43  C   UNL A   1      50.888  26.250  25.212  1.00  0.00     0.040 A 
ATOM     44  C   UNL A   1      51.112  25.325  27.421  1.00  0.00     0.040 A 
ATOM     45  F   UNL A   1      49.383  25.577  28.983  1.00  0.00    -0.206 F 
ATOM     46  C   UNL A   1      51.626  25.520  26.142  1.00  0.00     0.006 A 
ENDBRANCH  25  39
BRANCH  26  47
ATOM     47  C   UNL A   1      39.475  28.732  29.144  1.00  0.00     0.057 A 
ATOM     48  C   UNL A   1      38.632  29.306  28.187  1.00  0.00     0.134 A 
ATOM     49  C   UNL A   1      38.929  28.485  30.411  1.00  0.00     0.134 A 
ATOM     50  F   UNL A   1      39.094  29.586  26.960  1.00  0.00    -0.206 F 
ATOM     51  C   UNL A   1      37.306  29.635  28.481  1.00  0.00     0.040 A 
ATOM     52  C   UNL A   1      37.599  28.781  30.711  1.00  0.00     0.040 A 
ATOM     53  F   UNL A   1      39.680  27.935  31.378  1.00  0.00    -0.206 F 
ATOM     54  C   UNL A   1      36.785  29.367  29.745  1.00  0.00     0.006 A 
ENDBRANCH  26  47
BRANCH  38  55
ATOM     55  C   UNL A   1      45.491  32.244  29.508  1.00  0.00     0.057 A 
ATOM     56  C   UNL A   1      45.879  32.564  30.814  1.00  0.00     0.134 A 
ATOM     57  C   UNL A   1      45.442  33.280  28.568  1.00  0.00     0.134 A 
ATOM     58  F   UNL A   1      45.932  31.615  31.761  1.00  0.00    -0.206 F 
ATOM     59  C   UNL A   1      46.183  33.875  31.178  1.00  0.00     0.040 A 
ATOM     60  C   UNL A   1      45.776  34.589  28.911  1.00  0.00     0.040 A 
ATOM     61  F   UNL A   1      45.089  33.033  27.298  1.00  0.00    -0.206 F 
ATOM     62  C   UNL A   1      46.140  34.889  30.222  1.00  0.00     0.006 A 
ENDBRANCH  38  55
ENDBRANCH  12  13
ENDBRANCH   5   7
ENDBRANCH   4   5
ENDBRANCH   3   4
ENDBRANCH   2   3
ENDBRANCH   1   2
BRANCH   1  63
ATOM     63  C   UNL A   1      37.108  21.874  25.188  1.00  0.00     0.202 C 
BRANCH  63  64
ATOM     64  C   UNL A   1      36.919  22.572  23.852  1.00  0.00     0.261 C 
BRANCH  64  65
ATOM     65  O   UNL A   1      35.942  23.601  24.035  1.00  0.00    -0.459 OA
BRANCH  65  66
ATOM     66  C   UNL A   1      34.686  23.333  23.542  1.00  0.00     0.370 C 
ATOM     67  O   UNL A   1      34.423  23.113  22.362  1.00  0.00    -0.245 OA
BRANCH  66  68
ATOM     68  C   UNL A   1      33.685  23.434  24.697  1.00  0.00     0.328 C 
BRANCH  68  69
ATOM     69  N   UNL A   1      32.437  24.175  24.328  1.00  0.00    -0.316 N 
ATOM     70  C   UNL A   1      31.573  24.549  25.492  1.00  0.00     0.284 C 
ATOM     71  C   UNL A   1      32.605  25.383  23.504  1.00  0.00     0.284 C 
ATOM     72  H   UNL A   1      31.979  23.466  23.756  1.00  0.00     0.349 HD
ATOM     73  C   UNL A   1      31.963  25.836  26.300  1.00  0.00     0.178 C 
ATOM     74  C   UNL A   1      33.164  26.605  24.250  1.00  0.00     0.178 C 
ATOM     75  N   UNL A   1      32.306  26.936  25.393  1.00  0.00    -0.360 N 
BRANCH  75  76
ATOM     76  C   UNL A   1      32.533  28.213  25.894  1.00  0.00     0.038 A 
ATOM     77  C   UNL A   1      33.618  28.382  26.767  1.00  0.00     0.026 A 
ATOM     78  C   UNL A   1      31.692  29.305  25.656  1.00  0.00     0.046 A 
ATOM     79  C   UNL A   1      33.877  29.606  27.377  1.00  0.00     0.004 A 
ATOM     80  C   UNL A   1      31.949  30.533  26.274  1.00  0.00     0.043 A 
ATOM     81  C   UNL A   1      33.039  30.689  27.128  1.00  0.00     0.020 A 
ATOM     82  Cl  UNL A   1      30.897  31.871  26.000  1.00  0.00    -0.084 Cl
ENDBRANCH  75  76
ENDBRANCH  68  69
BRANCH  68  83
ATOM     83  C   UNL A   1      33.457  22.083  25.387  1.00  0.00     0.046 A 
ATOM     84  C   UNL A   1      33.427  21.832  26.752  1.00  0.00     0.094 A 
ATOM     85  C   UNL A   1      33.107  20.821  24.770  1.00  0.00     0.011 A 
ATOM     86  N   UNL A   1      33.307  20.489  26.965  1.00  0.00    -0.361 N 
ATOM     87  C   UNL A   1      33.073  19.850  25.777  1.00  0.00     0.046 A 
ATOM     88  C   UNL A   1      32.793  20.407  23.456  1.00  0.00     0.031 A 
ATOM     89  H   UNL A   1      33.380  20.047  27.841  1.00  0.00     0.166 HD
ATOM     90  C   UNL A   1      32.820  18.494  25.541  1.00  0.00     0.028 A 
ATOM     91  C   UNL A   1      32.478  19.061  23.217  1.00  0.00     0.041 A 
ATOM     92  C   UNL A   1      32.511  18.114  24.236  1.00  0.00     0.022 A 
ATOM     93  Cl  UNL A   1      32.013  18.569  21.632  1.00  0.00    -0.084 Cl
ENDBRANCH  68  83
ENDBRANCH  66  68
ENDBRANCH  65  66
ENDBRANCH  64  65
ENDBRANCH  63  64
ENDBRANCH   1  63
TORSDOF 17
ENDMDL
