MODEL 1
REMARK VINA RESULT:     -11.1      0.000      0.000
REMARK SMILES CCc1cc(OC(F)(F)F)cc2c1O[C@H](C(F)(F)F)C(C(=O)OCCOCCOC(=O)c1ccc(-c3c4nc(c(-c5c(F)cccc5F)c5ccc([nH]5)c(-c5c(F)cccc5F)c5nc(c(-c6c(F)cccc6F)c6ccc3[nH]6)C=C5)C=C4)cc1)=C2
REMARK SMILES IDX 26 1 25 2 24 3 23 4 21 5 22 6 20 7 3 8 4 9 13 10 5 11 12 12
REMARK SMILES IDX 14 13 11 14 86 15 15 16 2 17 1 18 6 19 7 20 8 21 9 22 10 23
REMARK SMILES IDX 16 24 17 25 18 26 19 27 27 28 28 29 29 30 30 31 31 32 32 33
REMARK SMILES IDX 33 34 85 35 34 36 84 37 35 38 36 39 37 40 78 41 38 42 83 43
REMARK SMILES IDX 77 44 79 45 39 46 82 47 76 48 75 49 40 51 66 52 49 53 65 54
REMARK SMILES IDX 50 55 53 56 64 57 80 58 51 59 52 60 63 62 81 63 54 64 41 65
REMARK SMILES IDX 42 66 47 67 43 68 44 69 46 70 48 71 45 72 67 73 68 74 73 75
REMARK SMILES IDX 69 76 70 77 72 78 74 79 71 80 55 81 56 82 61 83 57 84 58 85
REMARK SMILES IDX 60 86 62 87 59 88
REMARK H PARENT 79 50 53 61
REMARK Flexibility Score: inf
ROOT
ATOM      1  O   UNL A   1      40.590  21.510  26.702  1.00  0.00    -0.374 OA
ENDROOT
BRANCH   1   2
ATOM      2  C   UNL A   1      39.404  21.363  25.926  1.00  0.00     0.202 C 
BRANCH   2   3
ATOM      3  C   UNL A   1      38.413  22.529  25.956  1.00  0.00     0.261 C 
BRANCH   3   4
ATOM      4  O   UNL A   1      37.412  22.411  24.926  1.00  0.00    -0.460 OA
BRANCH   4   5
ATOM      5  C   UNL A   1      36.170  22.130  25.382  1.00  0.00     0.338 C 
ATOM      6  O   UNL A   1      35.865  21.198  26.111  1.00  0.00    -0.246 OA
BRANCH   5   7
ATOM      7  C   UNL A   1      35.188  23.164  25.002  1.00  0.00     0.087 C 
ATOM      8  C   UNL A   1      33.252  26.336  23.101  1.00  0.00    -0.002 A 
ATOM      9  C   UNL A   1      32.571  27.280  23.893  1.00  0.00     0.054 A 
ATOM     10  C   UNL A   1      33.912  25.295  23.762  1.00  0.00     0.131 A 
ATOM     11  C   UNL A   1      32.571  27.203  25.290  1.00  0.00     0.130 A 
ATOM     12  C   UNL A   1      33.942  25.204  25.168  1.00  0.00     0.021 A 
ATOM     13  O   UNL A   1      34.589  24.388  22.997  1.00  0.00    -0.475 OA
ATOM     14  C   UNL A   1      33.256  26.158  25.923  1.00  0.00     0.058 A 
ATOM     15  C   UNL A   1      34.776  24.165  25.797  1.00  0.00     0.027 C 
ATOM     16  C   UNL A   1      34.711  23.075  23.574  1.00  0.00     0.316 C 
BRANCH   8  17
ATOM     17  C   UNL A   1      33.203  26.539  21.597  1.00  0.00     0.036 C 
ATOM     18  C   UNL A   1      32.387  25.590  20.725  1.00  0.00     0.009 C 
ENDBRANCH   8  17
BRANCH  11  19
ATOM     19  O   UNL A   1      31.954  28.081  26.137  1.00  0.00    -0.406 OA
BRANCH  19  20
ATOM     20  C   UNL A   1      32.759  29.078  26.751  1.00  0.00     0.573 C 
ATOM     21  F   UNL A   1      33.425  28.582  27.817  1.00  0.00    -0.132 F 
ATOM     22  F   UNL A   1      33.641  29.598  25.871  1.00  0.00    -0.132 F 
ATOM     23  F   UNL A   1      31.960  30.077  27.184  1.00  0.00    -0.132 F 
ENDBRANCH  19  20
ENDBRANCH  11  19
BRANCH  16  24
ATOM     24  C   UNL A   1      33.412  22.260  23.423  1.00  0.00     0.430 C 
ATOM     25  F   UNL A   1      33.621  20.921  23.453  1.00  0.00    -0.167 F 
ATOM     26  F   UNL A   1      32.515  22.544  24.399  1.00  0.00    -0.167 F 
ATOM     27  F   UNL A   1      32.800  22.531  22.246  1.00  0.00    -0.167 F 
ENDBRANCH  16  24
ENDBRANCH   5   7
ENDBRANCH   4   5
ENDBRANCH   3   4
ENDBRANCH   2   3
ENDBRANCH   1   2
BRANCH   1  28
ATOM     28  C   UNL A   1      41.753  20.809  26.267  1.00  0.00     0.202 C 
BRANCH  28  29
ATOM     29  C   UNL A   1      42.920  21.651  25.742  1.00  0.00     0.261 C 
BRANCH  29  30
ATOM     30  O   UNL A   1      42.465  22.854  25.102  1.00  0.00    -0.460 OA
BRANCH  30  31
ATOM     31  C   UNL A   1      43.284  23.918  25.261  1.00  0.00     0.338 C 
ATOM     32  O   UNL A   1      44.336  24.141  24.673  1.00  0.00    -0.246 OA
BRANCH  31  33
ATOM     33  C   UNL A   1      42.647  24.916  26.135  1.00  0.00     0.060 A 
ATOM     34  C   UNL A   1      43.353  26.101  26.377  1.00  0.00     0.016 A 
ATOM     35  C   UNL A   1      41.417  24.682  26.754  1.00  0.00     0.016 A 
ATOM     36  C   UNL A   1      42.862  27.032  27.286  1.00  0.00     0.010 A 
ATOM     37  C   UNL A   1      40.928  25.614  27.675  1.00  0.00     0.010 A 
ATOM     38  C   UNL A   1      41.668  26.772  27.972  1.00  0.00    -0.014 A 
BRANCH  38  39
ATOM     39  C   UNL A   1      41.286  27.642  29.109  1.00  0.00     0.031 A 
ATOM     40  C   UNL A   1      42.057  27.538  30.395  1.00  0.00     0.074 A 
ATOM     41  C   UNL A   1      40.298  28.544  28.981  1.00  0.00     0.049 A 
ATOM     42  N   UNL A   1      41.899  28.199  31.513  1.00  0.00    -0.248 NA
ATOM     43  C   UNL A   1      43.156  26.559  30.423  1.00  0.00     0.031 C 
ATOM     44  C   UNL A   1      39.505  28.764  27.772  1.00  0.00     0.029 A 
ATOM     45  N   UNL A   1      39.794  29.445  29.883  1.00  0.00    -0.354 N 
ATOM     46  C   UNL A   1      42.873  27.715  32.377  1.00  0.00     0.074 A 
ATOM     47  C   UNL A   1      43.597  26.684  31.666  1.00  0.00     0.031 C 
ATOM     48  C   UNL A   1      38.607  29.734  28.012  1.00  0.00     0.029 A 
ATOM     49  C   UNL A   1      38.746  30.185  29.395  1.00  0.00     0.049 A 
ATOM     50  H   UNL A   1      40.150  29.551  30.796  1.00  0.00     0.167 HD
ATOM     51  C   UNL A   1      43.147  28.104  33.645  1.00  0.00     0.037 A 
ATOM     52  C   UNL A   1      37.979  31.109  30.004  1.00  0.00     0.037 A 
ATOM     53  C   UNL A   1      42.426  29.130  34.350  1.00  0.00     0.049 A 
ATOM     54  C   UNL A   1      38.259  31.476  31.436  1.00  0.00     0.074 A 
ATOM     55  C   UNL A   1      42.638  29.609  35.631  1.00  0.00     0.029 A 
ATOM     56  N   UNL A   1      41.348  29.833  33.834  1.00  0.00    -0.354 N 
ATOM     57  N   UNL A   1      39.200  31.032  32.235  1.00  0.00    -0.248 NA
ATOM     58  C   UNL A   1      37.372  32.474  32.051  1.00  0.00     0.031 C 
ATOM     59  C   UNL A   1      41.660  30.570  35.906  1.00  0.00     0.029 A 
ATOM     60  C   UNL A   1      40.868  30.723  34.779  1.00  0.00     0.049 A 
ATOM     61  H   UNL A   1      40.978  29.716  32.929  1.00  0.00     0.167 HD
ATOM     62  C   UNL A   1      39.036  31.715  33.434  1.00  0.00     0.074 A 
ATOM     63  C   UNL A   1      37.913  32.611  33.254  1.00  0.00     0.031 C 
ATOM     64  C   UNL A   1      39.751  31.612  34.581  1.00  0.00     0.037 A 
BRANCH  51  65
ATOM     65  C   UNL A   1      44.263  27.399  34.357  1.00  0.00     0.057 A 
ATOM     66  C   UNL A   1      45.569  27.906  34.368  1.00  0.00     0.134 A 
ATOM     67  C   UNL A   1      44.021  26.214  35.063  1.00  0.00     0.134 A 
ATOM     68  F   UNL A   1      45.869  29.028  33.698  1.00  0.00    -0.206 F 
ATOM     69  C   UNL A   1      46.600  27.247  35.041  1.00  0.00     0.040 A 
ATOM     70  C   UNL A   1      45.039  25.560  35.758  1.00  0.00     0.040 A 
ATOM     71  F   UNL A   1      42.792  25.677  35.093  1.00  0.00    -0.206 F 
ATOM     72  C   UNL A   1      46.335  26.074  35.744  1.00  0.00     0.006 A 
ENDBRANCH  51  65
BRANCH  52  73
ATOM     73  C   UNL A   1      36.862  31.750  29.266  1.00  0.00     0.057 A 
ATOM     74  C   UNL A   1      35.671  31.060  29.011  1.00  0.00     0.134 A 
ATOM     75  C   UNL A   1      36.967  33.059  28.780  1.00  0.00     0.134 A 
ATOM     76  F   UNL A   1      35.520  29.796  29.431  1.00  0.00    -0.206 F 
ATOM     77  C   UNL A   1      34.630  31.642  28.284  1.00  0.00     0.040 A 
ATOM     78  C   UNL A   1      35.926  33.662  28.073  1.00  0.00     0.040 A 
ATOM     79  F   UNL A   1      38.082  33.772  28.993  1.00  0.00    -0.206 F 
ATOM     80  C   UNL A   1      34.756  32.950  27.817  1.00  0.00     0.006 A 
ENDBRANCH  52  73
BRANCH  64  81
ATOM     81  C   UNL A   1      39.362  32.510  35.718  1.00  0.00     0.057 A 
ATOM     82  C   UNL A   1      39.920  33.784  35.878  1.00  0.00     0.134 A 
ATOM     83  C   UNL A   1      38.389  32.108  36.643  1.00  0.00     0.134 A 
ATOM     84  F   UNL A   1      40.865  34.224  35.034  1.00  0.00    -0.206 F 
ATOM     85  C   UNL A   1      39.537  34.620  36.929  1.00  0.00     0.040 A 
ATOM     86  C   UNL A   1      37.982  32.943  37.683  1.00  0.00     0.040 A 
ATOM     87  F   UNL A   1      37.810  30.902  36.541  1.00  0.00    -0.206 F 
ATOM     88  C   UNL A   1      38.560  34.203  37.830  1.00  0.00     0.006 A 
ENDBRANCH  64  81
ENDBRANCH  38  39
ENDBRANCH  31  33
ENDBRANCH  30  31
ENDBRANCH  29  30
ENDBRANCH  28  29
ENDBRANCH   1  28
TORSDOF 18
ENDMDL
MODEL 2
REMARK VINA RESULT:     -11.0      0.669      5.968
REMARK SMILES CCc1cc(OC(F)(F)F)cc2c1O[C@H](C(F)(F)F)C(C(=O)OCCOCCOC(=O)c1ccc(-c3c4nc(c(-c5c(F)cccc5F)c5ccc([nH]5)c(-c5c(F)cccc5F)c5nc(c(-c6c(F)cccc6F)c6ccc3[nH]6)C=C5)C=C4)cc1)=C2
REMARK SMILES IDX 26 1 25 2 24 3 23 4 21 5 22 6 20 7 3 8 4 9 13 10 5 11 12 12
REMARK SMILES IDX 14 13 11 14 86 15 15 16 2 17 1 18 6 19 7 20 8 21 9 22 10 23
REMARK SMILES IDX 16 24 17 25 18 26 19 27 27 28 28 29 29 30 30 31 31 32 32 33
REMARK SMILES IDX 33 34 85 35 34 36 84 37 35 38 36 39 37 40 78 41 38 42 83 43
REMARK SMILES IDX 77 44 79 45 39 46 82 47 76 48 75 49 40 51 66 52 49 53 65 54
REMARK SMILES IDX 50 55 53 56 64 57 80 58 51 59 52 60 63 62 81 63 54 64 41 65
REMARK SMILES IDX 42 66 47 67 43 68 44 69 46 70 48 71 45 72 67 73 68 74 73 75
REMARK SMILES IDX 69 76 70 77 72 78 74 79 71 80 55 81 56 82 61 83 57 84 58 85
REMARK SMILES IDX 60 86 62 87 59 88
REMARK H PARENT 79 50 53 61
REMARK Flexibility Score: inf
ROOT
ATOM      1  O   UNL A   1      40.893  21.248  26.584  1.00  0.00    -0.374 OA
ENDROOT
BRANCH   1   2
ATOM      2  C   UNL A   1      39.719  20.994  25.816  1.00  0.00     0.202 C 
BRANCH   2   3
ATOM      3  C   UNL A   1      38.592  22.026  25.922  1.00  0.00     0.261 C 
BRANCH   3   4
ATOM      4  O   UNL A   1      37.764  22.040  24.743  1.00  0.00    -0.460 OA
BRANCH   4   5
ATOM      5  C   UNL A   1      36.484  21.656  24.954  1.00  0.00     0.338 C 
ATOM      6  O   UNL A   1      36.120  20.570  25.379  1.00  0.00    -0.246 OA
BRANCH   5   7
ATOM      7  C   UNL A   1      35.527  22.756  24.728  1.00  0.00     0.087 C 
ATOM      8  C   UNL A   1      33.407  25.932  23.041  1.00  0.00    -0.002 A 
ATOM      9  C   UNL A   1      33.065  27.023  23.862  1.00  0.00     0.054 A 
ATOM     10  C   UNL A   1      34.137  24.890  23.623  1.00  0.00     0.131 A 
ATOM     11  C   UNL A   1      33.458  27.085  25.204  1.00  0.00     0.130 A 
ATOM     12  C   UNL A   1      34.560  24.936  24.967  1.00  0.00     0.021 A 
ATOM     13  O   UNL A   1      34.487  23.838  22.825  1.00  0.00    -0.475 OA
ATOM     14  C   UNL A   1      34.204  26.034  25.753  1.00  0.00     0.058 A 
ATOM     15  C   UNL A   1      35.447  23.873  25.470  1.00  0.00     0.027 C 
ATOM     16  C   UNL A   1      34.655  22.583  23.510  1.00  0.00     0.316 C 
BRANCH   8  17
ATOM     17  C   UNL A   1      32.947  25.989  21.596  1.00  0.00     0.036 C 
ATOM     18  C   UNL A   1      31.458  25.954  21.266  1.00  0.00     0.009 C 
ENDBRANCH   8  17
BRANCH  11  19
ATOM     19  O   UNL A   1      33.187  28.109  26.067  1.00  0.00    -0.406 OA
BRANCH  19  20
ATOM     20  C   UNL A   1      31.839  28.281  26.483  1.00  0.00     0.573 C 
ATOM     21  F   UNL A   1      31.088  28.818  25.496  1.00  0.00    -0.132 F 
ATOM     22  F   UNL A   1      31.299  27.106  26.872  1.00  0.00    -0.132 F 
ATOM     23  F   UNL A   1      31.812  29.124  27.537  1.00  0.00    -0.132 F 
ENDBRANCH  19  20
ENDBRANCH  11  19
BRANCH  16  24
ATOM     24  C   UNL A   1      33.302  21.917  23.828  1.00  0.00     0.430 C 
ATOM     25  F   UNL A   1      32.790  22.304  25.021  1.00  0.00    -0.167 F 
ATOM     26  F   UNL A   1      32.367  22.188  22.886  1.00  0.00    -0.167 F 
ATOM     27  F   UNL A   1      33.422  20.570  23.875  1.00  0.00    -0.167 F 
ENDBRANCH  16  24
ENDBRANCH   5   7
ENDBRANCH   4   5
ENDBRANCH   3   4
ENDBRANCH   2   3
ENDBRANCH   1   2
BRANCH   1  28
ATOM     28  C   UNL A   1      42.137  20.793  26.054  1.00  0.00     0.202 C 
BRANCH  28  29
ATOM     29  C   UNL A   1      43.203  21.854  25.769  1.00  0.00     0.261 C 
BRANCH  29  30
ATOM     30  O   UNL A   1      42.638  23.034  25.175  1.00  0.00    -0.460 OA
BRANCH  30  31
ATOM     31  C   UNL A   1      43.389  24.149  25.319  1.00  0.00     0.338 C 
ATOM     32  O   UNL A   1      44.377  24.470  24.670  1.00  0.00    -0.246 OA
BRANCH  31  33
ATOM     33  C   UNL A   1      42.746  25.066  26.274  1.00  0.00     0.060 A 
ATOM     34  C   UNL A   1      43.308  26.341  26.416  1.00  0.00     0.016 A 
ATOM     35  C   UNL A   1      41.658  24.677  27.059  1.00  0.00     0.016 A 
ATOM     36  C   UNL A   1      42.823  27.212  27.386  1.00  0.00     0.010 A 
ATOM     37  C   UNL A   1      41.177  25.549  28.040  1.00  0.00     0.010 A 
ATOM     38  C   UNL A   1      41.784  26.804  28.232  1.00  0.00    -0.014 A 
BRANCH  38  39
ATOM     39  C   UNL A   1      41.445  27.634  29.411  1.00  0.00     0.031 A 
ATOM     40  C   UNL A   1      40.265  28.562  29.331  1.00  0.00     0.074 A 
ATOM     41  C   UNL A   1      42.149  27.528  30.551  1.00  0.00     0.049 A 
ATOM     42  N   UNL A   1      39.787  29.377  30.237  1.00  0.00    -0.248 NA
ATOM     43  C   UNL A   1      39.523  28.571  28.060  1.00  0.00     0.031 C 
ATOM     44  C   UNL A   1      43.288  26.636  30.761  1.00  0.00     0.029 A 
ATOM     45  N   UNL A   1      42.005  28.180  31.748  1.00  0.00    -0.354 N 
ATOM     46  C   UNL A   1      38.693  29.996  29.646  1.00  0.00     0.074 A 
ATOM     47  C   UNL A   1      38.596  29.488  28.295  1.00  0.00     0.031 C 
ATOM     48  C   UNL A   1      43.746  26.803  32.013  1.00  0.00     0.029 A 
ATOM     49  C   UNL A   1      42.948  27.829  32.683  1.00  0.00     0.049 A 
ATOM     50  H   UNL A   1      41.293  28.837  31.923  1.00  0.00     0.167 HD
ATOM     51  C   UNL A   1      37.839  30.898  30.186  1.00  0.00     0.037 A 
ATOM     52  C   UNL A   1      43.151  28.297  33.929  1.00  0.00     0.037 A 
ATOM     53  C   UNL A   1      37.936  31.402  31.530  1.00  0.00     0.049 A 
ATOM     54  C   UNL A   1      42.229  29.349  34.482  1.00  0.00     0.074 A 
ATOM     55  C   UNL A   1      37.110  32.304  32.176  1.00  0.00     0.029 A 
ATOM     56  N   UNL A   1      38.927  31.048  32.433  1.00  0.00    -0.354 N 
ATOM     57  N   UNL A   1      41.182  29.908  33.925  1.00  0.00    -0.248 NA
ATOM     58  C   UNL A   1      42.517  29.836  35.840  1.00  0.00     0.031 C 
ATOM     59  C   UNL A   1      37.626  32.531  33.456  1.00  0.00     0.029 A 
ATOM     60  C   UNL A   1      38.748  31.734  33.623  1.00  0.00     0.049 A 
ATOM     61  H   UNL A   1      39.651  30.405  32.256  1.00  0.00     0.167 HD
ATOM     62  C   UNL A   1      40.670  30.789  34.871  1.00  0.00     0.074 A 
ATOM     63  C   UNL A   1      41.516  30.681  36.042  1.00  0.00     0.031 C 
ATOM     64  C   UNL A   1      39.596  31.610  34.781  1.00  0.00     0.037 A 
BRANCH  51  65
ATOM     65  C   UNL A   1      36.736  31.413  29.310  1.00  0.00     0.057 A 
ATOM     66  C   UNL A   1      36.765  32.703  28.766  1.00  0.00     0.134 A 
ATOM     67  C   UNL A   1      35.645  30.596  28.984  1.00  0.00     0.134 A 
ATOM     68  F   UNL A   1      37.773  33.539  29.052  1.00  0.00    -0.206 F 
ATOM     69  C   UNL A   1      35.737  33.171  27.944  1.00  0.00     0.040 A 
ATOM     70  C   UNL A   1      34.624  31.045  28.145  1.00  0.00     0.040 A 
ATOM     71  F   UNL A   1      35.557  29.349  29.470  1.00  0.00    -0.206 F 
ATOM     72  C   UNL A   1      34.666  32.338  27.626  1.00  0.00     0.006 A 
ENDBRANCH  51  65
BRANCH  52  73
ATOM     73  C   UNL A   1      44.281  27.781  34.740  1.00  0.00     0.057 A 
ATOM     74  C   UNL A   1      44.122  26.681  35.590  1.00  0.00     0.134 A 
ATOM     75  C   UNL A   1      45.542  28.390  34.701  1.00  0.00     0.134 A 
ATOM     76  F   UNL A   1      42.933  26.070  35.688  1.00  0.00    -0.206 F 
ATOM     77  C   UNL A   1      45.171  26.213  36.385  1.00  0.00     0.040 A 
ATOM     78  C   UNL A   1      46.606  27.919  35.472  1.00  0.00     0.040 A 
ATOM     79  F   UNL A   1      45.758  29.447  33.906  1.00  0.00    -0.206 F 
ATOM     80  C   UNL A   1      46.419  26.831  36.323  1.00  0.00     0.006 A 
ENDBRANCH  52  73
BRANCH  64  81
ATOM     81  C   UNL A   1      39.256  32.435  35.988  1.00  0.00     0.057 A 
ATOM     82  C   UNL A   1      39.799  33.710  36.188  1.00  0.00     0.134 A 
ATOM     83  C   UNL A   1      38.344  31.961  36.940  1.00  0.00     0.134 A 
ATOM     84  F   UNL A   1      40.686  34.215  35.320  1.00  0.00    -0.206 F 
ATOM     85  C   UNL A   1      39.461  34.477  37.305  1.00  0.00     0.040 A 
ATOM     86  C   UNL A   1      37.981  32.728  38.047  1.00  0.00     0.040 A 
ATOM     87  F   UNL A   1      37.782  30.750  36.802  1.00  0.00    -0.206 F 
ATOM     88  C   UNL A   1      38.545  33.989  38.234  1.00  0.00     0.006 A 
ENDBRANCH  64  81
ENDBRANCH  38  39
ENDBRANCH  31  33
ENDBRANCH  30  31
ENDBRANCH  29  30
ENDBRANCH  28  29
ENDBRANCH   1  28
TORSDOF 18
ENDMDL
MODEL 3
REMARK VINA RESULT:     -10.8      4.161      9.567
REMARK SMILES CCc1cc(OC(F)(F)F)cc2c1O[C@H](C(F)(F)F)C(C(=O)OCCOCCOC(=O)c1ccc(-c3c4nc(c(-c5c(F)cccc5F)c5ccc([nH]5)c(-c5c(F)cccc5F)c5nc(c(-c6c(F)cccc6F)c6ccc3[nH]6)C=C5)C=C4)cc1)=C2
REMARK SMILES IDX 26 1 25 2 24 3 23 4 21 5 22 6 20 7 3 8 4 9 13 10 5 11 12 12
REMARK SMILES IDX 14 13 11 14 86 15 15 16 2 17 1 18 6 19 7 20 8 21 9 22 10 23
REMARK SMILES IDX 16 24 17 25 18 26 19 27 27 28 28 29 29 30 30 31 31 32 32 33
REMARK SMILES IDX 33 34 85 35 34 36 84 37 35 38 36 39 37 40 78 41 38 42 83 43
REMARK SMILES IDX 77 44 79 45 39 46 82 47 76 48 75 49 40 51 66 52 49 53 65 54
REMARK SMILES IDX 50 55 53 56 64 57 80 58 51 59 52 60 63 62 81 63 54 64 41 65
REMARK SMILES IDX 42 66 47 67 43 68 44 69 46 70 48 71 45 72 67 73 68 74 73 75
REMARK SMILES IDX 69 76 70 77 72 78 74 79 71 80 55 81 56 82 61 83 57 84 58 85
REMARK SMILES IDX 60 86 62 87 59 88
REMARK H PARENT 79 50 53 61
REMARK Flexibility Score: inf
ROOT
ATOM      1  O   UNL A   1      34.682  34.052  28.823  1.00  0.00    -0.374 OA
ENDROOT
BRANCH   1   2
ATOM      2  C   UNL A   1      34.416  33.044  27.851  1.00  0.00     0.202 C 
BRANCH   2   3
ATOM      3  C   UNL A   1      34.203  31.622  28.377  1.00  0.00     0.261 C 
BRANCH   3   4
ATOM      4  O   UNL A   1      34.195  30.651  27.313  1.00  0.00    -0.460 OA
BRANCH   4   5
ATOM      5  C   UNL A   1      32.966  30.356  26.832  1.00  0.00     0.338 C 
ATOM      6  O   UNL A   1      32.051  31.147  26.663  1.00  0.00    -0.246 OA
BRANCH   5   7
ATOM      7  C   UNL A   1      32.859  28.950  26.398  1.00  0.00     0.087 C 
ATOM      8  C   UNL A   1      31.843  24.909  26.135  1.00  0.00    -0.002 A 
ATOM      9  C   UNL A   1      32.847  23.985  25.790  1.00  0.00     0.054 A 
ATOM     10  C   UNL A   1      32.212  26.254  26.239  1.00  0.00     0.131 A 
ATOM     11  C   UNL A   1      34.172  24.383  25.582  1.00  0.00     0.130 A 
ATOM     12  C   UNL A   1      33.544  26.679  26.052  1.00  0.00     0.021 A 
ATOM     13  O   UNL A   1      31.245  27.151  26.592  1.00  0.00    -0.475 OA
ATOM     14  C   UNL A   1      34.514  25.735  25.711  1.00  0.00     0.058 A 
ATOM     15  C   UNL A   1      33.885  28.087  26.319  1.00  0.00     0.027 C 
ATOM     16  C   UNL A   1      31.451  28.492  26.109  1.00  0.00     0.316 C 
BRANCH   8  17
ATOM     17  C   UNL A   1      30.448  24.355  26.361  1.00  0.00     0.036 C 
ATOM     18  C   UNL A   1      30.252  22.867  26.634  1.00  0.00     0.009 C 
ENDBRANCH   8  17
BRANCH  11  19
ATOM     19  O   UNL A   1      35.213  23.556  25.262  1.00  0.00    -0.406 OA
BRANCH  19  20
ATOM     20  C   UNL A   1      35.522  23.391  23.885  1.00  0.00     0.573 C 
ATOM     21  F   UNL A   1      36.851  23.503  23.666  1.00  0.00    -0.132 F 
ATOM     22  F   UNL A   1      35.090  22.195  23.431  1.00  0.00    -0.132 F 
ATOM     23  F   UNL A   1      34.898  24.358  23.179  1.00  0.00    -0.132 F 
ENDBRANCH  19  20
ENDBRANCH  11  19
BRANCH  16  24
ATOM     24  C   UNL A   1      31.065  28.632  24.624  1.00  0.00     0.430 C 
ATOM     25  F   UNL A   1      30.357  29.758  24.365  1.00  0.00    -0.167 F 
ATOM     26  F   UNL A   1      32.151  28.650  23.814  1.00  0.00    -0.167 F 
ATOM     27  F   UNL A   1      30.300  27.591  24.219  1.00  0.00    -0.167 F 
ENDBRANCH  16  24
ENDBRANCH   5   7
ENDBRANCH   4   5
ENDBRANCH   3   4
ENDBRANCH   2   3
ENDBRANCH   1   2
BRANCH   1  28
ATOM     28  C   UNL A   1      33.970  33.982  30.057  1.00  0.00     0.202 C 
BRANCH  28  29
ATOM     29  C   UNL A   1      34.803  33.919  31.340  1.00  0.00     0.261 C 
BRANCH  29  30
ATOM     30  O   UNL A   1      34.809  32.599  31.909  1.00  0.00    -0.460 OA
BRANCH  30  31
ATOM     31  C   UNL A   1      35.880  32.330  32.689  1.00  0.00     0.338 C 
ATOM     32  O   UNL A   1      36.001  32.548  33.888  1.00  0.00    -0.246 OA
BRANCH  31  33
ATOM     33  C   UNL A   1      36.867  31.542  31.932  1.00  0.00     0.060 A 
ATOM     34  C   UNL A   1      37.871  30.898  32.665  1.00  0.00     0.016 A 
ATOM     35  C   UNL A   1      36.852  31.479  30.537  1.00  0.00     0.016 A 
ATOM     36  C   UNL A   1      38.901  30.237  32.004  1.00  0.00     0.010 A 
ATOM     37  C   UNL A   1      37.893  30.822  29.872  1.00  0.00     0.010 A 
ATOM     38  C   UNL A   1      38.940  30.233  30.604  1.00  0.00    -0.014 A 
BRANCH  38  39
ATOM     39  C   UNL A   1      40.160  29.746  29.917  1.00  0.00     0.031 A 
ATOM     40  C   UNL A   1      41.324  30.683  29.753  1.00  0.00     0.074 A 
ATOM     41  C   UNL A   1      40.246  28.475  29.490  1.00  0.00     0.049 A 
ATOM     42  N   UNL A   1      42.486  30.473  29.189  1.00  0.00    -0.248 NA
ATOM     43  C   UNL A   1      41.156  32.040  30.300  1.00  0.00     0.031 C 
ATOM     44  C   UNL A   1      39.199  27.464  29.627  1.00  0.00     0.029 A 
ATOM     45  N   UNL A   1      41.267  27.819  28.851  1.00  0.00    -0.354 N 
ATOM     46  C   UNL A   1      43.185  31.667  29.311  1.00  0.00     0.074 A 
ATOM     47  C   UNL A   1      42.307  32.607  29.973  1.00  0.00     0.031 C 
ATOM     48  C   UNL A   1      39.631  26.315  29.081  1.00  0.00     0.029 A 
ATOM     49  C   UNL A   1      40.972  26.517  28.535  1.00  0.00     0.049 A 
ATOM     50  H   UNL A   1      42.132  28.242  28.640  1.00  0.00     0.167 HD
ATOM     51  C   UNL A   1      44.449  31.950  28.917  1.00  0.00     0.037 A 
ATOM     52  C   UNL A   1      41.697  25.600  27.867  1.00  0.00     0.037 A 
ATOM     53  C   UNL A   1      45.321  31.013  28.259  1.00  0.00     0.049 A 
ATOM     54  C   UNL A   1      43.074  25.960  27.378  1.00  0.00     0.074 A 
ATOM     55  C   UNL A   1      46.625  31.198  27.836  1.00  0.00     0.029 A 
ATOM     56  N   UNL A   1      44.972  29.714  27.925  1.00  0.00    -0.354 N 
ATOM     57  N   UNL A   1      43.736  27.083  27.523  1.00  0.00    -0.248 NA
ATOM     58  C   UNL A   1      43.807  24.924  26.636  1.00  0.00     0.031 C 
ATOM     59  C   UNL A   1      47.051  30.024  27.205  1.00  0.00     0.029 A 
ATOM     60  C   UNL A   1      46.027  29.093  27.277  1.00  0.00     0.049 A 
ATOM     61  H   UNL A   1      44.103  29.294  28.118  1.00  0.00     0.167 HD
ATOM     62  C   UNL A   1      44.970  26.880  26.915  1.00  0.00     0.074 A 
ATOM     63  C   UNL A   1      44.968  25.522  26.411  1.00  0.00     0.031 C 
ATOM     64  C   UNL A   1      46.010  27.738  26.787  1.00  0.00     0.037 A 
BRANCH  51  65
ATOM     65  C   UNL A   1      44.956  33.339  29.169  1.00  0.00     0.057 A 
ATOM     66  C   UNL A   1      45.662  33.668  30.333  1.00  0.00     0.134 A 
ATOM     67  C   UNL A   1      44.759  34.352  28.223  1.00  0.00     0.134 A 
ATOM     68  F   UNL A   1      45.870  32.746  31.285  1.00  0.00    -0.206 F 
ATOM     69  C   UNL A   1      46.137  34.962  30.556  1.00  0.00     0.040 A 
ATOM     70  C   UNL A   1      45.250  35.643  28.424  1.00  0.00     0.040 A 
ATOM     71  F   UNL A   1      44.091  34.103  27.086  1.00  0.00    -0.206 F 
ATOM     72  C   UNL A   1      45.937  35.952  29.597  1.00  0.00     0.006 A 
ENDBRANCH  51  65
BRANCH  52  73
ATOM     73  C   UNL A   1      41.134  24.251  27.610  1.00  0.00     0.057 A 
ATOM     74  C   UNL A   1      41.598  23.127  28.301  1.00  0.00     0.134 A 
ATOM     75  C   UNL A   1      40.133  24.053  26.651  1.00  0.00     0.134 A 
ATOM     76  F   UNL A   1      42.571  23.250  29.215  1.00  0.00    -0.206 F 
ATOM     77  C   UNL A   1      41.099  21.849  28.038  1.00  0.00     0.040 A 
ATOM     78  C   UNL A   1      39.608  22.785  26.393  1.00  0.00     0.040 A 
ATOM     79  F   UNL A   1      39.646  25.090  25.956  1.00  0.00    -0.206 F 
ATOM     80  C   UNL A   1      40.097  21.678  27.083  1.00  0.00     0.006 A 
ENDBRANCH  52  73
BRANCH  64  81
ATOM     81  C   UNL A   1      47.244  27.227  26.103  1.00  0.00     0.057 A 
ATOM     82  C   UNL A   1      48.270  26.587  26.810  1.00  0.00     0.134 A 
ATOM     83  C   UNL A   1      47.389  27.344  24.714  1.00  0.00     0.134 A 
ATOM     84  F   UNL A   1      48.197  26.455  28.142  1.00  0.00    -0.206 F 
ATOM     85  C   UNL A   1      49.405  26.098  26.162  1.00  0.00     0.040 A 
ATOM     86  C   UNL A   1      48.508  26.837  24.053  1.00  0.00     0.040 A 
ATOM     87  F   UNL A   1      46.439  27.939  23.978  1.00  0.00    -0.206 F 
ATOM     88  C   UNL A   1      49.523  26.216  24.779  1.00  0.00     0.006 A 
ENDBRANCH  64  81
ENDBRANCH  38  39
ENDBRANCH  31  33
ENDBRANCH  30  31
ENDBRANCH  29  30
ENDBRANCH  28  29
ENDBRANCH   1  28
TORSDOF 18
ENDMDL
