MODEL 1
REMARK VINA RESULT:     -10.9      0.000      0.000
REMARK SMILES NS(=O)(=O)CCNC(=O)N1[C@@H]2CC[C@H]1C[C@H](CC(=O)OCCOCCOC(=O)c1ccc(-c3c4nc(c(-c5c(F)cccc5F)c5ccc([nH]5)c(-c5c(F)cccc5F)c5nc(c(-c6c(F)cccc6F)c6ccc3[nH]6)C=C5)C=C4)cc1)C2
REMARK SMILES IDX 21 1 20 2 18 3 19 4 17 5 16 6 10 7 11 8 14 9 12 10 83 11
REMARK SMILES IDX 13 12 15 13 8 14 7 15 9 17 6 18 5 19 2 20 3 21 4 22 1 23
REMARK SMILES IDX 22 26 23 27 24 28 25 29 26 30 27 31 28 32 29 33 30 34 82 35
REMARK SMILES IDX 31 36 81 37 32 38 33 39 34 40 75 41 35 42 80 43 74 44 76 45
REMARK SMILES IDX 36 46 79 47 73 48 72 49 37 51 63 52 46 53 62 54 47 55 50 56
REMARK SMILES IDX 61 57 77 58 48 59 49 60 60 62 78 63 51 64 38 65 39 66 44 67
REMARK SMILES IDX 40 68 41 69 43 70 45 71 42 72 64 73 65 74 70 75 66 76 67 77
REMARK SMILES IDX 69 78 71 79 68 80 52 81 53 82 58 83 54 84 55 85 57 86 59 87
REMARK SMILES IDX 56 88
REMARK H PARENT 7 16 1 24 1 25 76 50 50 61
REMARK Flexibility Score: inf
ROOT
ATOM      1  C   UNL A   1      32.945  21.880  23.764  1.00  0.00     0.261 C 
ENDROOT
BRANCH   1   2
ATOM      2  O   UNL A   1      32.988  23.318  23.809  1.00  0.00    -0.463 OA
BRANCH   2   3
ATOM      3  C   UNL A   1      34.217  23.884  23.734  1.00  0.00     0.306 C 
ATOM      4  O   UNL A   1      34.963  23.811  22.765  1.00  0.00    -0.252 OA
BRANCH   3   5
ATOM      5  C   UNL A   1      34.619  24.587  25.015  1.00  0.00     0.126 C 
BRANCH   5   6
ATOM      6  C   UNL A   1      33.952  25.932  25.388  1.00  0.00     0.004 C 
ATOM      7  N   UNL A   1      31.395  27.022  24.693  1.00  0.00    -0.319 N 
ATOM      8  C   UNL A   1      31.598  26.750  26.104  1.00  0.00     0.087 C 
ATOM      9  C   UNL A   1      32.538  27.801  24.268  1.00  0.00     0.087 C 
ATOM     10  C   UNL A   1      32.144  28.068  26.655  1.00  0.00     0.027 C 
ATOM     11  C   UNL A   1      32.636  25.620  26.163  1.00  0.00     0.029 C 
ATOM     12  C   UNL A   1      32.722  28.787  25.431  1.00  0.00     0.027 C 
ATOM     13  C   UNL A   1      33.738  26.849  24.153  1.00  0.00     0.029 C 
BRANCH   7  14
ATOM     14  C   UNL A   1      30.267  26.645  24.048  1.00  0.00     0.317 C 
ATOM     15  N   UNL A   1      29.525  27.532  23.352  1.00  0.00    -0.337 N 
ATOM     16  H   UNL A   1      28.565  27.315  23.318  1.00  0.00     0.165 HD
ATOM     17  O   UNL A   1      29.887  25.474  24.033  1.00  0.00    -0.249 OA
BRANCH  15  18
ATOM     18  C   UNL A   1      29.887  28.750  22.641  1.00  0.00     0.135 C 
BRANCH  18  19
ATOM     19  C   UNL A   1      29.334  30.001  23.304  1.00  0.00     0.175 C 
BRANCH  19  20
ATOM     20  S   UNL A   1      27.759  30.503  22.628  1.00  0.00     0.210 S 
ATOM     21  O   UNL A   1      27.883  30.621  21.192  1.00  0.00    -0.213 OA
ATOM     22  O   UNL A   1      27.201  31.562  23.431  1.00  0.00    -0.213 OA
BRANCH  20  23
ATOM     23  N   UNL A   1      26.785  29.167  22.881  1.00  0.00    -0.229 NA
ATOM     24  H   UNL A   1      26.973  28.779  23.805  1.00  0.00     0.137 HD
ATOM     25  H   UNL A   1      26.983  28.463  22.169  1.00  0.00     0.137 HD
ENDBRANCH  20  23
ENDBRANCH  19  20
ENDBRANCH  18  19
ENDBRANCH  15  18
ENDBRANCH   7  14
ENDBRANCH   5   6
ENDBRANCH   3   5
ENDBRANCH   2   3
ENDBRANCH   1   2
BRANCH   1  26
ATOM     26  C   UNL A   1      32.983  21.278  25.173  1.00  0.00     0.202 C 
BRANCH  26  27
ATOM     27  O   UNL A   1      33.966  20.276  25.423  1.00  0.00    -0.374 OA
BRANCH  27  28
ATOM     28  C   UNL A   1      35.269  20.482  24.884  1.00  0.00     0.202 C 
BRANCH  28  29
ATOM     29  C   UNL A   1      36.265  21.277  25.738  1.00  0.00     0.261 C 
BRANCH  29  30
ATOM     30  O   UNL A   1      37.493  21.559  25.043  1.00  0.00    -0.460 OA
BRANCH  30  31
ATOM     31  C   UNL A   1      38.612  21.178  25.709  1.00  0.00     0.338 C 
ATOM     32  O   UNL A   1      39.165  20.092  25.660  1.00  0.00    -0.246 OA
BRANCH  31  33
ATOM     33  C   UNL A   1      39.217  22.335  26.396  1.00  0.00     0.060 A 
ATOM     34  C   UNL A   1      38.681  23.598  26.110  1.00  0.00     0.016 A 
ATOM     35  C   UNL A   1      40.331  22.210  27.227  1.00  0.00     0.016 A 
ATOM     36  C   UNL A   1      39.294  24.746  26.604  1.00  0.00     0.010 A 
ATOM     37  C   UNL A   1      40.949  23.366  27.719  1.00  0.00     0.010 A 
ATOM     38  C   UNL A   1      40.459  24.641  27.376  1.00  0.00    -0.014 A 
BRANCH  38  39
ATOM     39  C   UNL A   1      41.234  25.867  27.694  1.00  0.00     0.031 A 
ATOM     40  C   UNL A   1      40.587  26.956  28.510  1.00  0.00     0.074 A 
ATOM     41  C   UNL A   1      42.515  25.995  27.304  1.00  0.00     0.049 A 
ATOM     42  N   UNL A   1      41.067  28.117  28.877  1.00  0.00    -0.248 NA
ATOM     43  C   UNL A   1      39.212  26.702  28.971  1.00  0.00     0.031 C 
ATOM     44  C   UNL A   1      43.272  24.995  26.553  1.00  0.00     0.029 A 
ATOM     45  N   UNL A   1      43.404  27.024  27.486  1.00  0.00    -0.354 N 
ATOM     46  C   UNL A   1      40.055  28.733  29.603  1.00  0.00     0.074 A 
ATOM     47  C   UNL A   1      38.922  27.833  29.594  1.00  0.00     0.031 C 
ATOM     48  C   UNL A   1      44.511  25.464  26.331  1.00  0.00     0.029 A 
ATOM     49  C   UNL A   1      44.623  26.809  26.890  1.00  0.00     0.049 A 
ATOM     50  H   UNL A   1      43.189  27.839  27.994  1.00  0.00     0.167 HD
ATOM     51  C   UNL A   1      40.071  29.934  30.228  1.00  0.00     0.037 A 
ATOM     52  C   UNL A   1      45.697  27.616  26.788  1.00  0.00     0.037 A 
ATOM     53  C   UNL A   1      41.202  30.827  30.240  1.00  0.00     0.049 A 
ATOM     54  C   UNL A   1      45.662  28.981  27.424  1.00  0.00     0.074 A 
ATOM     55  C   UNL A   1      41.321  32.058  30.864  1.00  0.00     0.029 A 
ATOM     56  N   UNL A   1      42.404  30.590  29.592  1.00  0.00    -0.354 N 
ATOM     57  N   UNL A   1      44.710  29.543  28.127  1.00  0.00    -0.248 NA
ATOM     58  C   UNL A   1      46.855  29.823  27.254  1.00  0.00     0.031 C 
ATOM     59  C   UNL A   1      42.572  32.592  30.542  1.00  0.00     0.029 A 
ATOM     60  C   UNL A   1      43.260  31.665  29.775  1.00  0.00     0.049 A 
ATOM     61  H   UNL A   1      42.619  29.779  29.079  1.00  0.00     0.167 HD
ATOM     62  C   UNL A   1      45.201  30.786  28.511  1.00  0.00     0.074 A 
ATOM     63  C   UNL A   1      46.540  30.891  27.974  1.00  0.00     0.031 C 
ATOM     64  C   UNL A   1      44.597  31.755  29.244  1.00  0.00     0.037 A 
BRANCH  51  65
ATOM     65  C   UNL A   1      38.817  30.373  30.930  1.00  0.00     0.057 A 
ATOM     66  C   UNL A   1      38.569  30.064  32.273  1.00  0.00     0.134 A 
ATOM     67  C   UNL A   1      37.866  31.156  30.262  1.00  0.00     0.134 A 
ATOM     68  F   UNL A   1      39.433  29.308  32.968  1.00  0.00    -0.206 F 
ATOM     69  C   UNL A   1      37.410  30.498  32.920  1.00  0.00     0.040 A 
ATOM     70  C   UNL A   1      36.718  31.621  30.907  1.00  0.00     0.040 A 
ATOM     71  F   UNL A   1      38.043  31.495  28.976  1.00  0.00    -0.206 F 
ATOM     72  C   UNL A   1      36.485  31.287  32.238  1.00  0.00     0.006 A 
ENDBRANCH  51  65
BRANCH  52  73
ATOM     73  C   UNL A   1      46.898  27.167  26.036  1.00  0.00     0.057 A 
ATOM     74  C   UNL A   1      47.032  27.408  24.664  1.00  0.00     0.134 A 
ATOM     75  C   UNL A   1      47.928  26.456  26.668  1.00  0.00     0.134 A 
ATOM     76  F   UNL A   1      46.070  28.063  23.998  1.00  0.00    -0.206 F 
ATOM     77  C   UNL A   1      48.132  26.940  23.943  1.00  0.00     0.040 A 
ATOM     78  C   UNL A   1      49.046  26.008  25.965  1.00  0.00     0.040 A 
ATOM     79  F   UNL A   1      47.861  26.193  27.982  1.00  0.00    -0.206 F 
ATOM     80  C   UNL A   1      49.146  26.242  24.595  1.00  0.00     0.006 A 
ENDBRANCH  52  73
BRANCH  64  81
ATOM     81  C   UNL A   1      45.393  32.992  29.552  1.00  0.00     0.057 A 
ATOM     82  C   UNL A   1      46.227  33.082  30.674  1.00  0.00     0.134 A 
ATOM     83  C   UNL A   1      45.354  34.096  28.690  1.00  0.00     0.134 A 
ATOM     84  F   UNL A   1      46.304  32.066  31.548  1.00  0.00    -0.206 F 
ATOM     85  C   UNL A   1      46.970  34.233  30.941  1.00  0.00     0.040 A 
ATOM     86  C   UNL A   1      46.117  35.239  28.928  1.00  0.00     0.040 A 
ATOM     87  F   UNL A   1      44.586  34.074  27.590  1.00  0.00    -0.206 F 
ATOM     88  C   UNL A   1      46.923  35.314  30.062  1.00  0.00     0.006 A 
ENDBRANCH  64  81
ENDBRANCH  38  39
ENDBRANCH  31  33
ENDBRANCH  30  31
ENDBRANCH  29  30
ENDBRANCH  28  29
ENDBRANCH  27  28
ENDBRANCH  26  27
ENDBRANCH   1  26
TORSDOF 20
ENDMDL
MODEL 2
REMARK VINA RESULT:     -10.8      4.605      8.525
REMARK SMILES NS(=O)(=O)CCNC(=O)N1[C@@H]2CC[C@H]1C[C@H](CC(=O)OCCOCCOC(=O)c1ccc(-c3c4nc(c(-c5c(F)cccc5F)c5ccc([nH]5)c(-c5c(F)cccc5F)c5nc(c(-c6c(F)cccc6F)c6ccc3[nH]6)C=C5)C=C4)cc1)C2
REMARK SMILES IDX 21 1 20 2 18 3 19 4 17 5 16 6 10 7 11 8 14 9 12 10 83 11
REMARK SMILES IDX 13 12 15 13 8 14 7 15 9 17 6 18 5 19 2 20 3 21 4 22 1 23
REMARK SMILES IDX 22 26 23 27 24 28 25 29 26 30 27 31 28 32 29 33 30 34 82 35
REMARK SMILES IDX 31 36 81 37 32 38 33 39 34 40 75 41 35 42 80 43 74 44 76 45
REMARK SMILES IDX 36 46 79 47 73 48 72 49 37 51 63 52 46 53 62 54 47 55 50 56
REMARK SMILES IDX 61 57 77 58 48 59 49 60 60 62 78 63 51 64 38 65 39 66 44 67
REMARK SMILES IDX 40 68 41 69 43 70 45 71 42 72 64 73 65 74 70 75 66 76 67 77
REMARK SMILES IDX 69 78 71 79 68 80 52 81 53 82 58 83 54 84 55 85 57 86 59 87
REMARK SMILES IDX 56 88
REMARK H PARENT 7 16 1 24 1 25 76 50 50 61
REMARK Flexibility Score: inf
ROOT
ATOM      1  C   UNL A   1      40.430  21.174  26.941  1.00  0.00     0.261 C 
ENDROOT
BRANCH   1   2
ATOM      2  O   UNL A   1      39.750  22.235  26.246  1.00  0.00    -0.463 OA
BRANCH   2   3
ATOM      3  C   UNL A   1      38.522  21.938  25.754  1.00  0.00     0.306 C 
ATOM      4  O   UNL A   1      38.264  20.961  25.061  1.00  0.00    -0.252 OA
BRANCH   3   5
ATOM      5  C   UNL A   1      37.481  22.984  26.101  1.00  0.00     0.126 C 
BRANCH   5   6
ATOM      6  C   UNL A   1      36.400  23.358  25.059  1.00  0.00     0.004 C 
ATOM      7  N   UNL A   1      33.595  22.783  24.967  1.00  0.00    -0.319 N 
ATOM      8  C   UNL A   1      33.943  24.186  25.088  1.00  0.00     0.087 C 
ATOM      9  C   UNL A   1      34.371  22.272  23.857  1.00  0.00     0.087 C 
ATOM     10  C   UNL A   1      34.014  24.670  23.638  1.00  0.00     0.027 C 
ATOM     11  C   UNL A   1      35.315  24.216  25.777  1.00  0.00     0.029 C 
ATOM     12  C   UNL A   1      34.247  23.396  22.818  1.00  0.00     0.027 C 
ATOM     13  C   UNL A   1      35.823  22.114  24.333  1.00  0.00     0.029 C 
BRANCH   7  14
ATOM     14  C   UNL A   1      32.646  22.213  25.744  1.00  0.00     0.317 C 
ATOM     15  N   UNL A   1      32.361  20.896  25.657  1.00  0.00    -0.337 N 
ATOM     16  H   UNL A   1      31.429  20.669  25.877  1.00  0.00     0.165 HD
ATOM     17  O   UNL A   1      32.024  22.857  26.591  1.00  0.00    -0.249 OA
BRANCH  15  18
ATOM     18  C   UNL A   1      33.185  19.751  25.297  1.00  0.00     0.135 C 
BRANCH  18  19
ATOM     19  C   UNL A   1      32.525  18.860  24.256  1.00  0.00     0.175 C 
BRANCH  19  20
ATOM     20  S   UNL A   1      33.485  17.399  23.889  1.00  0.00     0.210 S 
ATOM     21  O   UNL A   1      34.742  17.475  24.600  1.00  0.00    -0.213 OA
ATOM     22  O   UNL A   1      33.429  17.125  22.475  1.00  0.00    -0.213 OA
BRANCH  20  23
ATOM     23  N   UNL A   1      32.626  16.174  24.634  1.00  0.00    -0.229 NA
ATOM     24  H   UNL A   1      31.657  16.464  24.759  1.00  0.00     0.137 HD
ATOM     25  H   UNL A   1      33.042  15.973  25.544  1.00  0.00     0.137 HD
ENDBRANCH  20  23
ENDBRANCH  19  20
ENDBRANCH  18  19
ENDBRANCH  15  18
ENDBRANCH   7  14
ENDBRANCH   5   6
ENDBRANCH   3   5
ENDBRANCH   2   3
ENDBRANCH   1   2
BRANCH   1  26
ATOM     26  C   UNL A   1      41.628  20.659  26.137  1.00  0.00     0.202 C 
BRANCH  26  27
ATOM     27  O   UNL A   1      42.892  21.268  26.396  1.00  0.00    -0.374 OA
BRANCH  27  28
ATOM     28  C   UNL A   1      43.942  21.030  25.463  1.00  0.00     0.202 C 
BRANCH  28  29
ATOM     29  C   UNL A   1      44.162  22.083  24.369  1.00  0.00     0.261 C 
BRANCH  29  30
ATOM     30  O   UNL A   1      43.401  23.284  24.593  1.00  0.00    -0.460 OA
BRANCH  30  31
ATOM     31  C   UNL A   1      44.139  24.339  25.023  1.00  0.00     0.338 C 
ATOM     32  O   UNL A   1      45.249  24.668  24.640  1.00  0.00    -0.246 OA
BRANCH  31  33
ATOM     33  C   UNL A   1      43.336  25.191  25.923  1.00  0.00     0.060 A 
ATOM     34  C   UNL A   1      43.717  26.535  26.036  1.00  0.00     0.016 A 
ATOM     35  C   UNL A   1      42.298  24.680  26.703  1.00  0.00     0.016 A 
ATOM     36  C   UNL A   1      43.102  27.358  26.976  1.00  0.00     0.010 A 
ATOM     37  C   UNL A   1      41.684  25.509  27.649  1.00  0.00     0.010 A 
ATOM     38  C   UNL A   1      42.111  26.840  27.819  1.00  0.00    -0.014 A 
BRANCH  38  39
ATOM     39  C   UNL A   1      41.634  27.653  28.967  1.00  0.00     0.031 A 
ATOM     40  C   UNL A   1      42.363  27.569  30.282  1.00  0.00     0.074 A 
ATOM     41  C   UNL A   1      40.592  28.493  28.832  1.00  0.00     0.049 A 
ATOM     42  N   UNL A   1      42.102  28.166  31.417  1.00  0.00    -0.248 NA
ATOM     43  C   UNL A   1      43.545  26.692  30.322  1.00  0.00     0.031 C 
ATOM     44  C   UNL A   1      39.832  28.704  27.601  1.00  0.00     0.029 A 
ATOM     45  N   UNL A   1      39.994  29.326  29.744  1.00  0.00    -0.354 N 
ATOM     46  C   UNL A   1      43.078  27.732  32.306  1.00  0.00     0.074 A 
ATOM     47  C   UNL A   1      43.915  26.795  31.589  1.00  0.00     0.031 C 
ATOM     48  C   UNL A   1      38.861  29.603  27.837  1.00  0.00     0.029 A 
ATOM     49  C   UNL A   1      38.908  30.002  29.243  1.00  0.00     0.049 A 
ATOM     50  H   UNL A   1      40.312  29.428  30.670  1.00  0.00     0.167 HD
ATOM     51  C   UNL A   1      43.266  28.089  33.599  1.00  0.00     0.037 A 
ATOM     52  C   UNL A   1      38.038  30.829  29.854  1.00  0.00     0.037 A 
ATOM     53  C   UNL A   1      42.435  29.026  34.310  1.00  0.00     0.049 A 
ATOM     54  C   UNL A   1      38.221  31.149  31.315  1.00  0.00     0.074 A 
ATOM     55  C   UNL A   1      42.558  29.469  35.617  1.00  0.00     0.029 A 
ATOM     56  N   UNL A   1      41.322  29.660  33.779  1.00  0.00    -0.354 N 
ATOM     57  N   UNL A   1      39.160  30.752  32.139  1.00  0.00    -0.248 NA
ATOM     58  C   UNL A   1      37.223  32.036  31.929  1.00  0.00     0.031 C 
ATOM     59  C   UNL A   1      41.485  30.320  35.894  1.00  0.00     0.029 A 
ATOM     60  C   UNL A   1      40.731  30.464  34.740  1.00  0.00     0.049 A 
ATOM     61  H   UNL A   1      40.999  29.555  32.855  1.00  0.00     0.167 HD
ATOM     62  C   UNL A   1      38.886  31.366  33.355  1.00  0.00     0.074 A 
ATOM     63  C   UNL A   1      37.700  32.173  33.158  1.00  0.00     0.031 C 
ATOM     64  C   UNL A   1      39.556  31.272  34.531  1.00  0.00     0.037 A 
BRANCH  51  65
ATOM     65  C   UNL A   1      44.399  27.443  34.344  1.00  0.00     0.057 A 
ATOM     66  C   UNL A   1      44.249  26.221  35.013  1.00  0.00     0.134 A 
ATOM     67  C   UNL A   1      45.671  28.030  34.353  1.00  0.00     0.134 A 
ATOM     68  F   UNL A   1      43.055  25.610  35.054  1.00  0.00    -0.206 F 
ATOM     69  C   UNL A   1      45.317  25.619  35.682  1.00  0.00     0.040 A 
ATOM     70  C   UNL A   1      46.753  27.424  34.993  1.00  0.00     0.040 A 
ATOM     71  F   UNL A   1      45.887  29.198  33.727  1.00  0.00    -0.206 F 
ATOM     72  C   UNL A   1      46.576  26.217  35.665  1.00  0.00     0.006 A 
ENDBRANCH  51  65
BRANCH  52  73
ATOM     73  C   UNL A   1      36.897  31.403  29.095  1.00  0.00     0.057 A 
ATOM     74  C   UNL A   1      36.896  32.739  28.679  1.00  0.00     0.134 A 
ATOM     75  C   UNL A   1      35.762  30.636  28.797  1.00  0.00     0.134 A 
ATOM     76  F   UNL A   1      37.943  33.532  28.954  1.00  0.00    -0.206 F 
ATOM     77  C   UNL A   1      35.802  33.299  28.014  1.00  0.00     0.040 A 
ATOM     78  C   UNL A   1      34.675  31.175  28.108  1.00  0.00     0.040 A 
ATOM     79  F   UNL A   1      35.699  29.349  29.168  1.00  0.00    -0.206 F 
ATOM     80  C   UNL A   1      34.689  32.513  27.723  1.00  0.00     0.006 A 
ENDBRANCH  52  73
BRANCH  64  81
ATOM     81  C   UNL A   1      39.057  32.097  35.684  1.00  0.00     0.057 A 
ATOM     82  C   UNL A   1      38.230  31.563  36.681  1.00  0.00     0.134 A 
ATOM     83  C   UNL A   1      39.441  33.439  35.817  1.00  0.00     0.134 A 
ATOM     84  F   UNL A   1      37.815  30.289  36.610  1.00  0.00    -0.206 F 
ATOM     85  C   UNL A   1      37.784  32.338  37.752  1.00  0.00     0.040 A 
ATOM     86  C   UNL A   1      39.028  34.215  36.901  1.00  0.00     0.040 A 
ATOM     87  F   UNL A   1      40.240  34.012  34.905  1.00  0.00    -0.206 F 
ATOM     88  C   UNL A   1      38.189  33.667  37.869  1.00  0.00     0.006 A 
ENDBRANCH  64  81
ENDBRANCH  38  39
ENDBRANCH  31  33
ENDBRANCH  30  31
ENDBRANCH  29  30
ENDBRANCH  28  29
ENDBRANCH  27  28
ENDBRANCH  26  27
ENDBRANCH   1  26
TORSDOF 20
ENDMDL
MODEL 3
REMARK VINA RESULT:     -10.8      2.123      6.356
REMARK SMILES NS(=O)(=O)CCNC(=O)N1[C@@H]2CC[C@H]1C[C@H](CC(=O)OCCOCCOC(=O)c1ccc(-c3c4nc(c(-c5c(F)cccc5F)c5ccc([nH]5)c(-c5c(F)cccc5F)c5nc(c(-c6c(F)cccc6F)c6ccc3[nH]6)C=C5)C=C4)cc1)C2
REMARK SMILES IDX 21 1 20 2 18 3 19 4 17 5 16 6 10 7 11 8 14 9 12 10 83 11
REMARK SMILES IDX 13 12 15 13 8 14 7 15 9 17 6 18 5 19 2 20 3 21 4 22 1 23
REMARK SMILES IDX 22 26 23 27 24 28 25 29 26 30 27 31 28 32 29 33 30 34 82 35
REMARK SMILES IDX 31 36 81 37 32 38 33 39 34 40 75 41 35 42 80 43 74 44 76 45
REMARK SMILES IDX 36 46 79 47 73 48 72 49 37 51 63 52 46 53 62 54 47 55 50 56
REMARK SMILES IDX 61 57 77 58 48 59 49 60 60 62 78 63 51 64 38 65 39 66 44 67
REMARK SMILES IDX 40 68 41 69 43 70 45 71 42 72 64 73 65 74 70 75 66 76 67 77
REMARK SMILES IDX 69 78 71 79 68 80 52 81 53 82 58 83 54 84 55 85 57 86 59 87
REMARK SMILES IDX 56 88
REMARK H PARENT 7 16 1 24 1 25 76 50 50 61
REMARK Flexibility Score: inf
ROOT
ATOM      1  C   UNL A   1      34.812  19.319  24.994  1.00  0.00     0.261 C 
ENDROOT
BRANCH   1   2
ATOM      2  O   UNL A   1      33.850  19.539  23.947  1.00  0.00    -0.463 OA
BRANCH   2   3
ATOM      3  C   UNL A   1      32.755  20.265  24.281  1.00  0.00     0.306 C 
ATOM      4  O   UNL A   1      31.912  19.921  25.100  1.00  0.00    -0.252 OA
BRANCH   3   5
ATOM      5  C   UNL A   1      32.636  21.548  23.485  1.00  0.00     0.126 C 
BRANCH   5   6
ATOM      6  C   UNL A   1      32.920  22.903  24.176  1.00  0.00     0.004 C 
ATOM      7  N   UNL A   1      33.141  25.552  23.108  1.00  0.00    -0.319 N 
ATOM      8  C   UNL A   1      32.035  25.335  24.022  1.00  0.00     0.087 C 
ATOM      9  C   UNL A   1      34.321  25.054  23.782  1.00  0.00     0.087 C 
ATOM     10  C   UNL A   1      32.613  25.709  25.388  1.00  0.00     0.027 C 
ATOM     11  C   UNL A   1      31.701  23.840  23.921  1.00  0.00     0.029 C 
ATOM     12  C   UNL A   1      34.129  25.572  25.216  1.00  0.00     0.027 C 
ATOM     13  C   UNL A   1      34.275  23.520  23.735  1.00  0.00     0.029 C 
BRANCH   7  14
ATOM     14  C   UNL A   1      32.977  26.192  21.927  1.00  0.00     0.317 C 
ATOM     15  N   UNL A   1      32.653  27.502  21.875  1.00  0.00    -0.337 N 
ATOM     16  H   UNL A   1      32.128  27.757  21.082  1.00  0.00     0.165 HD
ATOM     17  O   UNL A   1      33.151  25.623  20.848  1.00  0.00    -0.249 OA
BRANCH  15  18
ATOM     18  C   UNL A   1      32.941  28.606  22.780  1.00  0.00     0.135 C 
BRANCH  18  19
ATOM     19  C   UNL A   1      31.777  28.922  23.706  1.00  0.00     0.175 C 
BRANCH  19  20
ATOM     20  S   UNL A   1      30.258  29.243  22.822  1.00  0.00     0.210 S 
ATOM     21  O   UNL A   1      29.505  30.248  23.538  1.00  0.00    -0.213 OA
ATOM     22  O   UNL A   1      29.662  27.997  22.413  1.00  0.00    -0.213 OA
BRANCH  20  23
ATOM     23  N   UNL A   1      30.777  29.993  21.420  1.00  0.00    -0.229 NA
ATOM     24  H   UNL A   1      31.674  29.600  21.136  1.00  0.00     0.137 HD
ATOM     25  H   UNL A   1      30.882  30.994  21.589  1.00  0.00     0.137 HD
ENDBRANCH  20  23
ENDBRANCH  19  20
ENDBRANCH  18  19
ENDBRANCH  15  18
ENDBRANCH   7  14
ENDBRANCH   5   6
ENDBRANCH   3   5
ENDBRANCH   2   3
ENDBRANCH   1   2
BRANCH   1  26
ATOM     26  C   UNL A   1      35.796  20.489  25.101  1.00  0.00     0.202 C 
BRANCH  26  27
ATOM     27  O   UNL A   1      37.168  20.209  24.829  1.00  0.00    -0.374 OA
BRANCH  27  28
ATOM     28  C   UNL A   1      38.132  21.175  25.238  1.00  0.00     0.202 C 
BRANCH  28  29
ATOM     29  C   UNL A   1      39.294  20.682  26.110  1.00  0.00     0.261 C 
BRANCH  29  30
ATOM     30  O   UNL A   1      40.194  19.814  25.397  1.00  0.00    -0.460 OA
BRANCH  30  31
ATOM     31  C   UNL A   1      41.361  19.566  26.046  1.00  0.00     0.338 C 
ATOM     32  O   UNL A   1      41.928  18.493  26.158  1.00  0.00    -0.246 OA
BRANCH  31  33
ATOM     33  C   UNL A   1      41.989  20.833  26.468  1.00  0.00     0.060 A 
ATOM     34  C   UNL A   1      42.006  21.110  27.841  1.00  0.00     0.016 A 
ATOM     35  C   UNL A   1      42.470  21.768  25.551  1.00  0.00     0.016 A 
ATOM     36  C   UNL A   1      42.446  22.349  28.300  1.00  0.00     0.010 A 
ATOM     37  C   UNL A   1      42.909  23.015  26.013  1.00  0.00     0.010 A 
ATOM     38  C   UNL A   1      42.860  23.327  27.385  1.00  0.00    -0.014 A 
BRANCH  38  39
ATOM     39  C   UNL A   1      43.099  24.714  27.861  1.00  0.00     0.031 A 
ATOM     40  C   UNL A   1      44.510  25.172  28.114  1.00  0.00     0.074 A 
ATOM     41  C   UNL A   1      42.076  25.573  28.024  1.00  0.00     0.049 A 
ATOM     42  N   UNL A   1      44.944  26.325  28.558  1.00  0.00    -0.248 NA
ATOM     43  C   UNL A   1      45.578  24.199  27.831  1.00  0.00     0.031 C 
ATOM     44  C   UNL A   1      40.669  25.270  27.767  1.00  0.00     0.029 A 
ATOM     45  N   UNL A   1      42.068  26.879  28.446  1.00  0.00    -0.354 N 
ATOM     46  C   UNL A   1      46.327  26.213  28.614  1.00  0.00     0.074 A 
ATOM     47  C   UNL A   1      46.660  24.869  28.194  1.00  0.00     0.031 C 
ATOM     48  C   UNL A   1      39.932  26.358  28.045  1.00  0.00     0.029 A 
ATOM     49  C   UNL A   1      40.808  27.420  28.535  1.00  0.00     0.049 A 
ATOM     50  H   UNL A   1      42.886  27.379  28.666  1.00  0.00     0.167 HD
ATOM     51  C   UNL A   1      47.239  27.148  28.975  1.00  0.00     0.037 A 
ATOM     52  C   UNL A   1      40.407  28.626  28.982  1.00  0.00     0.037 A 
ATOM     53  C   UNL A   1      46.908  28.487  29.389  1.00  0.00     0.049 A 
ATOM     54  C   UNL A   1      41.435  29.621  29.453  1.00  0.00     0.074 A 
ATOM     55  C   UNL A   1      47.763  29.513  29.753  1.00  0.00     0.029 A 
ATOM     56  N   UNL A   1      45.618  28.984  29.502  1.00  0.00    -0.354 N 
ATOM     57  N   UNL A   1      42.742  29.513  29.480  1.00  0.00    -0.248 NA
ATOM     58  C   UNL A   1      40.932  30.908  29.953  1.00  0.00     0.031 C 
ATOM     59  C   UNL A   1      46.990  30.610  30.146  1.00  0.00     0.029 A 
ATOM     60  C   UNL A   1      45.654  30.291  29.961  1.00  0.00     0.049 A 
ATOM     61  H   UNL A   1      44.799  28.483  29.288  1.00  0.00     0.167 HD
ATOM     62  C   UNL A   1      43.215  30.727  29.965  1.00  0.00     0.074 A 
ATOM     63  C   UNL A   1      42.058  31.560  30.208  1.00  0.00     0.031 C 
ATOM     64  C   UNL A   1      44.495  31.117  30.189  1.00  0.00     0.037 A 
BRANCH  51  65
ATOM     65  C   UNL A   1      48.688  26.749  28.967  1.00  0.00     0.057 A 
ATOM     66  C   UNL A   1      49.312  26.189  30.090  1.00  0.00     0.134 A 
ATOM     67  C   UNL A   1      49.457  26.886  27.803  1.00  0.00     0.134 A 
ATOM     68  F   UNL A   1      48.638  26.041  31.240  1.00  0.00    -0.206 F 
ATOM     69  C   UNL A   1      50.653  25.801  30.061  1.00  0.00     0.040 A 
ATOM     70  C   UNL A   1      50.789  26.474  27.754  1.00  0.00     0.040 A 
ATOM     71  F   UNL A   1      48.920  27.408  26.690  1.00  0.00    -0.206 F 
ATOM     72  C   UNL A   1      51.393  25.935  28.888  1.00  0.00     0.006 A 
ENDBRANCH  51  65
BRANCH  52  73
ATOM     73  C   UNL A   1      38.960  28.961  29.027  1.00  0.00     0.057 A 
ATOM     74  C   UNL A   1      38.295  29.472  27.907  1.00  0.00     0.134 A 
ATOM     75  C   UNL A   1      38.214  28.807  30.204  1.00  0.00     0.134 A 
ATOM     76  F   UNL A   1      38.958  29.664  26.758  1.00  0.00    -0.206 F 
ATOM     77  C   UNL A   1      36.949  29.841  27.961  1.00  0.00     0.040 A 
ATOM     78  C   UNL A   1      36.862  29.144  30.263  1.00  0.00     0.040 A 
ATOM     79  F   UNL A   1      38.793  28.321  31.312  1.00  0.00    -0.206 F 
ATOM     80  C   UNL A   1      36.228  29.672  29.141  1.00  0.00     0.006 A 
ENDBRANCH  52  73
BRANCH  64  81
ATOM     81  C   UNL A   1      44.718  32.521  30.677  1.00  0.00     0.057 A 
ATOM     82  C   UNL A   1      44.814  32.832  32.039  1.00  0.00     0.134 A 
ATOM     83  C   UNL A   1      44.879  33.573  29.764  1.00  0.00     0.134 A 
ATOM     84  F   UNL A   1      44.659  31.875  32.967  1.00  0.00    -0.206 F 
ATOM     85  C   UNL A   1      45.033  34.139  32.476  1.00  0.00     0.040 A 
ATOM     86  C   UNL A   1      45.131  34.879  30.188  1.00  0.00     0.040 A 
ATOM     87  F   UNL A   1      44.811  33.346  28.444  1.00  0.00    -0.206 F 
ATOM     88  C   UNL A   1      45.201  35.166  31.549  1.00  0.00     0.006 A 
ENDBRANCH  64  81
ENDBRANCH  38  39
ENDBRANCH  31  33
ENDBRANCH  30  31
ENDBRANCH  29  30
ENDBRANCH  28  29
ENDBRANCH  27  28
ENDBRANCH  26  27
ENDBRANCH   1  26
TORSDOF 20
ENDMDL
