MODEL 1
REMARK VINA RESULT:     -11.1      0.000      0.000
REMARK SMILES Cc1cccc(Cn2c(=O)c3sccc3n(CC(=O)OCCOCCOC(=O)c3ccc(-c4c5nc(c(-c6c(F)cccc6F)c6ccc([nH]6)c(-c6c(F)cccc6F)c6nc(c(-c7c(F)cccc7F)c7ccc4[nH]7)C=C6)C=C5)cc3)c2=O)c1
REMARK SMILES IDX 22 1 21 2 20 3 18 4 19 5 17 6 16 7 8 8 9 9 83 10 10 11 11 12
REMARK SMILES IDX 84 13 12 14 15 15 13 16 14 17 7 18 6 19 1 20 2 21 3 22 85 23
REMARK SMILES IDX 4 24 5 25 23 26 24 27 25 28 26 29 27 30 28 31 29 32 30 33
REMARK SMILES IDX 82 34 31 35 81 36 32 37 33 38 34 39 75 40 35 41 80 42 74 43
REMARK SMILES IDX 76 44 36 45 79 46 73 47 72 48 37 50 63 51 46 52 62 53 47 54
REMARK SMILES IDX 50 55 61 56 77 57 48 58 49 59 60 61 78 62 51 63 38 64 39 65
REMARK SMILES IDX 44 66 40 67 41 68 43 69 45 70 42 71 64 72 65 73 70 74 66 75
REMARK SMILES IDX 67 76 69 77 71 78 68 79 52 80 53 81 58 82 54 83 55 84 57 85
REMARK SMILES IDX 59 86 56 87
REMARK H PARENT 76 49 50 60
REMARK Flexibility Score: inf
ROOT
ATOM      1  C   UNL A   1      36.249  21.035  24.742  1.00  0.00     0.202 C 
ENDROOT
BRANCH   1   2
ATOM      2  C   UNL A   1      34.951  20.883  25.463  1.00  0.00     0.261 C 
BRANCH   2   3
ATOM      3  O   UNL A   1      34.623  22.096  26.127  1.00  0.00    -0.462 OA
BRANCH   3   4
ATOM      4  C   UNL A   1      33.468  22.226  26.853  1.00  0.00     0.326 C 
ATOM      5  O   UNL A   1      33.374  22.203  28.058  1.00  0.00    -0.250 OA
BRANCH   4   6
ATOM      6  C   UNL A   1      32.282  22.333  25.891  1.00  0.00     0.250 C 
BRANCH   6   7
ATOM      7  N   UNL A   1      32.278  23.692  25.338  1.00  0.00    -0.281 N 
ATOM      8  N   UNL A   1      31.464  25.929  25.520  1.00  0.00    -0.254 N 
ATOM      9  C   UNL A   1      31.702  26.235  24.179  1.00  0.00     0.274 A 
ATOM     10  C   UNL A   1      31.547  24.645  26.053  1.00  0.00     0.332 A 
ATOM     11  O   UNL A   1      31.387  27.309  23.672  1.00  0.00    -0.268 OA
ATOM     12  C   UNL A   1      32.311  25.151  23.449  1.00  0.00     0.116 A 
ATOM     13  O   UNL A   1      30.940  24.317  27.077  1.00  0.00    -0.247 OA
ATOM     14  S   UNL A   1      32.670  25.211  21.789  1.00  0.00    -0.136 S 
ATOM     15  C   UNL A   1      32.623  23.942  24.012  1.00  0.00     0.070 A 
ATOM     16  C   UNL A   1      33.277  23.608  21.811  1.00  0.00     0.068 A 
ATOM     17  C   UNL A   1      33.192  23.042  23.066  1.00  0.00     0.039 A 
BRANCH   8  18
ATOM     18  C   UNL A   1      30.963  26.972  26.411  1.00  0.00     0.166 C 
BRANCH  18  19
ATOM     19  C   UNL A   1      32.071  27.969  26.705  1.00  0.00    -0.028 A 
ATOM     20  C   UNL A   1      32.518  31.711  27.250  1.00  0.00     0.044 C 
ATOM     21  C   UNL A   1      32.811  30.266  26.982  1.00  0.00    -0.051 A 
ATOM     22  C   UNL A   1      34.139  29.857  26.799  1.00  0.00     0.003 A 
ATOM     23  C   UNL A   1      31.778  29.322  26.905  1.00  0.00     0.009 A 
ATOM     24  C   UNL A   1      34.441  28.512  26.627  1.00  0.00     0.001 A 
ATOM     25  C   UNL A   1      33.417  27.572  26.627  1.00  0.00     0.005 A 
ENDBRANCH  18  19
ENDBRANCH   8  18
ENDBRANCH   6   7
ENDBRANCH   4   6
ENDBRANCH   3   4
ENDBRANCH   2   3
ENDBRANCH   1   2
BRANCH   1  26
ATOM     26  O   UNL A   1      36.465  22.436  24.652  1.00  0.00    -0.374 OA
BRANCH  26  27
ATOM     27  C   UNL A   1      37.640  22.903  25.288  1.00  0.00     0.202 C 
BRANCH  27  28
ATOM     28  C   UNL A   1      38.572  21.798  25.800  1.00  0.00     0.261 C 
BRANCH  28  29
ATOM     29  O   UNL A   1      39.389  22.306  26.873  1.00  0.00    -0.460 OA
BRANCH  29  30
ATOM     30  C   UNL A   1      40.418  23.116  26.499  1.00  0.00     0.338 C 
ATOM     31  O   UNL A   1      41.551  22.746  26.240  1.00  0.00    -0.246 OA
BRANCH  30  32
ATOM     32  C   UNL A   1      40.055  24.537  26.783  1.00  0.00     0.060 A 
ATOM     33  C   UNL A   1      40.768  25.572  26.149  1.00  0.00     0.016 A 
ATOM     34  C   UNL A   1      39.300  24.809  27.920  1.00  0.00     0.016 A 
ATOM     35  C   UNL A   1      40.859  26.833  26.754  1.00  0.00     0.010 A 
ATOM     36  C   UNL A   1      39.496  26.009  28.571  1.00  0.00     0.010 A 
ATOM     37  C   UNL A   1      40.295  27.020  28.014  1.00  0.00    -0.014 A 
BRANCH  37  38
ATOM     38  C   UNL A   1      40.484  28.195  28.872  1.00  0.00     0.031 A 
ATOM     39  C   UNL A   1      39.444  29.247  28.805  1.00  0.00     0.074 A 
ATOM     40  C   UNL A   1      41.443  28.271  29.831  1.00  0.00     0.049 A 
ATOM     41  N   UNL A   1      39.621  30.447  29.233  1.00  0.00    -0.248 NA
ATOM     42  C   UNL A   1      38.132  29.069  28.180  1.00  0.00     0.031 C 
ATOM     43  C   UNL A   1      41.516  29.185  30.975  1.00  0.00     0.029 A 
ATOM     44  N   UNL A   1      42.633  27.541  29.967  1.00  0.00    -0.354 N 
ATOM     45  C   UNL A   1      38.385  31.040  29.304  1.00  0.00     0.074 A 
ATOM     46  C   UNL A   1      37.546  30.233  28.466  1.00  0.00     0.031 C 
ATOM     47  C   UNL A   1      42.775  29.206  31.450  1.00  0.00     0.029 A 
ATOM     48  C   UNL A   1      43.581  28.390  30.557  1.00  0.00     0.049 A 
ATOM     49  H   UNL A   1      42.777  26.604  29.697  1.00  0.00     0.167 HD
ATOM     50  C   UNL A   1      38.213  32.048  30.204  1.00  0.00     0.037 A 
ATOM     51  C   UNL A   1      44.723  28.727  29.904  1.00  0.00     0.037 A 
ATOM     52  C   UNL A   1      39.517  32.462  30.757  1.00  0.00     0.049 A 
ATOM     53  C   UNL A   1      44.735  30.212  29.688  1.00  0.00     0.074 A 
ATOM     54  C   UNL A   1      40.112  32.343  32.002  1.00  0.00     0.029 A 
ATOM     55  N   UNL A   1      40.545  32.820  29.876  1.00  0.00    -0.354 N 
ATOM     56  N   UNL A   1      43.645  30.930  29.740  1.00  0.00    -0.248 NA
ATOM     57  C   UNL A   1      45.927  31.024  29.485  1.00  0.00     0.031 C 
ATOM     58  C   UNL A   1      41.515  32.548  31.840  1.00  0.00     0.029 A 
ATOM     59  C   UNL A   1      41.774  32.833  30.508  1.00  0.00     0.049 A 
ATOM     60  H   UNL A   1      40.408  33.035  28.925  1.00  0.00     0.167 HD
ATOM     61  C   UNL A   1      43.954  32.250  29.669  1.00  0.00     0.074 A 
ATOM     62  C   UNL A   1      45.396  32.261  29.479  1.00  0.00     0.031 C 
ATOM     63  C   UNL A   1      42.991  33.211  29.780  1.00  0.00     0.037 A 
BRANCH  50  64
ATOM     64  C   UNL A   1      36.868  32.527  30.738  1.00  0.00     0.057 A 
ATOM     65  C   UNL A   1      36.244  33.658  30.171  1.00  0.00     0.134 A 
ATOM     66  C   UNL A   1      36.163  31.998  31.842  1.00  0.00     0.134 A 
ATOM     67  F   UNL A   1      36.782  34.303  29.127  1.00  0.00    -0.206 F 
ATOM     68  C   UNL A   1      35.040  34.201  30.653  1.00  0.00     0.040 A 
ATOM     69  C   UNL A   1      34.938  32.505  32.308  1.00  0.00     0.040 A 
ATOM     70  F   UNL A   1      36.620  30.988  32.585  1.00  0.00    -0.206 F 
ATOM     71  C   UNL A   1      34.374  33.617  31.718  1.00  0.00     0.006 A 
ENDBRANCH  50  64
BRANCH  51  72
ATOM     72  C   UNL A   1      45.206  27.632  29.011  1.00  0.00     0.057 A 
ATOM     73  C   UNL A   1      45.877  26.546  29.616  1.00  0.00     0.134 A 
ATOM     74  C   UNL A   1      44.635  27.387  27.758  1.00  0.00     0.134 A 
ATOM     75  F   UNL A   1      46.447  26.696  30.823  1.00  0.00    -0.206 F 
ATOM     76  C   UNL A   1      45.861  25.255  29.071  1.00  0.00     0.040 A 
ATOM     77  C   UNL A   1      44.617  26.096  27.201  1.00  0.00     0.040 A 
ATOM     78  F   UNL A   1      43.967  28.353  27.114  1.00  0.00    -0.206 F 
ATOM     79  C   UNL A   1      45.189  25.019  27.878  1.00  0.00     0.006 A 
ENDBRANCH  51  72
BRANCH  63  80
ATOM     80  C   UNL A   1      43.134  34.620  29.267  1.00  0.00     0.057 A 
ATOM     81  C   UNL A   1      43.200  35.753  30.092  1.00  0.00     0.134 A 
ATOM     82  C   UNL A   1      43.403  34.860  27.901  1.00  0.00     0.134 A 
ATOM     83  F   UNL A   1      43.094  35.671  31.424  1.00  0.00    -0.206 F 
ATOM     84  C   UNL A   1      43.450  37.034  29.590  1.00  0.00     0.040 A 
ATOM     85  C   UNL A   1      43.726  36.122  27.402  1.00  0.00     0.040 A 
ATOM     86  F   UNL A   1      43.403  33.875  26.990  1.00  0.00    -0.206 F 
ATOM     87  C   UNL A   1      43.732  37.221  28.245  1.00  0.00     0.006 A 
ENDBRANCH  63  80
ENDBRANCH  37  38
ENDBRANCH  30  32
ENDBRANCH  29  30
ENDBRANCH  28  29
ENDBRANCH  27  28
ENDBRANCH  26  27
ENDBRANCH   1  26
TORSDOF 17
ENDMDL
MODEL 2
REMARK VINA RESULT:     -10.9      2.760      4.537
REMARK SMILES Cc1cccc(Cn2c(=O)c3sccc3n(CC(=O)OCCOCCOC(=O)c3ccc(-c4c5nc(c(-c6c(F)cccc6F)c6ccc([nH]6)c(-c6c(F)cccc6F)c6nc(c(-c7c(F)cccc7F)c7ccc4[nH]7)C=C6)C=C5)cc3)c2=O)c1
REMARK SMILES IDX 22 1 21 2 20 3 18 4 19 5 17 6 16 7 8 8 9 9 83 10 10 11 11 12
REMARK SMILES IDX 84 13 12 14 15 15 13 16 14 17 7 18 6 19 1 20 2 21 3 22 85 23
REMARK SMILES IDX 4 24 5 25 23 26 24 27 25 28 26 29 27 30 28 31 29 32 30 33
REMARK SMILES IDX 82 34 31 35 81 36 32 37 33 38 34 39 75 40 35 41 80 42 74 43
REMARK SMILES IDX 76 44 36 45 79 46 73 47 72 48 37 50 63 51 46 52 62 53 47 54
REMARK SMILES IDX 50 55 61 56 77 57 48 58 49 59 60 61 78 62 51 63 38 64 39 65
REMARK SMILES IDX 44 66 40 67 41 68 43 69 45 70 42 71 64 72 65 73 70 74 66 75
REMARK SMILES IDX 67 76 69 77 71 78 68 79 52 80 53 81 58 82 54 83 55 84 57 85
REMARK SMILES IDX 59 86 56 87
REMARK H PARENT 76 49 50 60
REMARK Flexibility Score: inf
ROOT
ATOM      1  C   UNL A   1      40.065  19.723  25.786  1.00  0.00     0.202 C 
ENDROOT
BRANCH   1   2
ATOM      2  C   UNL A   1      39.389  21.054  25.750  1.00  0.00     0.261 C 
BRANCH   2   3
ATOM      3  O   UNL A   1      38.374  21.052  24.755  1.00  0.00    -0.462 OA
BRANCH   3   4
ATOM      4  C   UNL A   1      37.281  21.875  24.846  1.00  0.00     0.326 C 
ATOM      5  O   UNL A   1      37.028  22.809  24.122  1.00  0.00    -0.250 OA
BRANCH   4   6
ATOM      6  C   UNL A   1      36.452  21.473  26.068  1.00  0.00     0.250 C 
BRANCH   6   7
ATOM      7  N   UNL A   1      35.037  21.522  25.681  1.00  0.00    -0.281 N 
ATOM      8  N   UNL A   1      32.912  22.570  25.974  1.00  0.00    -0.254 N 
ATOM      9  C   UNL A   1      32.191  21.479  25.489  1.00  0.00     0.274 A 
ATOM     10  C   UNL A   1      34.275  22.537  26.265  1.00  0.00     0.332 A 
ATOM     11  O   UNL A   1      30.963  21.443  25.474  1.00  0.00    -0.268 OA
ATOM     12  C   UNL A   1      33.031  20.392  25.051  1.00  0.00     0.116 A 
ATOM     13  O   UNL A   1      34.795  23.317  27.068  1.00  0.00    -0.247 OA
ATOM     14  S   UNL A   1      32.436  18.914  24.460  1.00  0.00    -0.136 S 
ATOM     15  C   UNL A   1      34.399  20.425  25.107  1.00  0.00     0.070 A 
ATOM     16  C   UNL A   1      34.023  18.302  24.249  1.00  0.00     0.068 A 
ATOM     17  C   UNL A   1      34.982  19.214  24.635  1.00  0.00     0.039 A 
BRANCH   8  18
ATOM     18  C   UNL A   1      32.199  23.791  26.341  1.00  0.00     0.166 C 
BRANCH  18  19
ATOM     19  C   UNL A   1      31.868  24.584  25.089  1.00  0.00    -0.028 A 
ATOM     20  C   UNL A   1      33.652  26.556  22.363  1.00  0.00     0.044 C 
ATOM     21  C   UNL A   1      32.579  26.012  23.256  1.00  0.00    -0.051 A 
ATOM     22  C   UNL A   1      31.250  26.406  23.052  1.00  0.00     0.003 A 
ATOM     23  C   UNL A   1      32.886  25.123  24.295  1.00  0.00     0.009 A 
ATOM     24  C   UNL A   1      30.229  25.856  23.817  1.00  0.00     0.001 A 
ATOM     25  C   UNL A   1      30.534  24.918  24.796  1.00  0.00     0.005 A 
ENDBRANCH  18  19
ENDBRANCH   8  18
ENDBRANCH   6   7
ENDBRANCH   4   6
ENDBRANCH   3   4
ENDBRANCH   2   3
ENDBRANCH   1   2
BRANCH   1  26
ATOM     26  O   UNL A   1      41.433  20.005  26.050  1.00  0.00    -0.374 OA
BRANCH  26  27
ATOM     27  C   UNL A   1      42.276  18.870  26.116  1.00  0.00     0.202 C 
BRANCH  27  28
ATOM     28  C   UNL A   1      43.650  19.055  25.461  1.00  0.00     0.261 C 
BRANCH  28  29
ATOM     29  O   UNL A   1      43.665  20.272  24.689  1.00  0.00    -0.460 OA
BRANCH  29  30
ATOM     30  C   UNL A   1      44.539  21.228  25.109  1.00  0.00     0.338 C 
ATOM     31  O   UNL A   1      45.721  21.048  25.350  1.00  0.00    -0.246 OA
BRANCH  30  32
ATOM     32  C   UNL A   1      43.778  22.432  25.556  1.00  0.00     0.060 A 
ATOM     33  C   UNL A   1      43.770  23.585  24.748  1.00  0.00     0.016 A 
ATOM     34  C   UNL A   1      43.416  22.523  26.897  1.00  0.00     0.016 A 
ATOM     35  C   UNL A   1      43.569  24.846  25.327  1.00  0.00     0.010 A 
ATOM     36  C   UNL A   1      43.344  23.771  27.478  1.00  0.00     0.010 A 
ATOM     37  C   UNL A   1      43.447  24.941  26.711  1.00  0.00    -0.014 A 
BRANCH  37  38
ATOM     38  C   UNL A   1      43.449  26.186  27.488  1.00  0.00     0.031 A 
ATOM     39  C   UNL A   1      42.156  26.894  27.622  1.00  0.00     0.074 A 
ATOM     40  C   UNL A   1      44.513  26.605  28.220  1.00  0.00     0.049 A 
ATOM     41  N   UNL A   1      42.055  28.125  27.981  1.00  0.00    -0.248 NA
ATOM     42  C   UNL A   1      40.857  26.305  27.292  1.00  0.00     0.031 C 
ATOM     43  C   UNL A   1      44.539  27.589  29.306  1.00  0.00     0.029 A 
ATOM     44  N   UNL A   1      45.867  26.253  28.116  1.00  0.00    -0.354 N 
ATOM     45  C   UNL A   1      40.739  28.350  28.300  1.00  0.00     0.074 A 
ATOM     46  C   UNL A   1      40.024  27.275  27.673  1.00  0.00     0.031 C 
ATOM     47  C   UNL A   1      45.805  28.002  29.505  1.00  0.00     0.029 A 
ATOM     48  C   UNL A   1      46.622  27.378  28.477  1.00  0.00     0.049 A 
ATOM     49  H   UNL A   1      46.222  25.376  27.840  1.00  0.00     0.167 HD
ATOM     50  C   UNL A   1      40.461  29.336  29.197  1.00  0.00     0.037 A 
ATOM     51  C   UNL A   1      47.465  27.970  27.591  1.00  0.00     0.037 A 
ATOM     52  C   UNL A   1      41.669  30.143  29.454  1.00  0.00     0.049 A 
ATOM     53  C   UNL A   1      47.000  29.376  27.350  1.00  0.00     0.074 A 
ATOM     54  C   UNL A   1      42.506  30.296  30.547  1.00  0.00     0.029 A 
ATOM     55  N   UNL A   1      42.354  30.705  28.370  1.00  0.00    -0.354 N 
ATOM     56  N   UNL A   1      45.781  29.760  27.617  1.00  0.00    -0.248 NA
ATOM     57  C   UNL A   1      47.839  30.472  26.885  1.00  0.00     0.031 C 
ATOM     58  C   UNL A   1      43.728  30.874  30.089  1.00  0.00     0.029 A 
ATOM     59  C   UNL A   1      43.625  31.114  28.727  1.00  0.00     0.049 A 
ATOM     60  H   UNL A   1      41.976  30.797  27.466  1.00  0.00     0.167 HD
ATOM     61  C   UNL A   1      45.671  31.104  27.458  1.00  0.00     0.074 A 
ATOM     62  C   UNL A   1      46.979  31.505  26.968  1.00  0.00     0.031 C 
ATOM     63  C   UNL A   1      44.510  31.761  27.752  1.00  0.00     0.037 A 
BRANCH  50  64
ATOM     64  C   UNL A   1      39.167  29.458  29.994  1.00  0.00     0.057 A 
ATOM     65  C   UNL A   1      38.973  28.677  31.151  1.00  0.00     0.134 A 
ATOM     66  C   UNL A   1      38.041  30.243  29.657  1.00  0.00     0.134 A 
ATOM     67  F   UNL A   1      39.928  27.855  31.609  1.00  0.00    -0.206 F 
ATOM     68  C   UNL A   1      37.781  28.682  31.898  1.00  0.00     0.040 A 
ATOM     69  C   UNL A   1      36.861  30.289  30.417  1.00  0.00     0.040 A 
ATOM     70  F   UNL A   1      37.972  30.985  28.550  1.00  0.00    -0.206 F 
ATOM     71  C   UNL A   1      36.723  29.500  31.540  1.00  0.00     0.006 A 
ENDBRANCH  50  64
BRANCH  51  72
ATOM     72  C   UNL A   1      48.061  26.988  26.637  1.00  0.00     0.057 A 
ATOM     73  C   UNL A   1      47.505  26.918  25.341  1.00  0.00     0.134 A 
ATOM     74  C   UNL A   1      49.370  26.516  26.776  1.00  0.00     0.134 A 
ATOM     75  F   UNL A   1      46.255  27.358  25.121  1.00  0.00    -0.206 F 
ATOM     76  C   UNL A   1      48.254  26.533  24.221  1.00  0.00     0.040 A 
ATOM     77  C   UNL A   1      50.129  26.124  25.660  1.00  0.00     0.040 A 
ATOM     78  F   UNL A   1      49.985  26.555  27.966  1.00  0.00    -0.206 F 
ATOM     79  C   UNL A   1      49.588  26.176  24.376  1.00  0.00     0.006 A 
ENDBRANCH  51  72
BRANCH  63  80
ATOM     80  C   UNL A   1      44.132  33.107  27.194  1.00  0.00     0.057 A 
ATOM     81  C   UNL A   1      43.861  33.347  25.839  1.00  0.00     0.134 A 
ATOM     82  C   UNL A   1      43.841  34.185  28.060  1.00  0.00     0.134 A 
ATOM     83  F   UNL A   1      43.964  32.387  24.911  1.00  0.00    -0.206 F 
ATOM     84  C   UNL A   1      43.399  34.582  25.372  1.00  0.00     0.040 A 
ATOM     85  C   UNL A   1      43.311  35.395  27.613  1.00  0.00     0.040 A 
ATOM     86  F   UNL A   1      44.023  34.103  29.387  1.00  0.00    -0.206 F 
ATOM     87  C   UNL A   1      43.105  35.606  26.261  1.00  0.00     0.006 A 
ENDBRANCH  63  80
ENDBRANCH  37  38
ENDBRANCH  30  32
ENDBRANCH  29  30
ENDBRANCH  28  29
ENDBRANCH  27  28
ENDBRANCH  26  27
ENDBRANCH   1  26
TORSDOF 17
ENDMDL
MODEL 3
REMARK VINA RESULT:     -10.8      3.927      8.750
REMARK SMILES Cc1cccc(Cn2c(=O)c3sccc3n(CC(=O)OCCOCCOC(=O)c3ccc(-c4c5nc(c(-c6c(F)cccc6F)c6ccc([nH]6)c(-c6c(F)cccc6F)c6nc(c(-c7c(F)cccc7F)c7ccc4[nH]7)C=C6)C=C5)cc3)c2=O)c1
REMARK SMILES IDX 22 1 21 2 20 3 18 4 19 5 17 6 16 7 8 8 9 9 83 10 10 11 11 12
REMARK SMILES IDX 84 13 12 14 15 15 13 16 14 17 7 18 6 19 1 20 2 21 3 22 85 23
REMARK SMILES IDX 4 24 5 25 23 26 24 27 25 28 26 29 27 30 28 31 29 32 30 33
REMARK SMILES IDX 82 34 31 35 81 36 32 37 33 38 34 39 75 40 35 41 80 42 74 43
REMARK SMILES IDX 76 44 36 45 79 46 73 47 72 48 37 50 63 51 46 52 62 53 47 54
REMARK SMILES IDX 50 55 61 56 77 57 48 58 49 59 60 61 78 62 51 63 38 64 39 65
REMARK SMILES IDX 44 66 40 67 41 68 43 69 45 70 42 71 64 72 65 73 70 74 66 75
REMARK SMILES IDX 67 76 69 77 71 78 68 79 52 80 53 81 58 82 54 83 55 84 57 85
REMARK SMILES IDX 59 86 56 87
REMARK H PARENT 76 49 50 60
REMARK Flexibility Score: inf
ROOT
ATOM      1  C   UNL A   1      34.256  32.740  27.935  1.00  0.00     0.202 C 
ENDROOT
BRANCH   1   2
ATOM      2  C   UNL A   1      34.221  31.273  28.210  1.00  0.00     0.261 C 
BRANCH   2   3
ATOM      3  O   UNL A   1      33.974  30.561  27.004  1.00  0.00    -0.462 OA
BRANCH   3   4
ATOM      4  C   UNL A   1      34.282  29.232  26.882  1.00  0.00     0.326 C 
ATOM      5  O   UNL A   1      35.391  28.760  26.790  1.00  0.00    -0.250 OA
BRANCH   4   6
ATOM      6  C   UNL A   1      32.985  28.422  26.803  1.00  0.00     0.250 C 
BRANCH   6   7
ATOM      7  N   UNL A   1      32.833  27.959  25.419  1.00  0.00    -0.281 N 
ATOM      8  N   UNL A   1      31.847  28.328  23.276  1.00  0.00    -0.254 N 
ATOM      9  C   UNL A   1      31.975  26.999  22.872  1.00  0.00     0.274 A 
ATOM     10  C   UNL A   1      32.069  28.773  24.578  1.00  0.00     0.332 A 
ATOM     11  O   UNL A   1      31.541  26.581  21.802  1.00  0.00    -0.268 OA
ATOM     12  C   UNL A   1      32.628  26.168  23.854  1.00  0.00     0.116 A 
ATOM     13  O   UNL A   1      31.556  29.806  25.017  1.00  0.00    -0.247 OA
ATOM     14  S   UNL A   1      32.878  24.498  23.664  1.00  0.00    -0.136 S 
ATOM     15  C   UNL A   1      33.074  26.634  25.061  1.00  0.00     0.070 A 
ATOM     16  C   UNL A   1      33.618  24.382  25.206  1.00  0.00     0.068 A 
ATOM     17  C   UNL A   1      33.658  25.602  25.850  1.00  0.00     0.039 A 
BRANCH   8  18
ATOM     18  C   UNL A   1      31.315  29.312  22.336  1.00  0.00     0.166 C 
BRANCH  18  19
ATOM     19  C   UNL A   1      29.883  29.655  22.712  1.00  0.00    -0.028 A 
ATOM     20  C   UNL A   1      26.642  27.888  23.648  1.00  0.00     0.044 C 
ATOM     21  C   UNL A   1      27.616  28.943  23.219  1.00  0.00    -0.051 A 
ATOM     22  C   UNL A   1      27.155  30.241  22.964  1.00  0.00     0.003 A 
ATOM     23  C   UNL A   1      28.977  28.648  23.063  1.00  0.00     0.009 A 
ATOM     24  C   UNL A   1      28.051  31.253  22.641  1.00  0.00     0.001 A 
ATOM     25  C   UNL A   1      29.409  30.969  22.562  1.00  0.00     0.005 A 
ENDBRANCH  18  19
ENDBRANCH   8  18
ENDBRANCH   6   7
ENDBRANCH   4   6
ENDBRANCH   3   4
ENDBRANCH   2   3
ENDBRANCH   1   2
BRANCH   1  26
ATOM     26  O   UNL A   1      33.391  33.322  28.900  1.00  0.00    -0.374 OA
BRANCH  26  27
ATOM     27  C   UNL A   1      33.242  34.726  28.800  1.00  0.00     0.202 C 
BRANCH  27  28
ATOM     28  C   UNL A   1      33.440  35.486  30.118  1.00  0.00     0.261 C 
BRANCH  28  29
ATOM     29  O   UNL A   1      33.508  34.553  31.215  1.00  0.00    -0.460 OA
BRANCH  29  30
ATOM     30  C   UNL A   1      34.678  34.546  31.912  1.00  0.00     0.338 C 
ATOM     31  O   UNL A   1      35.098  35.463  32.598  1.00  0.00    -0.246 OA
BRANCH  30  32
ATOM     32  C   UNL A   1      35.524  33.408  31.444  1.00  0.00     0.060 A 
ATOM     33  C   UNL A   1      35.548  32.213  32.188  1.00  0.00     0.016 A 
ATOM     34  C   UNL A   1      36.535  33.672  30.523  1.00  0.00     0.016 A 
ATOM     35  C   UNL A   1      36.670  31.374  32.132  1.00  0.00     0.010 A 
ATOM     36  C   UNL A   1      37.683  32.911  30.568  1.00  0.00     0.010 A 
ATOM     37  C   UNL A   1      37.776  31.775  31.387  1.00  0.00    -0.014 A 
BRANCH  37  38
ATOM     38  C   UNL A   1      39.094  31.131  31.396  1.00  0.00     0.031 A 
ATOM     39  C   UNL A   1      39.254  29.921  30.559  1.00  0.00     0.074 A 
ATOM     40  C   UNL A   1      40.191  31.686  31.974  1.00  0.00     0.049 A 
ATOM     41  N   UNL A   1      40.215  29.079  30.704  1.00  0.00    -0.248 NA
ATOM     42  C   UNL A   1      38.304  29.503  29.526  1.00  0.00     0.031 C 
ATOM     43  C   UNL A   1      41.602  31.360  31.750  1.00  0.00     0.029 A 
ATOM     44  N   UNL A   1      40.277  32.678  32.963  1.00  0.00    -0.354 N 
ATOM     45  C   UNL A   1      40.231  28.280  29.589  1.00  0.00     0.074 A 
ATOM     46  C   UNL A   1      38.931  28.448  29.004  1.00  0.00     0.031 C 
ATOM     47  C   UNL A   1      42.340  31.842  32.767  1.00  0.00     0.029 A 
ATOM     48  C   UNL A   1      41.413  32.400  33.737  1.00  0.00     0.049 A 
ATOM     49  H   UNL A   1      39.654  33.431  33.090  1.00  0.00     0.167 HD
ATOM     50  C   UNL A   1      41.415  27.712  29.228  1.00  0.00     0.037 A 
ATOM     51  C   UNL A   1      41.307  32.121  35.063  1.00  0.00     0.037 A 
ATOM     52  C   UNL A   1      42.410  27.891  30.302  1.00  0.00     0.049 A 
ATOM     53  C   UNL A   1      41.809  30.728  35.304  1.00  0.00     0.074 A 
ATOM     54  C   UNL A   1      43.567  28.643  30.422  1.00  0.00     0.029 A 
ATOM     55  N   UNL A   1      42.091  27.473  31.600  1.00  0.00    -0.354 N 
ATOM     56  N   UNL A   1      41.903  29.848  34.344  1.00  0.00    -0.248 NA
ATOM     57  C   UNL A   1      42.317  30.225  36.572  1.00  0.00     0.031 C 
ATOM     58  C   UNL A   1      43.885  28.743  31.810  1.00  0.00     0.029 A 
ATOM     59  C   UNL A   1      42.950  28.019  32.535  1.00  0.00     0.049 A 
ATOM     60  H   UNL A   1      41.347  26.867  31.818  1.00  0.00     0.167 HD
ATOM     61  C   UNL A   1      42.530  28.732  34.796  1.00  0.00     0.074 A 
ATOM     62  C   UNL A   1      42.744  29.000  36.209  1.00  0.00     0.031 C 
ATOM     63  C   UNL A   1      42.819  27.692  33.960  1.00  0.00     0.037 A 
BRANCH  50  64
ATOM     64  C   UNL A   1      41.743  27.173  27.840  1.00  0.00     0.057 A 
ATOM     65  C   UNL A   1      42.199  25.848  27.685  1.00  0.00     0.134 A 
ATOM     66  C   UNL A   1      41.720  27.899  26.627  1.00  0.00     0.134 A 
ATOM     67  F   UNL A   1      42.305  25.018  28.733  1.00  0.00    -0.206 F 
ATOM     68  C   UNL A   1      42.587  25.302  26.449  1.00  0.00     0.040 A 
ATOM     69  C   UNL A   1      42.065  27.353  25.380  1.00  0.00     0.040 A 
ATOM     70  F   UNL A   1      41.412  29.195  26.557  1.00  0.00    -0.206 F 
ATOM     71  C   UNL A   1      42.509  26.050  25.286  1.00  0.00     0.006 A 
ENDBRANCH  50  64
BRANCH  51  72
ATOM     72  C   UNL A   1      40.168  32.847  35.701  1.00  0.00     0.057 A 
ATOM     73  C   UNL A   1      38.988  32.113  35.954  1.00  0.00     0.134 A 
ATOM     74  C   UNL A   1      40.358  33.999  36.470  1.00  0.00     0.134 A 
ATOM     75  F   UNL A   1      38.734  30.990  35.263  1.00  0.00    -0.206 F 
ATOM     76  C   UNL A   1      38.116  32.431  37.004  1.00  0.00     0.040 A 
ATOM     77  C   UNL A   1      39.487  34.328  37.524  1.00  0.00     0.040 A 
ATOM     78  F   UNL A   1      41.456  34.751  36.310  1.00  0.00    -0.206 F 
ATOM     79  C   UNL A   1      38.392  33.519  37.822  1.00  0.00     0.006 A 
ENDBRANCH  51  72
BRANCH  63  80
ATOM     80  C   UNL A   1      43.067  26.278  34.416  1.00  0.00     0.057 A 
ATOM     81  C   UNL A   1      42.089  25.459  35.000  1.00  0.00     0.134 A 
ATOM     82  C   UNL A   1      44.281  25.627  34.101  1.00  0.00     0.134 A 
ATOM     83  F   UNL A   1      40.846  25.894  35.241  1.00  0.00    -0.206 F 
ATOM     84  C   UNL A   1      42.321  24.114  35.305  1.00  0.00     0.040 A 
ATOM     85  C   UNL A   1      44.495  24.269  34.334  1.00  0.00     0.040 A 
ATOM     86  F   UNL A   1      45.303  26.269  33.517  1.00  0.00    -0.206 F 
ATOM     87  C   UNL A   1      43.520  23.508  34.957  1.00  0.00     0.006 A 
ENDBRANCH  63  80
ENDBRANCH  37  38
ENDBRANCH  30  32
ENDBRANCH  29  30
ENDBRANCH  28  29
ENDBRANCH  27  28
ENDBRANCH  26  27
ENDBRANCH   1  26
TORSDOF 17
ENDMDL
