MODEL 1
REMARK VINA RESULT:     -12.1      0.000      0.000
REMARK SMILES COc1ccccc1[C@@H]1C[N@@H+](Cc2cn3cc(C)ccc3n2)C[C@H]1C(=O)OCCOCCOC(=O)c1ccc(-c2c3nc(c(-c4c(F)cccc4F)c4ccc([nH]4)c(-c4c(F)cccc4F)c4nc(c(-c5c(F)cccc5F)c5ccc2[nH]5)C=C4)C=C3)cc1
REMARK SMILES IDX 30 1 29 2 28 3 27 4 25 5 26 6 24 7 9 8 10 9 11 10 23 11 8 13
REMARK SMILES IDX 3 14 4 15 5 16 7 17 6 18 2 19 1 20 12 21 13 22 14 23 22 24
REMARK SMILES IDX 15 25 21 26 16 27 20 28 17 29 19 30 18 31 31 32 32 33 33 34
REMARK SMILES IDX 34 35 35 36 36 37 37 38 89 39 38 40 88 41 39 42 40 43 41 44
REMARK SMILES IDX 82 45 42 46 87 47 81 48 83 49 43 50 86 51 80 52 79 53 44 55
REMARK SMILES IDX 70 56 53 57 69 58 54 59 57 60 68 61 84 62 55 63 56 64 67 66
REMARK SMILES IDX 85 67 58 68 45 69 46 70 51 71 47 72 48 73 50 74 52 75 49 76
REMARK SMILES IDX 71 77 72 78 77 79 73 80 74 81 76 82 78 83 75 84 59 85 60 86
REMARK SMILES IDX 65 87 61 88 62 89 64 90 66 91 63 92
REMARK H PARENT 11 12 83 54 57 65
REMARK Flexibility Score: inf
ROOT
ATOM      1  O   UNL A   1      40.493  21.020  25.876  1.00  0.00    -0.374 OA
ENDROOT
BRANCH   1   2
ATOM      2  C   UNL A   1      39.467  21.851  26.424  1.00  0.00     0.202 C 
BRANCH   2   3
ATOM      3  C   UNL A   1      38.230  22.029  25.546  1.00  0.00     0.261 C 
BRANCH   3   4
ATOM      4  O   UNL A   1      37.535  23.263  25.831  1.00  0.00    -0.463 OA
BRANCH   4   5
ATOM      5  C   UNL A   1      36.516  23.532  24.985  1.00  0.00     0.315 C 
ATOM      6  O   UNL A   1      36.554  23.330  23.772  1.00  0.00    -0.252 OA
BRANCH   5   7
ATOM      7  C   UNL A   1      35.296  24.179  25.587  1.00  0.00     0.167 C 
ATOM      8  C   UNL A   1      34.017  24.559  24.841  1.00  0.00     0.098 C 
ATOM      9  C   UNL A   1      32.906  24.329  25.883  1.00  0.00     0.272 C 
ATOM     10  N   UNL A   1      33.399  23.332  26.840  1.00  0.00    -0.329 N 
ATOM     11  C   UNL A   1      34.856  23.267  26.726  1.00  0.00     0.278 C 
ATOM     12  H   UNL A   1      33.111  23.663  27.761  1.00  0.00     0.348 HD
BRANCH   8  13
ATOM     13  C   UNL A   1      33.909  25.957  24.213  1.00  0.00     0.004 A 
ATOM     14  C   UNL A   1      34.010  27.213  24.852  1.00  0.00     0.122 A 
ATOM     15  C   UNL A   1      33.966  28.401  24.093  1.00  0.00     0.047 A 
ATOM     16  C   UNL A   1      33.702  28.384  22.727  1.00  0.00     0.004 A 
ATOM     17  C   UNL A   1      33.560  25.983  22.839  1.00  0.00     0.008 A 
ATOM     18  C   UNL A   1      33.440  27.173  22.109  1.00  0.00     0.001 A 
BRANCH  14  19
ATOM     19  O   UNL A   1      33.768  27.461  26.181  1.00  0.00    -0.496 OA
ATOM     20  C   UNL A   1      34.090  28.725  26.726  1.00  0.00     0.278 C 
ENDBRANCH  14  19
ENDBRANCH   8  13
BRANCH  10  21
ATOM     21  C   UNL A   1      32.776  21.999  26.808  1.00  0.00     0.321 C 
BRANCH  21  22
ATOM     22  C   UNL A   1      33.112  21.211  25.586  1.00  0.00     0.114 A 
ATOM     23  C   UNL A   1      34.313  20.573  25.373  1.00  0.00     0.122 A 
ATOM     24  N   UNL A   1      32.189  20.854  24.614  1.00  0.00    -0.228 NA
ATOM     25  N   UNL A   1      34.009  19.584  24.491  1.00  0.00    -0.306 N 
ATOM     26  C   UNL A   1      32.743  19.834  23.984  1.00  0.00     0.137 A 
ATOM     27  C   UNL A   1      34.656  18.373  24.410  1.00  0.00     0.096 A 
ATOM     28  C   UNL A   1      32.221  18.853  23.091  1.00  0.00     0.048 A 
ATOM     29  C   UNL A   1      33.997  17.340  23.872  1.00  0.00    -0.034 A 
ATOM     30  C   UNL A   1      32.817  17.639  23.045  1.00  0.00     0.009 A 
ATOM     31  C   UNL A   1      34.353  16.000  24.427  1.00  0.00     0.046 C 
ENDBRANCH  21  22
ENDBRANCH  10  21
ENDBRANCH   5   7
ENDBRANCH   4   5
ENDBRANCH   3   4
ENDBRANCH   2   3
ENDBRANCH   1   2
BRANCH   1  32
ATOM     32  C   UNL A   1      41.179  20.162  26.775  1.00  0.00     0.202 C 
BRANCH  32  33
ATOM     33  C   UNL A   1      42.069  19.114  26.133  1.00  0.00     0.261 C 
BRANCH  33  34
ATOM     34  O   UNL A   1      42.777  19.595  24.992  1.00  0.00    -0.460 OA
BRANCH  34  35
ATOM     35  C   UNL A   1      44.055  20.000  25.199  1.00  0.00     0.338 C 
ATOM     36  O   UNL A   1      45.054  19.298  25.304  1.00  0.00    -0.246 OA
BRANCH  35  37
ATOM     37  C   UNL A   1      43.977  21.452  25.425  1.00  0.00     0.060 A 
ATOM     38  C   UNL A   1      43.480  22.411  24.531  1.00  0.00     0.016 A 
ATOM     39  C   UNL A   1      44.434  21.850  26.669  1.00  0.00     0.016 A 
ATOM     40  C   UNL A   1      43.458  23.777  24.913  1.00  0.00     0.010 A 
ATOM     41  C   UNL A   1      44.312  23.147  27.041  1.00  0.00     0.010 A 
ATOM     42  C   UNL A   1      43.914  24.146  26.188  1.00  0.00    -0.014 A 
BRANCH  42  43
ATOM     43  C   UNL A   1      43.888  25.449  26.877  1.00  0.00     0.031 A 
ATOM     44  C   UNL A   1      44.948  26.381  26.408  1.00  0.00     0.074 A 
ATOM     45  C   UNL A   1      42.800  25.921  27.570  1.00  0.00     0.049 A 
ATOM     46  N   UNL A   1      46.122  26.521  26.925  1.00  0.00    -0.248 NA
ATOM     47  C   UNL A   1      44.802  27.139  25.151  1.00  0.00     0.031 C 
ATOM     48  C   UNL A   1      41.468  25.283  27.729  1.00  0.00     0.029 A 
ATOM     49  N   UNL A   1      42.603  27.108  28.239  1.00  0.00    -0.354 N 
ATOM     50  C   UNL A   1      46.638  27.671  26.334  1.00  0.00     0.074 A 
ATOM     51  C   UNL A   1      45.953  27.815  25.086  1.00  0.00     0.031 C 
ATOM     52  C   UNL A   1      40.578  26.141  28.282  1.00  0.00     0.029 A 
ATOM     53  C   UNL A   1      41.300  27.314  28.734  1.00  0.00     0.049 A 
ATOM     54  H   UNL A   1      43.323  27.768  28.362  1.00  0.00     0.167 HD
ATOM     55  C   UNL A   1      47.236  28.607  27.123  1.00  0.00     0.037 A 
ATOM     56  C   UNL A   1      40.860  28.287  29.581  1.00  0.00     0.037 A 
ATOM     57  C   UNL A   1      47.356  28.082  28.465  1.00  0.00     0.049 A 
ATOM     58  C   UNL A   1      42.042  28.727  30.343  1.00  0.00     0.074 A 
ATOM     59  C   UNL A   1      48.079  27.083  29.079  1.00  0.00     0.029 A 
ATOM     60  N   UNL A   1      46.250  28.322  29.238  1.00  0.00    -0.354 N 
ATOM     61  N   UNL A   1      42.660  27.966  31.200  1.00  0.00    -0.248 NA
ATOM     62  C   UNL A   1      42.759  29.920  29.915  1.00  0.00     0.031 C 
ATOM     63  C   UNL A   1      47.294  26.642  30.183  1.00  0.00     0.029 A 
ATOM     64  C   UNL A   1      46.162  27.444  30.285  1.00  0.00     0.049 A 
ATOM     65  H   UNL A   1      45.598  29.038  29.063  1.00  0.00     0.167 HD
ATOM     66  C   UNL A   1      43.980  28.308  31.031  1.00  0.00     0.074 A 
ATOM     67  C   UNL A   1      43.967  29.624  30.399  1.00  0.00     0.031 C 
ATOM     68  C   UNL A   1      44.947  27.349  31.059  1.00  0.00     0.037 A 
BRANCH  55  69
ATOM     69  C   UNL A   1      47.266  30.106  26.913  1.00  0.00     0.057 A 
ATOM     70  C   UNL A   1      48.504  30.765  27.064  1.00  0.00     0.134 A 
ATOM     71  C   UNL A   1      46.145  30.956  26.861  1.00  0.00     0.134 A 
ATOM     72  F   UNL A   1      49.647  30.066  27.134  1.00  0.00    -0.206 F 
ATOM     73  C   UNL A   1      48.611  32.151  27.221  1.00  0.00     0.040 A 
ATOM     74  C   UNL A   1      46.245  32.349  26.973  1.00  0.00     0.040 A 
ATOM     75  F   UNL A   1      44.892  30.490  26.799  1.00  0.00    -0.206 F 
ATOM     76  C   UNL A   1      47.477  32.950  27.180  1.00  0.00     0.006 A 
ENDBRANCH  55  69
BRANCH  56  77
ATOM     77  C   UNL A   1      39.554  28.940  29.862  1.00  0.00     0.057 A 
ATOM     78  C   UNL A   1      38.754  29.469  28.829  1.00  0.00     0.134 A 
ATOM     79  C   UNL A   1      38.899  28.704  31.079  1.00  0.00     0.134 A 
ATOM     80  F   UNL A   1      39.275  29.711  27.617  1.00  0.00    -0.206 F 
ATOM     81  C   UNL A   1      37.375  29.688  28.977  1.00  0.00     0.040 A 
ATOM     82  C   UNL A   1      37.520  28.916  31.239  1.00  0.00     0.040 A 
ATOM     83  F   UNL A   1      39.561  28.155  32.107  1.00  0.00    -0.206 F 
ATOM     84  C   UNL A   1      36.748  29.387  30.179  1.00  0.00     0.006 A 
ENDBRANCH  56  77
BRANCH  68  85
ATOM     85  C   UNL A   1      44.677  26.097  31.839  1.00  0.00     0.057 A 
ATOM     86  C   UNL A   1      44.429  24.828  31.298  1.00  0.00     0.134 A 
ATOM     87  C   UNL A   1      44.740  26.186  33.234  1.00  0.00     0.134 A 
ATOM     88  F   UNL A   1      44.395  24.625  29.977  1.00  0.00    -0.206 F 
ATOM     89  C   UNL A   1      44.238  23.705  32.112  1.00  0.00     0.040 A 
ATOM     90  C   UNL A   1      44.582  25.070  34.056  1.00  0.00     0.040 A 
ATOM     91  F   UNL A   1      44.993  27.366  33.823  1.00  0.00    -0.206 F 
ATOM     92  C   UNL A   1      44.324  23.825  33.496  1.00  0.00     0.006 A 
ENDBRANCH  68  85
ENDBRANCH  42  43
ENDBRANCH  35  37
ENDBRANCH  34  35
ENDBRANCH  33  34
ENDBRANCH  32  33
ENDBRANCH   1  32
TORSDOF 18
ENDMDL
MODEL 2
REMARK VINA RESULT:     -12.0      3.547      8.122
REMARK SMILES COc1ccccc1[C@@H]1C[N@@H+](Cc2cn3cc(C)ccc3n2)C[C@H]1C(=O)OCCOCCOC(=O)c1ccc(-c2c3nc(c(-c4c(F)cccc4F)c4ccc([nH]4)c(-c4c(F)cccc4F)c4nc(c(-c5c(F)cccc5F)c5ccc2[nH]5)C=C4)C=C3)cc1
REMARK SMILES IDX 30 1 29 2 28 3 27 4 25 5 26 6 24 7 9 8 10 9 11 10 23 11 8 13
REMARK SMILES IDX 3 14 4 15 5 16 7 17 6 18 2 19 1 20 12 21 13 22 14 23 22 24
REMARK SMILES IDX 15 25 21 26 16 27 20 28 17 29 19 30 18 31 31 32 32 33 33 34
REMARK SMILES IDX 34 35 35 36 36 37 37 38 89 39 38 40 88 41 39 42 40 43 41 44
REMARK SMILES IDX 82 45 42 46 87 47 81 48 83 49 43 50 86 51 80 52 79 53 44 55
REMARK SMILES IDX 70 56 53 57 69 58 54 59 57 60 68 61 84 62 55 63 56 64 67 66
REMARK SMILES IDX 85 67 58 68 45 69 46 70 51 71 47 72 48 73 50 74 52 75 49 76
REMARK SMILES IDX 71 77 72 78 77 79 73 80 74 81 76 82 78 83 75 84 59 85 60 86
REMARK SMILES IDX 65 87 61 88 62 89 64 90 66 91 63 92
REMARK H PARENT 11 12 83 54 57 65
REMARK Flexibility Score: inf
ROOT
ATOM      1  O   UNL A   1      33.530  31.815  28.000  1.00  0.00    -0.374 OA
ENDROOT
BRANCH   1   2
ATOM      2  C   UNL A   1      33.095  30.917  26.976  1.00  0.00     0.202 C 
BRANCH   2   3
ATOM      3  C   UNL A   1      32.828  29.484  27.434  1.00  0.00     0.261 C 
BRANCH   3   4
ATOM      4  O   UNL A   1      33.546  28.517  26.636  1.00  0.00    -0.463 OA
BRANCH   4   5
ATOM      5  C   UNL A   1      32.882  27.356  26.443  1.00  0.00     0.315 C 
ATOM      6  O   UNL A   1      31.844  27.050  27.029  1.00  0.00    -0.252 OA
BRANCH   5   7
ATOM      7  C   UNL A   1      33.513  26.371  25.495  1.00  0.00     0.167 C 
ATOM      8  C   UNL A   1      32.948  25.003  25.110  1.00  0.00     0.098 C 
ATOM      9  C   UNL A   1      33.379  24.832  23.641  1.00  0.00     0.272 C 
ATOM     10  N   UNL A   1      33.568  26.174  23.078  1.00  0.00    -0.329 N 
ATOM     11  C   UNL A   1      33.715  27.120  24.184  1.00  0.00     0.278 C 
ATOM     12  H   UNL A   1      34.416  26.123  22.514  1.00  0.00     0.348 HD
BRANCH   8  13
ATOM     13  C   UNL A   1      33.334  23.775  25.949  1.00  0.00     0.004 A 
ATOM     14  C   UNL A   1      32.529  23.044  26.851  1.00  0.00     0.122 A 
ATOM     15  C   UNL A   1      33.036  21.885  27.475  1.00  0.00     0.047 A 
ATOM     16  C   UNL A   1      34.364  21.497  27.325  1.00  0.00     0.004 A 
ATOM     17  C   UNL A   1      34.699  23.398  25.884  1.00  0.00     0.008 A 
ATOM     18  C   UNL A   1      35.213  22.291  26.572  1.00  0.00     0.001 A 
BRANCH  14  19
ATOM     19  O   UNL A   1      31.421  23.520  27.507  1.00  0.00    -0.496 OA
ATOM     20  C   UNL A   1      30.161  23.486  26.866  1.00  0.00     0.278 C 
ENDBRANCH  14  19
ENDBRANCH   8  13
BRANCH  10  21
ATOM     21  C   UNL A   1      32.587  26.630  22.079  1.00  0.00     0.321 C 
BRANCH  21  22
ATOM     22  C   UNL A   1      31.503  27.482  22.651  1.00  0.00     0.114 A 
ATOM     23  C   UNL A   1      31.505  28.860  22.641  1.00  0.00     0.122 A 
ATOM     24  N   UNL A   1      30.274  26.997  23.071  1.00  0.00    -0.228 NA
ATOM     25  N   UNL A   1      30.189  29.191  22.723  1.00  0.00    -0.306 N 
ATOM     26  C   UNL A   1      29.479  28.052  23.070  1.00  0.00     0.137 A 
ATOM     27  C   UNL A   1      29.627  30.326  22.186  1.00  0.00     0.096 A 
ATOM     28  C   UNL A   1      28.062  28.192  23.130  1.00  0.00     0.048 A 
ATOM     29  C   UNL A   1      28.317  30.313  21.911  1.00  0.00    -0.034 A 
ATOM     30  C   UNL A   1      27.494  29.278  22.557  1.00  0.00     0.009 A 
ATOM     31  C   UNL A   1      27.904  31.151  20.747  1.00  0.00     0.046 C 
ENDBRANCH  21  22
ENDBRANCH  10  21
ENDBRANCH   5   7
ENDBRANCH   4   5
ENDBRANCH   3   4
ENDBRANCH   2   3
ENDBRANCH   1   2
BRANCH   1  32
ATOM     32  C   UNL A   1      34.919  32.105  28.057  1.00  0.00     0.202 C 
BRANCH  32  33
ATOM     33  C   UNL A   1      35.695  31.392  29.149  1.00  0.00     0.261 C 
BRANCH  33  34
ATOM     34  O   UNL A   1      36.219  30.131  28.740  1.00  0.00    -0.460 OA
BRANCH  34  35
ATOM     35  C   UNL A   1      36.869  29.409  29.687  1.00  0.00     0.338 C 
ATOM     36  O   UNL A   1      36.543  29.246  30.856  1.00  0.00    -0.246 OA
BRANCH  35  37
ATOM     37  C   UNL A   1      38.131  28.984  29.062  1.00  0.00     0.060 A 
ATOM     38  C   UNL A   1      38.609  29.365  27.799  1.00  0.00     0.016 A 
ATOM     39  C   UNL A   1      38.892  28.142  29.855  1.00  0.00     0.016 A 
ATOM     40  C   UNL A   1      39.862  28.876  27.350  1.00  0.00     0.010 A 
ATOM     41  C   UNL A   1      40.126  27.769  29.438  1.00  0.00     0.010 A 
ATOM     42  C   UNL A   1      40.616  28.036  28.184  1.00  0.00    -0.014 A 
BRANCH  42  43
ATOM     43  C   UNL A   1      41.979  27.497  28.025  1.00  0.00     0.031 A 
ATOM     44  C   UNL A   1      42.032  26.281  27.170  1.00  0.00     0.074 A 
ATOM     45  C   UNL A   1      43.118  28.221  28.279  1.00  0.00     0.049 A 
ATOM     46  N   UNL A   1      41.968  25.059  27.579  1.00  0.00    -0.248 NA
ATOM     47  C   UNL A   1      41.988  26.376  25.699  1.00  0.00     0.031 C 
ATOM     48  C   UNL A   1      43.226  29.641  28.699  1.00  0.00     0.029 A 
ATOM     49  N   UNL A   1      44.448  27.882  28.158  1.00  0.00    -0.354 N 
ATOM     50  C   UNL A   1      42.326  24.292  26.474  1.00  0.00     0.074 A 
ATOM     51  C   UNL A   1      42.028  25.092  25.326  1.00  0.00     0.031 C 
ATOM     52  C   UNL A   1      44.507  30.076  28.631  1.00  0.00     0.029 A 
ATOM     53  C   UNL A   1      45.361  28.931  28.386  1.00  0.00     0.049 A 
ATOM     54  H   UNL A   1      44.739  26.971  27.928  1.00  0.00     0.167 HD
ATOM     55  C   UNL A   1      43.229  23.284  26.634  1.00  0.00     0.037 A 
ATOM     56  C   UNL A   1      46.716  28.859  28.520  1.00  0.00     0.037 A 
ATOM     57  C   UNL A   1      43.503  23.120  28.044  1.00  0.00     0.049 A 
ATOM     58  C   UNL A   1      47.007  27.484  28.965  1.00  0.00     0.074 A 
ATOM     59  C   UNL A   1      42.802  22.686  29.147  1.00  0.00     0.029 A 
ATOM     60  N   UNL A   1      44.517  23.926  28.493  1.00  0.00    -0.354 N 
ATOM     61  N   UNL A   1      46.656  27.025  30.131  1.00  0.00    -0.248 NA
ATOM     62  C   UNL A   1      47.409  26.489  27.981  1.00  0.00     0.031 C 
ATOM     63  C   UNL A   1      43.356  23.370  30.268  1.00  0.00     0.029 A 
ATOM     64  C   UNL A   1      44.445  24.125  29.846  1.00  0.00     0.049 A 
ATOM     65  H   UNL A   1      45.211  24.314  27.914  1.00  0.00     0.167 HD
ATOM     66  C   UNL A   1      46.324  25.717  29.868  1.00  0.00     0.074 A 
ATOM     67  C   UNL A   1      46.986  25.390  28.609  1.00  0.00     0.031 C 
ATOM     68  C   UNL A   1      45.247  25.146  30.477  1.00  0.00     0.037 A 
BRANCH  55  69
ATOM     69  C   UNL A   1      44.238  22.781  25.623  1.00  0.00     0.057 A 
ATOM     70  C   UNL A   1      44.331  21.388  25.427  1.00  0.00     0.134 A 
ATOM     71  C   UNL A   1      45.290  23.531  25.064  1.00  0.00     0.134 A 
ATOM     72  F   UNL A   1      43.394  20.563  25.918  1.00  0.00    -0.206 F 
ATOM     73  C   UNL A   1      45.419  20.784  24.786  1.00  0.00     0.040 A 
ATOM     74  C   UNL A   1      46.361  22.939  24.382  1.00  0.00     0.040 A 
ATOM     75  F   UNL A   1      45.395  24.855  25.226  1.00  0.00    -0.206 F 
ATOM     76  C   UNL A   1      46.443  21.561  24.264  1.00  0.00     0.006 A 
ENDBRANCH  55  69
BRANCH  56  77
ATOM     77  C   UNL A   1      47.854  29.794  28.321  1.00  0.00     0.057 A 
ATOM     78  C   UNL A   1      48.450  30.475  29.401  1.00  0.00     0.134 A 
ATOM     79  C   UNL A   1      48.616  29.732  27.146  1.00  0.00     0.134 A 
ATOM     80  F   UNL A   1      47.817  30.573  30.580  1.00  0.00    -0.206 F 
ATOM     81  C   UNL A   1      49.750  31.002  29.339  1.00  0.00     0.040 A 
ATOM     82  C   UNL A   1      49.918  30.253  27.071  1.00  0.00     0.040 A 
ATOM     83  F   UNL A   1      48.159  29.063  26.078  1.00  0.00    -0.206 F 
ATOM     84  C   UNL A   1      50.499  30.870  28.177  1.00  0.00     0.006 A 
ENDBRANCH  56  77
BRANCH  68  85
ATOM     85  C   UNL A   1      44.820  25.687  31.809  1.00  0.00     0.057 A 
ATOM     86  C   UNL A   1      45.447  25.440  33.038  1.00  0.00     0.134 A 
ATOM     87  C   UNL A   1      43.733  26.568  31.822  1.00  0.00     0.134 A 
ATOM     88  F   UNL A   1      46.523  24.650  33.126  1.00  0.00    -0.206 F 
ATOM     89  C   UNL A   1      45.002  26.034  34.224  1.00  0.00     0.040 A 
ATOM     90  C   UNL A   1      43.297  27.190  32.993  1.00  0.00     0.040 A 
ATOM     91  F   UNL A   1      43.093  26.867  30.680  1.00  0.00    -0.206 F 
ATOM     92  C   UNL A   1      43.928  26.919  34.201  1.00  0.00     0.006 A 
ENDBRANCH  68  85
ENDBRANCH  42  43
ENDBRANCH  35  37
ENDBRANCH  34  35
ENDBRANCH  33  34
ENDBRANCH  32  33
ENDBRANCH   1  32
TORSDOF 18
ENDMDL
MODEL 3
REMARK VINA RESULT:     -11.8      1.592      4.345
REMARK SMILES COc1ccccc1[C@@H]1C[N@@H+](Cc2cn3cc(C)ccc3n2)C[C@H]1C(=O)OCCOCCOC(=O)c1ccc(-c2c3nc(c(-c4c(F)cccc4F)c4ccc([nH]4)c(-c4c(F)cccc4F)c4nc(c(-c5c(F)cccc5F)c5ccc2[nH]5)C=C4)C=C3)cc1
REMARK SMILES IDX 30 1 29 2 28 3 27 4 25 5 26 6 24 7 9 8 10 9 11 10 23 11 8 13
REMARK SMILES IDX 3 14 4 15 5 16 7 17 6 18 2 19 1 20 12 21 13 22 14 23 22 24
REMARK SMILES IDX 15 25 21 26 16 27 20 28 17 29 19 30 18 31 31 32 32 33 33 34
REMARK SMILES IDX 34 35 35 36 36 37 37 38 89 39 38 40 88 41 39 42 40 43 41 44
REMARK SMILES IDX 82 45 42 46 87 47 81 48 83 49 43 50 86 51 80 52 79 53 44 55
REMARK SMILES IDX 70 56 53 57 69 58 54 59 57 60 68 61 84 62 55 63 56 64 67 66
REMARK SMILES IDX 85 67 58 68 45 69 46 70 51 71 47 72 48 73 50 74 52 75 49 76
REMARK SMILES IDX 71 77 72 78 77 79 73 80 74 81 76 82 78 83 75 84 59 85 60 86
REMARK SMILES IDX 65 87 61 88 62 89 64 90 66 91 63 92
REMARK H PARENT 11 12 83 54 57 65
REMARK Flexibility Score: inf
ROOT
ATOM      1  O   UNL A   1      42.044  19.679  25.778  1.00  0.00    -0.374 OA
ENDROOT
BRANCH   1   2
ATOM      2  C   UNL A   1      40.686  19.725  26.221  1.00  0.00     0.202 C 
BRANCH   2   3
ATOM      3  C   UNL A   1      39.898  20.960  25.788  1.00  0.00     0.261 C 
BRANCH   3   4
ATOM      4  O   UNL A   1      38.555  20.629  25.373  1.00  0.00    -0.463 OA
BRANCH   4   5
ATOM      5  C   UNL A   1      37.672  21.645  25.494  1.00  0.00     0.315 C 
ATOM      6  O   UNL A   1      37.714  22.493  26.385  1.00  0.00    -0.252 OA
BRANCH   5   7
ATOM      7  C   UNL A   1      36.542  21.676  24.499  1.00  0.00     0.167 C 
ATOM      8  C   UNL A   1      35.057  21.488  24.814  1.00  0.00     0.098 C 
ATOM      9  C   UNL A   1      34.352  22.409  23.802  1.00  0.00     0.272 C 
ATOM     10  N   UNL A   1      35.302  23.465  23.429  1.00  0.00    -0.329 N 
ATOM     11  C   UNL A   1      36.648  23.017  23.784  1.00  0.00     0.278 C 
ATOM     12  H   UNL A   1      35.202  23.586  22.421  1.00  0.00     0.348 HD
BRANCH   8  13
ATOM     13  C   UNL A   1      34.463  20.072  24.785  1.00  0.00     0.004 A 
ATOM     14  C   UNL A   1      33.126  19.679  25.014  1.00  0.00     0.122 A 
ATOM     15  C   UNL A   1      32.746  18.329  24.862  1.00  0.00     0.047 A 
ATOM     16  C   UNL A   1      33.684  17.332  24.608  1.00  0.00     0.004 A 
ATOM     17  C   UNL A   1      35.400  19.022  24.610  1.00  0.00     0.008 A 
ATOM     18  C   UNL A   1      35.024  17.674  24.540  1.00  0.00     0.001 A 
BRANCH  14  19
ATOM     19  O   UNL A   1      32.195  20.381  25.740  1.00  0.00    -0.496 OA
ATOM     20  C   UNL A   1      31.529  21.478  25.148  1.00  0.00     0.278 C 
ENDBRANCH  14  19
ENDBRANCH   8  13
BRANCH  10  21
ATOM     21  C   UNL A   1      35.020  24.827  23.912  1.00  0.00     0.321 C 
BRANCH  21  22
ATOM     22  C   UNL A   1      33.590  25.229  23.767  1.00  0.00     0.114 A 
ATOM     23  C   UNL A   1      32.795  25.673  24.801  1.00  0.00     0.122 A 
ATOM     24  N   UNL A   1      32.952  25.404  22.549  1.00  0.00    -0.228 NA
ATOM     25  N   UNL A   1      31.840  26.417  24.185  1.00  0.00    -0.306 N 
ATOM     26  C   UNL A   1      31.908  26.165  22.823  1.00  0.00     0.137 A 
ATOM     27  C   UNL A   1      31.199  27.498  24.745  1.00  0.00     0.096 A 
ATOM     28  C   UNL A   1      31.022  26.920  22.001  1.00  0.00     0.048 A 
ATOM     29  C   UNL A   1      30.664  28.410  23.925  1.00  0.00    -0.034 A 
ATOM     30  C   UNL A   1      30.429  28.017  22.527  1.00  0.00     0.009 A 
ATOM     31  C   UNL A   1      30.657  29.808  24.448  1.00  0.00     0.046 C 
ENDBRANCH  21  22
ENDBRANCH  10  21
ENDBRANCH   5   7
ENDBRANCH   4   5
ENDBRANCH   3   4
ENDBRANCH   2   3
ENDBRANCH   1   2
BRANCH   1  32
ATOM     32  C   UNL A   1      42.771  18.488  26.043  1.00  0.00     0.202 C 
BRANCH  32  33
ATOM     33  C   UNL A   1      44.219  18.487  25.590  1.00  0.00     0.261 C 
BRANCH  33  34
ATOM     34  O   UNL A   1      44.475  19.386  24.513  1.00  0.00    -0.460 OA
BRANCH  34  35
ATOM     35  C   UNL A   1      45.654  20.057  24.552  1.00  0.00     0.338 C 
ATOM     36  O   UNL A   1      46.783  19.585  24.514  1.00  0.00    -0.246 OA
BRANCH  35  37
ATOM     37  C   UNL A   1      45.298  21.463  24.805  1.00  0.00     0.060 A 
ATOM     38  C   UNL A   1      44.610  22.320  23.935  1.00  0.00     0.016 A 
ATOM     39  C   UNL A   1      45.689  21.923  26.050  1.00  0.00     0.016 A 
ATOM     40  C   UNL A   1      44.329  23.649  24.341  1.00  0.00     0.010 A 
ATOM     41  C   UNL A   1      45.323  23.166  26.446  1.00  0.00     0.010 A 
ATOM     42  C   UNL A   1      44.725  24.081  25.617  1.00  0.00    -0.014 A 
BRANCH  42  43
ATOM     43  C   UNL A   1      44.457  25.343  26.330  1.00  0.00     0.031 A 
ATOM     44  C   UNL A   1      45.451  26.408  26.029  1.00  0.00     0.074 A 
ATOM     45  C   UNL A   1      43.241  25.660  26.884  1.00  0.00     0.049 A 
ATOM     46  N   UNL A   1      46.525  26.658  26.700  1.00  0.00    -0.248 NA
ATOM     47  C   UNL A   1      45.380  27.195  24.783  1.00  0.00     0.031 C 
ATOM     48  C   UNL A   1      41.985  24.870  26.849  1.00  0.00     0.029 A 
ATOM     49  N   UNL A   1      42.822  26.790  27.551  1.00  0.00    -0.354 N 
ATOM     50  C   UNL A   1      46.974  27.883  26.212  1.00  0.00     0.074 A 
ATOM     51  C   UNL A   1      46.443  27.999  24.889  1.00  0.00     0.031 C 
ATOM     52  C   UNL A   1      40.936  25.598  27.301  1.00  0.00     0.029 A 
ATOM     53  C   UNL A   1      41.451  26.826  27.874  1.00  0.00     0.049 A 
ATOM     54  H   UNL A   1      43.437  27.521  27.785  1.00  0.00     0.167 HD
ATOM     55  C   UNL A   1      47.351  28.848  27.097  1.00  0.00     0.037 A 
ATOM     56  C   UNL A   1      40.794  27.708  28.680  1.00  0.00     0.037 A 
ATOM     57  C   UNL A   1      47.358  28.286  28.429  1.00  0.00     0.049 A 
ATOM     58  C   UNL A   1      41.809  28.248  29.603  1.00  0.00     0.074 A 
ATOM     59  C   UNL A   1      48.108  27.351  29.107  1.00  0.00     0.029 A 
ATOM     60  N   UNL A   1      46.142  28.367  29.055  1.00  0.00    -0.354 N 
ATOM     61  N   UNL A   1      42.396  27.527  30.514  1.00  0.00    -0.248 NA
ATOM     62  C   UNL A   1      42.429  29.531  29.304  1.00  0.00     0.031 C 
ATOM     63  C   UNL A   1      47.245  26.780  30.087  1.00  0.00     0.029 A 
ATOM     64  C   UNL A   1      46.024  27.443  30.058  1.00  0.00     0.049 A 
ATOM     65  H   UNL A   1      45.438  29.011  28.813  1.00  0.00     0.167 HD
ATOM     66  C   UNL A   1      43.678  28.024  30.530  1.00  0.00     0.074 A 
ATOM     67  C   UNL A   1      43.591  29.354  29.936  1.00  0.00     0.031 C 
ATOM     68  C   UNL A   1      44.739  27.179  30.662  1.00  0.00     0.037 A 
BRANCH  55  69
ATOM     69  C   UNL A   1      47.231  30.348  26.931  1.00  0.00     0.057 A 
ATOM     70  C   UNL A   1      48.362  31.134  27.235  1.00  0.00     0.134 A 
ATOM     71  C   UNL A   1      46.031  31.069  26.778  1.00  0.00     0.134 A 
ATOM     72  F   UNL A   1      49.564  30.565  27.413  1.00  0.00    -0.206 F 
ATOM     73  C   UNL A   1      48.292  32.516  27.439  1.00  0.00     0.040 A 
ATOM     74  C   UNL A   1      45.959  32.459  26.936  1.00  0.00     0.040 A 
ATOM     75  F   UNL A   1      44.854  30.470  26.566  1.00  0.00    -0.206 F 
ATOM     76  C   UNL A   1      47.084  33.185  27.295  1.00  0.00     0.006 A 
ENDBRANCH  55  69
BRANCH  56  77
ATOM     77  C   UNL A   1      39.395  28.196  28.802  1.00  0.00     0.057 A 
ATOM     78  C   UNL A   1      38.676  28.089  30.009  1.00  0.00     0.134 A 
ATOM     79  C   UNL A   1      38.889  29.116  27.873  1.00  0.00     0.134 A 
ATOM     80  F   UNL A   1      39.087  27.254  30.977  1.00  0.00    -0.206 F 
ATOM     81  C   UNL A   1      37.564  28.893  30.302  1.00  0.00     0.040 A 
ATOM     82  C   UNL A   1      37.779  29.929  28.155  1.00  0.00     0.040 A 
ATOM     83  F   UNL A   1      39.530  29.329  26.715  1.00  0.00    -0.206 F 
ATOM     84  C   UNL A   1      37.126  29.837  29.382  1.00  0.00     0.006 A 
ENDBRANCH  56  77
BRANCH  68  85
ATOM     85  C   UNL A   1      44.521  25.874  31.367  1.00  0.00     0.057 A 
ATOM     86  C   UNL A   1      44.342  25.704  32.747  1.00  0.00     0.134 A 
ATOM     87  C   UNL A   1      44.424  24.726  30.573  1.00  0.00     0.134 A 
ATOM     88  F   UNL A   1      44.369  26.743  33.588  1.00  0.00    -0.206 F 
ATOM     89  C   UNL A   1      44.093  24.445  33.307  1.00  0.00     0.040 A 
ATOM     90  C   UNL A   1      44.146  23.471  31.114  1.00  0.00     0.040 A 
ATOM     91  F   UNL A   1      44.565  24.815  29.240  1.00  0.00    -0.206 F 
ATOM     92  C   UNL A   1      43.987  23.326  32.487  1.00  0.00     0.006 A 
ENDBRANCH  68  85
ENDBRANCH  42  43
ENDBRANCH  35  37
ENDBRANCH  34  35
ENDBRANCH  33  34
ENDBRANCH  32  33
ENDBRANCH   1  32
TORSDOF 18
ENDMDL
