MODEL 1
REMARK VINA RESULT:      -9.7      0.000      0.000
REMARK SMILES N#CCNC(=O)Cn1ccc(C(=O)OCCOCCOC(=O)c2ccc(-c3c4nc(c(-c5c(F)cccc5F)c5ccc([nH]5)c(-c5c(F)cccc5F)c5nc(c(-c6c(F)cccc6F)c6ccc3[nH]6)C=C5)C=C4)cc2)c1
REMARK SMILES IDX 16 1 15 2 14 3 12 4 13 5 11 6 8 7 9 8 77 9 10 10 7 11 5 12
REMARK SMILES IDX 4 13 6 15 3 16 2 17 1 18 17 19 18 20 19 21 20 22 21 23 22 24
REMARK SMILES IDX 23 25 24 26 76 27 25 28 75 29 26 30 27 31 28 32 69 33 29 34
REMARK SMILES IDX 74 35 68 36 70 37 30 38 73 39 67 40 66 41 31 43 57 44 40 45
REMARK SMILES IDX 56 46 41 47 44 48 55 49 71 50 42 51 43 52 54 54 72 55 45 56
REMARK SMILES IDX 32 57 33 58 38 59 34 60 35 61 37 62 39 63 36 64 58 65 59 66
REMARK SMILES IDX 64 67 60 68 61 69 63 70 65 71 62 72 46 73 47 74 52 75 48 76
REMARK SMILES IDX 49 77 51 78 53 79 50 80
REMARK H PARENT 4 14 70 42 44 53
REMARK Flexibility Score: inf
ROOT
ATOM      1  C   UNL A   1      32.586  29.808  27.269  1.00  0.00     0.202 C 
ENDROOT
BRANCH   1   2
ATOM      2  C   UNL A   1      32.912  28.586  26.404  1.00  0.00     0.261 C 
BRANCH   2   3
ATOM      3  O   UNL A   1      31.722  27.947  25.910  1.00  0.00    -0.460 OA
BRANCH   3   4
ATOM      4  C   UNL A   1      31.385  28.215  24.610  1.00  0.00     0.339 C 
ATOM      5  O   UNL A   1      30.820  29.208  24.222  1.00  0.00    -0.246 OA
BRANCH   4   6
ATOM      6  C   UNL A   1      32.001  27.234  23.708  1.00  0.00     0.077 A 
ATOM      7  N   UNL A   1      32.604  25.296  22.762  1.00  0.00    -0.344 N 
ATOM      8  C   UNL A   1      33.480  26.250  22.305  1.00  0.00     0.087 A 
ATOM      9  C   UNL A   1      31.677  25.895  23.573  1.00  0.00     0.101 A 
ATOM     10  C   UNL A   1      33.120  27.460  22.855  1.00  0.00     0.035 A 
BRANCH   7  11
ATOM     11  C   UNL A   1      32.732  23.879  22.440  1.00  0.00     0.221 C 
BRANCH  11  12
ATOM     12  C   UNL A   1      33.649  23.085  23.347  1.00  0.00     0.240 C 
ATOM     13  N   UNL A   1      33.159  22.442  24.446  1.00  0.00    -0.341 N 
ATOM     14  H   UNL A   1      33.824  21.958  24.987  1.00  0.00     0.164 HD
ATOM     15  O   UNL A   1      34.864  23.035  23.144  1.00  0.00    -0.273 OA
BRANCH  13  16
ATOM     16  C   UNL A   1      31.791  22.372  24.927  1.00  0.00     0.236 C 
BRANCH  16  17
ATOM     17  C   UNL A   1      31.564  23.159  26.208  1.00  0.00     0.084 C 
ATOM     18  N   UNL A   1      31.376  23.811  27.269  1.00  0.00    -0.196 NA
ENDBRANCH  16  17
ENDBRANCH  13  16
ENDBRANCH  11  12
ENDBRANCH   7  11
ENDBRANCH   4   6
ENDBRANCH   3   4
ENDBRANCH   2   3
ENDBRANCH   1   2
BRANCH   1  19
ATOM     19  O   UNL A   1      32.630  31.062  26.575  1.00  0.00    -0.374 OA
BRANCH  19  20
ATOM     20  C   UNL A   1      31.518  31.931  26.766  1.00  0.00     0.202 C 
BRANCH  20  21
ATOM     21  C   UNL A   1      31.847  33.398  26.972  1.00  0.00     0.261 C 
BRANCH  21  22
ATOM     22  O   UNL A   1      33.046  33.532  27.724  1.00  0.00    -0.460 OA
BRANCH  22  23
ATOM     23  C   UNL A   1      33.032  34.589  28.563  1.00  0.00     0.338 C 
ATOM     24  O   UNL A   1      32.348  35.595  28.491  1.00  0.00    -0.246 OA
BRANCH  23  25
ATOM     25  C   UNL A   1      34.181  34.483  29.459  1.00  0.00     0.060 A 
ATOM     26  C   UNL A   1      35.423  34.545  28.826  1.00  0.00     0.016 A 
ATOM     27  C   UNL A   1      33.994  33.874  30.709  1.00  0.00     0.016 A 
ATOM     28  C   UNL A   1      36.435  33.768  29.326  1.00  0.00     0.010 A 
ATOM     29  C   UNL A   1      34.988  33.057  31.184  1.00  0.00     0.010 A 
ATOM     30  C   UNL A   1      36.179  32.980  30.457  1.00  0.00    -0.014 A 
BRANCH  30  31
ATOM     31  C   UNL A   1      37.308  32.247  31.011  1.00  0.00     0.031 A 
ATOM     32  C   UNL A   1      37.520  30.979  30.150  1.00  0.00     0.074 A 
ATOM     33  C   UNL A   1      37.849  32.782  32.154  1.00  0.00     0.049 A 
ATOM     34  N   UNL A   1      38.054  29.846  30.467  1.00  0.00    -0.248 NA
ATOM     35  C   UNL A   1      37.005  30.929  28.741  1.00  0.00     0.031 C 
ATOM     36  C   UNL A   1      37.472  34.085  32.772  1.00  0.00     0.029 A 
ATOM     37  N   UNL A   1      38.810  32.354  33.043  1.00  0.00    -0.354 N 
ATOM     38  C   UNL A   1      38.168  29.078  29.287  1.00  0.00     0.074 A 
ATOM     39  C   UNL A   1      37.396  29.737  28.287  1.00  0.00     0.031 C 
ATOM     40  C   UNL A   1      38.112  34.275  33.952  1.00  0.00     0.029 A 
ATOM     41  C   UNL A   1      38.980  33.146  34.220  1.00  0.00     0.049 A 
ATOM     42  H   UNL A   1      39.350  31.548  32.876  1.00  0.00     0.167 HD
ATOM     43  C   UNL A   1      39.029  28.024  29.187  1.00  0.00     0.037 A 
ATOM     44  C   UNL A   1      39.740  32.866  35.331  1.00  0.00     0.037 A 
ATOM     45  C   UNL A   1      39.653  27.812  30.447  1.00  0.00     0.049 A 
ATOM     46  C   UNL A   1      40.498  31.679  34.935  1.00  0.00     0.074 A 
ATOM     47  C   UNL A   1      39.138  27.354  31.631  1.00  0.00     0.029 A 
ATOM     48  N   UNL A   1      40.803  28.527  30.687  1.00  0.00    -0.354 N 
ATOM     49  N   UNL A   1      41.488  31.695  34.098  1.00  0.00    -0.248 NA
ATOM     50  C   UNL A   1      40.066  30.368  35.431  1.00  0.00     0.031 C 
ATOM     51  C   UNL A   1      39.689  28.248  32.567  1.00  0.00     0.029 A 
ATOM     52  C   UNL A   1      40.735  28.971  31.980  1.00  0.00     0.049 A 
ATOM     53  H   UNL A   1      41.536  28.688  30.049  1.00  0.00     0.167 HD
ATOM     54  C   UNL A   1      41.537  30.387  33.697  1.00  0.00     0.074 A 
ATOM     55  C   UNL A   1      40.918  29.606  34.752  1.00  0.00     0.031 C 
ATOM     56  C   UNL A   1      41.536  30.104  32.368  1.00  0.00     0.037 A 
BRANCH  43  57
ATOM     57  C   UNL A   1      39.587  27.280  28.016  1.00  0.00     0.057 A 
ATOM     58  C   UNL A   1      39.650  25.870  28.103  1.00  0.00     0.134 A 
ATOM     59  C   UNL A   1      40.383  27.871  27.031  1.00  0.00     0.134 A 
ATOM     60  F   UNL A   1      38.887  25.197  28.981  1.00  0.00    -0.206 F 
ATOM     61  C   UNL A   1      40.560  25.113  27.367  1.00  0.00     0.040 A 
ATOM     62  C   UNL A   1      41.267  27.112  26.251  1.00  0.00     0.040 A 
ATOM     63  F   UNL A   1      40.411  29.199  26.858  1.00  0.00    -0.206 F 
ATOM     64  C   UNL A   1      41.390  25.738  26.450  1.00  0.00     0.006 A 
ENDBRANCH  43  57
BRANCH  44  65
ATOM     65  C   UNL A   1      40.003  33.317  36.758  1.00  0.00     0.057 A 
ATOM     66  C   UNL A   1      41.157  33.931  37.242  1.00  0.00     0.134 A 
ATOM     67  C   UNL A   1      38.952  33.240  37.727  1.00  0.00     0.134 A 
ATOM     68  F   UNL A   1      42.270  33.988  36.502  1.00  0.00    -0.206 F 
ATOM     69  C   UNL A   1      41.214  34.520  38.530  1.00  0.00     0.040 A 
ATOM     70  C   UNL A   1      38.972  33.868  38.974  1.00  0.00     0.040 A 
ATOM     71  F   UNL A   1      37.827  32.547  37.504  1.00  0.00    -0.206 F 
ATOM     72  C   UNL A   1      40.107  34.533  39.378  1.00  0.00     0.006 A 
ENDBRANCH  44  65
BRANCH  56  73
ATOM     73  C   UNL A   1      42.045  31.232  31.476  1.00  0.00     0.057 A 
ATOM     74  C   UNL A   1      43.349  31.721  31.643  1.00  0.00     0.134 A 
ATOM     75  C   UNL A   1      41.264  31.943  30.551  1.00  0.00     0.134 A 
ATOM     76  F   UNL A   1      44.199  31.098  32.473  1.00  0.00    -0.206 F 
ATOM     77  C   UNL A   1      43.824  32.861  30.975  1.00  0.00     0.040 A 
ATOM     78  C   UNL A   1      41.719  33.086  29.873  1.00  0.00     0.040 A 
ATOM     79  F   UNL A   1      40.026  31.558  30.258  1.00  0.00    -0.206 F 
ATOM     80  C   UNL A   1      43.005  33.556  30.093  1.00  0.00     0.006 A 
ENDBRANCH  56  73
ENDBRANCH  30  31
ENDBRANCH  23  25
ENDBRANCH  22  23
ENDBRANCH  21  22
ENDBRANCH  20  21
ENDBRANCH  19  20
ENDBRANCH   1  19
TORSDOF 18
ENDMDL
MODEL 2
REMARK VINA RESULT:      -9.7      3.988      8.468
REMARK SMILES N#CCNC(=O)Cn1ccc(C(=O)OCCOCCOC(=O)c2ccc(-c3c4nc(c(-c5c(F)cccc5F)c5ccc([nH]5)c(-c5c(F)cccc5F)c5nc(c(-c6c(F)cccc6F)c6ccc3[nH]6)C=C5)C=C4)cc2)c1
REMARK SMILES IDX 16 1 15 2 14 3 12 4 13 5 11 6 8 7 9 8 77 9 10 10 7 11 5 12
REMARK SMILES IDX 4 13 6 15 3 16 2 17 1 18 17 19 18 20 19 21 20 22 21 23 22 24
REMARK SMILES IDX 23 25 24 26 76 27 25 28 75 29 26 30 27 31 28 32 69 33 29 34
REMARK SMILES IDX 74 35 68 36 70 37 30 38 73 39 67 40 66 41 31 43 57 44 40 45
REMARK SMILES IDX 56 46 41 47 44 48 55 49 71 50 42 51 43 52 54 54 72 55 45 56
REMARK SMILES IDX 32 57 33 58 38 59 34 60 35 61 37 62 39 63 36 64 58 65 59 66
REMARK SMILES IDX 64 67 60 68 61 69 63 70 65 71 62 72 46 73 47 74 52 75 48 76
REMARK SMILES IDX 49 77 51 78 53 79 50 80
REMARK H PARENT 4 14 70 42 44 53
REMARK Flexibility Score: inf
ROOT
ATOM      1  C   UNL A   1      38.938  21.508  25.843  1.00  0.00     0.202 C 
ENDROOT
BRANCH   1   2
ATOM      2  C   UNL A   1      38.145  22.793  26.102  1.00  0.00     0.261 C 
BRANCH   2   3
ATOM      3  O   UNL A   1      37.166  23.034  25.077  1.00  0.00    -0.460 OA
BRANCH   3   4
ATOM      4  C   UNL A   1      35.878  23.227  25.501  1.00  0.00     0.339 C 
ATOM      5  O   UNL A   1      35.349  24.298  25.670  1.00  0.00    -0.246 OA
BRANCH   4   6
ATOM      6  C   UNL A   1      35.145  21.955  25.509  1.00  0.00     0.077 A 
ATOM      7  N   UNL A   1      34.425  19.910  24.951  1.00  0.00    -0.344 N 
ATOM      8  C   UNL A   1      33.486  20.442  25.801  1.00  0.00     0.087 A 
ATOM      9  C   UNL A   1      35.455  20.801  24.810  1.00  0.00     0.101 A 
ATOM     10  C   UNL A   1      33.914  21.696  26.178  1.00  0.00     0.035 A 
BRANCH   7  11
ATOM     11  C   UNL A   1      34.260  18.617  24.295  1.00  0.00     0.221 C 
BRANCH  11  12
ATOM     12  C   UNL A   1      32.843  18.265  23.896  1.00  0.00     0.240 C 
ATOM     13  N   UNL A   1      32.103  17.394  24.643  1.00  0.00    -0.341 N 
ATOM     14  H   UNL A   1      31.195  17.212  24.309  1.00  0.00     0.164 HD
ATOM     15  O   UNL A   1      32.335  18.718  22.868  1.00  0.00    -0.273 OA
BRANCH  13  16
ATOM     16  C   UNL A   1      32.470  16.700  25.864  1.00  0.00     0.236 C 
BRANCH  16  17
ATOM     17  C   UNL A   1      32.864  15.250  25.635  1.00  0.00     0.084 C 
ATOM     18  N   UNL A   1      33.191  14.048  25.445  1.00  0.00    -0.196 NA
ENDBRANCH  16  17
ENDBRANCH  13  16
ENDBRANCH  11  12
ENDBRANCH   7  11
ENDBRANCH   4   6
ENDBRANCH   3   4
ENDBRANCH   2   3
ENDBRANCH   1   2
BRANCH   1  19
ATOM     19  O   UNL A   1      40.041  21.295  26.733  1.00  0.00    -0.374 OA
BRANCH  19  20
ATOM     20  C   UNL A   1      41.101  20.478  26.246  1.00  0.00     0.202 C 
BRANCH  20  21
ATOM     21  C   UNL A   1      42.459  21.144  26.137  1.00  0.00     0.261 C 
BRANCH  21  22
ATOM     22  O   UNL A   1      42.324  22.454  25.602  1.00  0.00    -0.460 OA
BRANCH  22  23
ATOM     23  C   UNL A   1      43.141  23.355  26.187  1.00  0.00     0.338 C 
ATOM     24  O   UNL A   1      44.281  23.187  26.584  1.00  0.00    -0.246 OA
BRANCH  23  25
ATOM     25  C   UNL A   1      42.353  24.535  26.537  1.00  0.00     0.060 A 
ATOM     26  C   UNL A   1      43.013  25.751  26.362  1.00  0.00     0.016 A 
ATOM     27  C   UNL A   1      41.275  24.374  27.421  1.00  0.00     0.016 A 
ATOM     28  C   UNL A   1      42.762  26.750  27.266  1.00  0.00     0.010 A 
ATOM     29  C   UNL A   1      41.056  25.353  28.356  1.00  0.00     0.010 A 
ATOM     30  C   UNL A   1      41.838  26.510  28.292  1.00  0.00    -0.014 A 
BRANCH  30  31
ATOM     31  C   UNL A   1      41.529  27.630  29.169  1.00  0.00     0.031 A 
ATOM     32  C   UNL A   1      42.381  27.478  30.452  1.00  0.00     0.074 A 
ATOM     33  C   UNL A   1      40.550  28.477  28.712  1.00  0.00     0.049 A 
ATOM     34  N   UNL A   1      42.160  27.918  31.646  1.00  0.00    -0.248 NA
ATOM     35  C   UNL A   1      43.638  26.658  30.431  1.00  0.00     0.031 C 
ATOM     36  C   UNL A   1      39.900  28.419  27.373  1.00  0.00     0.029 A 
ATOM     37  N   UNL A   1      39.886  29.550  29.265  1.00  0.00    -0.354 N 
ATOM     38  C   UNL A   1      43.314  27.665  32.420  1.00  0.00     0.074 A 
ATOM     39  C   UNL A   1      44.135  26.780  31.662  1.00  0.00     0.031 C 
ATOM     40  C   UNL A   1      38.897  29.327  27.271  1.00  0.00     0.029 A 
ATOM     41  C   UNL A   1      38.798  30.080  28.506  1.00  0.00     0.049 A 
ATOM     42  H   UNL A   1      40.147  29.930  30.136  1.00  0.00     0.167 HD
ATOM     43  C   UNL A   1      43.574  28.338  33.578  1.00  0.00     0.037 A 
ATOM     44  C   UNL A   1      37.876  31.027  28.887  1.00  0.00     0.037 A 
ATOM     45  C   UNL A   1      42.479  29.196  33.873  1.00  0.00     0.049 A 
ATOM     46  C   UNL A   1      38.399  31.517  30.163  1.00  0.00     0.074 A 
ATOM     47  C   UNL A   1      41.198  28.904  34.263  1.00  0.00     0.029 A 
ATOM     48  N   UNL A   1      42.521  30.453  33.317  1.00  0.00    -0.354 N 
ATOM     49  N   UNL A   1      39.435  32.288  30.275  1.00  0.00    -0.248 NA
ATOM     50  C   UNL A   1      37.783  31.042  31.406  1.00  0.00     0.031 C 
ATOM     51  C   UNL A   1      40.433  29.762  33.451  1.00  0.00     0.029 A 
ATOM     52  C   UNL A   1      41.257  30.735  32.871  1.00  0.00     0.049 A 
ATOM     53  H   UNL A   1      43.310  31.039  33.252  1.00  0.00     0.167 HD
ATOM     54  C   UNL A   1      39.801  32.076  31.577  1.00  0.00     0.074 A 
ATOM     55  C   UNL A   1      38.614  31.614  32.272  1.00  0.00     0.031 C 
ATOM     56  C   UNL A   1      41.088  31.742  31.854  1.00  0.00     0.037 A 
BRANCH  43  57
ATOM     57  C   UNL A   1      44.819  28.519  34.387  1.00  0.00     0.057 A 
ATOM     58  C   UNL A   1      44.744  28.261  35.775  1.00  0.00     0.134 A 
ATOM     59  C   UNL A   1      45.917  29.271  33.959  1.00  0.00     0.134 A 
ATOM     60  F   UNL A   1      43.756  27.506  36.285  1.00  0.00    -0.206 F 
ATOM     61  C   UNL A   1      45.616  28.843  36.694  1.00  0.00     0.040 A 
ATOM     62  C   UNL A   1      46.828  29.821  34.873  1.00  0.00     0.040 A 
ATOM     63  F   UNL A   1      46.092  29.583  32.669  1.00  0.00    -0.206 F 
ATOM     64  C   UNL A   1      46.651  29.646  36.244  1.00  0.00     0.006 A 
ENDBRANCH  43  57
BRANCH  44  65
ATOM     65  C   UNL A   1      36.557  31.659  28.477  1.00  0.00     0.057 A 
ATOM     66  C   UNL A   1      35.351  31.000  28.242  1.00  0.00     0.134 A 
ATOM     67  C   UNL A   1      36.444  33.085  28.426  1.00  0.00     0.134 A 
ATOM     68  F   UNL A   1      35.301  29.666  28.146  1.00  0.00    -0.206 F 
ATOM     69  C   UNL A   1      34.128  31.698  28.091  1.00  0.00     0.040 A 
ATOM     70  C   UNL A   1      35.238  33.785  28.340  1.00  0.00     0.040 A 
ATOM     71  F   UNL A   1      37.517  33.887  28.468  1.00  0.00    -0.206 F 
ATOM     72  C   UNL A   1      34.061  33.088  28.190  1.00  0.00     0.006 A 
ENDBRANCH  44  65
BRANCH  56  73
ATOM     73  C   UNL A   1      42.101  32.178  30.801  1.00  0.00     0.057 A 
ATOM     74  C   UNL A   1      42.230  33.537  30.476  1.00  0.00     0.134 A 
ATOM     75  C   UNL A   1      42.861  31.309  30.003  1.00  0.00     0.134 A 
ATOM     76  F   UNL A   1      41.580  34.464  31.196  1.00  0.00    -0.206 F 
ATOM     77  C   UNL A   1      43.018  33.991  29.406  1.00  0.00     0.040 A 
ATOM     78  C   UNL A   1      43.654  31.742  28.927  1.00  0.00     0.040 A 
ATOM     79  F   UNL A   1      42.873  30.000  30.233  1.00  0.00    -0.206 F 
ATOM     80  C   UNL A   1      43.726  33.092  28.619  1.00  0.00     0.006 A 
ENDBRANCH  56  73
ENDBRANCH  30  31
ENDBRANCH  23  25
ENDBRANCH  22  23
ENDBRANCH  21  22
ENDBRANCH  20  21
ENDBRANCH  19  20
ENDBRANCH   1  19
TORSDOF 18
ENDMDL
MODEL 3
REMARK VINA RESULT:      -9.6      1.820      2.671
REMARK SMILES N#CCNC(=O)Cn1ccc(C(=O)OCCOCCOC(=O)c2ccc(-c3c4nc(c(-c5c(F)cccc5F)c5ccc([nH]5)c(-c5c(F)cccc5F)c5nc(c(-c6c(F)cccc6F)c6ccc3[nH]6)C=C5)C=C4)cc2)c1
REMARK SMILES IDX 16 1 15 2 14 3 12 4 13 5 11 6 8 7 9 8 77 9 10 10 7 11 5 12
REMARK SMILES IDX 4 13 6 15 3 16 2 17 1 18 17 19 18 20 19 21 20 22 21 23 22 24
REMARK SMILES IDX 23 25 24 26 76 27 25 28 75 29 26 30 27 31 28 32 69 33 29 34
REMARK SMILES IDX 74 35 68 36 70 37 30 38 73 39 67 40 66 41 31 43 57 44 40 45
REMARK SMILES IDX 56 46 41 47 44 48 55 49 71 50 42 51 43 52 54 54 72 55 45 56
REMARK SMILES IDX 32 57 33 58 38 59 34 60 35 61 37 62 39 63 36 64 58 65 59 66
REMARK SMILES IDX 64 67 60 68 61 69 63 70 65 71 62 72 46 73 47 74 52 75 48 76
REMARK SMILES IDX 49 77 51 78 53 79 50 80
REMARK H PARENT 4 14 70 42 44 53
REMARK Flexibility Score: inf
ROOT
ATOM      1  C   UNL A   1      31.631  28.735  24.164  1.00  0.00     0.202 C 
ENDROOT
BRANCH   1   2
ATOM      2  C   UNL A   1      30.625  27.595  23.973  1.00  0.00     0.261 C 
BRANCH   2   3
ATOM      3  O   UNL A   1      31.230  26.307  24.181  1.00  0.00    -0.460 OA
BRANCH   3   4
ATOM      4  C   UNL A   1      31.231  25.838  25.468  1.00  0.00     0.339 C 
ATOM      5  O   UNL A   1      30.533  26.247  26.364  1.00  0.00    -0.246 OA
BRANCH   4   6
ATOM      6  C   UNL A   1      32.034  24.613  25.567  1.00  0.00     0.077 A 
ATOM      7  N   UNL A   1      33.201  22.783  25.019  1.00  0.00    -0.344 N 
ATOM      8  C   UNL A   1      32.871  22.660  26.347  1.00  0.00     0.087 A 
ATOM      9  C   UNL A   1      32.739  23.985  24.555  1.00  0.00     0.101 A 
ATOM     10  C   UNL A   1      32.169  23.785  26.719  1.00  0.00     0.035 A 
BRANCH   7  11
ATOM     11  C   UNL A   1      33.886  21.735  24.270  1.00  0.00     0.221 C 
BRANCH  11  12
ATOM     12  C   UNL A   1      34.571  20.676  25.108  1.00  0.00     0.240 C 
ATOM     13  N   UNL A   1      33.991  19.456  25.303  1.00  0.00    -0.341 N 
ATOM     14  H   UNL A   1      34.497  18.830  25.869  1.00  0.00     0.164 HD
ATOM     15  O   UNL A   1      35.644  20.900  25.672  1.00  0.00    -0.273 OA
BRANCH  13  16
ATOM     16  C   UNL A   1      32.730  18.953  24.789  1.00  0.00     0.236 C 
BRANCH  16  17
ATOM     17  C   UNL A   1      32.892  18.067  23.565  1.00  0.00     0.084 C 
ATOM     18  N   UNL A   1      33.026  17.332  22.550  1.00  0.00    -0.196 NA
ENDBRANCH  16  17
ENDBRANCH  13  16
ENDBRANCH  11  12
ENDBRANCH   7  11
ENDBRANCH   4   6
ENDBRANCH   3   4
ENDBRANCH   2   3
ENDBRANCH   1   2
BRANCH   1  19
ATOM     19  O   UNL A   1      31.531  29.418  25.421  1.00  0.00    -0.374 OA
BRANCH  19  20
ATOM     20  C   UNL A   1      32.709  30.072  25.883  1.00  0.00     0.202 C 
BRANCH  20  21
ATOM     21  C   UNL A   1      32.568  30.869  27.166  1.00  0.00     0.261 C 
BRANCH  21  22
ATOM     22  O   UNL A   1      33.673  31.749  27.322  1.00  0.00    -0.460 OA
BRANCH  22  23
ATOM     23  C   UNL A   1      33.351  32.902  27.947  1.00  0.00     0.338 C 
ATOM     24  O   UNL A   1      32.474  33.695  27.651  1.00  0.00    -0.246 OA
BRANCH  23  25
ATOM     25  C   UNL A   1      34.406  33.219  28.905  1.00  0.00     0.060 A 
ATOM     26  C   UNL A   1      35.581  33.714  28.339  1.00  0.00     0.016 A 
ATOM     27  C   UNL A   1      34.372  32.592  30.160  1.00  0.00     0.016 A 
ATOM     28  C   UNL A   1      36.770  33.352  28.914  1.00  0.00     0.010 A 
ATOM     29  C   UNL A   1      35.561  32.186  30.712  1.00  0.00     0.010 A 
ATOM     30  C   UNL A   1      36.743  32.533  30.052  1.00  0.00    -0.014 A 
BRANCH  30  31
ATOM     31  C   UNL A   1      38.023  32.254  30.687  1.00  0.00     0.031 A 
ATOM     32  C   UNL A   1      38.644  31.024  29.984  1.00  0.00     0.074 A 
ATOM     33  C   UNL A   1      38.334  33.059  31.756  1.00  0.00     0.049 A 
ATOM     34  N   UNL A   1      39.489  30.156  30.433  1.00  0.00    -0.248 NA
ATOM     35  C   UNL A   1      38.218  30.654  28.593  1.00  0.00     0.031 C 
ATOM     36  C   UNL A   1      37.554  34.243  32.213  1.00  0.00     0.029 A 
ATOM     37  N   UNL A   1      39.349  33.054  32.686  1.00  0.00    -0.354 N 
ATOM     38  C   UNL A   1      39.874  29.329  29.354  1.00  0.00     0.074 A 
ATOM     39  C   UNL A   1      38.971  29.598  28.284  1.00  0.00     0.031 C 
ATOM     40  C   UNL A   1      38.064  34.757  33.360  1.00  0.00     0.029 A 
ATOM     41  C   UNL A   1      39.227  33.990  33.759  1.00  0.00     0.049 A 
ATOM     42  H   UNL A   1      40.116  32.441  32.616  1.00  0.00     0.167 HD
ATOM     43  C   UNL A   1      41.019  28.589  29.378  1.00  0.00     0.037 A 
ATOM     44  C   UNL A   1      39.998  34.089  34.894  1.00  0.00     0.037 A 
ATOM     45  C   UNL A   1      41.636  28.728  30.653  1.00  0.00     0.049 A 
ATOM     46  C   UNL A   1      41.097  33.156  34.641  1.00  0.00     0.074 A 
ATOM     47  C   UNL A   1      41.245  28.272  31.886  1.00  0.00     0.029 A 
ATOM     48  N   UNL A   1      42.501  29.785  30.801  1.00  0.00    -0.354 N 
ATOM     49  N   UNL A   1      42.062  33.382  33.804  1.00  0.00    -0.248 NA
ATOM     50  C   UNL A   1      41.072  31.843  35.292  1.00  0.00     0.031 C 
ATOM     51  C   UNL A   1      41.463  29.394  32.705  1.00  0.00     0.029 A 
ATOM     52  C   UNL A   1      42.256  30.333  32.032  1.00  0.00     0.049 A 
ATOM     53  H   UNL A   1      43.170  30.091  30.146  1.00  0.00     0.167 HD
ATOM     54  C   UNL A   1      42.524  32.116  33.564  1.00  0.00     0.074 A 
ATOM     55  C   UNL A   1      42.140  31.309  34.707  1.00  0.00     0.031 C 
ATOM     56  C   UNL A   1      42.656  31.695  32.278  1.00  0.00     0.037 A 
BRANCH  43  57
ATOM     57  C   UNL A   1      41.819  27.924  28.304  1.00  0.00     0.057 A 
ATOM     58  C   UNL A   1      42.434  28.750  27.336  1.00  0.00     0.134 A 
ATOM     59  C   UNL A   1      41.694  26.573  27.970  1.00  0.00     0.134 A 
ATOM     60  F   UNL A   1      42.651  30.055  27.577  1.00  0.00    -0.206 F 
ATOM     61  C   UNL A   1      42.759  28.295  26.058  1.00  0.00     0.040 A 
ATOM     62  C   UNL A   1      42.062  26.095  26.704  1.00  0.00     0.040 A 
ATOM     63  F   UNL A   1      41.123  25.695  28.805  1.00  0.00    -0.206 F 
ATOM     64  C   UNL A   1      42.552  26.965  25.731  1.00  0.00     0.006 A 
ENDBRANCH  43  57
BRANCH  44  65
ATOM     65  C   UNL A   1      40.060  34.761  36.254  1.00  0.00     0.057 A 
ATOM     66  C   UNL A   1      40.769  35.915  36.586  1.00  0.00     0.134 A 
ATOM     67  C   UNL A   1      39.235  34.275  37.319  1.00  0.00     0.134 A 
ATOM     68  F   UNL A   1      41.668  36.438  35.745  1.00  0.00    -0.206 F 
ATOM     69  C   UNL A   1      40.578  36.588  37.819  1.00  0.00     0.040 A 
ATOM     70  C   UNL A   1      38.991  34.960  38.512  1.00  0.00     0.040 A 
ATOM     71  F   UNL A   1      38.604  33.096  37.250  1.00  0.00    -0.206 F 
ATOM     72  C   UNL A   1      39.654  36.140  38.762  1.00  0.00     0.006 A 
ENDBRANCH  44  65
BRANCH  56  73
ATOM     73  C   UNL A   1      42.824  32.814  31.256  1.00  0.00     0.057 A 
ATOM     74  C   UNL A   1      43.907  33.699  31.360  1.00  0.00     0.134 A 
ATOM     75  C   UNL A   1      41.895  33.136  30.253  1.00  0.00     0.134 A 
ATOM     76  F   UNL A   1      44.878  33.470  32.257  1.00  0.00    -0.206 F 
ATOM     77  C   UNL A   1      44.031  34.845  30.557  1.00  0.00     0.040 A 
ATOM     78  C   UNL A   1      42.000  34.278  29.441  1.00  0.00     0.040 A 
ATOM     79  F   UNL A   1      40.847  32.355  30.012  1.00  0.00    -0.206 F 
ATOM     80  C   UNL A   1      43.070  35.145  29.600  1.00  0.00     0.006 A 
ENDBRANCH  56  73
ENDBRANCH  30  31
ENDBRANCH  23  25
ENDBRANCH  22  23
ENDBRANCH  21  22
ENDBRANCH  20  21
ENDBRANCH  19  20
ENDBRANCH   1  19
TORSDOF 18
ENDMDL
