MODEL 1
REMARK VINA RESULT:     -11.2      0.000      0.000
REMARK SMILES C[C@@H](Oc1ccc(/C=N/NC(=O)c2ccc(I)c(O)c2)cc1)C(=O)OCCOCCOC(=O)c1ccc(-c2c3nc(c(-c4c(F)cccc4F)c4ccc([nH]4)c(-c4c(F)cccc4F)c4nc(c(-c5c(F)cccc5F)c5ccc2[nH]5)C=C4)C=C3)cc1
REMARK SMILES IDX 26 1 25 2 23 3 24 4 2 5 1 6 3 7 4 8 5 9 22 10 6 11 21 12
REMARK SMILES IDX 7 13 8 14 9 15 10 16 11 17 12 19 13 20 14 21 20 22 15 23
REMARK SMILES IDX 18 24 16 25 17 26 19 27 27 29 28 30 29 31 30 32 31 33 32 34
REMARK SMILES IDX 33 35 34 36 35 37 87 38 36 39 86 40 37 41 38 42 39 43 80 44
REMARK SMILES IDX 40 45 85 46 79 47 81 48 41 49 84 50 78 51 77 52 42 54 68 55
REMARK SMILES IDX 51 56 67 57 52 58 55 59 66 60 82 61 53 62 54 63 65 65 83 66
REMARK SMILES IDX 56 67 43 68 44 69 49 70 45 71 46 72 48 73 50 74 47 75 69 76
REMARK SMILES IDX 70 77 75 78 71 79 72 80 74 81 76 82 73 83 57 84 58 85 63 86
REMARK SMILES IDX 59 87 60 88 62 89 64 90 61 91
REMARK H PARENT 10 18 19 28 81 53 55 64
REMARK Flexibility Score: inf
ROOT
ATOM      1  C   UNL A   1      43.416  18.937  25.185  1.00  0.00     0.261 C 
ENDROOT
BRANCH   1   2
ATOM      2  O   UNL A   1      42.431  19.900  25.608  1.00  0.00    -0.461 OA
BRANCH   2   3
ATOM      3  C   UNL A   1      42.050  19.844  26.915  1.00  0.00     0.347 C 
ATOM      4  O   UNL A   1      42.281  18.906  27.670  1.00  0.00    -0.248 OA
BRANCH   3   5
ATOM      5  C   UNL A   1      41.296  21.098  27.353  1.00  0.00     0.279 C 
ATOM      6  C   UNL A   1      42.057  21.918  28.394  1.00  0.00     0.066 C 
BRANCH   5   7
ATOM      7  O   UNL A   1      41.041  21.876  26.172  1.00  0.00    -0.479 OA
BRANCH   7   8
ATOM      8  C   UNL A   1      39.700  22.071  25.992  1.00  0.00     0.120 A 
ATOM      9  C   UNL A   1      39.153  23.320  26.289  1.00  0.00     0.047 A 
ATOM     10  C   UNL A   1      38.888  21.024  25.564  1.00  0.00     0.047 A 
ATOM     11  C   UNL A   1      37.782  23.532  26.119  1.00  0.00     0.013 A 
ATOM     12  C   UNL A   1      37.541  21.250  25.322  1.00  0.00     0.013 A 
ATOM     13  C   UNL A   1      36.993  22.498  25.617  1.00  0.00    -0.005 A 
BRANCH  13  14
ATOM     14  C   UNL A   1      35.541  22.628  25.462  1.00  0.00     0.141 C 
ATOM     15  N   UNL A   1      34.975  22.425  24.317  1.00  0.00    -0.180 NA
BRANCH  15  16
ATOM     16  N   UNL A   1      33.659  22.774  24.205  1.00  0.00    -0.243 N 
ATOM     17  C   UNL A   1      32.534  21.961  24.184  1.00  0.00     0.271 C 
ATOM     18  H   UNL A   1      33.483  23.739  24.130  1.00  0.00     0.194 HD
ATOM     19  O   UNL A   1      31.418  22.441  23.991  1.00  0.00    -0.267 OA
BRANCH  17  20
ATOM     20  C   UNL A   1      32.646  20.497  24.393  1.00  0.00     0.045 A 
ATOM     21  C   UNL A   1      32.877  20.033  25.695  1.00  0.00     0.015 A 
ATOM     22  C   UNL A   1      32.516  19.587  23.337  1.00  0.00     0.061 A 
ATOM     23  C   UNL A   1      32.908  18.661  25.954  1.00  0.00     0.019 A 
ATOM     24  C   UNL A   1      32.532  18.216  23.603  1.00  0.00     0.129 A 
ATOM     25  C   UNL A   1      32.719  17.750  24.910  1.00  0.00     0.055 A 
ATOM     26  I   UNL A   1      32.682  15.713  25.375  1.00  0.00    -0.040 I 
BRANCH  24  27
ATOM     27  O   UNL A   1      32.309  17.330  22.585  1.00  0.00    -0.507 OA
ATOM     28  H   UNL A   1      32.282  16.410  22.761  1.00  0.00     0.293 HD
ENDBRANCH  24  27
ENDBRANCH  17  20
ENDBRANCH  15  16
ENDBRANCH  13  14
ENDBRANCH   7   8
ENDBRANCH   5   7
ENDBRANCH   3   5
ENDBRANCH   2   3
ENDBRANCH   1   2
BRANCH   1  29
ATOM     29  C   UNL A   1      44.831  19.491  25.373  1.00  0.00     0.202 C 
BRANCH  29  30
ATOM     30  O   UNL A   1      45.357  20.257  24.287  1.00  0.00    -0.374 OA
BRANCH  30  31
ATOM     31  C   UNL A   1      44.657  21.442  23.921  1.00  0.00     0.202 C 
BRANCH  31  32
ATOM     32  C   UNL A   1      45.300  22.770  24.346  1.00  0.00     0.261 C 
BRANCH  32  33
ATOM     33  O   UNL A   1      44.391  23.626  25.062  1.00  0.00    -0.460 OA
BRANCH  33  34
ATOM     34  C   UNL A   1      44.826  24.901  25.215  1.00  0.00     0.338 C 
ATOM     35  O   UNL A   1      45.749  25.445  24.625  1.00  0.00    -0.246 OA
BRANCH  34  36
ATOM     36  C   UNL A   1      43.923  25.656  26.102  1.00  0.00     0.060 A 
ATOM     37  C   UNL A   1      44.176  27.025  26.260  1.00  0.00     0.016 A 
ATOM     38  C   UNL A   1      42.924  25.029  26.849  1.00  0.00     0.016 A 
ATOM     39  C   UNL A   1      43.465  27.763  27.202  1.00  0.00     0.010 A 
ATOM     40  C   UNL A   1      42.216  25.771  27.803  1.00  0.00     0.010 A 
ATOM     41  C   UNL A   1      42.509  27.132  28.010  1.00  0.00    -0.014 A 
BRANCH  41  42
ATOM     42  C   UNL A   1      41.938  27.870  29.163  1.00  0.00     0.031 A 
ATOM     43  C   UNL A   1      42.620  27.781  30.501  1.00  0.00     0.074 A 
ATOM     44  C   UNL A   1      40.856  28.654  29.013  1.00  0.00     0.049 A 
ATOM     45  N   UNL A   1      42.301  28.349  31.636  1.00  0.00    -0.248 NA
ATOM     46  C   UNL A   1      43.827  26.942  30.566  1.00  0.00     0.031 C 
ATOM     47  C   UNL A   1      40.126  28.857  27.762  1.00  0.00     0.029 A 
ATOM     48  N   UNL A   1      40.184  29.428  29.926  1.00  0.00    -0.354 N 
ATOM     49  C   UNL A   1      43.262  27.935  32.549  1.00  0.00     0.074 A 
ATOM     50  C   UNL A   1      44.161  27.047  31.845  1.00  0.00     0.031 C 
ATOM     51  C   UNL A   1      39.102  29.698  27.989  1.00  0.00     0.029 A 
ATOM     52  C   UNL A   1      39.090  30.071  29.402  1.00  0.00     0.049 A 
ATOM     53  H   UNL A   1      40.460  29.514  30.867  1.00  0.00     0.167 HD
ATOM     54  C   UNL A   1      43.392  28.274  33.854  1.00  0.00     0.037 A 
ATOM     55  C   UNL A   1      38.175  30.859  29.999  1.00  0.00     0.037 A 
ATOM     56  C   UNL A   1      42.504  29.161  34.558  1.00  0.00     0.049 A 
ATOM     57  C   UNL A   1      38.303  31.168  31.467  1.00  0.00     0.074 A 
ATOM     58  C   UNL A   1      42.568  29.579  35.876  1.00  0.00     0.029 A 
ATOM     59  N   UNL A   1      41.385  29.761  34.001  1.00  0.00    -0.354 N 
ATOM     60  N   UNL A   1      39.231  30.792  32.313  1.00  0.00    -0.248 NA
ATOM     61  C   UNL A   1      37.257  32.013  32.061  1.00  0.00     0.031 C 
ATOM     62  C   UNL A   1      41.462  30.398  36.129  1.00  0.00     0.029 A 
ATOM     63  C   UNL A   1      40.736  30.526  34.956  1.00  0.00     0.049 A 
ATOM     64  H   UNL A   1      41.095  29.659  33.066  1.00  0.00     0.167 HD
ATOM     65  C   UNL A   1      38.895  31.374  33.530  1.00  0.00     0.074 A 
ATOM     66  C   UNL A   1      37.685  32.137  33.310  1.00  0.00     0.031 C 
ATOM     67  C   UNL A   1      39.534  31.285  34.723  1.00  0.00     0.037 A 
BRANCH  54  68
ATOM     68  C   UNL A   1      44.531  27.662  34.614  1.00  0.00     0.057 A 
ATOM     69  C   UNL A   1      45.751  28.329  34.783  1.00  0.00     0.134 A 
ATOM     70  C   UNL A   1      44.394  26.403  35.212  1.00  0.00     0.134 A 
ATOM     71  F   UNL A   1      45.950  29.532  34.224  1.00  0.00    -0.206 F 
ATOM     72  C   UNL A   1      46.801  27.757  35.503  1.00  0.00     0.040 A 
ATOM     73  C   UNL A   1      45.428  25.830  35.953  1.00  0.00     0.040 A 
ATOM     74  F   UNL A   1      43.249  25.712  35.092  1.00  0.00    -0.206 F 
ATOM     75  C   UNL A   1      46.639  26.506  36.096  1.00  0.00     0.006 A 
ENDBRANCH  54  68
BRANCH  55  76
ATOM     76  C   UNL A   1      37.042  31.406  29.211  1.00  0.00     0.057 A 
ATOM     77  C   UNL A   1      37.052  32.724  28.743  1.00  0.00     0.134 A 
ATOM     78  C   UNL A   1      35.913  30.628  28.928  1.00  0.00     0.134 A 
ATOM     79  F   UNL A   1      38.095  33.526  29.004  1.00  0.00    -0.206 F 
ATOM     80  C   UNL A   1      35.975  33.254  28.030  1.00  0.00     0.040 A 
ATOM     81  C   UNL A   1      34.838  31.138  28.198  1.00  0.00     0.040 A 
ATOM     82  F   UNL A   1      35.842  29.357  29.353  1.00  0.00    -0.206 F 
ATOM     83  C   UNL A   1      34.865  32.458  27.752  1.00  0.00     0.006 A 
ENDBRANCH  55  76
BRANCH  67  84
ATOM     84  C   UNL A   1      38.955  32.054  35.874  1.00  0.00     0.057 A 
ATOM     85  C   UNL A   1      38.128  31.447  36.826  1.00  0.00     0.134 A 
ATOM     86  C   UNL A   1      39.265  33.408  36.054  1.00  0.00     0.134 A 
ATOM     87  F   UNL A   1      37.784  30.156  36.703  1.00  0.00    -0.206 F 
ATOM     88  C   UNL A   1      37.613  32.164  37.907  1.00  0.00     0.040 A 
ATOM     89  C   UNL A   1      38.775  34.130  37.143  1.00  0.00     0.040 A 
ATOM     90  F   UNL A   1      40.060  34.047  35.183  1.00  0.00    -0.206 F 
ATOM     91  C   UNL A   1      37.942  33.508  38.071  1.00  0.00     0.006 A 
ENDBRANCH  67  84
ENDBRANCH  41  42
ENDBRANCH  34  36
ENDBRANCH  33  34
ENDBRANCH  32  33
ENDBRANCH  31  32
ENDBRANCH  30  31
ENDBRANCH  29  30
ENDBRANCH   1  29
TORSDOF 20
ENDMDL
MODEL 2
REMARK VINA RESULT:     -11.0      2.670      4.106
REMARK SMILES C[C@@H](Oc1ccc(/C=N/NC(=O)c2ccc(I)c(O)c2)cc1)C(=O)OCCOCCOC(=O)c1ccc(-c2c3nc(c(-c4c(F)cccc4F)c4ccc([nH]4)c(-c4c(F)cccc4F)c4nc(c(-c5c(F)cccc5F)c5ccc2[nH]5)C=C4)C=C3)cc1
REMARK SMILES IDX 26 1 25 2 23 3 24 4 2 5 1 6 3 7 4 8 5 9 22 10 6 11 21 12
REMARK SMILES IDX 7 13 8 14 9 15 10 16 11 17 12 19 13 20 14 21 20 22 15 23
REMARK SMILES IDX 18 24 16 25 17 26 19 27 27 29 28 30 29 31 30 32 31 33 32 34
REMARK SMILES IDX 33 35 34 36 35 37 87 38 36 39 86 40 37 41 38 42 39 43 80 44
REMARK SMILES IDX 40 45 85 46 79 47 81 48 41 49 84 50 78 51 77 52 42 54 68 55
REMARK SMILES IDX 51 56 67 57 52 58 55 59 66 60 82 61 53 62 54 63 65 65 83 66
REMARK SMILES IDX 56 67 43 68 44 69 49 70 45 71 46 72 48 73 50 74 47 75 69 76
REMARK SMILES IDX 70 77 75 78 71 79 72 80 74 81 76 82 73 83 57 84 58 85 63 86
REMARK SMILES IDX 59 87 60 88 62 89 64 90 61 91
REMARK H PARENT 10 18 19 28 81 53 55 64
REMARK Flexibility Score: inf
ROOT
ATOM      1  C   UNL A   1      40.032  22.057  27.118  1.00  0.00     0.261 C 
ENDROOT
BRANCH   1   2
ATOM      2  O   UNL A   1      39.255  21.577  26.003  1.00  0.00    -0.461 OA
BRANCH   2   3
ATOM      3  C   UNL A   1      38.096  22.244  25.740  1.00  0.00     0.347 C 
ATOM      4  O   UNL A   1      37.917  23.441  25.940  1.00  0.00    -0.248 OA
BRANCH   3   5
ATOM      5  C   UNL A   1      37.022  21.330  25.154  1.00  0.00     0.279 C 
ATOM      6  C   UNL A   1      37.583  20.004  24.641  1.00  0.00     0.066 C 
BRANCH   5   7
ATOM      7  O   UNL A   1      36.041  21.110  26.181  1.00  0.00    -0.479 OA
BRANCH   7   8
ATOM      8  C   UNL A   1      34.837  21.658  25.836  1.00  0.00     0.120 A 
ATOM      9  C   UNL A   1      33.981  20.936  25.004  1.00  0.00     0.047 A 
ATOM     10  C   UNL A   1      34.495  22.935  26.272  1.00  0.00     0.047 A 
ATOM     11  C   UNL A   1      32.750  21.486  24.636  1.00  0.00     0.013 A 
ATOM     12  C   UNL A   1      33.244  23.455  25.971  1.00  0.00     0.013 A 
ATOM     13  C   UNL A   1      32.386  22.735  25.141  1.00  0.00    -0.005 A 
BRANCH  13  14
ATOM     14  C   UNL A   1      31.137  23.399  24.756  1.00  0.00     0.141 C 
ATOM     15  N   UNL A   1      31.102  24.214  23.752  1.00  0.00    -0.180 NA
BRANCH  15  16
ATOM     16  N   UNL A   1      29.962  24.952  23.593  1.00  0.00    -0.243 N 
ATOM     17  C   UNL A   1      29.671  26.228  24.055  1.00  0.00     0.271 C 
ATOM     18  H   UNL A   1      29.246  24.516  23.078  1.00  0.00     0.194 HD
ATOM     19  O   UNL A   1      28.552  26.713  23.891  1.00  0.00    -0.267 OA
BRANCH  17  20
ATOM     20  C   UNL A   1      30.697  27.039  24.754  1.00  0.00     0.045 A 
ATOM     21  C   UNL A   1      30.955  26.757  26.102  1.00  0.00     0.015 A 
ATOM     22  C   UNL A   1      31.408  28.054  24.102  1.00  0.00     0.061 A 
ATOM     23  C   UNL A   1      31.969  27.438  26.778  1.00  0.00     0.019 A 
ATOM     24  C   UNL A   1      32.432  28.721  24.777  1.00  0.00     0.129 A 
ATOM     25  C   UNL A   1      32.721  28.410  26.111  1.00  0.00     0.055 A 
ATOM     26  I   UNL A   1      34.286  29.329  27.148  1.00  0.00    -0.040 I 
BRANCH  24  27
ATOM     27  O   UNL A   1      33.189  29.645  24.109  1.00  0.00    -0.507 OA
ATOM     28  H   UNL A   1      32.772  30.320  23.610  1.00  0.00     0.293 HD
ENDBRANCH  24  27
ENDBRANCH  17  20
ENDBRANCH  15  16
ENDBRANCH  13  14
ENDBRANCH   7   8
ENDBRANCH   5   7
ENDBRANCH   3   5
ENDBRANCH   2   3
ENDBRANCH   1   2
BRANCH   1  29
ATOM     29  C   UNL A   1      41.333  21.261  27.253  1.00  0.00     0.202 C 
BRANCH  29  30
ATOM     30  O   UNL A   1      42.458  21.976  27.768  1.00  0.00    -0.374 OA
BRANCH  30  31
ATOM     31  C   UNL A   1      43.507  22.290  26.858  1.00  0.00     0.202 C 
BRANCH  31  32
ATOM     32  C   UNL A   1      43.107  22.428  25.382  1.00  0.00     0.261 C 
BRANCH  32  33
ATOM     33  O   UNL A   1      42.452  23.677  25.096  1.00  0.00    -0.460 OA
BRANCH  33  34
ATOM     34  C   UNL A   1      43.222  24.774  25.302  1.00  0.00     0.338 C 
ATOM     35  O   UNL A   1      44.263  25.066  24.730  1.00  0.00    -0.246 OA
BRANCH  34  36
ATOM     36  C   UNL A   1      42.558  25.711  26.226  1.00  0.00     0.060 A 
ATOM     37  C   UNL A   1      43.194  26.936  26.462  1.00  0.00     0.016 A 
ATOM     38  C   UNL A   1      41.403  25.364  26.930  1.00  0.00     0.016 A 
ATOM     39  C   UNL A   1      42.707  27.799  27.441  1.00  0.00     0.010 A 
ATOM     40  C   UNL A   1      40.920  26.228  27.920  1.00  0.00     0.010 A 
ATOM     41  C   UNL A   1      41.592  27.431  28.206  1.00  0.00    -0.014 A 
BRANCH  41  42
ATOM     42  C   UNL A   1      41.234  28.242  29.397  1.00  0.00     0.031 A 
ATOM     43  C   UNL A   1      42.037  28.084  30.659  1.00  0.00     0.074 A 
ATOM     44  C   UNL A   1      40.242  29.148  29.342  1.00  0.00     0.049 A 
ATOM     45  N   UNL A   1      41.907  28.695  31.809  1.00  0.00    -0.248 NA
ATOM     46  C   UNL A   1      43.138  27.108  30.617  1.00  0.00     0.031 C 
ATOM     47  C   UNL A   1      39.415  29.425  28.169  1.00  0.00     0.029 A 
ATOM     48  N   UNL A   1      39.765  30.003  30.303  1.00  0.00    -0.354 N 
ATOM     49  C   UNL A   1      42.903  28.178  32.627  1.00  0.00     0.074 A 
ATOM     50  C   UNL A   1      43.614  27.183  31.853  1.00  0.00     0.031 C 
ATOM     51  C   UNL A   1      38.526  30.384  28.482  1.00  0.00     0.029 A 
ATOM     52  C   UNL A   1      38.705  30.768  29.881  1.00  0.00     0.049 A 
ATOM     53  H   UNL A   1      40.145  30.064  31.209  1.00  0.00     0.167 HD
ATOM     54  C   UNL A   1      43.208  28.510  33.905  1.00  0.00     0.037 A 
ATOM     55  C   UNL A   1      37.956  31.664  30.552  1.00  0.00     0.037 A 
ATOM     56  C   UNL A   1      42.508  29.502  34.677  1.00  0.00     0.049 A 
ATOM     57  C   UNL A   1      38.271  31.967  31.993  1.00  0.00     0.074 A 
ATOM     58  C   UNL A   1      42.757  29.921  35.972  1.00  0.00     0.029 A 
ATOM     59  N   UNL A   1      41.415  30.226  34.225  1.00  0.00    -0.354 N 
ATOM     60  N   UNL A   1      39.232  31.491  32.747  1.00  0.00    -0.248 NA
ATOM     61  C   UNL A   1      37.399  32.936  32.673  1.00  0.00     0.031 C 
ATOM     62  C   UNL A   1      41.788  30.867  36.321  1.00  0.00     0.029 A 
ATOM     63  C   UNL A   1      40.963  31.070  35.227  1.00  0.00     0.049 A 
ATOM     64  H   UNL A   1      41.019  30.151  33.328  1.00  0.00     0.167 HD
ATOM     65  C   UNL A   1      39.096  32.119  33.979  1.00  0.00     0.074 A 
ATOM     66  C   UNL A   1      37.967  33.018  33.869  1.00  0.00     0.031 C 
ATOM     67  C   UNL A   1      39.841  31.965  35.102  1.00  0.00     0.037 A 
BRANCH  54  68
ATOM     68  C   UNL A   1      44.340  27.774  34.556  1.00  0.00     0.057 A 
ATOM     69  C   UNL A   1      45.653  28.260  34.526  1.00  0.00     0.134 A 
ATOM     70  C   UNL A   1      44.108  26.579  35.250  1.00  0.00     0.134 A 
ATOM     71  F   UNL A   1      45.943  29.391  33.867  1.00  0.00    -0.206 F 
ATOM     72  C   UNL A   1      46.699  27.574  35.146  1.00  0.00     0.040 A 
ATOM     73  C   UNL A   1      45.140  25.896  35.893  1.00  0.00     0.040 A 
ATOM     74  F   UNL A   1      42.872  26.061  35.320  1.00  0.00    -0.206 F 
ATOM     75  C   UNL A   1      46.442  26.391  35.838  1.00  0.00     0.006 A 
ENDBRANCH  54  68
BRANCH  55  76
ATOM     76  C   UNL A   1      36.819  32.335  29.874  1.00  0.00     0.057 A 
ATOM     77  C   UNL A   1      37.025  33.402  28.994  1.00  0.00     0.134 A 
ATOM     78  C   UNL A   1      35.497  31.936  30.108  1.00  0.00     0.134 A 
ATOM     79  F   UNL A   1      38.267  33.846  28.750  1.00  0.00    -0.206 F 
ATOM     80  C   UNL A   1      35.957  34.059  28.379  1.00  0.00     0.040 A 
ATOM     81  C   UNL A   1      34.422  32.568  29.483  1.00  0.00     0.040 A 
ATOM     82  F   UNL A   1      35.234  30.919  30.943  1.00  0.00    -0.206 F 
ATOM     83  C   UNL A   1      34.651  33.638  28.620  1.00  0.00     0.006 A 
ENDBRANCH  55  76
BRANCH  67  84
ATOM     84  C   UNL A   1      39.479  32.806  36.290  1.00  0.00     0.057 A 
ATOM     85  C   UNL A   1      40.031  34.077  36.490  1.00  0.00     0.134 A 
ATOM     86  C   UNL A   1      38.535  32.355  37.222  1.00  0.00     0.134 A 
ATOM     87  F   UNL A   1      40.949  34.562  35.641  1.00  0.00    -0.206 F 
ATOM     88  C   UNL A   1      39.670  34.863  37.587  1.00  0.00     0.040 A 
ATOM     89  C   UNL A   1      38.150  33.141  38.309  1.00  0.00     0.040 A 
ATOM     90  F   UNL A   1      37.963  31.150  37.083  1.00  0.00    -0.206 F 
ATOM     91  C   UNL A   1      38.722  34.398  38.496  1.00  0.00     0.006 A 
ENDBRANCH  67  84
ENDBRANCH  41  42
ENDBRANCH  34  36
ENDBRANCH  33  34
ENDBRANCH  32  33
ENDBRANCH  31  32
ENDBRANCH  30  31
ENDBRANCH  29  30
ENDBRANCH   1  29
TORSDOF 20
ENDMDL
MODEL 3
REMARK VINA RESULT:     -10.8      5.610     11.978
REMARK SMILES C[C@@H](Oc1ccc(/C=N/NC(=O)c2ccc(I)c(O)c2)cc1)C(=O)OCCOCCOC(=O)c1ccc(-c2c3nc(c(-c4c(F)cccc4F)c4ccc([nH]4)c(-c4c(F)cccc4F)c4nc(c(-c5c(F)cccc5F)c5ccc2[nH]5)C=C4)C=C3)cc1
REMARK SMILES IDX 26 1 25 2 23 3 24 4 2 5 1 6 3 7 4 8 5 9 22 10 6 11 21 12
REMARK SMILES IDX 7 13 8 14 9 15 10 16 11 17 12 19 13 20 14 21 20 22 15 23
REMARK SMILES IDX 18 24 16 25 17 26 19 27 27 29 28 30 29 31 30 32 31 33 32 34
REMARK SMILES IDX 33 35 34 36 35 37 87 38 36 39 86 40 37 41 38 42 39 43 80 44
REMARK SMILES IDX 40 45 85 46 79 47 81 48 41 49 84 50 78 51 77 52 42 54 68 55
REMARK SMILES IDX 51 56 67 57 52 58 55 59 66 60 82 61 53 62 54 63 65 65 83 66
REMARK SMILES IDX 56 67 43 68 44 69 49 70 45 71 46 72 48 73 50 74 47 75 69 76
REMARK SMILES IDX 70 77 75 78 71 79 72 80 74 81 76 82 73 83 57 84 58 85 63 86
REMARK SMILES IDX 59 87 60 88 62 89 64 90 61 91
REMARK H PARENT 10 18 19 28 81 53 55 64
REMARK Flexibility Score: inf
ROOT
ATOM      1  C   UNL A   1      33.239  35.856  30.938  1.00  0.00     0.261 C 
ENDROOT
BRANCH   1   2
ATOM      2  O   UNL A   1      33.644  34.722  31.729  1.00  0.00    -0.461 OA
BRANCH   2   3
ATOM      3  C   UNL A   1      34.805  34.856  32.430  1.00  0.00     0.347 C 
ATOM      4  O   UNL A   1      35.048  35.768  33.213  1.00  0.00    -0.248 OA
BRANCH   3   5
ATOM      5  C   UNL A   1      35.791  33.727  32.137  1.00  0.00     0.279 C 
ATOM      6  C   UNL A   1      35.113  32.363  32.002  1.00  0.00     0.066 C 
BRANCH   5   7
ATOM      7  O   UNL A   1      36.492  34.074  30.932  1.00  0.00    -0.479 OA
BRANCH   7   8
ATOM      8  C   UNL A   1      37.839  34.150  31.151  1.00  0.00     0.120 A 
ATOM      9  C   UNL A   1      38.298  34.423  32.440  1.00  0.00     0.047 A 
ATOM     10  C   UNL A   1      38.733  34.004  30.094  1.00  0.00     0.047 A 
ATOM     11  C   UNL A   1      39.673  34.513  32.679  1.00  0.00     0.013 A 
ATOM     12  C   UNL A   1      40.099  34.018  30.339  1.00  0.00     0.013 A 
ATOM     13  C   UNL A   1      40.560  34.289  31.627  1.00  0.00    -0.005 A 
BRANCH  13  14
ATOM     14  C   UNL A   1      42.011  34.420  31.788  1.00  0.00     0.141 C 
ATOM     15  N   UNL A   1      42.770  34.683  30.774  1.00  0.00    -0.180 NA
BRANCH  15  16
ATOM     16  N   UNL A   1      44.119  34.575  30.965  1.00  0.00    -0.243 N 
ATOM     17  C   UNL A   1      45.001  33.622  30.475  1.00  0.00     0.271 C 
ATOM     18  H   UNL A   1      44.522  35.273  31.529  1.00  0.00     0.194 HD
ATOM     19  O   UNL A   1      46.183  33.628  30.818  1.00  0.00    -0.267 OA
BRANCH  17  20
ATOM     20  C   UNL A   1      44.546  32.575  29.527  1.00  0.00     0.045 A 
ATOM     21  C   UNL A   1      43.696  31.573  30.011  1.00  0.00     0.015 A 
ATOM     22  C   UNL A   1      44.932  32.579  28.181  1.00  0.00     0.061 A 
ATOM     23  C   UNL A   1      43.176  30.615  29.139  1.00  0.00     0.019 A 
ATOM     24  C   UNL A   1      44.397  31.629  27.309  1.00  0.00     0.129 A 
ATOM     25  C   UNL A   1      43.513  30.651  27.782  1.00  0.00     0.055 A 
ATOM     26  I   UNL A   1      42.629  29.249  26.508  1.00  0.00    -0.040 I 
BRANCH  24  27
ATOM     27  O   UNL A   1      44.700  31.692  25.977  1.00  0.00    -0.507 OA
ATOM     28  H   UNL A   1      44.045  31.493  25.337  1.00  0.00     0.293 HD
ENDBRANCH  24  27
ENDBRANCH  17  20
ENDBRANCH  15  16
ENDBRANCH  13  14
ENDBRANCH   7   8
ENDBRANCH   5   7
ENDBRANCH   3   5
ENDBRANCH   2   3
ENDBRANCH   1   2
BRANCH   1  29
ATOM     29  C   UNL A   1      33.527  35.610  29.454  1.00  0.00     0.202 C 
BRANCH  29  30
ATOM     30  O   UNL A   1      32.537  34.874  28.733  1.00  0.00    -0.374 OA
BRANCH  30  31
ATOM     31  C   UNL A   1      32.981  33.768  27.953  1.00  0.00     0.202 C 
BRANCH  31  32
ATOM     32  C   UNL A   1      34.200  33.004  28.490  1.00  0.00     0.261 C 
BRANCH  32  33
ATOM     33  O   UNL A   1      34.799  32.146  27.504  1.00  0.00    -0.460 OA
BRANCH  33  34
ATOM     34  C   UNL A   1      34.798  30.829  27.830  1.00  0.00     0.338 C 
ATOM     35  O   UNL A   1      33.997  29.978  27.471  1.00  0.00    -0.246 OA
BRANCH  34  36
ATOM     36  C   UNL A   1      36.017  30.477  28.579  1.00  0.00     0.060 A 
ATOM     37  C   UNL A   1      37.229  31.002  28.112  1.00  0.00     0.016 A 
ATOM     38  C   UNL A   1      35.999  29.572  29.642  1.00  0.00     0.016 A 
ATOM     39  C   UNL A   1      38.434  30.584  28.673  1.00  0.00     0.010 A 
ATOM     40  C   UNL A   1      37.211  29.146  30.198  1.00  0.00     0.010 A 
ATOM     41  C   UNL A   1      38.435  29.621  29.691  1.00  0.00    -0.014 A 
BRANCH  41  42
ATOM     42  C   UNL A   1      39.723  29.012  30.108  1.00  0.00     0.031 A 
ATOM     43  C   UNL A   1      40.435  29.559  31.314  1.00  0.00     0.074 A 
ATOM     44  C   UNL A   1      40.227  27.950  29.454  1.00  0.00     0.049 A 
ATOM     45  N   UNL A   1      41.561  29.175  31.859  1.00  0.00    -0.248 NA
ATOM     46  C   UNL A   1      39.788  30.688  32.001  1.00  0.00     0.031 C 
ATOM     47  C   UNL A   1      39.615  27.302  28.296  1.00  0.00     0.029 A 
ATOM     48  N   UNL A   1      41.374  27.231  29.678  1.00  0.00    -0.354 N 
ATOM     49  C   UNL A   1      41.760  30.014  32.948  1.00  0.00     0.074 A 
ATOM     50  C   UNL A   1      40.654  30.946  32.972  1.00  0.00     0.031 C 
ATOM     51  C   UNL A   1      40.398  26.281  27.906  1.00  0.00     0.029 A 
ATOM     52  C   UNL A   1      41.575  26.221  28.770  1.00  0.00     0.049 A 
ATOM     53  H   UNL A   1      41.994  27.420  30.419  1.00  0.00     0.167 HD
ATOM     54  C   UNL A   1      42.767  30.002  33.854  1.00  0.00     0.037 A 
ATOM     55  C   UNL A   1      42.601  25.357  28.642  1.00  0.00     0.037 A 
ATOM     56  C   UNL A   1      43.867  29.075  33.837  1.00  0.00     0.049 A 
ATOM     57  C   UNL A   1      43.743  25.407  29.622  1.00  0.00     0.074 A 
ATOM     58  C   UNL A   1      44.923  28.973  34.725  1.00  0.00     0.029 A 
ATOM     59  N   UNL A   1      44.054  28.092  32.877  1.00  0.00    -0.354 N 
ATOM     60  N   UNL A   1      43.906  26.188  30.662  1.00  0.00    -0.248 NA
ATOM     61  C   UNL A   1      44.841  24.452  29.411  1.00  0.00     0.031 C 
ATOM     62  C   UNL A   1      45.775  27.956  34.279  1.00  0.00     0.029 A 
ATOM     63  C   UNL A   1      45.224  27.396  33.138  1.00  0.00     0.049 A 
ATOM     64  H   UNL A   1      43.447  27.914  32.124  1.00  0.00     0.167 HD
ATOM     65  C   UNL A   1      45.109  25.803  31.242  1.00  0.00     0.074 A 
ATOM     66  C   UNL A   1      45.629  24.712  30.445  1.00  0.00     0.031 C 
ATOM     67  C   UNL A   1      45.727  26.308  32.339  1.00  0.00     0.037 A 
BRANCH  54  68
ATOM     68  C   UNL A   1      42.736  31.044  34.932  1.00  0.00     0.057 A 
ATOM     69  C   UNL A   1      43.320  32.306  34.759  1.00  0.00     0.134 A 
ATOM     70  C   UNL A   1      42.084  30.793  36.146  1.00  0.00     0.134 A 
ATOM     71  F   UNL A   1      43.970  32.603  33.624  1.00  0.00    -0.206 F 
ATOM     72  C   UNL A   1      43.274  33.274  35.763  1.00  0.00     0.040 A 
ATOM     73  C   UNL A   1      42.012  31.761  37.149  1.00  0.00     0.040 A 
ATOM     74  F   UNL A   1      41.501  29.607  36.374  1.00  0.00    -0.206 F 
ATOM     75  C   UNL A   1      42.613  33.005  36.960  1.00  0.00     0.006 A 
ENDBRANCH  54  68
BRANCH  55  76
ATOM     76  C   UNL A   1      42.606  24.372  27.532  1.00  0.00     0.057 A 
ATOM     77  C   UNL A   1      42.046  23.099  27.687  1.00  0.00     0.134 A 
ATOM     78  C   UNL A   1      43.190  24.675  26.296  1.00  0.00     0.134 A 
ATOM     79  F   UNL A   1      41.494  22.742  28.856  1.00  0.00    -0.206 F 
ATOM     80  C   UNL A   1      42.077  22.157  26.657  1.00  0.00     0.040 A 
ATOM     81  C   UNL A   1      43.208  23.751  25.250  1.00  0.00     0.040 A 
ATOM     82  F   UNL A   1      43.745  25.878  26.086  1.00  0.00    -0.206 F 
ATOM     83  C   UNL A   1      42.656  22.484  25.432  1.00  0.00     0.006 A 
ENDBRANCH  55  76
BRANCH  67  84
ATOM     84  C   UNL A   1      47.017  25.668  32.759  1.00  0.00     0.057 A 
ATOM     85  C   UNL A   1      47.065  24.683  33.752  1.00  0.00     0.134 A 
ATOM     86  C   UNL A   1      48.221  26.013  32.130  1.00  0.00     0.134 A 
ATOM     87  F   UNL A   1      45.949  24.317  34.401  1.00  0.00    -0.206 F 
ATOM     88  C   UNL A   1      48.268  24.076  34.120  1.00  0.00     0.040 A 
ATOM     89  C   UNL A   1      49.426  25.397  32.473  1.00  0.00     0.040 A 
ATOM     90  F   UNL A   1      48.243  26.943  31.164  1.00  0.00    -0.206 F 
ATOM     91  C   UNL A   1      49.451  24.429  33.475  1.00  0.00     0.006 A 
ENDBRANCH  67  84
ENDBRANCH  41  42
ENDBRANCH  34  36
ENDBRANCH  33  34
ENDBRANCH  32  33
ENDBRANCH  31  32
ENDBRANCH  30  31
ENDBRANCH  29  30
ENDBRANCH   1  29
TORSDOF 20
ENDMDL
