MODEL 1
REMARK VINA RESULT:     -11.4      0.000      0.000
REMARK SMILES O=C(OCCOCCOC(=O)C1CC[NH+]([C@@H]2CCO[C@]3(CCOC3)C2)CC1)c1ccc(-c2c3nc(c(-c4c(F)cccc4F)c4ccc([nH]4)c(-c4c(F)cccc4F)c4nc(c(-c5c(F)cccc5F)c5ccc2[nH]5)C=C4)C=C3)cc1
REMARK SMILES IDX 5 1 4 2 3 3 2 4 1 5 28 6 29 7 81 8 30 9 80 10 31 11 32 12
REMARK SMILES IDX 33 13 74 14 34 15 79 16 73 17 75 18 35 19 78 20 72 21 71 22
REMARK SMILES IDX 36 24 62 25 45 26 61 27 46 28 49 29 60 30 76 31 47 32 48 33
REMARK SMILES IDX 59 35 77 36 50 37 37 38 38 39 43 40 39 41 40 42 42 43 44 44
REMARK SMILES IDX 41 45 63 46 64 47 69 48 65 49 66 50 68 51 70 52 67 53 51 54
REMARK SMILES IDX 52 55 57 56 53 57 54 58 56 59 58 60 55 61 6 62 7 63 8 64
REMARK SMILES IDX 9 65 10 66 11 67 12 68 13 69 27 70 14 71 26 72 15 73 16 75
REMARK SMILES IDX 17 76 25 77 18 78 20 79 19 80 21 81 24 82 22 83 23 84
REMARK H PARENT 75 23 49 34 15 74
REMARK Flexibility Score: inf
ROOT
ATOM      1  C   UNL A   1      33.790  35.099  28.857  1.00  0.00     0.202 C 
ENDROOT
BRANCH   1   2
ATOM      2  C   UNL A   1      33.077  36.253  29.569  1.00  0.00     0.261 C 
BRANCH   2   3
ATOM      3  O   UNL A   1      32.355  35.803  30.736  1.00  0.00    -0.460 OA
BRANCH   3   4
ATOM      4  C   UNL A   1      32.737  36.069  32.015  1.00  0.00     0.338 C 
ATOM      5  O   UNL A   1      32.217  36.951  32.685  1.00  0.00    -0.246 OA
BRANCH   4   6
ATOM      6  C   UNL A   1      33.801  35.219  32.581  1.00  0.00     0.060 A 
ATOM      7  C   UNL A   1      35.092  35.722  32.643  1.00  0.00     0.016 A 
ATOM      8  C   UNL A   1      33.548  33.906  32.968  1.00  0.00     0.016 A 
ATOM      9  C   UNL A   1      36.160  34.870  32.789  1.00  0.00     0.010 A 
ATOM     10  C   UNL A   1      34.621  33.104  33.369  1.00  0.00     0.010 A 
ATOM     11  C   UNL A   1      35.941  33.578  33.256  1.00  0.00    -0.014 A 
BRANCH  11  12
ATOM     12  C   UNL A   1      37.115  32.783  33.680  1.00  0.00     0.031 A 
ATOM     13  C   UNL A   1      37.696  32.979  35.044  1.00  0.00     0.074 A 
ATOM     14  C   UNL A   1      37.619  31.864  32.829  1.00  0.00     0.049 A 
ATOM     15  N   UNL A   1      38.843  32.568  35.513  1.00  0.00    -0.248 NA
ATOM     16  C   UNL A   1      36.896  33.759  36.003  1.00  0.00     0.031 C 
ATOM     17  C   UNL A   1      37.075  31.538  31.502  1.00  0.00     0.029 A 
ATOM     18  N   UNL A   1      38.682  31.009  32.952  1.00  0.00    -0.354 N 
ATOM     19  C   UNL A   1      38.938  33.101  36.792  1.00  0.00     0.074 A 
ATOM     20  C   UNL A   1      37.725  33.851  37.033  1.00  0.00     0.031 C 
ATOM     21  C   UNL A   1      37.751  30.512  30.977  1.00  0.00     0.029 A 
ATOM     22  C   UNL A   1      38.875  30.215  31.845  1.00  0.00     0.049 A 
ATOM     23  H   UNL A   1      39.253  30.969  33.753  1.00  0.00     0.167 HD
ATOM     24  C   UNL A   1      39.968  32.983  37.661  1.00  0.00     0.037 A 
ATOM     25  C   UNL A   1      39.890  29.397  31.526  1.00  0.00     0.037 A 
ATOM     26  C   UNL A   1      41.141  32.195  37.386  1.00  0.00     0.049 A 
ATOM     27  C   UNL A   1      41.036  29.319  32.488  1.00  0.00     0.074 A 
ATOM     28  C   UNL A   1      42.275  32.024  38.156  1.00  0.00     0.029 A 
ATOM     29  N   UNL A   1      41.314  31.428  36.238  1.00  0.00    -0.354 N 
ATOM     30  N   UNL A   1      41.175  29.912  33.650  1.00  0.00    -0.248 NA
ATOM     31  C   UNL A   1      42.180  28.497  32.083  1.00  0.00     0.031 C 
ATOM     32  C   UNL A   1      43.148  31.179  37.460  1.00  0.00     0.029 A 
ATOM     33  C   UNL A   1      42.538  30.785  36.278  1.00  0.00     0.049 A 
ATOM     34  H   UNL A   1      40.662  31.353  35.505  1.00  0.00     0.167 HD
ATOM     35  C   UNL A   1      42.417  29.528  34.124  1.00  0.00     0.074 A 
ATOM     36  C   UNL A   1      42.980  28.631  33.132  1.00  0.00     0.031 C 
ATOM     37  C   UNL A   1      43.047  29.889  35.269  1.00  0.00     0.037 A 
BRANCH  24  38
ATOM     38  C   UNL A   1      39.890  33.775  38.934  1.00  0.00     0.057 A 
ATOM     39  C   UNL A   1      40.489  35.033  39.076  1.00  0.00     0.134 A 
ATOM     40  C   UNL A   1      39.223  33.252  40.050  1.00  0.00     0.134 A 
ATOM     41  F   UNL A   1      41.166  35.582  38.056  1.00  0.00    -0.206 F 
ATOM     42  C   UNL A   1      40.454  35.727  40.289  1.00  0.00     0.040 A 
ATOM     43  C   UNL A   1      39.159  33.946  41.259  1.00  0.00     0.040 A 
ATOM     44  F   UNL A   1      38.628  32.051  39.986  1.00  0.00    -0.206 F 
ATOM     45  C   UNL A   1      39.784  35.184  41.384  1.00  0.00     0.006 A 
ENDBRANCH  24  38
BRANCH  25  46
ATOM     46  C   UNL A   1      39.899  28.675  30.227  1.00  0.00     0.057 A 
ATOM     47  C   UNL A   1      39.273  27.432  30.084  1.00  0.00     0.134 A 
ATOM     48  C   UNL A   1      40.517  29.213  29.089  1.00  0.00     0.134 A 
ATOM     49  F   UNL A   1      38.674  26.854  31.137  1.00  0.00    -0.206 F 
ATOM     50  C   UNL A   1      39.272  26.747  28.868  1.00  0.00     0.040 A 
ATOM     51  C   UNL A   1      40.496  28.555  27.858  1.00  0.00     0.040 A 
ATOM     52  F   UNL A   1      41.129  30.407  29.149  1.00  0.00    -0.206 F 
ATOM     53  C   UNL A   1      39.879  27.313  27.748  1.00  0.00     0.006 A 
ENDBRANCH  25  46
BRANCH  37  54
ATOM     54  C   UNL A   1      44.384  29.265  35.513  1.00  0.00     0.057 A 
ATOM     55  C   UNL A   1      44.516  28.041  36.180  1.00  0.00     0.134 A 
ATOM     56  C   UNL A   1      45.547  29.886  35.046  1.00  0.00     0.134 A 
ATOM     57  F   UNL A   1      43.436  27.412  36.669  1.00  0.00    -0.206 F 
ATOM     58  C   UNL A   1      45.768  27.465  36.391  1.00  0.00     0.040 A 
ATOM     59  C   UNL A   1      46.801  29.306  35.226  1.00  0.00     0.040 A 
ATOM     60  F   UNL A   1      45.480  31.059  34.397  1.00  0.00    -0.206 F 
ATOM     61  C   UNL A   1      46.913  28.094  35.906  1.00  0.00     0.006 A 
ENDBRANCH  37  54
ENDBRANCH  11  12
ENDBRANCH   4   6
ENDBRANCH   3   4
ENDBRANCH   2   3
ENDBRANCH   1   2
BRANCH   1  62
ATOM     62  O   UNL A   1      33.467  33.762  29.221  1.00  0.00    -0.374 OA
BRANCH  62  63
ATOM     63  C   UNL A   1      34.613  32.931  29.461  1.00  0.00     0.202 C 
BRANCH  63  64
ATOM     64  C   UNL A   1      35.238  32.450  28.149  1.00  0.00     0.261 C 
BRANCH  64  65
ATOM     65  O   UNL A   1      34.250  31.774  27.337  1.00  0.00    -0.463 OA
BRANCH  65  66
ATOM     66  C   UNL A   1      34.314  30.415  27.324  1.00  0.00     0.309 C 
ATOM     67  O   UNL A   1      35.355  29.767  27.347  1.00  0.00    -0.252 OA
BRANCH  66  68
ATOM     68  C   UNL A   1      32.944  29.749  27.440  1.00  0.00     0.110 C 
ATOM     69  C   UNL A   1      32.904  28.205  27.370  1.00  0.00     0.077 C 
ATOM     70  C   UNL A   1      32.020  30.421  26.442  1.00  0.00     0.077 C 
ATOM     71  C   UNL A   1      32.260  27.531  26.114  1.00  0.00     0.263 C 
ATOM     72  C   UNL A   1      32.064  29.636  25.151  1.00  0.00     0.263 C 
ATOM     73  N   UNL A   1      31.346  28.403  25.347  1.00  0.00    -0.332 N 
ATOM     74  H   UNL A   1      30.485  28.563  25.872  1.00  0.00     0.348 HD
BRANCH  73  75
ATOM     75  C   UNL A   1      30.784  27.803  24.108  1.00  0.00     0.189 C 
ATOM     76  C   UNL A   1      31.647  27.797  22.842  1.00  0.00     0.093 C 
ATOM     77  C   UNL A   1      29.384  28.343  23.689  1.00  0.00     0.103 C 
ATOM     78  C   UNL A   1      31.679  29.137  22.133  1.00  0.00     0.167 C 
ATOM     79  C   UNL A   1      29.346  29.627  22.817  1.00  0.00     0.099 C 
ATOM     80  O   UNL A   1      30.413  29.720  21.867  1.00  0.00    -0.372 OA
ATOM     81  C   UNL A   1      29.146  30.909  23.653  1.00  0.00     0.066 C 
ATOM     82  C   UNL A   1      28.066  29.679  21.953  1.00  0.00     0.195 C 
ATOM     83  C   UNL A   1      27.746  31.419  23.366  1.00  0.00     0.163 C 
ATOM     84  O   UNL A   1      27.064  30.352  22.715  1.00  0.00    -0.378 OA
ENDBRANCH  73  75
ENDBRANCH  66  68
ENDBRANCH  65  66
ENDBRANCH  64  65
ENDBRANCH  63  64
ENDBRANCH  62  63
ENDBRANCH   1  62
TORSDOF 15
ENDMDL
MODEL 2
REMARK VINA RESULT:     -11.3      1.152      2.360
REMARK SMILES O=C(OCCOCCOC(=O)C1CC[NH+]([C@@H]2CCO[C@]3(CCOC3)C2)CC1)c1ccc(-c2c3nc(c(-c4c(F)cccc4F)c4ccc([nH]4)c(-c4c(F)cccc4F)c4nc(c(-c5c(F)cccc5F)c5ccc2[nH]5)C=C4)C=C3)cc1
REMARK SMILES IDX 5 1 4 2 3 3 2 4 1 5 28 6 29 7 81 8 30 9 80 10 31 11 32 12
REMARK SMILES IDX 33 13 74 14 34 15 79 16 73 17 75 18 35 19 78 20 72 21 71 22
REMARK SMILES IDX 36 24 62 25 45 26 61 27 46 28 49 29 60 30 76 31 47 32 48 33
REMARK SMILES IDX 59 35 77 36 50 37 37 38 38 39 43 40 39 41 40 42 42 43 44 44
REMARK SMILES IDX 41 45 63 46 64 47 69 48 65 49 66 50 68 51 70 52 67 53 51 54
REMARK SMILES IDX 52 55 57 56 53 57 54 58 56 59 58 60 55 61 6 62 7 63 8 64
REMARK SMILES IDX 9 65 10 66 11 67 12 68 13 69 27 70 14 71 26 72 15 73 16 75
REMARK SMILES IDX 17 76 25 77 18 78 20 79 19 80 21 81 24 82 22 83 23 84
REMARK H PARENT 75 23 49 34 15 74
REMARK Flexibility Score: inf
ROOT
ATOM      1  C   UNL A   1      33.330  35.299  28.606  1.00  0.00     0.202 C 
ENDROOT
BRANCH   1   2
ATOM      2  C   UNL A   1      33.153  36.380  29.677  1.00  0.00     0.261 C 
BRANCH   2   3
ATOM      3  O   UNL A   1      32.304  35.935  30.758  1.00  0.00    -0.460 OA
BRANCH   3   4
ATOM      4  C   UNL A   1      32.605  36.095  32.075  1.00  0.00     0.338 C 
ATOM      5  O   UNL A   1      32.014  36.892  32.791  1.00  0.00    -0.246 OA
BRANCH   4   6
ATOM      6  C   UNL A   1      33.671  35.235  32.623  1.00  0.00     0.060 A 
ATOM      7  C   UNL A   1      34.947  35.761  32.758  1.00  0.00     0.016 A 
ATOM      8  C   UNL A   1      33.438  33.896  32.919  1.00  0.00     0.016 A 
ATOM      9  C   UNL A   1      36.030  34.926  32.887  1.00  0.00     0.010 A 
ATOM     10  C   UNL A   1      34.516  33.093  33.305  1.00  0.00     0.010 A 
ATOM     11  C   UNL A   1      35.827  33.603  33.265  1.00  0.00    -0.014 A 
BRANCH  11  12
ATOM     12  C   UNL A   1      37.006  32.809  33.679  1.00  0.00     0.031 A 
ATOM     13  C   UNL A   1      37.595  33.000  35.040  1.00  0.00     0.074 A 
ATOM     14  C   UNL A   1      37.507  31.895  32.821  1.00  0.00     0.049 A 
ATOM     15  N   UNL A   1      38.745  32.589  35.500  1.00  0.00    -0.248 NA
ATOM     16  C   UNL A   1      36.799  33.773  36.008  1.00  0.00     0.031 C 
ATOM     17  C   UNL A   1      36.956  31.575  31.495  1.00  0.00     0.029 A 
ATOM     18  N   UNL A   1      38.574  31.043  32.932  1.00  0.00    -0.354 N 
ATOM     19  C   UNL A   1      38.847  33.117  36.781  1.00  0.00     0.074 A 
ATOM     20  C   UNL A   1      37.634  33.862  37.033  1.00  0.00     0.031 C 
ATOM     21  C   UNL A   1      37.631  30.552  30.961  1.00  0.00     0.029 A 
ATOM     22  C   UNL A   1      38.761  30.255  31.821  1.00  0.00     0.049 A 
ATOM     23  H   UNL A   1      39.149  31.000  33.730  1.00  0.00     0.167 HD
ATOM     24  C   UNL A   1      39.882  32.997  37.643  1.00  0.00     0.037 A 
ATOM     25  C   UNL A   1      39.777  29.441  31.492  1.00  0.00     0.037 A 
ATOM     26  C   UNL A   1      41.056  32.214  37.357  1.00  0.00     0.049 A 
ATOM     27  C   UNL A   1      40.929  29.362  32.446  1.00  0.00     0.074 A 
ATOM     28  C   UNL A   1      42.196  32.042  38.120  1.00  0.00     0.029 A 
ATOM     29  N   UNL A   1      41.224  31.453  36.205  1.00  0.00    -0.354 N 
ATOM     30  N   UNL A   1      41.073  29.949  33.610  1.00  0.00    -0.248 NA
ATOM     31  C   UNL A   1      42.072  28.544  32.030  1.00  0.00     0.031 C 
ATOM     32  C   UNL A   1      43.066  31.203  37.414  1.00  0.00     0.029 A 
ATOM     33  C   UNL A   1      42.450  30.813  36.234  1.00  0.00     0.049 A 
ATOM     34  H   UNL A   1      40.568  31.380  35.476  1.00  0.00     0.167 HD
ATOM     35  C   UNL A   1      42.319  29.566  34.075  1.00  0.00     0.074 A 
ATOM     36  C   UNL A   1      42.878  28.676  33.074  1.00  0.00     0.031 C 
ATOM     37  C   UNL A   1      42.955  29.923  35.218  1.00  0.00     0.037 A 
BRANCH  24  38
ATOM     38  C   UNL A   1      39.810  33.783  38.920  1.00  0.00     0.057 A 
ATOM     39  C   UNL A   1      39.151  33.309  40.061  1.00  0.00     0.134 A 
ATOM     40  C   UNL A   1      40.393  35.056  38.998  1.00  0.00     0.134 A 
ATOM     41  F   UNL A   1      38.549  32.110  40.047  1.00  0.00    -0.206 F 
ATOM     42  C   UNL A   1      39.046  34.083  41.220  1.00  0.00     0.040 A 
ATOM     43  C   UNL A   1      40.317  35.828  40.158  1.00  0.00     0.040 A 
ATOM     44  F   UNL A   1      41.038  35.575  37.942  1.00  0.00    -0.206 F 
ATOM     45  C   UNL A   1      39.633  35.346  41.271  1.00  0.00     0.006 A 
ENDBRANCH  24  38
BRANCH  25  46
ATOM     46  C   UNL A   1      39.780  28.725  30.189  1.00  0.00     0.057 A 
ATOM     47  C   UNL A   1      40.384  29.283  29.057  1.00  0.00     0.134 A 
ATOM     48  C   UNL A   1      39.196  27.458  30.043  1.00  0.00     0.134 A 
ATOM     49  F   UNL A   1      40.949  30.498  29.124  1.00  0.00    -0.206 F 
ATOM     50  C   UNL A   1      40.395  28.618  27.829  1.00  0.00     0.040 A 
ATOM     51  C   UNL A   1      39.229  26.767  28.830  1.00  0.00     0.040 A 
ATOM     52  F   UNL A   1      38.608  26.856  31.089  1.00  0.00    -0.206 F 
ATOM     53  C   UNL A   1      39.822  27.352  27.716  1.00  0.00     0.006 A 
ENDBRANCH  25  46
BRANCH  37  54
ATOM     54  C   UNL A   1      44.295  29.302  35.451  1.00  0.00     0.057 A 
ATOM     55  C   UNL A   1      44.437  28.090  36.137  1.00  0.00     0.134 A 
ATOM     56  C   UNL A   1      45.451  29.912  34.952  1.00  0.00     0.134 A 
ATOM     57  F   UNL A   1      43.365  27.471  36.656  1.00  0.00    -0.206 F 
ATOM     58  C   UNL A   1      45.691  27.516  36.338  1.00  0.00     0.040 A 
ATOM     59  C   UNL A   1      46.707  29.333  35.122  1.00  0.00     0.040 A 
ATOM     60  F   UNL A   1      45.374  31.073  34.283  1.00  0.00    -0.206 F 
ATOM     61  C   UNL A   1      46.829  28.134  35.821  1.00  0.00     0.006 A 
ENDBRANCH  37  54
ENDBRANCH  11  12
ENDBRANCH   4   6
ENDBRANCH   3   4
ENDBRANCH   2   3
ENDBRANCH   1   2
BRANCH   1  62
ATOM     62  O   UNL A   1      34.644  34.856  28.285  1.00  0.00    -0.374 OA
BRANCH  62  63
ATOM     63  C   UNL A   1      35.196  33.936  29.238  1.00  0.00     0.202 C 
BRANCH  63  64
ATOM     64  C   UNL A   1      34.333  32.677  29.363  1.00  0.00     0.261 C 
BRANCH  64  65
ATOM     65  O   UNL A   1      34.097  32.096  28.060  1.00  0.00    -0.463 OA
BRANCH  65  66
ATOM     66  C   UNL A   1      34.829  30.989  27.757  1.00  0.00     0.309 C 
ATOM     67  O   UNL A   1      36.053  30.936  27.782  1.00  0.00    -0.252 OA
BRANCH  66  68
ATOM     68  C   UNL A   1      33.970  29.746  27.533  1.00  0.00     0.110 C 
ATOM     69  C   UNL A   1      34.520  28.676  26.562  1.00  0.00     0.077 C 
ATOM     70  C   UNL A   1      32.569  30.212  27.183  1.00  0.00     0.077 C 
ATOM     71  C   UNL A   1      33.798  28.469  25.190  1.00  0.00     0.263 C 
ATOM     72  C   UNL A   1      32.461  30.305  25.678  1.00  0.00     0.263 C 
ATOM     73  N   UNL A   1      32.408  28.969  25.144  1.00  0.00    -0.332 N 
ATOM     74  H   UNL A   1      31.799  28.376  25.710  1.00  0.00     0.348 HD
BRANCH  73  75
ATOM     75  C   UNL A   1      31.732  28.850  23.825  1.00  0.00     0.189 C 
ATOM     76  C   UNL A   1      30.243  28.491  23.797  1.00  0.00     0.093 C 
ATOM     77  C   UNL A   1      32.437  27.906  22.806  1.00  0.00     0.103 C 
ATOM     78  C   UNL A   1      29.978  27.015  24.023  1.00  0.00     0.167 C 
ATOM     79  C   UNL A   1      32.085  26.394  22.872  1.00  0.00     0.099 C 
ATOM     80  O   UNL A   1      30.718  26.126  23.202  1.00  0.00    -0.372 OA
ATOM     81  C   UNL A   1      33.096  25.584  23.711  1.00  0.00     0.066 C 
ATOM     82  C   UNL A   1      32.283  25.713  21.499  1.00  0.00     0.195 C 
ATOM     83  C   UNL A   1      33.891  24.723  22.748  1.00  0.00     0.163 C 
ATOM     84  O   UNL A   1      33.629  25.241  21.448  1.00  0.00    -0.378 OA
ENDBRANCH  73  75
ENDBRANCH  66  68
ENDBRANCH  65  66
ENDBRANCH  64  65
ENDBRANCH  63  64
ENDBRANCH  62  63
ENDBRANCH   1  62
TORSDOF 15
ENDMDL
MODEL 3
REMARK VINA RESULT:     -11.3      1.678      2.998
REMARK SMILES O=C(OCCOCCOC(=O)C1CC[NH+]([C@@H]2CCO[C@]3(CCOC3)C2)CC1)c1ccc(-c2c3nc(c(-c4c(F)cccc4F)c4ccc([nH]4)c(-c4c(F)cccc4F)c4nc(c(-c5c(F)cccc5F)c5ccc2[nH]5)C=C4)C=C3)cc1
REMARK SMILES IDX 5 1 4 2 3 3 2 4 1 5 28 6 29 7 81 8 30 9 80 10 31 11 32 12
REMARK SMILES IDX 33 13 74 14 34 15 79 16 73 17 75 18 35 19 78 20 72 21 71 22
REMARK SMILES IDX 36 24 62 25 45 26 61 27 46 28 49 29 60 30 76 31 47 32 48 33
REMARK SMILES IDX 59 35 77 36 50 37 37 38 38 39 43 40 39 41 40 42 42 43 44 44
REMARK SMILES IDX 41 45 63 46 64 47 69 48 65 49 66 50 68 51 70 52 67 53 51 54
REMARK SMILES IDX 52 55 57 56 53 57 54 58 56 59 58 60 55 61 6 62 7 63 8 64
REMARK SMILES IDX 9 65 10 66 11 67 12 68 13 69 27 70 14 71 26 72 15 73 16 75
REMARK SMILES IDX 17 76 25 77 18 78 20 79 19 80 21 81 24 82 22 83 23 84
REMARK H PARENT 75 23 49 34 15 74
REMARK Flexibility Score: inf
ROOT
ATOM      1  C   UNL A   1      33.279  34.758  28.715  1.00  0.00     0.202 C 
ENDROOT
BRANCH   1   2
ATOM      2  C   UNL A   1      32.935  36.050  29.461  1.00  0.00     0.261 C 
BRANCH   2   3
ATOM      3  O   UNL A   1      32.158  35.796  30.652  1.00  0.00    -0.460 OA
BRANCH   3   4
ATOM      4  C   UNL A   1      32.580  36.093  31.911  1.00  0.00     0.338 C 
ATOM      5  O   UNL A   1      32.099  37.009  32.565  1.00  0.00    -0.246 OA
BRANCH   4   6
ATOM      6  C   UNL A   1      33.638  35.236  32.478  1.00  0.00     0.060 A 
ATOM      7  C   UNL A   1      34.932  35.731  32.545  1.00  0.00     0.016 A 
ATOM      8  C   UNL A   1      33.377  33.923  32.860  1.00  0.00     0.016 A 
ATOM      9  C   UNL A   1      35.995  34.874  32.692  1.00  0.00     0.010 A 
ATOM     10  C   UNL A   1      34.444  33.114  33.261  1.00  0.00     0.010 A 
ATOM     11  C   UNL A   1      35.767  33.581  33.154  1.00  0.00    -0.014 A 
BRANCH  11  12
ATOM     12  C   UNL A   1      36.936  32.779  33.579  1.00  0.00     0.031 A 
ATOM     13  C   UNL A   1      37.513  32.967  34.946  1.00  0.00     0.074 A 
ATOM     14  C   UNL A   1      37.439  31.861  32.726  1.00  0.00     0.049 A 
ATOM     15  N   UNL A   1      38.656  32.548  35.418  1.00  0.00    -0.248 NA
ATOM     16  C   UNL A   1      36.713  33.746  35.905  1.00  0.00     0.031 C 
ATOM     17  C   UNL A   1      36.898  31.544  31.396  1.00  0.00     0.029 A 
ATOM     18  N   UNL A   1      38.497  31.001  32.849  1.00  0.00    -0.354 N 
ATOM     19  C   UNL A   1      38.749  33.075  36.699  1.00  0.00     0.074 A 
ATOM     20  C   UNL A   1      37.539  33.830  36.939  1.00  0.00     0.031 C 
ATOM     21  C   UNL A   1      37.570  30.516  30.869  1.00  0.00     0.029 A 
ATOM     22  C   UNL A   1      38.690  30.210  31.740  1.00  0.00     0.049 A 
ATOM     23  H   UNL A   1      39.065  30.954  33.652  1.00  0.00     0.167 HD
ATOM     24  C   UNL A   1      39.775  32.949  37.571  1.00  0.00     0.037 A 
ATOM     25  C   UNL A   1      39.703  29.388  31.422  1.00  0.00     0.037 A 
ATOM     26  C   UNL A   1      40.945  32.156  37.297  1.00  0.00     0.049 A 
ATOM     27  C   UNL A   1      40.844  29.301  32.387  1.00  0.00     0.074 A 
ATOM     28  C   UNL A   1      42.076  31.976  38.071  1.00  0.00     0.029 A 
ATOM     29  N   UNL A   1      41.119  31.393  36.147  1.00  0.00    -0.354 N 
ATOM     30  N   UNL A   1      40.982  29.888  33.552  1.00  0.00    -0.248 NA
ATOM     31  C   UNL A   1      41.985  28.475  31.983  1.00  0.00     0.031 C 
ATOM     32  C   UNL A   1      42.947  31.130  37.375  1.00  0.00     0.029 A 
ATOM     33  C   UNL A   1      42.340  30.744  36.189  1.00  0.00     0.049 A 
ATOM     34  H   UNL A   1      40.469  31.324  35.411  1.00  0.00     0.167 HD
ATOM     35  C   UNL A   1      42.221  29.496  34.029  1.00  0.00     0.074 A 
ATOM     36  C   UNL A   1      42.782  28.601  33.035  1.00  0.00     0.031 C 
ATOM     37  C   UNL A   1      42.847  29.849  35.178  1.00  0.00     0.037 A 
BRANCH  24  38
ATOM     38  C   UNL A   1      39.696  33.736  38.847  1.00  0.00     0.057 A 
ATOM     39  C   UNL A   1      38.981  33.290  39.965  1.00  0.00     0.134 A 
ATOM     40  C   UNL A   1      40.330  34.983  38.946  1.00  0.00     0.134 A 
ATOM     41  F   UNL A   1      38.330  32.118  39.930  1.00  0.00    -0.206 F 
ATOM     42  C   UNL A   1      38.874  34.067  41.122  1.00  0.00     0.040 A 
ATOM     43  C   UNL A   1      40.251  35.757  40.104  1.00  0.00     0.040 A 
ATOM     44  F   UNL A   1      41.030  35.474  37.912  1.00  0.00    -0.206 F 
ATOM     45  C   UNL A   1      39.512  35.304  41.194  1.00  0.00     0.006 A 
ENDBRANCH  24  38
BRANCH  25  46
ATOM     46  C   UNL A   1      39.713  28.671  30.119  1.00  0.00     0.057 A 
ATOM     47  C   UNL A   1      40.326  29.227  28.992  1.00  0.00     0.134 A 
ATOM     48  C   UNL A   1      39.126  27.406  29.970  1.00  0.00     0.134 A 
ATOM     49  F   UNL A   1      40.895  30.440  29.062  1.00  0.00    -0.206 F 
ATOM     50  C   UNL A   1      40.344  28.561  27.764  1.00  0.00     0.040 A 
ATOM     51  C   UNL A   1      39.166  26.714  28.758  1.00  0.00     0.040 A 
ATOM     52  F   UNL A   1      38.529  26.807  31.012  1.00  0.00    -0.206 F 
ATOM     53  C   UNL A   1      39.769  27.297  27.648  1.00  0.00     0.006 A 
ENDBRANCH  25  46
BRANCH  37  54
ATOM     54  C   UNL A   1      44.181  29.218  35.424  1.00  0.00     0.057 A 
ATOM     55  C   UNL A   1      45.368  29.802  34.968  1.00  0.00     0.134 A 
ATOM     56  C   UNL A   1      44.273  28.028  36.155  1.00  0.00     0.134 A 
ATOM     57  F   UNL A   1      45.338  30.932  34.244  1.00  0.00    -0.206 F 
ATOM     58  C   UNL A   1      46.606  29.209  35.214  1.00  0.00     0.040 A 
ATOM     59  C   UNL A   1      45.506  27.441  36.431  1.00  0.00     0.040 A 
ATOM     60  F   UNL A   1      43.168  27.426  36.619  1.00  0.00    -0.206 F 
ATOM     61  C   UNL A   1      46.676  28.030  35.955  1.00  0.00     0.006 A 
ENDBRANCH  37  54
ENDBRANCH  11  12
ENDBRANCH   4   6
ENDBRANCH   3   4
ENDBRANCH   2   3
ENDBRANCH   1   2
BRANCH   1  62
ATOM     62  O   UNL A   1      34.259  33.885  29.266  1.00  0.00    -0.374 OA
BRANCH  62  63
ATOM     63  C   UNL A   1      34.876  33.019  28.301  1.00  0.00     0.202 C 
BRANCH  63  64
ATOM     64  C   UNL A   1      34.397  31.574  28.464  1.00  0.00     0.261 C 
BRANCH  64  65
ATOM     65  O   UNL A   1      33.960  31.040  27.192  1.00  0.00    -0.463 OA
BRANCH  65  66
ATOM     66  C   UNL A   1      32.614  30.995  26.994  1.00  0.00     0.309 C 
ATOM     67  O   UNL A   1      31.895  31.980  26.871  1.00  0.00    -0.252 OA
BRANCH  66  68
ATOM     68  C   UNL A   1      32.089  29.577  26.775  1.00  0.00     0.110 C 
ATOM     69  C   UNL A   1      32.993  28.412  27.241  1.00  0.00     0.077 C 
ATOM     70  C   UNL A   1      31.663  29.464  25.323  1.00  0.00     0.077 C 
ATOM     71  C   UNL A   1      33.653  27.499  26.157  1.00  0.00     0.263 C 
ATOM     72  C   UNL A   1      32.831  28.933  24.525  1.00  0.00     0.263 C 
ATOM     73  N   UNL A   1      32.994  27.536  24.835  1.00  0.00    -0.332 N 
ATOM     74  H   UNL A   1      32.089  27.066  24.877  1.00  0.00     0.348 HD
BRANCH  73  75
ATOM     75  C   UNL A   1      33.653  26.733  23.772  1.00  0.00     0.189 C 
ATOM     76  C   UNL A   1      33.020  26.706  22.376  1.00  0.00     0.093 C 
ATOM     77  C   UNL A   1      33.952  25.252  24.153  1.00  0.00     0.103 C 
ATOM     78  C   UNL A   1      31.823  25.781  22.279  1.00  0.00     0.167 C 
ATOM     79  C   UNL A   1      32.819  24.214  23.923  1.00  0.00     0.099 C 
ATOM     80  O   UNL A   1      32.029  24.460  22.756  1.00  0.00    -0.372 OA
ATOM     81  C   UNL A   1      31.985  23.953  25.195  1.00  0.00     0.066 C 
ATOM     82  C   UNL A   1      33.396  22.798  23.697  1.00  0.00     0.195 C 
ATOM     83  C   UNL A   1      32.323  22.554  25.676  1.00  0.00     0.163 C 
ATOM     84  O   UNL A   1      33.501  22.172  24.976  1.00  0.00    -0.378 OA
ENDBRANCH  73  75
ENDBRANCH  66  68
ENDBRANCH  65  66
ENDBRANCH  64  65
ENDBRANCH  63  64
ENDBRANCH  62  63
ENDBRANCH   1  62
TORSDOF 15
ENDMDL
