MODEL 1
REMARK VINA RESULT:     -11.9      0.000      0.000
REMARK SMILES Cc1ccc(NC(=O)c2ccccc2NC(=O)[C@H]2CCCC[C@H]2C(=O)OCCOCCOC(=O)c2ccc(-c3c4nc(c(-c5c(F)cccc5F)c5ccc([nH]5)c(-c5c(F)cccc5F)c5nc(c(-c6c(F)cccc6F)c6ccc3[nH]6)C=C5)C=C4)cc2)cc1
REMARK SMILES IDX 28 1 27 2 26 3 24 4 25 5 23 6 18 7 19 8 20 9 22 10 21 11
REMARK SMILES IDX 16 12 15 13 17 15 14 16 9 17 10 18 11 19 13 20 12 21 7 22
REMARK SMILES IDX 6 23 8 25 5 26 1 27 2 28 3 29 90 30 4 31 89 32 29 33 30 34
REMARK SMILES IDX 31 35 32 36 33 37 34 38 35 39 36 40 88 41 37 42 87 43 38 44
REMARK SMILES IDX 39 45 40 46 81 47 41 48 86 49 80 50 82 51 42 52 85 53 79 54
REMARK SMILES IDX 78 55 43 57 69 58 52 59 68 60 53 61 56 62 67 63 83 64 54 65
REMARK SMILES IDX 55 66 66 68 84 69 57 70 44 71 45 72 50 73 46 74 47 75 49 76
REMARK SMILES IDX 51 77 48 78 70 79 71 80 76 81 72 82 73 83 75 84 77 85 74 86
REMARK SMILES IDX 58 87 59 88 64 89 60 90 61 91 63 92 65 93 62 94
REMARK H PARENT 15 14 6 24 82 56 56 67
REMARK Flexibility Score: inf
ROOT
ATOM      1  C   UNL A   1      37.378  21.524  24.688  1.00  0.00     0.202 C 
ENDROOT
BRANCH   1   2
ATOM      2  C   UNL A   1      36.216  21.112  25.516  1.00  0.00     0.261 C 
BRANCH   2   3
ATOM      3  O   UNL A   1      34.973  21.599  25.042  1.00  0.00    -0.463 OA
BRANCH   3   4
ATOM      4  C   UNL A   1      34.243  22.343  25.911  1.00  0.00     0.309 C 
ATOM      5  O   UNL A   1      34.573  22.691  27.021  1.00  0.00    -0.252 OA
BRANCH   4   6
ATOM      6  C   UNL A   1      32.956  22.747  25.230  1.00  0.00     0.111 C 
ATOM      7  C   UNL A   1      32.694  24.279  25.356  1.00  0.00     0.093 C 
ATOM      8  C   UNL A   1      31.420  24.654  24.595  1.00  0.00     0.014 C 
ATOM      9  C   UNL A   1      31.412  24.098  23.165  1.00  0.00     0.001 C 
ATOM     10  C   UNL A   1      32.895  22.175  23.818  1.00  0.00     0.016 C 
ATOM     11  C   UNL A   1      31.602  22.587  23.127  1.00  0.00     0.001 C 
BRANCH   7  12
ATOM     12  C   UNL A   1      33.814  25.211  24.863  1.00  0.00     0.228 C 
ATOM     13  N   UNL A   1      33.869  26.559  25.089  1.00  0.00    -0.325 N 
ATOM     14  H   UNL A   1      34.733  26.925  24.794  1.00  0.00     0.169 HD
ATOM     15  O   UNL A   1      34.778  24.740  24.244  1.00  0.00    -0.274 OA
BRANCH  13  16
ATOM     16  C   UNL A   1      33.046  27.585  25.623  1.00  0.00     0.054 A 
ATOM     17  C   UNL A   1      32.719  28.732  24.839  1.00  0.00     0.063 A 
ATOM     18  C   UNL A   1      32.107  29.844  25.464  1.00  0.00     0.016 A 
ATOM     19  C   UNL A   1      31.769  29.824  26.813  1.00  0.00     0.001 A 
ATOM     20  C   UNL A   1      32.596  27.557  26.950  1.00  0.00     0.027 A 
ATOM     21  C   UNL A   1      31.992  28.671  27.547  1.00  0.00     0.002 A 
BRANCH  17  22
ATOM     22  C   UNL A   1      33.074  28.998  23.407  1.00  0.00     0.257 C 
ATOM     23  N   UNL A   1      32.203  28.961  22.344  1.00  0.00    -0.322 N 
ATOM     24  H   UNL A   1      32.644  29.034  21.467  1.00  0.00     0.170 HD
ATOM     25  O   UNL A   1      34.256  29.231  23.139  1.00  0.00    -0.269 OA
BRANCH  23  26
ATOM     26  C   UNL A   1      30.811  28.839  22.263  1.00  0.00     0.041 A 
ATOM     27  C   UNL A   1      26.726  28.750  23.508  1.00  0.00     0.044 C 
ATOM     28  C   UNL A   1      28.112  28.716  22.940  1.00  0.00    -0.051 A 
ATOM     29  C   UNL A   1      28.624  29.839  22.280  1.00  0.00     0.005 A 
ATOM     30  C   UNL A   1      28.928  27.596  23.114  1.00  0.00     0.005 A 
ATOM     31  C   UNL A   1      29.970  29.892  21.920  1.00  0.00     0.026 A 
ATOM     32  C   UNL A   1      30.268  27.642  22.734  1.00  0.00     0.026 A 
ENDBRANCH  23  26
ENDBRANCH  17  22
ENDBRANCH  13  16
ENDBRANCH   7  12
ENDBRANCH   4   6
ENDBRANCH   3   4
ENDBRANCH   2   3
ENDBRANCH   1   2
BRANCH   1  33
ATOM     33  O   UNL A   1      37.744  22.854  24.998  1.00  0.00    -0.374 OA
BRANCH  33  34
ATOM     34  C   UNL A   1      38.406  22.970  26.248  1.00  0.00     0.202 C 
BRANCH  34  35
ATOM     35  C   UNL A   1      38.810  24.414  26.611  1.00  0.00     0.261 C 
BRANCH  35  36
ATOM     36  O   UNL A   1      39.345  24.457  27.954  1.00  0.00    -0.460 OA
BRANCH  36  37
ATOM     37  C   UNL A   1      40.420  25.276  28.165  1.00  0.00     0.338 C 
ATOM     38  O   UNL A   1      41.540  24.907  28.476  1.00  0.00    -0.246 OA
BRANCH  37  39
ATOM     39  C   UNL A   1      39.956  26.694  28.294  1.00  0.00     0.060 A 
ATOM     40  C   UNL A   1      40.664  27.740  27.665  1.00  0.00     0.016 A 
ATOM     41  C   UNL A   1      39.103  26.982  29.349  1.00  0.00     0.016 A 
ATOM     42  C   UNL A   1      40.656  29.035  28.217  1.00  0.00     0.010 A 
ATOM     43  C   UNL A   1      39.239  28.202  29.972  1.00  0.00     0.010 A 
ATOM     44  C   UNL A   1      40.029  29.239  29.438  1.00  0.00    -0.014 A 
BRANCH  44  45
ATOM     45  C   UNL A   1      40.153  30.404  30.336  1.00  0.00     0.031 A 
ATOM     46  C   UNL A   1      41.284  30.356  31.298  1.00  0.00     0.074 A 
ATOM     47  C   UNL A   1      39.499  31.586  30.132  1.00  0.00     0.049 A 
ATOM     48  N   UNL A   1      41.475  31.234  32.211  1.00  0.00    -0.248 NA
ATOM     49  C   UNL A   1      42.294  29.294  31.342  1.00  0.00     0.031 C 
ATOM     50  C   UNL A   1      39.871  32.929  30.598  1.00  0.00     0.029 A 
ATOM     51  N   UNL A   1      38.299  31.849  29.449  1.00  0.00    -0.354 N 
ATOM     52  C   UNL A   1      42.740  31.064  32.713  1.00  0.00     0.074 A 
ATOM     53  C   UNL A   1      43.165  29.782  32.228  1.00  0.00     0.031 C 
ATOM     54  C   UNL A   1      38.806  33.750  30.516  1.00  0.00     0.029 A 
ATOM     55  C   UNL A   1      37.683  32.943  30.082  1.00  0.00     0.049 A 
ATOM     56  H   UNL A   1      37.954  31.357  28.670  1.00  0.00     0.167 HD
ATOM     57  C   UNL A   1      43.289  32.107  33.392  1.00  0.00     0.037 A 
ATOM     58  C   UNL A   1      36.457  32.806  30.653  1.00  0.00     0.037 A 
ATOM     59  C   UNL A   1      42.255  33.119  33.658  1.00  0.00     0.049 A 
ATOM     60  C   UNL A   1      36.619  33.022  32.126  1.00  0.00     0.074 A 
ATOM     61  C   UNL A   1      41.987  34.378  33.150  1.00  0.00     0.029 A 
ATOM     62  N   UNL A   1      41.097  32.721  34.333  1.00  0.00    -0.354 N 
ATOM     63  N   UNL A   1      37.772  32.877  32.725  1.00  0.00    -0.248 NA
ATOM     64  C   UNL A   1      35.583  33.531  33.012  1.00  0.00     0.031 C 
ATOM     65  C   UNL A   1      40.622  34.683  33.449  1.00  0.00     0.029 A 
ATOM     66  C   UNL A   1      40.074  33.634  34.173  1.00  0.00     0.049 A 
ATOM     67  H   UNL A   1      41.021  31.891  34.857  1.00  0.00     0.167 HD
ATOM     68  C   UNL A   1      37.686  33.348  33.995  1.00  0.00     0.074 A 
ATOM     69  C   UNL A   1      36.285  33.707  34.147  1.00  0.00     0.031 C 
ATOM     70  C   UNL A   1      38.774  33.418  34.814  1.00  0.00     0.037 A 
BRANCH  57  71
ATOM     71  C   UNL A   1      44.760  32.286  33.704  1.00  0.00     0.057 A 
ATOM     72  C   UNL A   1      45.182  32.393  35.043  1.00  0.00     0.134 A 
ATOM     73  C   UNL A   1      45.802  32.444  32.764  1.00  0.00     0.134 A 
ATOM     74  F   UNL A   1      44.314  32.294  36.060  1.00  0.00    -0.206 F 
ATOM     75  C   UNL A   1      46.517  32.624  35.412  1.00  0.00     0.040 A 
ATOM     76  C   UNL A   1      47.147  32.631  33.121  1.00  0.00     0.040 A 
ATOM     77  F   UNL A   1      45.591  32.485  31.447  1.00  0.00    -0.206 F 
ATOM     78  C   UNL A   1      47.509  32.730  34.452  1.00  0.00     0.006 A 
ENDBRANCH  57  71
BRANCH  58  79
ATOM     79  C   UNL A   1      35.627  31.823  29.888  1.00  0.00     0.057 A 
ATOM     80  C   UNL A   1      35.022  32.330  28.716  1.00  0.00     0.134 A 
ATOM     81  C   UNL A   1      35.895  30.449  29.903  1.00  0.00     0.134 A 
ATOM     82  F   UNL A   1      34.708  33.634  28.632  1.00  0.00    -0.206 F 
ATOM     83  C   UNL A   1      34.921  31.568  27.548  1.00  0.00     0.040 A 
ATOM     84  C   UNL A   1      35.724  29.662  28.749  1.00  0.00     0.040 A 
ATOM     85  F   UNL A   1      36.475  29.881  30.968  1.00  0.00    -0.206 F 
ATOM     86  C   UNL A   1      35.308  30.236  27.549  1.00  0.00     0.006 A 
ENDBRANCH  58  79
BRANCH  70  87
ATOM     87  C   UNL A   1      38.676  33.327  36.312  1.00  0.00     0.057 A 
ATOM     88  C   UNL A   1      38.922  34.409  37.175  1.00  0.00     0.134 A 
ATOM     89  C   UNL A   1      38.131  32.183  36.932  1.00  0.00     0.134 A 
ATOM     90  F   UNL A   1      39.306  35.609  36.722  1.00  0.00    -0.206 F 
ATOM     91  C   UNL A   1      38.719  34.332  38.555  1.00  0.00     0.040 A 
ATOM     92  C   UNL A   1      37.850  32.124  38.298  1.00  0.00     0.040 A 
ATOM     93  F   UNL A   1      37.805  31.082  36.239  1.00  0.00    -0.206 F 
ATOM     94  C   UNL A   1      38.167  33.193  39.119  1.00  0.00     0.006 A 
ENDBRANCH  70  87
ENDBRANCH  44  45
ENDBRANCH  37  39
ENDBRANCH  36  37
ENDBRANCH  35  36
ENDBRANCH  34  35
ENDBRANCH  33  34
ENDBRANCH   1  33
TORSDOF 18
ENDMDL
MODEL 2
REMARK VINA RESULT:     -11.9      2.752      6.596
REMARK SMILES Cc1ccc(NC(=O)c2ccccc2NC(=O)[C@H]2CCCC[C@H]2C(=O)OCCOCCOC(=O)c2ccc(-c3c4nc(c(-c5c(F)cccc5F)c5ccc([nH]5)c(-c5c(F)cccc5F)c5nc(c(-c6c(F)cccc6F)c6ccc3[nH]6)C=C5)C=C4)cc2)cc1
REMARK SMILES IDX 28 1 27 2 26 3 24 4 25 5 23 6 18 7 19 8 20 9 22 10 21 11
REMARK SMILES IDX 16 12 15 13 17 15 14 16 9 17 10 18 11 19 13 20 12 21 7 22
REMARK SMILES IDX 6 23 8 25 5 26 1 27 2 28 3 29 90 30 4 31 89 32 29 33 30 34
REMARK SMILES IDX 31 35 32 36 33 37 34 38 35 39 36 40 88 41 37 42 87 43 38 44
REMARK SMILES IDX 39 45 40 46 81 47 41 48 86 49 80 50 82 51 42 52 85 53 79 54
REMARK SMILES IDX 78 55 43 57 69 58 52 59 68 60 53 61 56 62 67 63 83 64 54 65
REMARK SMILES IDX 55 66 66 68 84 69 57 70 44 71 45 72 50 73 46 74 47 75 49 76
REMARK SMILES IDX 51 77 48 78 70 79 71 80 76 81 72 82 73 83 75 84 77 85 74 86
REMARK SMILES IDX 58 87 59 88 64 89 60 90 61 91 63 92 65 93 62 94
REMARK H PARENT 15 14 6 24 82 56 56 67
REMARK Flexibility Score: inf
ROOT
ATOM      1  C   UNL A   1      36.075  23.224  26.102  1.00  0.00     0.202 C 
ENDROOT
BRANCH   1   2
ATOM      2  C   UNL A   1      34.866  23.220  26.965  1.00  0.00     0.261 C 
BRANCH   2   3
ATOM      3  O   UNL A   1      33.800  22.438  26.454  1.00  0.00    -0.463 OA
BRANCH   3   4
ATOM      4  C   UNL A   1      32.594  23.050  26.354  1.00  0.00     0.309 C 
ATOM      5  O   UNL A   1      32.000  23.629  27.234  1.00  0.00    -0.252 OA
BRANCH   4   6
ATOM      6  C   UNL A   1      32.131  22.963  24.918  1.00  0.00     0.111 C 
ATOM      7  C   UNL A   1      32.149  24.358  24.221  1.00  0.00     0.093 C 
ATOM      8  C   UNL A   1      31.742  24.211  22.753  1.00  0.00     0.014 C 
ATOM      9  C   UNL A   1      32.529  23.106  22.038  1.00  0.00     0.001 C 
ATOM     10  C   UNL A   1      32.865  21.844  24.187  1.00  0.00     0.016 C 
ATOM     11  C   UNL A   1      32.405  21.758  22.737  1.00  0.00     0.001 C 
BRANCH   7  12
ATOM     12  C   UNL A   1      33.482  25.125  24.253  1.00  0.00     0.228 C 
ATOM     13  N   UNL A   1      33.684  26.319  24.887  1.00  0.00    -0.325 N 
ATOM     14  H   UNL A   1      34.639  26.557  24.883  1.00  0.00     0.169 HD
ATOM     15  O   UNL A   1      34.483  24.639  23.710  1.00  0.00    -0.274 OA
BRANCH  13  16
ATOM     16  C   UNL A   1      32.921  27.319  25.548  1.00  0.00     0.054 A 
ATOM     17  C   UNL A   1      32.648  28.563  24.904  1.00  0.00     0.063 A 
ATOM     18  C   UNL A   1      32.101  29.626  25.661  1.00  0.00     0.016 A 
ATOM     19  C   UNL A   1      31.777  29.470  27.004  1.00  0.00     0.001 A 
ATOM     20  C   UNL A   1      32.484  27.163  26.870  1.00  0.00     0.027 A 
ATOM     21  C   UNL A   1      31.945  28.230  27.599  1.00  0.00     0.002 A 
BRANCH  17  22
ATOM     22  C   UNL A   1      33.002  28.973  23.506  1.00  0.00     0.257 C 
ATOM     23  N   UNL A   1      32.140  28.999  22.434  1.00  0.00    -0.322 N 
ATOM     24  H   UNL A   1      32.584  29.169  21.573  1.00  0.00     0.170 HD
ATOM     25  O   UNL A   1      34.176  29.276  23.273  1.00  0.00    -0.269 OA
BRANCH  23  26
ATOM     26  C   UNL A   1      30.756  28.831  22.328  1.00  0.00     0.041 A 
ATOM     27  C   UNL A   1      26.656  28.577  23.502  1.00  0.00     0.044 C 
ATOM     28  C   UNL A   1      28.052  28.602  22.958  1.00  0.00    -0.051 A 
ATOM     29  C   UNL A   1      28.534  29.754  22.326  1.00  0.00     0.005 A 
ATOM     30  C   UNL A   1      28.904  27.507  23.124  1.00  0.00     0.005 A 
ATOM     31  C   UNL A   1      29.884  29.860  21.991  1.00  0.00     0.026 A 
ATOM     32  C   UNL A   1      30.247  27.607  22.768  1.00  0.00     0.026 A 
ENDBRANCH  23  26
ENDBRANCH  17  22
ENDBRANCH  13  16
ENDBRANCH   7  12
ENDBRANCH   4   6
ENDBRANCH   3   4
ENDBRANCH   2   3
ENDBRANCH   1   2
BRANCH   1  33
ATOM     33  O   UNL A   1      36.479  21.897  25.831  1.00  0.00    -0.374 OA
BRANCH  33  34
ATOM     34  C   UNL A   1      37.649  21.825  25.029  1.00  0.00     0.202 C 
BRANCH  34  35
ATOM     35  C   UNL A   1      38.867  21.213  25.750  1.00  0.00     0.261 C 
BRANCH  35  36
ATOM     36  O   UNL A   1      39.281  22.070  26.840  1.00  0.00    -0.460 OA
BRANCH  36  37
ATOM     37  C   UNL A   1      40.370  22.866  26.619  1.00  0.00     0.338 C 
ATOM     38  O   UNL A   1      41.529  22.484  26.578  1.00  0.00    -0.246 OA
BRANCH  37  39
ATOM     39  C   UNL A   1      39.984  24.304  26.774  1.00  0.00     0.060 A 
ATOM     40  C   UNL A   1      40.638  25.306  26.026  1.00  0.00     0.016 A 
ATOM     41  C   UNL A   1      39.298  24.650  27.929  1.00  0.00     0.016 A 
ATOM     42  C   UNL A   1      40.758  26.612  26.539  1.00  0.00     0.010 A 
ATOM     43  C   UNL A   1      39.567  25.875  28.495  1.00  0.00     0.010 A 
ATOM     44  C   UNL A   1      40.314  26.867  27.829  1.00  0.00    -0.014 A 
BRANCH  44  45
ATOM     45  C   UNL A   1      40.608  28.044  28.670  1.00  0.00     0.031 A 
ATOM     46  C   UNL A   1      39.579  29.115  28.658  1.00  0.00     0.074 A 
ATOM     47  C   UNL A   1      41.579  28.061  29.631  1.00  0.00     0.049 A 
ATOM     48  N   UNL A   1      39.722  30.242  29.249  1.00  0.00    -0.248 NA
ATOM     49  C   UNL A   1      38.296  29.029  27.953  1.00  0.00     0.031 C 
ATOM     50  C   UNL A   1      41.666  28.910  30.828  1.00  0.00     0.029 A 
ATOM     51  N   UNL A   1      42.757  27.303  29.738  1.00  0.00    -0.354 N 
ATOM     52  C   UNL A   1      38.499  30.862  29.297  1.00  0.00     0.074 A 
ATOM     53  C   UNL A   1      37.673  30.127  28.382  1.00  0.00     0.031 C 
ATOM     54  C   UNL A   1      42.924  28.889  31.309  1.00  0.00     0.029 A 
ATOM     55  C   UNL A   1      43.717  28.102  30.385  1.00  0.00     0.049 A 
ATOM     56  H   UNL A   1      42.887  26.381  29.419  1.00  0.00     0.167 HD
ATOM     57  C   UNL A   1      38.339  31.860  30.206  1.00  0.00     0.037 A 
ATOM     58  C   UNL A   1      44.874  28.434  29.755  1.00  0.00     0.037 A 
ATOM     59  C   UNL A   1      39.648  32.227  30.770  1.00  0.00     0.049 A 
ATOM     60  C   UNL A   1      44.877  29.919  29.568  1.00  0.00     0.074 A 
ATOM     61  C   UNL A   1      40.256  32.030  31.996  1.00  0.00     0.029 A 
ATOM     62  N   UNL A   1      40.667  32.599  29.888  1.00  0.00    -0.354 N 
ATOM     63  N   UNL A   1      43.775  30.621  29.580  1.00  0.00    -0.248 NA
ATOM     64  C   UNL A   1      46.072  30.747  29.490  1.00  0.00     0.031 C 
ATOM     65  C   UNL A   1      41.665  32.196  31.812  1.00  0.00     0.029 A 
ATOM     66  C   UNL A   1      41.909  32.535  30.488  1.00  0.00     0.049 A 
ATOM     67  H   UNL A   1      40.517  32.873  28.954  1.00  0.00     0.167 HD
ATOM     68  C   UNL A   1      44.078  31.943  29.617  1.00  0.00     0.074 A 
ATOM     69  C   UNL A   1      45.528  31.978  29.515  1.00  0.00     0.031 C 
ATOM     70  C   UNL A   1      43.117  32.901  29.744  1.00  0.00     0.037 A 
BRANCH  57  71
ATOM     71  C   UNL A   1      37.016  32.419  30.686  1.00  0.00     0.057 A 
ATOM     72  C   UNL A   1      36.480  31.987  31.916  1.00  0.00     0.134 A 
ATOM     73  C   UNL A   1      36.175  33.306  29.980  1.00  0.00     0.134 A 
ATOM     74  F   UNL A   1      37.138  31.121  32.699  1.00  0.00    -0.206 F 
ATOM     75  C   UNL A   1      35.231  32.408  32.400  1.00  0.00     0.040 A 
ATOM     76  C   UNL A   1      34.945  33.769  30.473  1.00  0.00     0.040 A 
ATOM     77  F   UNL A   1      36.453  33.743  28.749  1.00  0.00    -0.206 F 
ATOM     78  C   UNL A   1      34.464  33.314  31.686  1.00  0.00     0.006 A 
ENDBRANCH  57  71
BRANCH  58  79
ATOM     79  C   UNL A   1      45.315  27.327  28.848  1.00  0.00     0.057 A 
ATOM     80  C   UNL A   1      45.855  26.195  29.498  1.00  0.00     0.134 A 
ATOM     81  C   UNL A   1      44.716  27.100  27.603  1.00  0.00     0.134 A 
ATOM     82  F   UNL A   1      46.471  26.332  30.684  1.00  0.00    -0.206 F 
ATOM     83  C   UNL A   1      45.596  24.894  29.055  1.00  0.00     0.040 A 
ATOM     84  C   UNL A   1      44.519  25.794  27.118  1.00  0.00     0.040 A 
ATOM     85  F   UNL A   1      44.169  28.111  26.916  1.00  0.00    -0.206 F 
ATOM     86  C   UNL A   1      44.892  24.686  27.878  1.00  0.00     0.006 A 
ENDBRANCH  58  79
BRANCH  70  87
ATOM     87  C   UNL A   1      43.275  34.294  29.197  1.00  0.00     0.057 A 
ATOM     88  C   UNL A   1      43.430  34.580  27.830  1.00  0.00     0.134 A 
ATOM     89  C   UNL A   1      43.075  35.421  30.023  1.00  0.00     0.134 A 
ATOM     90  F   UNL A   1      43.489  33.616  26.903  1.00  0.00    -0.206 F 
ATOM     91  C   UNL A   1      43.465  35.886  27.334  1.00  0.00     0.040 A 
ATOM     92  C   UNL A   1      43.030  36.724  29.526  1.00  0.00     0.040 A 
ATOM     93  F   UNL A   1      42.874  35.311  31.344  1.00  0.00    -0.206 F 
ATOM     94  C   UNL A   1      43.249  36.962  28.180  1.00  0.00     0.006 A 
ENDBRANCH  70  87
ENDBRANCH  44  45
ENDBRANCH  37  39
ENDBRANCH  36  37
ENDBRANCH  35  36
ENDBRANCH  34  35
ENDBRANCH  33  34
ENDBRANCH   1  33
TORSDOF 18
ENDMDL
MODEL 3
REMARK VINA RESULT:     -11.8      4.159      7.832
REMARK SMILES Cc1ccc(NC(=O)c2ccccc2NC(=O)[C@H]2CCCC[C@H]2C(=O)OCCOCCOC(=O)c2ccc(-c3c4nc(c(-c5c(F)cccc5F)c5ccc([nH]5)c(-c5c(F)cccc5F)c5nc(c(-c6c(F)cccc6F)c6ccc3[nH]6)C=C5)C=C4)cc2)cc1
REMARK SMILES IDX 28 1 27 2 26 3 24 4 25 5 23 6 18 7 19 8 20 9 22 10 21 11
REMARK SMILES IDX 16 12 15 13 17 15 14 16 9 17 10 18 11 19 13 20 12 21 7 22
REMARK SMILES IDX 6 23 8 25 5 26 1 27 2 28 3 29 90 30 4 31 89 32 29 33 30 34
REMARK SMILES IDX 31 35 32 36 33 37 34 38 35 39 36 40 88 41 37 42 87 43 38 44
REMARK SMILES IDX 39 45 40 46 81 47 41 48 86 49 80 50 82 51 42 52 85 53 79 54
REMARK SMILES IDX 78 55 43 57 69 58 52 59 68 60 53 61 56 62 67 63 83 64 54 65
REMARK SMILES IDX 55 66 66 68 84 69 57 70 44 71 45 72 50 73 46 74 47 75 49 76
REMARK SMILES IDX 51 77 48 78 70 79 71 80 76 81 72 82 73 83 75 84 77 85 74 86
REMARK SMILES IDX 58 87 59 88 64 89 60 90 61 91 63 92 65 93 62 94
REMARK H PARENT 15 14 6 24 82 56 56 67
REMARK Flexibility Score: inf
ROOT
ATOM      1  C   UNL A   1      39.337  21.857  26.165  1.00  0.00     0.202 C 
ENDROOT
BRANCH   1   2
ATOM      2  C   UNL A   1      38.152  22.367  25.427  1.00  0.00     0.261 C 
BRANCH   2   3
ATOM      3  O   UNL A   1      36.923  21.813  25.864  1.00  0.00    -0.463 OA
BRANCH   3   4
ATOM      4  C   UNL A   1      35.855  22.649  25.883  1.00  0.00     0.309 C 
ATOM      5  O   UNL A   1      35.879  23.857  25.813  1.00  0.00    -0.252 OA
BRANCH   4   6
ATOM      6  C   UNL A   1      34.596  21.816  25.929  1.00  0.00     0.111 C 
ATOM      7  C   UNL A   1      33.316  22.698  25.803  1.00  0.00     0.093 C 
ATOM      8  C   UNL A   1      32.071  21.808  25.783  1.00  0.00     0.014 C 
ATOM      9  C   UNL A   1      32.187  20.666  24.767  1.00  0.00     0.001 C 
ATOM     10  C   UNL A   1      34.695  20.645  24.958  1.00  0.00     0.016 C 
ATOM     11  C   UNL A   1      33.423  19.806  24.997  1.00  0.00     0.001 C 
BRANCH   7  12
ATOM     12  C   UNL A   1      33.237  23.625  24.579  1.00  0.00     0.228 C 
ATOM     13  N   UNL A   1      33.120  24.986  24.632  1.00  0.00    -0.325 N 
ATOM     14  H   UNL A   1      33.217  25.378  23.735  1.00  0.00     0.169 HD
ATOM     15  O   UNL A   1      33.323  23.146  23.440  1.00  0.00    -0.274 OA
BRANCH  13  16
ATOM     16  C   UNL A   1      32.897  26.001  25.601  1.00  0.00     0.054 A 
ATOM     17  C   UNL A   1      31.592  26.214  26.137  1.00  0.00     0.063 A 
ATOM     18  C   UNL A   1      31.345  27.373  26.910  1.00  0.00     0.016 A 
ATOM     19  C   UNL A   1      32.356  28.282  27.201  1.00  0.00     0.001 A 
ATOM     20  C   UNL A   1      33.914  26.877  26.002  1.00  0.00     0.027 A 
ATOM     21  C   UNL A   1      33.645  28.018  26.767  1.00  0.00     0.002 A 
BRANCH  17  22
ATOM     22  C   UNL A   1      30.347  25.421  25.873  1.00  0.00     0.257 C 
ATOM     23  N   UNL A   1      29.405  25.703  24.911  1.00  0.00    -0.322 N 
ATOM     24  H   UNL A   1      28.595  25.147  24.975  1.00  0.00     0.170 HD
ATOM     25  O   UNL A   1      30.115  24.452  26.601  1.00  0.00    -0.269 OA
BRANCH  23  26
ATOM     26  C   UNL A   1      29.370  26.624  23.860  1.00  0.00     0.041 A 
ATOM     27  C   UNL A   1      29.416  30.386  21.836  1.00  0.00     0.044 C 
ATOM     28  C   UNL A   1      29.348  29.006  22.415  1.00  0.00    -0.051 A 
ATOM     29  C   UNL A   1      30.489  28.195  22.422  1.00  0.00     0.005 A 
ATOM     30  C   UNL A   1      28.173  28.536  23.005  1.00  0.00     0.005 A 
ATOM     31  C   UNL A   1      30.493  26.992  23.127  1.00  0.00     0.026 A 
ATOM     32  C   UNL A   1      28.172  27.322  23.690  1.00  0.00     0.026 A 
ENDBRANCH  23  26
ENDBRANCH  17  22
ENDBRANCH  13  16
ENDBRANCH   7  12
ENDBRANCH   4   6
ENDBRANCH   3   4
ENDBRANCH   2   3
ENDBRANCH   1   2
BRANCH   1  33
ATOM     33  O   UNL A   1      39.585  20.512  25.807  1.00  0.00    -0.374 OA
BRANCH  33  34
ATOM     34  C   UNL A   1      40.616  19.914  26.580  1.00  0.00     0.202 C 
BRANCH  34  35
ATOM     35  C   UNL A   1      41.937  19.710  25.811  1.00  0.00     0.261 C 
BRANCH  35  36
ATOM     36  O   UNL A   1      42.999  20.466  26.438  1.00  0.00    -0.460 OA
BRANCH  36  37
ATOM     37  C   UNL A   1      43.593  21.438  25.682  1.00  0.00     0.338 C 
ATOM     38  O   UNL A   1      44.664  21.330  25.106  1.00  0.00    -0.246 OA
BRANCH  37  39
ATOM     39  C   UNL A   1      42.925  22.753  25.935  1.00  0.00     0.060 A 
ATOM     40  C   UNL A   1      43.128  23.841  25.059  1.00  0.00     0.016 A 
ATOM     41  C   UNL A   1      42.467  22.989  27.223  1.00  0.00     0.016 A 
ATOM     42  C   UNL A   1      43.052  25.163  25.538  1.00  0.00     0.010 A 
ATOM     43  C   UNL A   1      42.562  24.270  27.717  1.00  0.00     0.010 A 
ATOM     44  C   UNL A   1      42.876  25.373  26.898  1.00  0.00    -0.014 A 
BRANCH  44  45
ATOM     45  C   UNL A   1      43.071  26.627  27.652  1.00  0.00     0.031 A 
ATOM     46  C   UNL A   1      41.835  27.395  27.951  1.00  0.00     0.074 A 
ATOM     47  C   UNL A   1      44.228  26.941  28.306  1.00  0.00     0.049 A 
ATOM     48  N   UNL A   1      41.836  28.550  28.506  1.00  0.00    -0.248 NA
ATOM     49  C   UNL A   1      40.477  26.947  27.627  1.00  0.00     0.031 C 
ATOM     50  C   UNL A   1      44.415  27.843  29.452  1.00  0.00     0.029 A 
ATOM     51  N   UNL A   1      45.546  26.518  28.065  1.00  0.00    -0.354 N 
ATOM     52  C   UNL A   1      40.555  28.836  28.905  1.00  0.00     0.074 A 
ATOM     53  C   UNL A   1      39.731  27.870  28.238  1.00  0.00     0.031 C 
ATOM     54  C   UNL A   1      45.717  28.170  29.565  1.00  0.00     0.029 A 
ATOM     55  C   UNL A   1      46.404  27.567  28.439  1.00  0.00     0.049 A 
ATOM     56  H   UNL A   1      45.819  25.645  27.701  1.00  0.00     0.167 HD
ATOM     57  C   UNL A   1      40.395  29.805  29.846  1.00  0.00     0.037 A 
ATOM     58  C   UNL A   1      47.216  28.153  27.521  1.00  0.00     0.037 A 
ATOM     59  C   UNL A   1      41.666  30.523  30.033  1.00  0.00     0.049 A 
ATOM     60  C   UNL A   1      46.781  29.578  27.376  1.00  0.00     0.074 A 
ATOM     61  C   UNL A   1      42.616  30.551  31.038  1.00  0.00     0.029 A 
ATOM     62  N   UNL A   1      42.272  31.100  28.913  1.00  0.00    -0.354 N 
ATOM     63  N   UNL A   1      45.580  29.973  27.709  1.00  0.00    -0.248 NA
ATOM     64  C   UNL A   1      47.650  30.679  26.989  1.00  0.00     0.031 C 
ATOM     65  C   UNL A   1      43.827  31.064  30.474  1.00  0.00     0.029 A 
ATOM     66  C   UNL A   1      43.602  31.387  29.143  1.00  0.00     0.049 A 
ATOM     67  H   UNL A   1      41.806  31.279  28.064  1.00  0.00     0.167 HD
ATOM     68  C   UNL A   1      45.527  31.329  27.692  1.00  0.00     0.074 A 
ATOM     69  C   UNL A   1      46.833  31.729  27.193  1.00  0.00     0.031 C 
ATOM     70  C   UNL A   1      44.422  32.013  28.103  1.00  0.00     0.037 A 
BRANCH  57  71
ATOM     71  C   UNL A   1      39.156  30.029  30.687  1.00  0.00     0.057 A 
ATOM     72  C   UNL A   1      38.567  31.307  30.737  1.00  0.00     0.134 A 
ATOM     73  C   UNL A   1      38.534  29.082  31.530  1.00  0.00     0.134 A 
ATOM     74  F   UNL A   1      39.053  32.329  30.019  1.00  0.00    -0.206 F 
ATOM     75  C   UNL A   1      37.457  31.611  31.541  1.00  0.00     0.040 A 
ATOM     76  C   UNL A   1      37.397  29.361  32.304  1.00  0.00     0.040 A 
ATOM     77  F   UNL A   1      39.007  27.847  31.707  1.00  0.00    -0.206 F 
ATOM     78  C   UNL A   1      36.857  30.634  32.319  1.00  0.00     0.006 A 
ENDBRANCH  57  71
BRANCH  58  79
ATOM     79  C   UNL A   1      47.664  27.152  26.502  1.00  0.00     0.057 A 
ATOM     80  C   UNL A   1      47.084  27.296  25.222  1.00  0.00     0.134 A 
ATOM     81  C   UNL A   1      48.932  26.560  26.544  1.00  0.00     0.134 A 
ATOM     82  F   UNL A   1      45.857  27.830  25.096  1.00  0.00    -0.206 F 
ATOM     83  C   UNL A   1      47.819  27.093  24.050  1.00  0.00     0.040 A 
ATOM     84  C   UNL A   1      49.647  26.285  25.364  1.00  0.00     0.040 A 
ATOM     85  F   UNL A   1      49.565  26.390  27.713  1.00  0.00    -0.206 F 
ATOM     86  C   UNL A   1      49.121  26.621  24.117  1.00  0.00     0.006 A 
ENDBRANCH  58  79
BRANCH  70  87
ATOM     87  C   UNL A   1      44.056  33.370  27.566  1.00  0.00     0.057 A 
ATOM     88  C   UNL A   1      43.762  33.620  26.215  1.00  0.00     0.134 A 
ATOM     89  C   UNL A   1      43.791  34.445  28.441  1.00  0.00     0.134 A 
ATOM     90  F   UNL A   1      43.827  32.660  25.283  1.00  0.00    -0.206 F 
ATOM     91  C   UNL A   1      43.319  34.863  25.758  1.00  0.00     0.040 A 
ATOM     92  C   UNL A   1      43.273  35.665  28.006  1.00  0.00     0.040 A 
ATOM     93  F   UNL A   1      43.982  34.352  29.766  1.00  0.00    -0.206 F 
ATOM     94  C   UNL A   1      43.058  35.887  26.656  1.00  0.00     0.006 A 
ENDBRANCH  70  87
ENDBRANCH  44  45
ENDBRANCH  37  39
ENDBRANCH  36  37
ENDBRANCH  35  36
ENDBRANCH  34  35
ENDBRANCH  33  34
ENDBRANCH   1  33
TORSDOF 18
ENDMDL
