MODEL 1
REMARK VINA RESULT:     -10.8      0.000      0.000
REMARK SMILES O=C(OCCOCCOC(=O)[C@@H]1C[NH2+]CCN1C(=O)N[C@@H]1CCOC1)c1ccc(-c2c3nc(c(-c4c(F)cccc4F)c4ccc([nH]4)c(-c4c(F)cccc4F)c4nc(c(-c5c(F)cccc5F)c5ccc2[nH]5)C=C4)C=C3)cc1
REMARK SMILES IDX 6 1 5 2 4 3 3 4 2 5 1 6 26 7 27 8 79 9 28 10 78 11 29 12
REMARK SMILES IDX 30 13 31 14 72 15 32 16 77 17 71 18 73 19 33 20 76 21 70 22
REMARK SMILES IDX 69 23 34 25 60 26 43 27 59 28 44 29 47 30 58 31 74 32 45 33
REMARK SMILES IDX 46 34 57 36 75 37 48 38 35 39 36 40 41 41 37 42 38 43 40 44
REMARK SMILES IDX 42 45 39 46 61 47 62 48 67 49 63 50 64 51 66 52 68 53 65 54
REMARK SMILES IDX 49 55 50 56 55 57 51 58 52 59 54 60 56 61 53 62 7 63 8 64
REMARK SMILES IDX 9 65 10 66 11 67 12 68 13 69 17 70 14 71 16 72 15 73 18 76
REMARK SMILES IDX 19 77 20 78 21 80 22 81 25 82 23 83 24 84
REMARK H PARENT 73 24 47 35 14 74 14 75 20 79
REMARK Flexibility Score: inf
ROOT
ATOM      1  O   UNL A   1      31.734  30.365  26.148  1.00  0.00    -0.374 OA
ENDROOT
BRANCH   1   2
ATOM      2  C   UNL A   1      31.491  31.744  26.503  1.00  0.00     0.202 C 
BRANCH   2   3
ATOM      3  C   UNL A   1      32.572  32.529  27.268  1.00  0.00     0.261 C 
BRANCH   3   4
ATOM      4  O   UNL A   1      32.184  33.841  27.673  1.00  0.00    -0.460 OA
BRANCH   4   5
ATOM      5  C   UNL A   1      32.924  34.683  28.430  1.00  0.00     0.338 C 
ATOM      6  O   UNL A   1      32.454  35.772  28.754  1.00  0.00    -0.246 OA
BRANCH   5   7
ATOM      7  C   UNL A   1      34.209  34.254  29.054  1.00  0.00     0.060 A 
ATOM      8  C   UNL A   1      35.474  34.519  28.532  1.00  0.00     0.016 A 
ATOM      9  C   UNL A   1      34.121  33.586  30.290  1.00  0.00     0.016 A 
ATOM     10  C   UNL A   1      36.619  34.072  29.175  1.00  0.00     0.010 A 
ATOM     11  C   UNL A   1      35.269  33.155  30.960  1.00  0.00     0.010 A 
ATOM     12  C   UNL A   1      36.522  33.371  30.378  1.00  0.00    -0.014 A 
BRANCH  12  13
ATOM     13  C   UNL A   1      37.747  32.704  30.848  1.00  0.00     0.031 A 
ATOM     14  C   UNL A   1      38.307  33.151  32.165  1.00  0.00     0.074 A 
ATOM     15  C   UNL A   1      38.172  31.584  30.236  1.00  0.00     0.049 A 
ATOM     16  N   UNL A   1      39.320  32.682  32.840  1.00  0.00    -0.248 NA
ATOM     17  C   UNL A   1      37.593  34.252  32.839  1.00  0.00     0.031 C 
ATOM     18  C   UNL A   1      37.557  30.995  29.044  1.00  0.00     0.029 A 
ATOM     19  N   UNL A   1      39.175  30.714  30.561  1.00  0.00    -0.354 N 
ATOM     20  C   UNL A   1      39.361  33.425  34.013  1.00  0.00     0.074 A 
ATOM     21  C   UNL A   1      38.282  34.382  33.961  1.00  0.00     0.031 C 
ATOM     22  C   UNL A   1      38.184  29.842  28.754  1.00  0.00     0.029 A 
ATOM     23  C   UNL A   1      39.283  29.654  29.694  1.00  0.00     0.049 A 
ATOM     24  H   UNL A   1      39.762  30.835  31.342  1.00  0.00     0.167 HD
ATOM     25  C   UNL A   1      40.234  33.315  35.039  1.00  0.00     0.037 A 
ATOM     26  C   UNL A   1      40.202  28.671  29.655  1.00  0.00     0.037 A 
ATOM     27  C   UNL A   1      41.319  32.376  35.038  1.00  0.00     0.049 A 
ATOM     28  C   UNL A   1      41.260  28.668  30.727  1.00  0.00     0.074 A 
ATOM     29  C   UNL A   1      42.370  32.255  35.926  1.00  0.00     0.029 A 
ATOM     30  N   UNL A   1      41.485  31.387  34.075  1.00  0.00    -0.354 N 
ATOM     31  N   UNL A   1      41.374  29.450  31.776  1.00  0.00    -0.248 NA
ATOM     32  C   UNL A   1      42.325  27.666  30.605  1.00  0.00     0.031 C 
ATOM     33  C   UNL A   1      43.194  31.217  35.476  1.00  0.00     0.029 A 
ATOM     34  C   UNL A   1      42.629  30.658  34.337  1.00  0.00     0.049 A 
ATOM     35  H   UNL A   1      40.876  31.229  33.318  1.00  0.00     0.167 HD
ATOM     36  C   UNL A   1      42.519  29.037  32.440  1.00  0.00     0.074 A 
ATOM     37  C   UNL A   1      43.042  27.908  31.693  1.00  0.00     0.031 C 
ATOM     38  C   UNL A   1      43.103  29.544  33.555  1.00  0.00     0.037 A 
BRANCH  25  39
ATOM     39  C   UNL A   1      40.082  34.293  36.164  1.00  0.00     0.057 A 
ATOM     40  C   UNL A   1      40.651  35.574  36.121  1.00  0.00     0.134 A 
ATOM     41  C   UNL A   1      39.412  33.925  37.337  1.00  0.00     0.134 A 
ATOM     42  F   UNL A   1      41.343  35.975  35.043  1.00  0.00    -0.206 F 
ATOM     43  C   UNL A   1      40.578  36.442  37.213  1.00  0.00     0.040 A 
ATOM     44  C   UNL A   1      39.314  34.792  38.427  1.00  0.00     0.040 A 
ATOM     45  F   UNL A   1      38.860  32.708  37.451  1.00  0.00    -0.206 F 
ATOM     46  C   UNL A   1      39.906  36.052  38.370  1.00  0.00     0.006 A 
ENDBRANCH  25  39
BRANCH  26  47
ATOM     47  C   UNL A   1      40.217  27.687  28.537  1.00  0.00     0.057 A 
ATOM     48  C   UNL A   1      39.599  26.435  28.637  1.00  0.00     0.134 A 
ATOM     49  C   UNL A   1      40.897  27.967  27.342  1.00  0.00     0.134 A 
ATOM     50  F   UNL A   1      38.948  26.090  29.757  1.00  0.00    -0.206 F 
ATOM     51  C   UNL A   1      39.673  25.495  27.604  1.00  0.00     0.040 A 
ATOM     52  C   UNL A   1      40.951  27.052  26.289  1.00  0.00     0.040 A 
ATOM     53  F   UNL A   1      41.518  29.144  27.175  1.00  0.00    -0.206 F 
ATOM     54  C   UNL A   1      40.346  25.806  26.423  1.00  0.00     0.006 A 
ENDBRANCH  26  47
BRANCH  38  55
ATOM     55  C   UNL A   1      44.351  28.863  34.023  1.00  0.00     0.057 A 
ATOM     56  C   UNL A   1      45.618  29.290  33.610  1.00  0.00     0.134 A 
ATOM     57  C   UNL A   1      44.283  27.792  34.921  1.00  0.00     0.134 A 
ATOM     58  F   UNL A   1      45.745  30.304  32.739  1.00  0.00    -0.206 F 
ATOM     59  C   UNL A   1      46.777  28.656  34.054  1.00  0.00     0.040 A 
ATOM     60  C   UNL A   1      45.436  27.168  35.394  1.00  0.00     0.040 A 
ATOM     61  F   UNL A   1      43.096  27.346  35.361  1.00  0.00    -0.206 F 
ATOM     62  C   UNL A   1      46.687  27.595  34.954  1.00  0.00     0.006 A 
ENDBRANCH  38  55
ENDBRANCH  12  13
ENDBRANCH   5   7
ENDBRANCH   4   5
ENDBRANCH   3   4
ENDBRANCH   2   3
ENDBRANCH   1   2
BRANCH   1  63
ATOM     63  C   UNL A   1      32.023  29.490  27.272  1.00  0.00     0.202 C 
BRANCH  63  64
ATOM     64  C   UNL A   1      31.787  27.962  26.997  1.00  0.00     0.261 C 
BRANCH  64  65
ATOM     65  O   UNL A   1      32.949  27.373  26.359  1.00  0.00    -0.462 OA
BRANCH  65  66
ATOM     66  C   UNL A   1      32.754  26.491  25.316  1.00  0.00     0.334 C 
ATOM     67  O   UNL A   1      33.602  25.707  24.914  1.00  0.00    -0.250 OA
BRANCH  66  68
ATOM     68  C   UNL A   1      31.275  26.517  24.811  1.00  0.00     0.252 C 
ATOM     69  C   UNL A   1      30.461  25.198  24.896  1.00  0.00     0.298 C 
ATOM     70  N   UNL A   1      31.244  27.080  23.471  1.00  0.00    -0.300 N 
ATOM     71  N   UNL A   1      30.210  24.488  23.615  1.00  0.00    -0.343 N 
ATOM     72  C   UNL A   1      31.591  26.138  22.382  1.00  0.00     0.183 C 
ATOM     73  C   UNL A   1      31.390  24.654  22.762  1.00  0.00     0.282 C 
ATOM     74  H   UNL A   1      29.392  24.886  23.154  1.00  0.00     0.346 HD
ATOM     75  H   UNL A   1      30.037  23.498  23.789  1.00  0.00     0.346 HD
BRANCH  70  76
ATOM     76  C   UNL A   1      31.353  28.436  23.246  1.00  0.00     0.318 C 
ATOM     77  O   UNL A   1      32.458  28.978  23.231  1.00  0.00    -0.249 OA
ATOM     78  N   UNL A   1      30.219  29.193  23.440  1.00  0.00    -0.333 N 
ATOM     79  H   UNL A   1      30.098  29.498  24.369  1.00  0.00     0.165 HD
BRANCH  78  80
ATOM     80  C   UNL A   1      29.149  29.633  22.522  1.00  0.00     0.112 C 
ATOM     81  C   UNL A   1      28.954  31.148  22.622  1.00  0.00     0.056 C 
ATOM     82  C   UNL A   1      27.725  29.155  22.855  1.00  0.00     0.185 C 
ATOM     83  C   UNL A   1      27.828  31.345  23.617  1.00  0.00     0.162 C 
ATOM     84  O   UNL A   1      26.993  30.201  23.510  1.00  0.00    -0.379 OA
ENDBRANCH  78  80
ENDBRANCH  70  76
ENDBRANCH  66  68
ENDBRANCH  65  66
ENDBRANCH  64  65
ENDBRANCH  63  64
ENDBRANCH   1  63
TORSDOF 16
ENDMDL
MODEL 2
REMARK VINA RESULT:     -10.7      5.390     10.603
REMARK SMILES O=C(OCCOCCOC(=O)[C@@H]1C[NH2+]CCN1C(=O)N[C@@H]1CCOC1)c1ccc(-c2c3nc(c(-c4c(F)cccc4F)c4ccc([nH]4)c(-c4c(F)cccc4F)c4nc(c(-c5c(F)cccc5F)c5ccc2[nH]5)C=C4)C=C3)cc1
REMARK SMILES IDX 6 1 5 2 4 3 3 4 2 5 1 6 26 7 27 8 79 9 28 10 78 11 29 12
REMARK SMILES IDX 30 13 31 14 72 15 32 16 77 17 71 18 73 19 33 20 76 21 70 22
REMARK SMILES IDX 69 23 34 25 60 26 43 27 59 28 44 29 47 30 58 31 74 32 45 33
REMARK SMILES IDX 46 34 57 36 75 37 48 38 35 39 36 40 41 41 37 42 38 43 40 44
REMARK SMILES IDX 42 45 39 46 61 47 62 48 67 49 63 50 64 51 66 52 68 53 65 54
REMARK SMILES IDX 49 55 50 56 55 57 51 58 52 59 54 60 56 61 53 62 7 63 8 64
REMARK SMILES IDX 9 65 10 66 11 67 12 68 13 69 17 70 14 71 16 72 15 73 18 76
REMARK SMILES IDX 19 77 20 78 21 80 22 81 25 82 23 83 24 84
REMARK H PARENT 73 24 47 35 14 74 14 75 20 79
REMARK Flexibility Score: inf
ROOT
ATOM      1  O   UNL A   1      36.877  20.917  24.853  1.00  0.00    -0.374 OA
ENDROOT
BRANCH   1   2
ATOM      2  C   UNL A   1      37.897  19.900  24.960  1.00  0.00     0.202 C 
BRANCH   2   3
ATOM      3  C   UNL A   1      39.205  20.216  25.708  1.00  0.00     0.261 C 
BRANCH   3   4
ATOM      4  O   UNL A   1      40.153  19.150  25.731  1.00  0.00    -0.460 OA
BRANCH   4   5
ATOM      5  C   UNL A   1      41.462  19.268  26.050  1.00  0.00     0.338 C 
ATOM      6  O   UNL A   1      42.232  18.347  25.781  1.00  0.00    -0.246 OA
BRANCH   5   7
ATOM      7  C   UNL A   1      42.041  20.556  26.529  1.00  0.00     0.060 A 
ATOM      8  C   UNL A   1      42.109  20.948  27.865  1.00  0.00     0.016 A 
ATOM      9  C   UNL A   1      42.609  21.397  25.555  1.00  0.00     0.016 A 
ATOM     10  C   UNL A   1      42.657  22.172  28.223  1.00  0.00     0.010 A 
ATOM     11  C   UNL A   1      43.188  22.620  25.907  1.00  0.00     0.010 A 
ATOM     12  C   UNL A   1      43.178  23.021  27.246  1.00  0.00    -0.014 A 
BRANCH  12  13
ATOM     13  C   UNL A   1      43.486  24.396  27.670  1.00  0.00     0.031 A 
ATOM     14  C   UNL A   1      44.901  24.864  27.503  1.00  0.00     0.074 A 
ATOM     15  C   UNL A   1      42.483  25.248  27.947  1.00  0.00     0.049 A 
ATOM     16  N   UNL A   1      45.419  26.040  27.720  1.00  0.00    -0.248 NA
ATOM     17  C   UNL A   1      45.856  23.875  26.967  1.00  0.00     0.031 C 
ATOM     18  C   UNL A   1      41.060  24.895  27.955  1.00  0.00     0.029 A 
ATOM     19  N   UNL A   1      42.497  26.588  28.217  1.00  0.00    -0.354 N 
ATOM     20  C   UNL A   1      46.753  25.934  27.348  1.00  0.00     0.074 A 
ATOM     21  C   UNL A   1      46.973  24.581  26.897  1.00  0.00     0.031 C 
ATOM     22  C   UNL A   1      40.337  26.003  28.191  1.00  0.00     0.029 A 
ATOM     23  C   UNL A   1      41.246  27.119  28.421  1.00  0.00     0.049 A 
ATOM     24  H   UNL A   1      43.323  27.121  28.260  1.00  0.00     0.167 HD
ATOM     25  C   UNL A   1      47.708  26.890  27.387  1.00  0.00     0.037 A 
ATOM     26  C   UNL A   1      40.896  28.365  28.794  1.00  0.00     0.037 A 
ATOM     27  C   UNL A   1      47.461  28.215  27.878  1.00  0.00     0.049 A 
ATOM     28  C   UNL A   1      42.003  29.369  28.983  1.00  0.00     0.074 A 
ATOM     29  C   UNL A   1      48.357  29.236  28.124  1.00  0.00     0.029 A 
ATOM     30  N   UNL A   1      46.197  28.696  28.203  1.00  0.00    -0.354 N 
ATOM     31  N   UNL A   1      43.288  29.234  28.747  1.00  0.00    -0.248 NA
ATOM     32  C   UNL A   1      41.622  30.686  29.506  1.00  0.00     0.031 C 
ATOM     33  C   UNL A   1      47.639  30.322  28.638  1.00  0.00     0.029 A 
ATOM     34  C   UNL A   1      46.290  29.995  28.663  1.00  0.00     0.049 A 
ATOM     35  H   UNL A   1      45.360  28.185  28.119  1.00  0.00     0.167 HD
ATOM     36  C   UNL A   1      43.870  30.446  29.090  1.00  0.00     0.074 A 
ATOM     37  C   UNL A   1      42.788  31.315  29.514  1.00  0.00     0.031 C 
ATOM     38  C   UNL A   1      45.176  30.813  29.074  1.00  0.00     0.037 A 
BRANCH  25  39
ATOM     39  C   UNL A   1      49.090  26.481  26.976  1.00  0.00     0.057 A 
ATOM     40  C   UNL A   1      49.545  26.607  25.656  1.00  0.00     0.134 A 
ATOM     41  C   UNL A   1      49.959  25.891  27.903  1.00  0.00     0.134 A 
ATOM     42  F   UNL A   1      48.748  27.126  24.710  1.00  0.00    -0.206 F 
ATOM     43  C   UNL A   1      50.803  26.139  25.269  1.00  0.00     0.040 A 
ATOM     44  C   UNL A   1      51.227  25.438  27.533  1.00  0.00     0.040 A 
ATOM     45  F   UNL A   1      49.580  25.724  29.178  1.00  0.00    -0.206 F 
ATOM     46  C   UNL A   1      51.649  25.554  26.210  1.00  0.00     0.006 A 
ENDBRANCH  25  39
BRANCH  26  47
ATOM     47  C   UNL A   1      39.477  28.699  29.095  1.00  0.00     0.057 A 
ATOM     48  C   UNL A   1      38.626  29.270  28.142  1.00  0.00     0.134 A 
ATOM     49  C   UNL A   1      38.945  28.488  30.377  1.00  0.00     0.134 A 
ATOM     50  F   UNL A   1      39.070  29.520  26.903  1.00  0.00    -0.206 F 
ATOM     51  C   UNL A   1      37.313  29.636  28.455  1.00  0.00     0.040 A 
ATOM     52  C   UNL A   1      37.626  28.817  30.695  1.00  0.00     0.040 A 
ATOM     53  F   UNL A   1      39.702  27.948  31.345  1.00  0.00    -0.206 F 
ATOM     54  C   UNL A   1      36.809  29.404  29.734  1.00  0.00     0.006 A 
ENDBRANCH  26  47
BRANCH  38  55
ATOM     55  C   UNL A   1      45.482  32.211  29.513  1.00  0.00     0.057 A 
ATOM     56  C   UNL A   1      45.797  32.510  30.844  1.00  0.00     0.134 A 
ATOM     57  C   UNL A   1      45.491  33.260  28.587  1.00  0.00     0.134 A 
ATOM     58  F   UNL A   1      45.790  31.546  31.778  1.00  0.00    -0.206 F 
ATOM     59  C   UNL A   1      46.086  33.813  31.245  1.00  0.00     0.040 A 
ATOM     60  C   UNL A   1      45.806  34.563  28.971  1.00  0.00     0.040 A 
ATOM     61  F   UNL A   1      45.207  33.032  27.296  1.00  0.00    -0.206 F 
ATOM     62  C   UNL A   1      46.097  34.843  30.304  1.00  0.00     0.006 A 
ENDBRANCH  38  55
ENDBRANCH  12  13
ENDBRANCH   5   7
ENDBRANCH   4   5
ENDBRANCH   3   4
ENDBRANCH   2   3
ENDBRANCH   1   2
BRANCH   1  63
ATOM     63  C   UNL A   1      37.380  22.280  24.817  1.00  0.00     0.202 C 
BRANCH  63  64
ATOM     64  C   UNL A   1      36.313  23.369  24.441  1.00  0.00     0.261 C 
BRANCH  64  65
ATOM     65  O   UNL A   1      35.457  23.657  25.576  1.00  0.00    -0.462 OA
BRANCH  65  66
ATOM     66  C   UNL A   1      34.134  23.972  25.342  1.00  0.00     0.334 C 
ATOM     67  O   UNL A   1      33.538  24.885  25.896  1.00  0.00    -0.250 OA
BRANCH  66  68
ATOM     68  C   UNL A   1      33.536  23.112  24.181  1.00  0.00     0.252 C 
ATOM     69  C   UNL A   1      32.806  23.859  23.033  1.00  0.00     0.298 C 
ATOM     70  N   UNL A   1      32.703  22.064  24.751  1.00  0.00    -0.300 N 
ATOM     71  N   UNL A   1      31.325  23.760  23.010  1.00  0.00    -0.343 N 
ATOM     72  C   UNL A   1      31.336  22.484  25.136  1.00  0.00     0.183 C 
ATOM     73  C   UNL A   1      30.845  23.748  24.395  1.00  0.00     0.282 C 
ATOM     74  H   UNL A   1      31.043  22.900  22.539  1.00  0.00     0.346 HD
ATOM     75  H   UNL A   1      30.926  24.552  22.506  1.00  0.00     0.346 HD
BRANCH  70  76
ATOM     76  C   UNL A   1      33.244  20.932  25.321  1.00  0.00     0.318 C 
ATOM     77  O   UNL A   1      33.861  21.004  26.383  1.00  0.00    -0.249 OA
ATOM     78  N   UNL A   1      33.416  19.841  24.498  1.00  0.00    -0.333 N 
ATOM     79  H   UNL A   1      34.275  19.838  24.016  1.00  0.00     0.165 HD
BRANCH  78  80
ATOM     80  C   UNL A   1      32.559  18.675  24.201  1.00  0.00     0.112 C 
ATOM     81  C   UNL A   1      33.186  17.399  24.767  1.00  0.00     0.056 C 
ATOM     82  C   UNL A   1      32.435  18.281  22.719  1.00  0.00     0.185 C 
ATOM     83  C   UNL A   1      33.970  16.792  23.620  1.00  0.00     0.162 C 
ATOM     84  O   UNL A   1      33.297  17.171  22.428  1.00  0.00    -0.379 OA
ENDBRANCH  78  80
ENDBRANCH  70  76
ENDBRANCH  66  68
ENDBRANCH  65  66
ENDBRANCH  64  65
ENDBRANCH  63  64
ENDBRANCH   1  63
TORSDOF 16
ENDMDL
MODEL 3
REMARK VINA RESULT:     -10.5      4.913      9.812
REMARK SMILES O=C(OCCOCCOC(=O)[C@@H]1C[NH2+]CCN1C(=O)N[C@@H]1CCOC1)c1ccc(-c2c3nc(c(-c4c(F)cccc4F)c4ccc([nH]4)c(-c4c(F)cccc4F)c4nc(c(-c5c(F)cccc5F)c5ccc2[nH]5)C=C4)C=C3)cc1
REMARK SMILES IDX 6 1 5 2 4 3 3 4 2 5 1 6 26 7 27 8 79 9 28 10 78 11 29 12
REMARK SMILES IDX 30 13 31 14 72 15 32 16 77 17 71 18 73 19 33 20 76 21 70 22
REMARK SMILES IDX 69 23 34 25 60 26 43 27 59 28 44 29 47 30 58 31 74 32 45 33
REMARK SMILES IDX 46 34 57 36 75 37 48 38 35 39 36 40 41 41 37 42 38 43 40 44
REMARK SMILES IDX 42 45 39 46 61 47 62 48 67 49 63 50 64 51 66 52 68 53 65 54
REMARK SMILES IDX 49 55 50 56 55 57 51 58 52 59 54 60 56 61 53 62 7 63 8 64
REMARK SMILES IDX 9 65 10 66 11 67 12 68 13 69 17 70 14 71 16 72 15 73 18 76
REMARK SMILES IDX 19 77 20 78 21 80 22 81 25 82 23 83 24 84
REMARK H PARENT 73 24 47 35 14 74 14 75 20 79
REMARK Flexibility Score: inf
ROOT
ATOM      1  O   UNL A   1      37.092  21.179  24.251  1.00  0.00    -0.374 OA
ENDROOT
BRANCH   1   2
ATOM      2  C   UNL A   1      37.736  20.108  24.976  1.00  0.00     0.202 C 
BRANCH   2   3
ATOM      3  C   UNL A   1      39.048  20.389  25.730  1.00  0.00     0.261 C 
BRANCH   3   4
ATOM      4  O   UNL A   1      39.983  19.311  25.725  1.00  0.00    -0.460 OA
BRANCH   4   5
ATOM      5  C   UNL A   1      41.294  19.404  26.040  1.00  0.00     0.338 C 
ATOM      6  O   UNL A   1      42.046  18.467  25.775  1.00  0.00    -0.246 OA
BRANCH   5   7
ATOM      7  C   UNL A   1      41.899  20.683  26.512  1.00  0.00     0.060 A 
ATOM      8  C   UNL A   1      42.103  21.020  27.849  1.00  0.00     0.016 A 
ATOM      9  C   UNL A   1      42.346  21.576  25.521  1.00  0.00     0.016 A 
ATOM     10  C   UNL A   1      42.665  22.239  28.200  1.00  0.00     0.010 A 
ATOM     11  C   UNL A   1      42.939  22.796  25.863  1.00  0.00     0.010 A 
ATOM     12  C   UNL A   1      43.064  23.139  27.212  1.00  0.00    -0.014 A 
BRANCH  12  13
ATOM     13  C   UNL A   1      43.393  24.502  27.661  1.00  0.00     0.031 A 
ATOM     14  C   UNL A   1      44.815  24.951  27.503  1.00  0.00     0.074 A 
ATOM     15  C   UNL A   1      42.403  25.364  27.953  1.00  0.00     0.049 A 
ATOM     16  N   UNL A   1      45.351  26.116  27.742  1.00  0.00    -0.248 NA
ATOM     17  C   UNL A   1      45.756  23.958  26.950  1.00  0.00     0.031 C 
ATOM     18  C   UNL A   1      40.975  25.032  27.953  1.00  0.00     0.029 A 
ATOM     19  N   UNL A   1      42.437  26.698  28.247  1.00  0.00    -0.354 N 
ATOM     20  C   UNL A   1      46.683  25.996  27.368  1.00  0.00     0.074 A 
ATOM     21  C   UNL A   1      46.883  24.648  26.893  1.00  0.00     0.031 C 
ATOM     22  C   UNL A   1      40.269  26.146  28.210  1.00  0.00     0.029 A 
ATOM     23  C   UNL A   1      41.194  27.245  28.460  1.00  0.00     0.049 A 
ATOM     24  H   UNL A   1      43.271  27.218  28.300  1.00  0.00     0.167 HD
ATOM     25  C   UNL A   1      47.653  26.936  27.425  1.00  0.00     0.037 A 
ATOM     26  C   UNL A   1      40.863  28.489  28.855  1.00  0.00     0.037 A 
ATOM     27  C   UNL A   1      47.425  28.256  27.940  1.00  0.00     0.049 A 
ATOM     28  C   UNL A   1      41.985  29.472  29.063  1.00  0.00     0.074 A 
ATOM     29  C   UNL A   1      48.337  29.259  28.204  1.00  0.00     0.029 A 
ATOM     30  N   UNL A   1      46.169  28.750  28.273  1.00  0.00    -0.354 N 
ATOM     31  N   UNL A   1      43.268  29.322  28.825  1.00  0.00    -0.248 NA
ATOM     32  C   UNL A   1      41.623  30.785  29.609  1.00  0.00     0.031 C 
ATOM     33  C   UNL A   1      47.634  30.346  28.738  1.00  0.00     0.029 A 
ATOM     34  C   UNL A   1      46.281  30.039  28.757  1.00  0.00     0.049 A 
ATOM     35  H   UNL A   1      45.324  28.253  28.179  1.00  0.00     0.167 HD
ATOM     36  C   UNL A   1      43.868  30.518  29.191  1.00  0.00     0.074 A 
ATOM     37  C   UNL A   1      42.799  31.396  29.629  1.00  0.00     0.031 C 
ATOM     38  C   UNL A   1      45.179  30.866  29.182  1.00  0.00     0.037 A 
BRANCH  25  39
ATOM     39  C   UNL A   1      49.029  26.514  27.008  1.00  0.00     0.057 A 
ATOM     40  C   UNL A   1      49.497  26.684  25.697  1.00  0.00     0.134 A 
ATOM     41  C   UNL A   1      49.877  25.867  27.915  1.00  0.00     0.134 A 
ATOM     42  F   UNL A   1      48.719  27.259  24.767  1.00  0.00    -0.206 F 
ATOM     43  C   UNL A   1      50.747  26.205  25.300  1.00  0.00     0.040 A 
ATOM     44  C   UNL A   1      51.137  25.402  27.535  1.00  0.00     0.040 A 
ATOM     45  F   UNL A   1      49.484  25.656  29.180  1.00  0.00    -0.206 F 
ATOM     46  C   UNL A   1      51.572  25.563  26.222  1.00  0.00     0.006 A 
ENDBRANCH  25  39
BRANCH  26  47
ATOM     47  C   UNL A   1      39.448  28.838  29.162  1.00  0.00     0.057 A 
ATOM     48  C   UNL A   1      38.887  28.632  30.428  1.00  0.00     0.134 A 
ATOM     49  C   UNL A   1      38.604  29.356  28.169  1.00  0.00     0.134 A 
ATOM     50  F   UNL A   1      39.628  28.121  31.421  1.00  0.00    -0.206 F 
ATOM     51  C   UNL A   1      37.540  28.907  30.687  1.00  0.00     0.040 A 
ATOM     52  C   UNL A   1      37.267  29.667  28.422  1.00  0.00     0.040 A 
ATOM     53  F   UNL A   1      39.070  29.576  26.930  1.00  0.00    -0.206 F 
ATOM     54  C   UNL A   1      36.728  29.431  29.683  1.00  0.00     0.006 A 
ENDBRANCH  26  47
BRANCH  38  55
ATOM     55  C   UNL A   1      45.505  32.251  29.646  1.00  0.00     0.057 A 
ATOM     56  C   UNL A   1      45.831  32.520  30.981  1.00  0.00     0.134 A 
ATOM     57  C   UNL A   1      45.524  33.318  28.741  1.00  0.00     0.134 A 
ATOM     58  F   UNL A   1      45.817  31.538  31.896  1.00  0.00    -0.206 F 
ATOM     59  C   UNL A   1      46.140  33.811  31.405  1.00  0.00     0.040 A 
ATOM     60  C   UNL A   1      45.858  34.609  29.148  1.00  0.00     0.040 A 
ATOM     61  F   UNL A   1      45.230  33.119  27.447  1.00  0.00    -0.206 F 
ATOM     62  C   UNL A   1      46.159  34.858  30.485  1.00  0.00     0.006 A 
ENDBRANCH  38  55
ENDBRANCH  12  13
ENDBRANCH   5   7
ENDBRANCH   4   5
ENDBRANCH   3   4
ENDBRANCH   2   3
ENDBRANCH   1   2
BRANCH   1  63
ATOM     63  C   UNL A   1      35.745  21.493  24.699  1.00  0.00     0.202 C 
BRANCH  63  64
ATOM     64  C   UNL A   1      35.567  22.934  25.298  1.00  0.00     0.261 C 
BRANCH  64  65
ATOM     65  O   UNL A   1      34.224  23.425  25.052  1.00  0.00    -0.462 OA
BRANCH  65  66
ATOM     66  C   UNL A   1      33.827  24.596  25.663  1.00  0.00     0.334 C 
ATOM     67  O   UNL A   1      34.289  25.698  25.400  1.00  0.00    -0.250 OA
BRANCH  66  68
ATOM     68  C   UNL A   1      32.619  24.360  26.626  1.00  0.00     0.252 C 
ATOM     69  C   UNL A   1      32.283  22.894  27.015  1.00  0.00     0.298 C 
ATOM     70  N   UNL A   1      31.454  25.053  26.101  1.00  0.00    -0.300 N 
ATOM     71  N   UNL A   1      31.075  22.300  26.388  1.00  0.00    -0.343 N 
ATOM     72  C   UNL A   1      30.727  24.342  25.024  1.00  0.00     0.183 C 
ATOM     73  C   UNL A   1      30.968  22.815  25.020  1.00  0.00     0.282 C 
ATOM     74  H   UNL A   1      30.245  22.561  26.922  1.00  0.00     0.346 HD
ATOM     75  H   UNL A   1      31.148  21.283  26.377  1.00  0.00     0.346 HD
BRANCH  70  76
ATOM     76  C   UNL A   1      31.298  26.417  26.228  1.00  0.00     0.318 C 
ATOM     77  O   UNL A   1      31.240  26.935  27.343  1.00  0.00    -0.249 OA
ATOM     78  N   UNL A   1      30.821  27.096  25.129  1.00  0.00    -0.333 N 
ATOM     79  H   UNL A   1      29.838  27.130  25.077  1.00  0.00     0.165 HD
BRANCH  78  80
ATOM     80  C   UNL A   1      31.503  27.782  24.012  1.00  0.00     0.112 C 
ATOM     81  C   UNL A   1      30.976  29.212  23.868  1.00  0.00     0.056 C 
ATOM     82  C   UNL A   1      31.211  27.243  22.601  1.00  0.00     0.185 C 
ATOM     83  C   UNL A   1      29.885  29.136  22.818  1.00  0.00     0.162 C 
ATOM     84  O   UNL A   1      30.241  28.073  21.945  1.00  0.00    -0.379 OA
ENDBRANCH  78  80
ENDBRANCH  70  76
ENDBRANCH  66  68
ENDBRANCH  65  66
ENDBRANCH  64  65
ENDBRANCH  63  64
ENDBRANCH   1  63
TORSDOF 16
ENDMDL
