MODEL 1
REMARK VINA RESULT:     -10.5      0.000      0.000
REMARK SMILES C[C@H](Cc1cccs1)NC(=O)N[C@](C)(C(=O)OCCOCCOCCOC(=O)c1ccc(-c2c3nc(c(-c4c(F)cccc4F)c4ccc([nH]4)c(-c4c(F)cccc4F)c4nc(c(-c5c(F)cccc5F)c5ccc2[nH]5)C=C4)C=C3)cc1)C(F)(F)F
REMARK SMILES IDX 21 1 20 2 19 3 18 4 17 5 15 6 16 7 13 8 14 9 12 10 9 11
REMARK SMILES IDX 10 12 11 14 2 16 1 17 3 18 4 19 5 20 8 21 6 22 7 23 83 24
REMARK SMILES IDX 84 25 85 26 86 27 22 28 23 29 24 30 25 31 26 32 27 33 28 34
REMARK SMILES IDX 29 35 30 36 82 37 31 38 81 39 32 40 33 41 34 42 75 43 35 44
REMARK SMILES IDX 80 45 74 46 76 47 36 48 79 49 73 50 72 51 37 53 63 54 46 55
REMARK SMILES IDX 62 56 47 57 50 58 61 59 77 60 48 61 49 62 60 64 78 65 51 66
REMARK SMILES IDX 38 67 39 68 44 69 40 70 41 71 43 72 45 73 42 74 64 75 65 76
REMARK SMILES IDX 70 77 66 78 67 79 69 80 71 81 68 82 52 83 53 84 58 85 54 86
REMARK SMILES IDX 55 87 57 88 59 89 56 90
REMARK H PARENT 9 13 12 15 76 52 50 63
REMARK Flexibility Score: inf
ROOT
ATOM      1  C   UNL A   1      40.858  20.954  26.614  1.00  0.00     0.188 C 
ENDROOT
BRANCH   1   2
ATOM      2  O   UNL A   1      39.456  21.076  26.741  1.00  0.00    -0.376 OA
BRANCH   2   3
ATOM      3  C   UNL A   1      38.856  22.252  26.206  1.00  0.00     0.202 C 
BRANCH   3   4
ATOM      4  C   UNL A   1      37.926  22.167  24.972  1.00  0.00     0.261 C 
BRANCH   4   5
ATOM      5  O   UNL A   1      36.769  23.035  25.031  1.00  0.00    -0.461 OA
BRANCH   5   6
ATOM      6  C   UNL A   1      36.072  23.251  23.875  1.00  0.00     0.341 C 
ATOM      7  O   UNL A   1      36.550  23.034  22.766  1.00  0.00    -0.249 OA
BRANCH   6   8
ATOM      8  C   UNL A   1      34.619  23.754  24.098  1.00  0.00     0.232 C 
ATOM      9  C   UNL A   1      34.443  24.515  25.434  1.00  0.00     0.058 C 
BRANCH   8  10
ATOM     10  N   UNL A   1      34.341  24.733  22.998  1.00  0.00    -0.315 N 
ATOM     11  N   UNL A   1      32.154  25.734  23.004  1.00  0.00    -0.335 N 
ATOM     12  C   UNL A   1      33.385  25.537  22.564  1.00  0.00     0.316 C 
ATOM     13  H   UNL A   1      31.787  26.487  22.487  1.00  0.00     0.165 HD
ATOM     14  O   UNL A   1      33.703  26.228  21.586  1.00  0.00    -0.249 OA
ATOM     15  H   UNL A   1      35.125  24.799  22.406  1.00  0.00     0.166 HD
BRANCH  11  16
ATOM     16  C   UNL A   1      31.087  25.302  23.945  1.00  0.00     0.086 C 
ATOM     17  C   UNL A   1      30.142  24.339  23.219  1.00  0.00     0.031 C 
BRANCH  16  18
ATOM     18  C   UNL A   1      30.449  26.537  24.621  1.00  0.00     0.071 C 
BRANCH  18  19
ATOM     19  C   UNL A   1      31.456  27.540  25.116  1.00  0.00     0.007 A 
ATOM     20  C   UNL A   1      32.274  27.480  26.229  1.00  0.00     0.015 A 
ATOM     21  S   UNL A   1      31.704  28.997  24.240  1.00  0.00    -0.149 S 
ATOM     22  C   UNL A   1      32.996  28.694  26.433  1.00  0.00     0.012 A 
ATOM     23  C   UNL A   1      32.738  29.619  25.447  1.00  0.00     0.065 A 
ENDBRANCH  18  19
ENDBRANCH  16  18
ENDBRANCH  11  16
ENDBRANCH   8  10
BRANCH   8  24
ATOM     24  C   UNL A   1      33.746  22.518  24.042  1.00  0.00     0.422 C 
ATOM     25  F   UNL A   1      34.353  21.333  24.149  1.00  0.00    -0.168 F 
ATOM     26  F   UNL A   1      32.900  22.527  25.108  1.00  0.00    -0.168 F 
ATOM     27  F   UNL A   1      33.060  22.447  22.882  1.00  0.00    -0.168 F 
ENDBRANCH   8  24
ENDBRANCH   6   8
ENDBRANCH   5   6
ENDBRANCH   4   5
ENDBRANCH   3   4
ENDBRANCH   2   3
ENDBRANCH   1   2
BRANCH   1  28
ATOM     28  C   UNL A   1      41.430  19.599  26.140  1.00  0.00     0.188 C 
BRANCH  28  29
ATOM     29  O   UNL A   1      42.595  19.564  25.366  1.00  0.00    -0.376 OA
BRANCH  29  30
ATOM     30  C   UNL A   1      43.682  20.392  25.697  1.00  0.00     0.202 C 
BRANCH  30  31
ATOM     31  C   UNL A   1      44.168  21.593  24.860  1.00  0.00     0.261 C 
BRANCH  31  32
ATOM     32  O   UNL A   1      43.385  22.794  24.822  1.00  0.00    -0.460 OA
BRANCH  32  33
ATOM     33  C   UNL A   1      44.065  23.958  24.944  1.00  0.00     0.338 C 
ATOM     34  O   UNL A   1      45.088  24.275  24.346  1.00  0.00    -0.246 OA
BRANCH  33  35
ATOM     35  C   UNL A   1      43.293  24.900  25.783  1.00  0.00     0.060 A 
ATOM     36  C   UNL A   1      43.723  26.232  25.879  1.00  0.00     0.016 A 
ATOM     37  C   UNL A   1      42.194  24.466  26.528  1.00  0.00     0.016 A 
ATOM     38  C   UNL A   1      43.092  27.115  26.759  1.00  0.00     0.010 A 
ATOM     39  C   UNL A   1      41.572  25.350  27.422  1.00  0.00     0.010 A 
ATOM     40  C   UNL A   1      42.046  26.667  27.576  1.00  0.00    -0.014 A 
BRANCH  40  41
ATOM     41  C   UNL A   1      41.598  27.498  28.727  1.00  0.00     0.031 A 
ATOM     42  C   UNL A   1      42.328  27.365  30.040  1.00  0.00     0.074 A 
ATOM     43  C   UNL A   1      40.589  28.382  28.622  1.00  0.00     0.049 A 
ATOM     44  N   UNL A   1      42.102  27.956  31.186  1.00  0.00    -0.248 NA
ATOM     45  C   UNL A   1      43.471  26.437  30.058  1.00  0.00     0.031 C 
ATOM     46  C   UNL A   1      39.824  28.655  27.408  1.00  0.00     0.029 A 
ATOM     47  N   UNL A   1      40.031  29.211  29.567  1.00  0.00    -0.354 N 
ATOM     48  C   UNL A   1      43.065  27.467  32.061  1.00  0.00     0.074 A 
ATOM     49  C   UNL A   1      43.856  26.506  31.323  1.00  0.00     0.031 C 
ATOM     50  C   UNL A   1      38.883  29.576  27.685  1.00  0.00     0.029 A 
ATOM     51  C   UNL A   1      38.960  29.934  29.101  1.00  0.00     0.049 A 
ATOM     52  H   UNL A   1      40.368  29.278  30.490  1.00  0.00     0.167 HD
ATOM     53  C   UNL A   1      43.284  27.793  33.358  1.00  0.00     0.037 A 
ATOM     54  C   UNL A   1      38.125  30.772  29.749  1.00  0.00     0.037 A 
ATOM     55  C   UNL A   1      42.499  28.741  34.104  1.00  0.00     0.049 A 
ATOM     56  C   UNL A   1      38.334  31.055  31.216  1.00  0.00     0.074 A 
ATOM     57  C   UNL A   1      42.656  29.145  35.419  1.00  0.00     0.029 A 
ATOM     58  N   UNL A   1      41.401  29.425  33.607  1.00  0.00    -0.354 N 
ATOM     59  N   UNL A   1      39.267  30.613  32.025  1.00  0.00    -0.248 NA
ATOM     60  C   UNL A   1      37.375  31.969  31.858  1.00  0.00     0.031 C 
ATOM     61  C   UNL A   1      41.619  30.028  35.734  1.00  0.00     0.029 A 
ATOM     62  C   UNL A   1      40.856  30.228  34.596  1.00  0.00     0.049 A 
ATOM     63  H   UNL A   1      41.059  29.350  32.686  1.00  0.00     0.167 HD
ATOM     64  C   UNL A   1      39.029  31.221  33.254  1.00  0.00     0.074 A 
ATOM     65  C   UNL A   1      37.874  32.074  33.081  1.00  0.00     0.031 C 
ATOM     66  C   UNL A   1      39.712  31.087  34.418  1.00  0.00     0.037 A 
BRANCH  53  67
ATOM     67  C   UNL A   1      44.409  27.091  34.065  1.00  0.00     0.057 A 
ATOM     68  C   UNL A   1      44.226  25.863  34.714  1.00  0.00     0.134 A 
ATOM     69  C   UNL A   1      45.698  27.639  34.074  1.00  0.00     0.134 A 
ATOM     70  F   UNL A   1      43.013  25.290  34.757  1.00  0.00    -0.206 F 
ATOM     71  C   UNL A   1      45.277  25.219  35.370  1.00  0.00     0.040 A 
ATOM     72  C   UNL A   1      46.765  26.990  34.699  1.00  0.00     0.040 A 
ATOM     73  F   UNL A   1      45.946  28.809  33.466  1.00  0.00    -0.206 F 
ATOM     74  C   UNL A   1      46.553  25.780  35.357  1.00  0.00     0.006 A 
ENDBRANCH  53  67
BRANCH  54  75
ATOM     75  C   UNL A   1      36.991  31.406  29.025  1.00  0.00     0.057 A 
ATOM     76  C   UNL A   1      37.052  32.741  28.607  1.00  0.00     0.134 A 
ATOM     77  C   UNL A   1      35.802  30.708  28.780  1.00  0.00     0.134 A 
ATOM     78  F   UNL A   1      38.151  33.472  28.841  1.00  0.00    -0.206 F 
ATOM     79  C   UNL A   1      35.964  33.366  27.994  1.00  0.00     0.040 A 
ATOM     80  C   UNL A   1      34.718  31.311  28.141  1.00  0.00     0.040 A 
ATOM     81  F   UNL A   1      35.678  29.428  29.161  1.00  0.00    -0.206 F 
ATOM     82  C   UNL A   1      34.793  32.648  27.755  1.00  0.00     0.006 A 
ENDBRANCH  54  75
BRANCH  66  83
ATOM     83  C   UNL A   1      39.268  31.925  35.587  1.00  0.00     0.057 A 
ATOM     84  C   UNL A   1      38.374  31.448  36.555  1.00  0.00     0.134 A 
ATOM     85  C   UNL A   1      39.764  33.226  35.756  1.00  0.00     0.134 A 
ATOM     86  F   UNL A   1      37.852  30.217  36.451  1.00  0.00    -0.206 F 
ATOM     87  C   UNL A   1      37.964  32.245  37.627  1.00  0.00     0.040 A 
ATOM     88  C   UNL A   1      39.388  34.019  36.842  1.00  0.00     0.040 A 
ATOM     89  F   UNL A   1      40.635  33.744  34.876  1.00  0.00    -0.206 F 
ATOM     90  C   UNL A   1      38.477  33.533  37.776  1.00  0.00     0.006 A 
ENDBRANCH  66  83
ENDBRANCH  40  41
ENDBRANCH  33  35
ENDBRANCH  32  33
ENDBRANCH  31  32
ENDBRANCH  30  31
ENDBRANCH  29  30
ENDBRANCH  28  29
ENDBRANCH   1  28
TORSDOF 22
ENDMDL
MODEL 2
REMARK VINA RESULT:      -9.3      4.835      9.586
REMARK SMILES C[C@H](Cc1cccs1)NC(=O)N[C@](C)(C(=O)OCCOCCOCCOC(=O)c1ccc(-c2c3nc(c(-c4c(F)cccc4F)c4ccc([nH]4)c(-c4c(F)cccc4F)c4nc(c(-c5c(F)cccc5F)c5ccc2[nH]5)C=C4)C=C3)cc1)C(F)(F)F
REMARK SMILES IDX 21 1 20 2 19 3 18 4 17 5 15 6 16 7 13 8 14 9 12 10 9 11
REMARK SMILES IDX 10 12 11 14 2 16 1 17 3 18 4 19 5 20 8 21 6 22 7 23 83 24
REMARK SMILES IDX 84 25 85 26 86 27 22 28 23 29 24 30 25 31 26 32 27 33 28 34
REMARK SMILES IDX 29 35 30 36 82 37 31 38 81 39 32 40 33 41 34 42 75 43 35 44
REMARK SMILES IDX 80 45 74 46 76 47 36 48 79 49 73 50 72 51 37 53 63 54 46 55
REMARK SMILES IDX 62 56 47 57 50 58 61 59 77 60 48 61 49 62 60 64 78 65 51 66
REMARK SMILES IDX 38 67 39 68 44 69 40 70 41 71 43 72 45 73 42 74 64 75 65 76
REMARK SMILES IDX 70 77 66 78 67 79 69 80 71 81 68 82 52 83 53 84 58 85 54 86
REMARK SMILES IDX 55 87 57 88 59 89 56 90
REMARK H PARENT 9 13 12 15 76 52 50 63
REMARK Flexibility Score: inf
ROOT
ATOM      1  C   UNL A   1      34.422  30.574  27.527  1.00  0.00     0.188 C 
ENDROOT
BRANCH   1   2
ATOM      2  O   UNL A   1      33.653  30.036  26.471  1.00  0.00    -0.376 OA
BRANCH   2   3
ATOM      3  C   UNL A   1      34.106  28.814  25.896  1.00  0.00     0.202 C 
BRANCH   3   4
ATOM      4  C   UNL A   1      34.019  28.586  24.368  1.00  0.00     0.261 C 
BRANCH   4   5
ATOM      5  O   UNL A   1      32.737  28.920  23.783  1.00  0.00    -0.461 OA
BRANCH   5   6
ATOM      6  C   UNL A   1      31.974  27.899  23.289  1.00  0.00     0.341 C 
ATOM      7  O   UNL A   1      32.414  27.067  22.502  1.00  0.00    -0.249 OA
BRANCH   6   8
ATOM      8  C   UNL A   1      30.523  27.870  23.844  1.00  0.00     0.232 C 
ATOM      9  C   UNL A   1      29.736  26.613  23.405  1.00  0.00     0.058 C 
BRANCH   8  10
ATOM     10  N   UNL A   1      30.648  27.807  25.337  1.00  0.00    -0.315 N 
ATOM     11  N   UNL A   1      31.732  25.852  26.224  1.00  0.00    -0.335 N 
ATOM     12  C   UNL A   1      31.140  27.032  26.289  1.00  0.00     0.316 C 
ATOM     13  H   UNL A   1      32.052  25.647  27.132  1.00  0.00     0.165 HD
ATOM     14  O   UNL A   1      31.033  27.496  27.432  1.00  0.00    -0.249 OA
ATOM     15  H   UNL A   1      30.229  28.602  25.739  1.00  0.00     0.166 HD
BRANCH  11  16
ATOM     16  C   UNL A   1      32.120  24.702  25.365  1.00  0.00     0.086 C 
ATOM     17  C   UNL A   1      30.997  23.661  25.388  1.00  0.00     0.031 C 
BRANCH  16  18
ATOM     18  C   UNL A   1      33.538  24.216  25.744  1.00  0.00     0.071 C 
BRANCH  18  19
ATOM     19  C   UNL A   1      33.732  22.733  25.573  1.00  0.00     0.007 A 
ATOM     20  C   UNL A   1      33.984  22.014  24.419  1.00  0.00     0.015 A 
ATOM     21  S   UNL A   1      33.656  21.703  26.944  1.00  0.00    -0.149 S 
ATOM     22  C   UNL A   1      33.972  20.605  24.650  1.00  0.00     0.012 A 
ATOM     23  C   UNL A   1      33.755  20.302  25.974  1.00  0.00     0.065 A 
ENDBRANCH  18  19
ENDBRANCH  16  18
ENDBRANCH  11  16
ENDBRANCH   8  10
BRANCH   8  24
ATOM     24  C   UNL A   1      29.868  29.140  23.346  1.00  0.00     0.422 C 
ATOM     25  F   UNL A   1      30.269  29.613  22.162  1.00  0.00    -0.168 F 
ATOM     26  F   UNL A   1      28.543  28.905  23.150  1.00  0.00    -0.168 F 
ATOM     27  F   UNL A   1      30.056  30.165  24.204  1.00  0.00    -0.168 F 
ENDBRANCH   8  24
ENDBRANCH   6   8
ENDBRANCH   5   6
ENDBRANCH   4   5
ENDBRANCH   3   4
ENDBRANCH   2   3
ENDBRANCH   1   2
BRANCH   1  28
ATOM     28  C   UNL A   1      33.990  31.935  28.120  1.00  0.00     0.188 C 
BRANCH  28  29
ATOM     29  O   UNL A   1      34.553  33.119  27.635  1.00  0.00    -0.376 OA
BRANCH  29  30
ATOM     30  C   UNL A   1      34.597  34.262  28.454  1.00  0.00     0.202 C 
BRANCH  30  31
ATOM     31  C   UNL A   1      34.663  34.245  29.995  1.00  0.00     0.261 C 
BRANCH  31  32
ATOM     32  O   UNL A   1      35.881  33.858  30.647  1.00  0.00    -0.460 OA
BRANCH  32  33
ATOM     33  C   UNL A   1      35.832  32.723  31.384  1.00  0.00     0.338 C 
ATOM     34  O   UNL A   1      34.996  32.437  32.234  1.00  0.00    -0.246 OA
BRANCH  33  35
ATOM     35  C   UNL A   1      36.843  31.764  30.888  1.00  0.00     0.060 A 
ATOM     36  C   UNL A   1      37.506  30.940  31.809  1.00  0.00     0.016 A 
ATOM     37  C   UNL A   1      37.192  31.721  29.536  1.00  0.00     0.016 A 
ATOM     38  C   UNL A   1      38.553  30.114  31.391  1.00  0.00     0.010 A 
ATOM     39  C   UNL A   1      38.254  30.904  29.121  1.00  0.00     0.010 A 
ATOM     40  C   UNL A   1      38.970  30.130  30.054  1.00  0.00    -0.014 A 
BRANCH  40  41
ATOM     41  C   UNL A   1      40.271  29.512  29.678  1.00  0.00     0.031 A 
ATOM     42  C   UNL A   1      41.514  30.365  29.723  1.00  0.00     0.074 A 
ATOM     43  C   UNL A   1      40.375  28.215  29.333  1.00  0.00     0.049 A 
ATOM     44  N   UNL A   1      42.749  30.061  29.411  1.00  0.00    -0.248 NA
ATOM     45  C   UNL A   1      41.336  31.751  30.185  1.00  0.00     0.031 C 
ATOM     46  C   UNL A   1      39.273  27.258  29.290  1.00  0.00     0.029 A 
ATOM     47  N   UNL A   1      41.473  27.485  28.942  1.00  0.00    -0.354 N 
ATOM     48  C   UNL A   1      43.491  31.216  29.631  1.00  0.00     0.074 A 
ATOM     49  C   UNL A   1      42.562  32.236  30.069  1.00  0.00     0.031 C 
ATOM     50  C   UNL A   1      39.747  26.068  28.880  1.00  0.00     0.029 A 
ATOM     51  C   UNL A   1      41.178  26.187  28.601  1.00  0.00     0.049 A 
ATOM     52  H   UNL A   1      42.384  27.857  28.910  1.00  0.00     0.167 HD
ATOM     53  C   UNL A   1      44.824  31.413  29.493  1.00  0.00     0.037 A 
ATOM     54  C   UNL A   1      41.967  25.215  28.101  1.00  0.00     0.037 A 
ATOM     55  C   UNL A   1      45.755  30.408  29.049  1.00  0.00     0.049 A 
ATOM     56  C   UNL A   1      43.434  25.481  27.873  1.00  0.00     0.074 A 
ATOM     57  C   UNL A   1      47.126  30.513  28.893  1.00  0.00     0.029 A 
ATOM     58  N   UNL A   1      45.410  29.118  28.679  1.00  0.00    -0.354 N 
ATOM     59  N   UNL A   1      44.130  26.567  28.114  1.00  0.00    -0.248 NA
ATOM     60  C   UNL A   1      44.230  24.377  27.312  1.00  0.00     0.031 C 
ATOM     61  C   UNL A   1      47.604  29.306  28.373  1.00  0.00     0.029 A 
ATOM     62  C   UNL A   1      46.539  28.425  28.270  1.00  0.00     0.049 A 
ATOM     63  H   UNL A   1      44.498  28.749  28.702  1.00  0.00     0.167 HD
ATOM     64  C   UNL A   1      45.445  26.264  27.771  1.00  0.00     0.074 A 
ATOM     65  C   UNL A   1      45.452  24.889  27.319  1.00  0.00     0.031 C 
ATOM     66  C   UNL A   1      46.546  27.052  27.832  1.00  0.00     0.037 A 
BRANCH  53  67
ATOM     67  C   UNL A   1      45.354  32.785  29.800  1.00  0.00     0.057 A 
ATOM     68  C   UNL A   1      45.419  33.791  28.827  1.00  0.00     0.134 A 
ATOM     69  C   UNL A   1      45.780  33.112  31.094  1.00  0.00     0.134 A 
ATOM     70  F   UNL A   1      45.041  33.540  27.563  1.00  0.00    -0.206 F 
ATOM     71  C   UNL A   1      45.915  35.062  29.121  1.00  0.00     0.040 A 
ATOM     72  C   UNL A   1      46.249  34.389  31.409  1.00  0.00     0.040 A 
ATOM     73  F   UNL A   1      45.740  32.199  32.076  1.00  0.00    -0.206 F 
ATOM     74  C   UNL A   1      46.325  35.366  30.419  1.00  0.00     0.006 A 
ENDBRANCH  53  67
BRANCH  54  75
ATOM     75  C   UNL A   1      41.392  23.886  27.760  1.00  0.00     0.057 A 
ATOM     76  C   UNL A   1      41.697  22.747  28.515  1.00  0.00     0.134 A 
ATOM     77  C   UNL A   1      40.567  23.715  26.641  1.00  0.00     0.134 A 
ATOM     78  F   UNL A   1      42.508  22.841  29.579  1.00  0.00    -0.206 F 
ATOM     79  C   UNL A   1      41.223  21.484  28.158  1.00  0.00     0.040 A 
ATOM     80  C   UNL A   1      40.061  22.463  26.290  1.00  0.00     0.040 A 
ATOM     81  F   UNL A   1      40.242  24.764  25.872  1.00  0.00    -0.206 F 
ATOM     82  C   UNL A   1      40.398  21.340  27.044  1.00  0.00     0.006 A 
ENDBRANCH  54  75
BRANCH  66  83
ATOM     83  C   UNL A   1      47.867  26.436  27.456  1.00  0.00     0.057 A 
ATOM     84  C   UNL A   1      48.413  26.559  26.171  1.00  0.00     0.134 A 
ATOM     85  C   UNL A   1      48.615  25.727  28.406  1.00  0.00     0.134 A 
ATOM     86  F   UNL A   1      47.748  27.216  25.209  1.00  0.00    -0.206 F 
ATOM     87  C   UNL A   1      49.635  25.970  25.837  1.00  0.00     0.040 A 
ATOM     88  C   UNL A   1      49.853  25.163  28.093  1.00  0.00     0.040 A 
ATOM     89  F   UNL A   1      48.161  25.580  29.660  1.00  0.00    -0.206 F 
ATOM     90  C   UNL A   1      50.362  25.275  26.802  1.00  0.00     0.006 A 
ENDBRANCH  66  83
ENDBRANCH  40  41
ENDBRANCH  33  35
ENDBRANCH  32  33
ENDBRANCH  31  32
ENDBRANCH  30  31
ENDBRANCH  29  30
ENDBRANCH  28  29
ENDBRANCH   1  28
TORSDOF 22
ENDMDL
MODEL 3
REMARK VINA RESULT:      -9.2      6.621     10.446
REMARK SMILES C[C@H](Cc1cccs1)NC(=O)N[C@](C)(C(=O)OCCOCCOCCOC(=O)c1ccc(-c2c3nc(c(-c4c(F)cccc4F)c4ccc([nH]4)c(-c4c(F)cccc4F)c4nc(c(-c5c(F)cccc5F)c5ccc2[nH]5)C=C4)C=C3)cc1)C(F)(F)F
REMARK SMILES IDX 21 1 20 2 19 3 18 4 17 5 15 6 16 7 13 8 14 9 12 10 9 11
REMARK SMILES IDX 10 12 11 14 2 16 1 17 3 18 4 19 5 20 8 21 6 22 7 23 83 24
REMARK SMILES IDX 84 25 85 26 86 27 22 28 23 29 24 30 25 31 26 32 27 33 28 34
REMARK SMILES IDX 29 35 30 36 82 37 31 38 81 39 32 40 33 41 34 42 75 43 35 44
REMARK SMILES IDX 80 45 74 46 76 47 36 48 79 49 73 50 72 51 37 53 63 54 46 55
REMARK SMILES IDX 62 56 47 57 50 58 61 59 77 60 48 61 49 62 60 64 78 65 51 66
REMARK SMILES IDX 38 67 39 68 44 69 40 70 41 71 43 72 45 73 42 74 64 75 65 76
REMARK SMILES IDX 70 77 66 78 67 79 69 80 71 81 68 82 52 83 53 84 58 85 54 86
REMARK SMILES IDX 55 87 57 88 59 89 56 90
REMARK H PARENT 9 13 12 15 76 52 50 63
REMARK Flexibility Score: inf
ROOT
ATOM      1  C   UNL A   1      36.408  22.203  25.176  1.00  0.00     0.188 C 
ENDROOT
BRANCH   1   2
ATOM      2  O   UNL A   1      35.672  21.073  25.598  1.00  0.00    -0.376 OA
BRANCH   2   3
ATOM      3  C   UNL A   1      34.294  21.026  25.240  1.00  0.00     0.202 C 
BRANCH   3   4
ATOM      4  C   UNL A   1      33.745  21.927  24.109  1.00  0.00     0.261 C 
BRANCH   4   5
ATOM      5  O   UNL A   1      32.704  22.845  24.523  1.00  0.00    -0.461 OA
BRANCH   5   6
ATOM      6  C   UNL A   1      33.058  24.140  24.779  1.00  0.00     0.341 C 
ATOM      7  O   UNL A   1      34.030  24.434  25.469  1.00  0.00    -0.249 OA
BRANCH   6   8
ATOM      8  C   UNL A   1      32.147  25.192  24.089  1.00  0.00     0.232 C 
ATOM      9  C   UNL A   1      30.769  24.620  23.680  1.00  0.00     0.058 C 
BRANCH   8  10
ATOM     10  N   UNL A   1      31.892  26.259  25.110  1.00  0.00    -0.315 N 
ATOM     11  N   UNL A   1      30.512  28.095  24.395  1.00  0.00    -0.335 N 
ATOM     12  C   UNL A   1      31.233  27.397  25.255  1.00  0.00     0.316 C 
ATOM     13  H   UNL A   1      30.096  28.826  24.905  1.00  0.00     0.165 HD
ATOM     14  O   UNL A   1      31.299  27.884  26.393  1.00  0.00    -0.249 OA
ATOM     15  H   UNL A   1      32.368  26.042  25.944  1.00  0.00     0.166 HD
BRANCH  11  16
ATOM     16  C   UNL A   1      30.063  28.247  22.987  1.00  0.00     0.086 C 
ATOM     17  C   UNL A   1      31.081  29.105  22.228  1.00  0.00     0.031 C 
BRANCH  16  18
ATOM     18  C   UNL A   1      28.588  28.710  22.951  1.00  0.00     0.071 C 
BRANCH  18  19
ATOM     19  C   UNL A   1      28.409  30.112  22.434  1.00  0.00     0.007 A 
ATOM     20  C   UNL A   1      28.172  30.542  21.141  1.00  0.00     0.015 A 
ATOM     21  S   UNL A   1      28.485  31.436  23.525  1.00  0.00    -0.149 S 
ATOM     22  C   UNL A   1      28.196  31.966  21.034  1.00  0.00     0.012 A 
ATOM     23  C   UNL A   1      28.407  32.570  22.252  1.00  0.00     0.065 A 
ENDBRANCH  18  19
ENDBRANCH  16  18
ENDBRANCH  11  16
ENDBRANCH   8  10
BRANCH   8  24
ATOM     24  C   UNL A   1      32.926  25.681  22.887  1.00  0.00     0.422 C 
ATOM     25  F   UNL A   1      32.228  26.026  21.802  1.00  0.00    -0.168 F 
ATOM     26  F   UNL A   1      33.569  26.834  23.217  1.00  0.00    -0.168 F 
ATOM     27  F   UNL A   1      33.799  24.750  22.448  1.00  0.00    -0.168 F 
ENDBRANCH   8  24
ENDBRANCH   6   8
ENDBRANCH   5   6
ENDBRANCH   4   5
ENDBRANCH   3   4
ENDBRANCH   2   3
ENDBRANCH   1   2
BRANCH   1  28
ATOM     28  C   UNL A   1      37.838  22.388  25.733  1.00  0.00     0.188 C 
BRANCH  28  29
ATOM     29  O   UNL A   1      38.288  23.662  26.094  1.00  0.00    -0.376 OA
BRANCH  29  30
ATOM     30  C   UNL A   1      39.378  23.798  26.973  1.00  0.00     0.202 C 
BRANCH  30  31
ATOM     31  C   UNL A   1      40.327  22.656  27.390  1.00  0.00     0.261 C 
BRANCH  31  32
ATOM     32  O   UNL A   1      41.733  22.912  27.513  1.00  0.00    -0.460 OA
BRANCH  32  33
ATOM     33  C   UNL A   1      42.406  23.129  26.358  1.00  0.00     0.338 C 
ATOM     34  O   UNL A   1      42.329  22.466  25.330  1.00  0.00    -0.246 OA
BRANCH  33  35
ATOM     35  C   UNL A   1      43.131  24.416  26.440  1.00  0.00     0.060 A 
ATOM     36  C   UNL A   1      43.426  25.104  25.254  1.00  0.00     0.016 A 
ATOM     37  C   UNL A   1      43.582  24.912  27.665  1.00  0.00     0.016 A 
ATOM     38  C   UNL A   1      44.218  26.256  25.285  1.00  0.00     0.010 A 
ATOM     39  C   UNL A   1      44.389  26.058  27.693  1.00  0.00     0.010 A 
ATOM     40  C   UNL A   1      44.749  26.711  26.498  1.00  0.00    -0.014 A 
BRANCH  40  41
ATOM     41  C   UNL A   1      45.839  27.725  26.494  1.00  0.00     0.031 A 
ATOM     42  C   UNL A   1      45.469  29.182  26.616  1.00  0.00     0.074 A 
ATOM     43  C   UNL A   1      47.137  27.380  26.420  1.00  0.00     0.049 A 
ATOM     44  N   UNL A   1      46.236  30.244  26.605  1.00  0.00    -0.248 NA
ATOM     45  C   UNL A   1      44.036  29.479  26.774  1.00  0.00     0.031 C 
ATOM     46  C   UNL A   1      47.649  26.014  26.345  1.00  0.00     0.029 A 
ATOM     47  N   UNL A   1      48.266  28.166  26.383  1.00  0.00    -0.354 N 
ATOM     48  C   UNL A   1      45.381  31.331  26.745  1.00  0.00     0.074 A 
ATOM     49  C   UNL A   1      44.035  30.803  26.805  1.00  0.00     0.031 C 
ATOM     50  C   UNL A   1      48.990  26.056  26.257  1.00  0.00     0.029 A 
ATOM     51  C   UNL A   1      49.430  27.451  26.237  1.00  0.00     0.049 A 
ATOM     52  H   UNL A   1      48.241  29.147  26.456  1.00  0.00     0.167 HD
ATOM     53  C   UNL A   1      45.683  32.649  26.828  1.00  0.00     0.037 A 
ATOM     54  C   UNL A   1      50.700  27.875  26.081  1.00  0.00     0.037 A 
ATOM     55  C   UNL A   1      47.018  33.185  26.760  1.00  0.00     0.049 A 
ATOM     56  C   UNL A   1      51.006  29.353  26.090  1.00  0.00     0.074 A 
ATOM     57  C   UNL A   1      47.420  34.507  26.849  1.00  0.00     0.029 A 
ATOM     58  N   UNL A   1      48.165  32.431  26.574  1.00  0.00    -0.354 N 
ATOM     59  N   UNL A   1      50.194  30.369  26.255  1.00  0.00    -0.248 NA
ATOM     60  C   UNL A   1      52.413  29.740  25.901  1.00  0.00     0.031 C 
ATOM     61  C   UNL A   1      48.805  34.558  26.659  1.00  0.00     0.029 A 
ATOM     62  C   UNL A   1      49.274  33.262  26.520  1.00  0.00     0.049 A 
ATOM     63  H   UNL A   1      48.189  31.450  26.492  1.00  0.00     0.167 HD
ATOM     64  C   UNL A   1      50.994  31.508  26.228  1.00  0.00     0.074 A 
ATOM     65  C   UNL A   1      52.356  31.056  26.045  1.00  0.00     0.031 C 
ATOM     66  C   UNL A   1      50.631  32.808  26.350  1.00  0.00     0.037 A 
BRANCH  53  67
ATOM     67  C   UNL A   1      44.538  33.611  26.972  1.00  0.00     0.057 A 
ATOM     68  C   UNL A   1      44.083  34.042  28.225  1.00  0.00     0.134 A 
ATOM     69  C   UNL A   1      43.900  34.135  25.840  1.00  0.00     0.134 A 
ATOM     70  F   UNL A   1      44.640  33.567  29.350  1.00  0.00    -0.206 F 
ATOM     71  C   UNL A   1      43.017  34.934  28.348  1.00  0.00     0.040 A 
ATOM     72  C   UNL A   1      42.854  35.053  25.949  1.00  0.00     0.040 A 
ATOM     73  F   UNL A   1      44.289  33.771  24.608  1.00  0.00    -0.206 F 
ATOM     74  C   UNL A   1      42.404  35.449  27.207  1.00  0.00     0.006 A 
ENDBRANCH  53  67
BRANCH  54  75
ATOM     75  C   UNL A   1      51.799  26.892  25.887  1.00  0.00     0.057 A 
ATOM     76  C   UNL A   1      52.132  26.416  24.613  1.00  0.00     0.134 A 
ATOM     77  C   UNL A   1      52.507  26.366  26.975  1.00  0.00     0.134 A 
ATOM     78  F   UNL A   1      51.468  26.856  23.534  1.00  0.00    -0.206 F 
ATOM     79  C   UNL A   1      53.110  25.437  24.430  1.00  0.00     0.040 A 
ATOM     80  C   UNL A   1      53.508  25.410  26.804  1.00  0.00     0.040 A 
ATOM     81  F   UNL A   1      52.233  26.775  28.223  1.00  0.00    -0.206 F 
ATOM     82  C   UNL A   1      53.805  24.934  25.528  1.00  0.00     0.006 A 
ENDBRANCH  54  75
BRANCH  66  83
ATOM     83  C   UNL A   1      51.727  33.841  26.350  1.00  0.00     0.057 A 
ATOM     84  C   UNL A   1      52.126  34.510  25.185  1.00  0.00     0.134 A 
ATOM     85  C   UNL A   1      52.377  34.186  27.544  1.00  0.00     0.134 A 
ATOM     86  F   UNL A   1      51.555  34.224  24.007  1.00  0.00    -0.206 F 
ATOM     87  C   UNL A   1      53.153  35.457  25.203  1.00  0.00     0.040 A 
ATOM     88  C   UNL A   1      53.381  35.155  27.579  1.00  0.00     0.040 A 
ATOM     89  F   UNL A   1      52.037  33.596  28.700  1.00  0.00    -0.206 F 
ATOM     90  C   UNL A   1      53.779  35.787  26.404  1.00  0.00     0.006 A 
ENDBRANCH  66  83
ENDBRANCH  40  41
ENDBRANCH  33  35
ENDBRANCH  32  33
ENDBRANCH  31  32
ENDBRANCH  30  31
ENDBRANCH  29  30
ENDBRANCH  28  29
ENDBRANCH   1  28
TORSDOF 22
ENDMDL
