MODEL 1
REMARK VINA RESULT:      -9.9      0.000      0.000
REMARK SMILES Cc1ccc(C#N)cc1S(=O)(=O)Nc1cccc(C(=O)OCCOCCOCCOC(=O)c2ccc(-c3c4nc(c(-c5c(F)cccc5F)c5ccc([nH]5)c(-c5c(F)cccc5F)c5nc(c(-c6c(F)cccc6F)c6ccc3[nH]6)C=C5)C=C4)cc2)c1
REMARK SMILES IDX 25 1 24 2 23 3 22 4 21 5 19 6 20 7 18 8 14 9 15 10 87 11
REMARK SMILES IDX 16 12 17 13 13 14 10 16 11 17 12 18 9 19 1 20 2 21 3 22 4 23
REMARK SMILES IDX 8 24 5 25 6 26 7 27 26 28 27 29 28 30 29 31 30 32 31 33
REMARK SMILES IDX 32 34 33 35 34 36 86 37 35 38 85 39 36 40 37 41 38 42 79 43
REMARK SMILES IDX 39 44 84 45 78 46 80 47 40 48 83 49 77 50 76 51 41 53 67 54
REMARK SMILES IDX 50 55 66 56 51 57 54 58 65 59 81 60 52 61 53 62 64 64 82 65
REMARK SMILES IDX 55 66 42 67 43 68 48 69 44 70 45 71 47 72 49 73 46 74 68 75
REMARK SMILES IDX 69 76 74 77 70 78 71 79 73 80 75 81 72 82 56 83 57 84 62 85
REMARK SMILES IDX 58 86 59 87 61 88 63 89 60 90
REMARK H PARENT 13 15 80 52 54 63
REMARK Flexibility Score: inf
ROOT
ATOM      1  C   UNL A   1      32.767  26.118  22.571  1.00  0.00     0.188 C 
ENDROOT
BRANCH   1   2
ATOM      2  O   UNL A   1      32.457  25.255  23.647  1.00  0.00    -0.376 OA
BRANCH   2   3
ATOM      3  C   UNL A   1      31.463  25.639  24.586  1.00  0.00     0.202 C 
BRANCH   3   4
ATOM      4  C   UNL A   1      31.692  25.653  26.118  1.00  0.00     0.261 C 
BRANCH   4   5
ATOM      5  O   UNL A   1      32.429  24.574  26.732  1.00  0.00    -0.460 OA
BRANCH   5   6
ATOM      6  C   UNL A   1      31.766  23.395  26.868  1.00  0.00     0.338 C 
ATOM      7  O   UNL A   1      30.705  23.242  27.452  1.00  0.00    -0.246 OA
BRANCH   6   8
ATOM      8  C   UNL A   1      32.397  22.294  26.074  1.00  0.00     0.062 A 
ATOM      9  C   UNL A   1      34.226  20.761  25.538  1.00  0.00     0.050 A 
ATOM     10  C   UNL A   1      33.552  20.343  24.388  1.00  0.00     0.027 A 
ATOM     11  C   UNL A   1      33.604  21.670  26.426  1.00  0.00     0.042 A 
ATOM     12  C   UNL A   1      32.343  20.959  24.040  1.00  0.00     0.003 A 
ATOM     13  C   UNL A   1      31.788  21.950  24.860  1.00  0.00     0.016 A 
BRANCH   9  14
ATOM     14  N   UNL A   1      35.623  20.568  25.741  1.00  0.00    -0.280 N 
ATOM     15  H   UNL A   1      35.858  19.994  26.507  1.00  0.00     0.180 HD
BRANCH  14  16
ATOM     16  S   UNL A   1      36.923  21.168  24.880  1.00  0.00     0.262 S 
ATOM     17  O   UNL A   1      36.407  21.875  23.726  1.00  0.00    -0.201 OA
ATOM     18  O   UNL A   1      37.790  20.019  24.712  1.00  0.00    -0.201 OA
BRANCH  16  19
ATOM     19  C   UNL A   1      37.914  22.363  25.788  1.00  0.00     0.092 A 
ATOM     20  C   UNL A   1      36.196  24.222  26.021  1.00  0.00     0.046 C 
ATOM     21  C   UNL A   1      37.576  23.688  26.078  1.00  0.00    -0.030 A 
ATOM     22  C   UNL A   1      38.567  24.564  26.564  1.00  0.00     0.006 A 
ATOM     23  C   UNL A   1      39.818  24.095  26.939  1.00  0.00     0.020 A 
ATOM     24  C   UNL A   1      39.169  21.883  26.221  1.00  0.00     0.042 A 
ATOM     25  C   UNL A   1      40.098  22.736  26.835  1.00  0.00     0.053 A 
BRANCH  25  26
ATOM     26  C   UNL A   1      41.319  22.234  27.387  1.00  0.00     0.099 C 
ATOM     27  N   UNL A   1      42.339  21.869  27.812  1.00  0.00    -0.192 NA
ENDBRANCH  25  26
ENDBRANCH  16  19
ENDBRANCH  14  16
ENDBRANCH   9  14
ENDBRANCH   6   8
ENDBRANCH   5   6
ENDBRANCH   4   5
ENDBRANCH   3   4
ENDBRANCH   2   3
ENDBRANCH   1   2
BRANCH   1  28
ATOM     28  C   UNL A   1      32.317  27.585  22.654  1.00  0.00     0.188 C 
BRANCH  28  29
ATOM     29  O   UNL A   1      33.323  28.468  23.083  1.00  0.00    -0.376 OA
BRANCH  29  30
ATOM     30  C   UNL A   1      33.427  28.768  24.461  1.00  0.00     0.202 C 
BRANCH  30  31
ATOM     31  C   UNL A   1      32.264  29.313  25.318  1.00  0.00     0.261 C 
BRANCH  31  32
ATOM     32  O   UNL A   1      32.507  29.677  26.683  1.00  0.00    -0.460 OA
BRANCH  32  33
ATOM     33  C   UNL A   1      32.979  30.924  26.925  1.00  0.00     0.338 C 
ATOM     34  O   UNL A   1      32.384  31.976  26.783  1.00  0.00    -0.246 OA
BRANCH  33  35
ATOM     35  C   UNL A   1      34.280  30.781  27.615  1.00  0.00     0.060 A 
ATOM     36  C   UNL A   1      35.075  31.882  27.918  1.00  0.00     0.016 A 
ATOM     37  C   UNL A   1      34.728  29.497  27.931  1.00  0.00     0.016 A 
ATOM     38  C   UNL A   1      36.324  31.680  28.519  1.00  0.00     0.010 A 
ATOM     39  C   UNL A   1      35.992  29.284  28.482  1.00  0.00     0.010 A 
ATOM     40  C   UNL A   1      36.796  30.382  28.798  1.00  0.00    -0.014 A 
BRANCH  40  41
ATOM     41  C   UNL A   1      38.049  30.185  29.568  1.00  0.00     0.031 A 
ATOM     42  C   UNL A   1      39.219  29.427  29.014  1.00  0.00     0.074 A 
ATOM     43  C   UNL A   1      38.106  30.691  30.813  1.00  0.00     0.049 A 
ATOM     44  N   UNL A   1      40.403  29.243  29.544  1.00  0.00    -0.248 NA
ATOM     45  C   UNL A   1      39.036  28.781  27.707  1.00  0.00     0.031 C 
ATOM     46  C   UNL A   1      37.013  31.400  31.479  1.00  0.00     0.029 A 
ATOM     47  N   UNL A   1      39.122  30.697  31.734  1.00  0.00    -0.354 N 
ATOM     48  C   UNL A   1      41.121  28.488  28.626  1.00  0.00     0.074 A 
ATOM     49  C   UNL A   1      40.216  28.198  27.531  1.00  0.00     0.031 C 
ATOM     50  C   UNL A   1      37.428  31.805  32.688  1.00  0.00     0.029 A 
ATOM     51  C   UNL A   1      38.801  31.356  32.896  1.00  0.00     0.049 A 
ATOM     52  H   UNL A   1      39.995  30.271  31.579  1.00  0.00     0.167 HD
ATOM     53  C   UNL A   1      42.417  28.094  28.685  1.00  0.00     0.037 A 
ATOM     54  C   UNL A   1      39.530  31.573  34.006  1.00  0.00     0.037 A 
ATOM     55  C   UNL A   1      43.304  28.360  29.793  1.00  0.00     0.049 A 
ATOM     56  C   UNL A   1      40.946  31.069  34.068  1.00  0.00     0.074 A 
ATOM     57  C   UNL A   1      44.644  28.037  29.924  1.00  0.00     0.029 A 
ATOM     58  N   UNL A   1      42.934  28.992  30.972  1.00  0.00    -0.354 N 
ATOM     59  N   UNL A   1      41.642  30.439  33.152  1.00  0.00    -0.248 NA
ATOM     60  C   UNL A   1      41.678  31.311  35.318  1.00  0.00     0.031 C 
ATOM     61  C   UNL A   1      45.065  28.405  31.207  1.00  0.00     0.029 A 
ATOM     62  C   UNL A   1      44.009  29.029  31.849  1.00  0.00     0.049 A 
ATOM     63  H   UNL A   1      42.040  29.360  31.158  1.00  0.00     0.167 HD
ATOM     64  C   UNL A   1      42.901  30.237  33.706  1.00  0.00     0.074 A 
ATOM     65  C   UNL A   1      42.876  30.829  35.027  1.00  0.00     0.031 C 
ATOM     66  C   UNL A   1      43.979  29.615  33.166  1.00  0.00     0.037 A 
BRANCH  53  67
ATOM     67  C   UNL A   1      42.961  27.315  27.518  1.00  0.00     0.057 A 
ATOM     68  C   UNL A   1      43.454  27.972  26.382  1.00  0.00     0.134 A 
ATOM     69  C   UNL A   1      42.952  25.914  27.496  1.00  0.00     0.134 A 
ATOM     70  F   UNL A   1      43.477  29.311  26.324  1.00  0.00    -0.206 F 
ATOM     71  C   UNL A   1      43.924  27.264  25.273  1.00  0.00     0.040 A 
ATOM     72  C   UNL A   1      43.449  25.195  26.405  1.00  0.00     0.040 A 
ATOM     73  F   UNL A   1      42.488  25.220  28.546  1.00  0.00    -0.206 F 
ATOM     74  C   UNL A   1      43.932  25.871  25.288  1.00  0.00     0.006 A 
ENDBRANCH  53  67
BRANCH  54  75
ATOM     75  C   UNL A   1      38.939  32.306  35.154  1.00  0.00     0.057 A 
ATOM     76  C   UNL A   1      38.340  31.625  36.220  1.00  0.00     0.134 A 
ATOM     77  C   UNL A   1      38.994  33.703  35.229  1.00  0.00     0.134 A 
ATOM     78  F   UNL A   1      38.245  30.287  36.201  1.00  0.00    -0.206 F 
ATOM     79  C   UNL A   1      37.818  32.305  37.320  1.00  0.00     0.040 A 
ATOM     80  C   UNL A   1      38.506  34.393  36.340  1.00  0.00     0.040 A 
ATOM     81  F   UNL A   1      39.569  34.410  34.246  1.00  0.00    -0.206 F 
ATOM     82  C   UNL A   1      37.914  33.693  37.389  1.00  0.00     0.006 A 
ENDBRANCH  54  75
BRANCH  66  83
ATOM     83  C   UNL A   1      45.233  29.572  33.995  1.00  0.00     0.057 A 
ATOM     84  C   UNL A   1      46.160  30.621  33.940  1.00  0.00     0.134 A 
ATOM     85  C   UNL A   1      45.537  28.492  34.835  1.00  0.00     0.134 A 
ATOM     86  F   UNL A   1      45.940  31.685  33.152  1.00  0.00    -0.206 F 
ATOM     87  C   UNL A   1      47.340  30.597  34.685  1.00  0.00     0.040 A 
ATOM     88  C   UNL A   1      46.697  28.471  35.612  1.00  0.00     0.040 A 
ATOM     89  F   UNL A   1      44.687  27.458  34.948  1.00  0.00    -0.206 F 
ATOM     90  C   UNL A   1      47.607  29.524  35.532  1.00  0.00     0.006 A 
ENDBRANCH  66  83
ENDBRANCH  40  41
ENDBRANCH  33  35
ENDBRANCH  32  33
ENDBRANCH  31  32
ENDBRANCH  30  31
ENDBRANCH  29  30
ENDBRANCH  28  29
ENDBRANCH   1  28
TORSDOF 21
ENDMDL
MODEL 2
REMARK VINA RESULT:      -9.9      0.781      6.124
REMARK SMILES Cc1ccc(C#N)cc1S(=O)(=O)Nc1cccc(C(=O)OCCOCCOCCOC(=O)c2ccc(-c3c4nc(c(-c5c(F)cccc5F)c5ccc([nH]5)c(-c5c(F)cccc5F)c5nc(c(-c6c(F)cccc6F)c6ccc3[nH]6)C=C5)C=C4)cc2)c1
REMARK SMILES IDX 25 1 24 2 23 3 22 4 21 5 19 6 20 7 18 8 14 9 15 10 87 11
REMARK SMILES IDX 16 12 17 13 13 14 10 16 11 17 12 18 9 19 1 20 2 21 3 22 4 23
REMARK SMILES IDX 8 24 5 25 6 26 7 27 26 28 27 29 28 30 29 31 30 32 31 33
REMARK SMILES IDX 32 34 33 35 34 36 86 37 35 38 85 39 36 40 37 41 38 42 79 43
REMARK SMILES IDX 39 44 84 45 78 46 80 47 40 48 83 49 77 50 76 51 41 53 67 54
REMARK SMILES IDX 50 55 66 56 51 57 54 58 65 59 81 60 52 61 53 62 64 64 82 65
REMARK SMILES IDX 55 66 42 67 43 68 48 69 44 70 45 71 47 72 49 73 46 74 68 75
REMARK SMILES IDX 69 76 74 77 70 78 71 79 73 80 75 81 72 82 56 83 57 84 62 85
REMARK SMILES IDX 58 86 59 87 61 88 63 89 60 90
REMARK H PARENT 13 15 80 52 54 63
REMARK Flexibility Score: inf
ROOT
ATOM      1  C   UNL A   1      31.176  27.212  22.637  1.00  0.00     0.188 C 
ENDROOT
BRANCH   1   2
ATOM      2  O   UNL A   1      32.335  26.767  23.313  1.00  0.00    -0.376 OA
BRANCH   2   3
ATOM      3  C   UNL A   1      32.259  25.622  24.148  1.00  0.00     0.202 C 
BRANCH   3   4
ATOM      4  C   UNL A   1      31.986  25.689  25.672  1.00  0.00     0.261 C 
BRANCH   4   5
ATOM      5  O   UNL A   1      32.589  24.708  26.543  1.00  0.00    -0.460 OA
BRANCH   5   6
ATOM      6  C   UNL A   1      31.881  23.564  26.739  1.00  0.00     0.338 C 
ATOM      7  O   UNL A   1      30.817  23.482  27.330  1.00  0.00    -0.246 OA
BRANCH   6   8
ATOM      8  C   UNL A   1      32.468  22.400  26.002  1.00  0.00     0.062 A 
ATOM      9  C   UNL A   1      34.241  20.782  25.535  1.00  0.00     0.050 A 
ATOM     10  C   UNL A   1      33.541  20.322  24.417  1.00  0.00     0.027 A 
ATOM     11  C   UNL A   1      33.658  21.759  26.377  1.00  0.00     0.042 A 
ATOM     12  C   UNL A   1      32.348  20.956  24.046  1.00  0.00     0.003 A 
ATOM     13  C   UNL A   1      31.835  22.009  24.815  1.00  0.00     0.016 A 
BRANCH   9  14
ATOM     14  N   UNL A   1      35.633  20.556  25.735  1.00  0.00    -0.280 N 
ATOM     15  H   UNL A   1      35.857  19.968  26.494  1.00  0.00     0.180 HD
BRANCH  14  16
ATOM     16  S   UNL A   1      36.946  21.136  24.880  1.00  0.00     0.262 S 
ATOM     17  O   UNL A   1      36.446  21.850  23.723  1.00  0.00    -0.201 OA
ATOM     18  O   UNL A   1      37.797  19.974  24.716  1.00  0.00    -0.201 OA
BRANCH  16  19
ATOM     19  C   UNL A   1      37.951  22.316  25.792  1.00  0.00     0.092 A 
ATOM     20  C   UNL A   1      36.252  24.193  26.033  1.00  0.00     0.046 C 
ATOM     21  C   UNL A   1      37.627  23.644  26.088  1.00  0.00    -0.030 A 
ATOM     22  C   UNL A   1      38.628  24.507  26.576  1.00  0.00     0.006 A 
ATOM     23  C   UNL A   1      39.874  24.024  26.949  1.00  0.00     0.020 A 
ATOM     24  C   UNL A   1      39.201  21.822  26.221  1.00  0.00     0.042 A 
ATOM     25  C   UNL A   1      40.140  22.662  26.838  1.00  0.00     0.053 A 
BRANCH  25  26
ATOM     26  C   UNL A   1      41.356  22.145  27.388  1.00  0.00     0.099 C 
ATOM     27  N   UNL A   1      42.366  21.726  27.784  1.00  0.00    -0.192 NA
ENDBRANCH  25  26
ENDBRANCH  16  19
ENDBRANCH  14  16
ENDBRANCH   9  14
ENDBRANCH   6   8
ENDBRANCH   5   6
ENDBRANCH   4   5
ENDBRANCH   3   4
ENDBRANCH   2   3
ENDBRANCH   1   2
BRANCH   1  28
ATOM     28  C   UNL A   1      30.065  27.890  23.454  1.00  0.00     0.188 C 
BRANCH  28  29
ATOM     29  O   UNL A   1      30.390  29.184  23.896  1.00  0.00    -0.376 OA
BRANCH  29  30
ATOM     30  C   UNL A   1      31.586  29.378  24.626  1.00  0.00     0.202 C 
BRANCH  30  31
ATOM     31  C   UNL A   1      31.713  30.317  25.845  1.00  0.00     0.261 C 
BRANCH  31  32
ATOM     32  O   UNL A   1      32.928  30.322  26.605  1.00  0.00    -0.460 OA
BRANCH  32  33
ATOM     33  C   UNL A   1      33.305  31.492  27.176  1.00  0.00     0.338 C 
ATOM     34  O   UNL A   1      32.636  32.500  27.296  1.00  0.00    -0.246 OA
BRANCH  33  35
ATOM     35  C   UNL A   1      34.607  31.262  27.842  1.00  0.00     0.060 A 
ATOM     36  C   UNL A   1      35.548  32.277  27.983  1.00  0.00     0.016 A 
ATOM     37  C   UNL A   1      34.901  29.977  28.303  1.00  0.00     0.016 A 
ATOM     38  C   UNL A   1      36.787  31.986  28.569  1.00  0.00     0.010 A 
ATOM     39  C   UNL A   1      36.150  29.668  28.841  1.00  0.00     0.010 A 
ATOM     40  C   UNL A   1      37.101  30.680  28.994  1.00  0.00    -0.014 A 
BRANCH  40  41
ATOM     41  C   UNL A   1      38.351  30.413  29.748  1.00  0.00     0.031 A 
ATOM     42  C   UNL A   1      38.571  30.925  31.141  1.00  0.00     0.074 A 
ATOM     43  C   UNL A   1      39.317  29.708  29.132  1.00  0.00     0.049 A 
ATOM     44  N   UNL A   1      39.580  30.704  31.946  1.00  0.00    -0.248 NA
ATOM     45  C   UNL A   1      37.535  31.805  31.698  1.00  0.00     0.031 C 
ATOM     46  C   UNL A   1      39.241  29.205  27.760  1.00  0.00     0.029 A 
ATOM     47  N   UNL A   1      40.543  29.285  29.577  1.00  0.00    -0.354 N 
ATOM     48  C   UNL A   1      39.293  31.390  33.118  1.00  0.00     0.074 A 
ATOM     49  C   UNL A   1      38.040  32.084  32.894  1.00  0.00     0.031 C 
ATOM     50  C   UNL A   1      40.353  28.509  27.486  1.00  0.00     0.029 A 
ATOM     51  C   UNL A   1      41.236  28.547  28.649  1.00  0.00     0.049 A 
ATOM     52  H   UNL A   1      40.893  29.490  30.473  1.00  0.00     0.167 HD
ATOM     53  C   UNL A   1      39.999  31.420  34.276  1.00  0.00     0.037 A 
ATOM     54  C   UNL A   1      42.447  27.964  28.724  1.00  0.00     0.037 A 
ATOM     55  C   UNL A   1      41.262  30.750  34.481  1.00  0.00     0.049 A 
ATOM     56  C   UNL A   1      43.235  28.067  30.000  1.00  0.00     0.074 A 
ATOM     57  C   UNL A   1      42.030  30.689  35.632  1.00  0.00     0.029 A 
ATOM     58  N   UNL A   1      41.956  30.048  33.507  1.00  0.00    -0.354 N 
ATOM     59  N   UNL A   1      42.907  28.639  31.134  1.00  0.00    -0.248 NA
ATOM     60  C   UNL A   1      44.563  27.438  30.008  1.00  0.00     0.031 C 
ATOM     61  C   UNL A   1      43.219  30.015  35.335  1.00  0.00     0.029 A 
ATOM     62  C   UNL A   1      43.161  29.587  34.019  1.00  0.00     0.049 A 
ATOM     63  H   UNL A   1      41.639  29.898  32.587  1.00  0.00     0.167 HD
ATOM     64  C   UNL A   1      43.974  28.413  31.995  1.00  0.00     0.074 A 
ATOM     65  C   UNL A   1      44.948  27.635  31.260  1.00  0.00     0.031 C 
ATOM     66  C   UNL A   1      44.131  28.817  33.281  1.00  0.00     0.037 A 
BRANCH  53  67
ATOM     67  C   UNL A   1      39.428  32.215  35.418  1.00  0.00     0.057 A 
ATOM     68  C   UNL A   1      38.524  31.635  36.318  1.00  0.00     0.134 A 
ATOM     69  C   UNL A   1      39.734  33.571  35.601  1.00  0.00     0.134 A 
ATOM     70  F   UNL A   1      38.169  30.347  36.195  1.00  0.00    -0.206 F 
ATOM     71  C   UNL A   1      37.953  32.370  37.359  1.00  0.00     0.040 A 
ATOM     72  C   UNL A   1      39.194  34.308  36.657  1.00  0.00     0.040 A 
ATOM     73  F   UNL A   1      40.587  34.192  34.773  1.00  0.00    -0.206 F 
ATOM     74  C   UNL A   1      38.297  33.709  37.537  1.00  0.00     0.006 A 
ENDBRANCH  53  67
BRANCH  54  75
ATOM     75  C   UNL A   1      42.993  27.228  27.556  1.00  0.00     0.057 A 
ATOM     76  C   UNL A   1      43.611  27.902  26.496  1.00  0.00     0.134 A 
ATOM     77  C   UNL A   1      42.943  25.831  27.492  1.00  0.00     0.134 A 
ATOM     78  F   UNL A   1      43.680  29.241  26.493  1.00  0.00    -0.206 F 
ATOM     79  C   UNL A   1      44.162  27.214  25.415  1.00  0.00     0.040 A 
ATOM     80  C   UNL A   1      43.521  25.128  26.433  1.00  0.00     0.040 A 
ATOM     81  F   UNL A   1      42.377  25.128  28.484  1.00  0.00    -0.206 F 
ATOM     82  C   UNL A   1      44.130  25.821  25.389  1.00  0.00     0.006 A 
ENDBRANCH  54  75
BRANCH  66  83
ATOM     83  C   UNL A   1      45.390  28.393  33.985  1.00  0.00     0.057 A 
ATOM     84  C   UNL A   1      45.417  27.227  34.761  1.00  0.00     0.134 A 
ATOM     85  C   UNL A   1      46.573  29.142  33.912  1.00  0.00     0.134 A 
ATOM     86  F   UNL A   1      44.319  26.464  34.882  1.00  0.00    -0.206 F 
ATOM     87  C   UNL A   1      46.568  26.822  35.438  1.00  0.00     0.040 A 
ATOM     88  C   UNL A   1      47.742  28.730  34.557  1.00  0.00     0.040 A 
ATOM     89  F   UNL A   1      46.625  30.263  33.176  1.00  0.00    -0.206 F 
ATOM     90  C   UNL A   1      47.739  27.569  35.329  1.00  0.00     0.006 A 
ENDBRANCH  66  83
ENDBRANCH  40  41
ENDBRANCH  33  35
ENDBRANCH  32  33
ENDBRANCH  31  32
ENDBRANCH  30  31
ENDBRANCH  29  30
ENDBRANCH  28  29
ENDBRANCH   1  28
TORSDOF 21
ENDMDL
MODEL 3
REMARK VINA RESULT:      -9.7      1.700      6.517
REMARK SMILES Cc1ccc(C#N)cc1S(=O)(=O)Nc1cccc(C(=O)OCCOCCOCCOC(=O)c2ccc(-c3c4nc(c(-c5c(F)cccc5F)c5ccc([nH]5)c(-c5c(F)cccc5F)c5nc(c(-c6c(F)cccc6F)c6ccc3[nH]6)C=C5)C=C4)cc2)c1
REMARK SMILES IDX 25 1 24 2 23 3 22 4 21 5 19 6 20 7 18 8 14 9 15 10 87 11
REMARK SMILES IDX 16 12 17 13 13 14 10 16 11 17 12 18 9 19 1 20 2 21 3 22 4 23
REMARK SMILES IDX 8 24 5 25 6 26 7 27 26 28 27 29 28 30 29 31 30 32 31 33
REMARK SMILES IDX 32 34 33 35 34 36 86 37 35 38 85 39 36 40 37 41 38 42 79 43
REMARK SMILES IDX 39 44 84 45 78 46 80 47 40 48 83 49 77 50 76 51 41 53 67 54
REMARK SMILES IDX 50 55 66 56 51 57 54 58 65 59 81 60 52 61 53 62 64 64 82 65
REMARK SMILES IDX 55 66 42 67 43 68 48 69 44 70 45 71 47 72 49 73 46 74 68 75
REMARK SMILES IDX 69 76 74 77 70 78 71 79 73 80 75 81 72 82 56 83 57 84 62 85
REMARK SMILES IDX 58 86 59 87 61 88 63 89 60 90
REMARK H PARENT 13 15 80 52 54 63
REMARK Flexibility Score: inf
ROOT
ATOM      1  C   UNL A   1      29.174  28.894  22.721  1.00  0.00     0.188 C 
ENDROOT
BRANCH   1   2
ATOM      2  O   UNL A   1      29.938  27.777  22.310  1.00  0.00    -0.376 OA
BRANCH   2   3
ATOM      3  C   UNL A   1      29.970  26.615  23.125  1.00  0.00     0.202 C 
BRANCH   3   4
ATOM      4  C   UNL A   1      31.274  26.014  23.709  1.00  0.00     0.261 C 
BRANCH   4   5
ATOM      5  O   UNL A   1      31.190  24.915  24.641  1.00  0.00    -0.460 OA
BRANCH   5   6
ATOM      6  C   UNL A   1      31.487  25.203  25.936  1.00  0.00     0.338 C 
ATOM      7  O   UNL A   1      30.951  26.068  26.610  1.00  0.00    -0.246 OA
BRANCH   6   8
ATOM      8  C   UNL A   1      32.455  24.226  26.527  1.00  0.00     0.062 A 
ATOM      9  C   UNL A   1      34.627  23.109  26.654  1.00  0.00     0.050 A 
ATOM     10  C   UNL A   1      34.125  22.216  27.604  1.00  0.00     0.027 A 
ATOM     11  C   UNL A   1      33.814  24.169  26.185  1.00  0.00     0.042 A 
ATOM     12  C   UNL A   1      32.769  22.277  27.952  1.00  0.00     0.003 A 
ATOM     13  C   UNL A   1      31.934  23.253  27.392  1.00  0.00     0.016 A 
BRANCH   9  14
ATOM     14  N   UNL A   1      35.806  22.862  25.894  1.00  0.00    -0.280 N 
ATOM     15  H   UNL A   1      36.549  23.487  26.060  1.00  0.00     0.180 HD
BRANCH  14  16
ATOM     16  S   UNL A   1      36.121  21.674  24.761  1.00  0.00     0.262 S 
ATOM     17  O   UNL A   1      37.218  20.868  25.252  1.00  0.00    -0.201 OA
ATOM     18  O   UNL A   1      36.244  22.405  23.515  1.00  0.00    -0.201 OA
BRANCH  16  19
ATOM     19  C   UNL A   1      34.754  20.537  24.493  1.00  0.00     0.092 A 
ATOM     20  C   UNL A   1      33.067  22.157  23.496  1.00  0.00     0.046 C 
ATOM     21  C   UNL A   1      33.449  20.865  24.111  1.00  0.00    -0.030 A 
ATOM     22  C   UNL A   1      32.436  19.890  24.202  1.00  0.00     0.006 A 
ATOM     23  C   UNL A   1      32.738  18.564  24.479  1.00  0.00     0.020 A 
ATOM     24  C   UNL A   1      35.061  19.178  24.723  1.00  0.00     0.042 A 
ATOM     25  C   UNL A   1      34.065  18.192  24.670  1.00  0.00     0.053 A 
BRANCH  25  26
ATOM     26  C   UNL A   1      34.387  16.801  24.778  1.00  0.00     0.099 C 
ATOM     27  N   UNL A   1      34.692  15.685  24.897  1.00  0.00    -0.192 NA
ENDBRANCH  25  26
ENDBRANCH  16  19
ENDBRANCH  14  16
ENDBRANCH   9  14
ENDBRANCH   6   8
ENDBRANCH   5   6
ENDBRANCH   4   5
ENDBRANCH   3   4
ENDBRANCH   2   3
ENDBRANCH   1   2
BRANCH   1  28
ATOM     28  C   UNL A   1      29.900  30.223  22.980  1.00  0.00     0.188 C 
BRANCH  28  29
ATOM     29  O   UNL A   1      30.240  30.435  24.327  1.00  0.00    -0.376 OA
BRANCH  29  30
ATOM     30  C   UNL A   1      31.102  29.514  24.968  1.00  0.00     0.202 C 
BRANCH  30  31
ATOM     31  C   UNL A   1      32.626  29.713  25.114  1.00  0.00     0.261 C 
BRANCH  31  32
ATOM     32  O   UNL A   1      33.214  29.700  26.421  1.00  0.00    -0.460 OA
BRANCH  32  33
ATOM     33  C   UNL A   1      33.454  30.896  27.013  1.00  0.00     0.338 C 
ATOM     34  O   UNL A   1      32.679  31.826  27.130  1.00  0.00    -0.246 OA
BRANCH  33  35
ATOM     35  C   UNL A   1      34.759  30.797  27.704  1.00  0.00     0.060 A 
ATOM     36  C   UNL A   1      35.591  31.900  27.861  1.00  0.00     0.016 A 
ATOM     37  C   UNL A   1      35.172  29.547  28.171  1.00  0.00     0.016 A 
ATOM     38  C   UNL A   1      36.841  31.734  28.472  1.00  0.00     0.010 A 
ATOM     39  C   UNL A   1      36.435  29.364  28.732  1.00  0.00     0.010 A 
ATOM     40  C   UNL A   1      37.277  30.465  28.903  1.00  0.00    -0.014 A 
BRANCH  40  41
ATOM     41  C   UNL A   1      38.533  30.325  29.680  1.00  0.00     0.031 A 
ATOM     42  C   UNL A   1      38.685  30.881  31.065  1.00  0.00     0.074 A 
ATOM     43  C   UNL A   1      39.567  29.695  29.094  1.00  0.00     0.049 A 
ATOM     44  N   UNL A   1      39.696  30.765  31.890  1.00  0.00    -0.248 NA
ATOM     45  C   UNL A   1      37.567  31.678  31.589  1.00  0.00     0.031 C 
ATOM     46  C   UNL A   1      39.557  29.160  27.731  1.00  0.00     0.029 A 
ATOM     47  N   UNL A   1      40.817  29.389  29.565  1.00  0.00    -0.354 N 
ATOM     48  C   UNL A   1      39.330  31.447  33.043  1.00  0.00     0.074 A 
ATOM     49  C   UNL A   1      38.025  32.024  32.786  1.00  0.00     0.031 C 
ATOM     50  C   UNL A   1      40.731  28.559  27.489  1.00  0.00     0.029 A 
ATOM     51  C   UNL A   1      41.587  28.697  28.664  1.00  0.00     0.049 A 
ATOM     52  H   UNL A   1      41.133  29.642  30.463  1.00  0.00     0.167 HD
ATOM     53  C   UNL A   1      40.012  31.561  34.210  1.00  0.00     0.037 A 
ATOM     54  C   UNL A   1      42.843  28.224  28.769  1.00  0.00     0.037 A 
ATOM     55  C   UNL A   1      41.325  31.009  34.448  1.00  0.00     0.049 A 
ATOM     56  C   UNL A   1      43.598  28.421  30.054  1.00  0.00     0.074 A 
ATOM     57  C   UNL A   1      42.076  31.038  35.611  1.00  0.00     0.029 A 
ATOM     58  N   UNL A   1      42.093  30.351  33.499  1.00  0.00    -0.354 N 
ATOM     59  N   UNL A   1      43.202  28.985  31.171  1.00  0.00    -0.248 NA
ATOM     60  C   UNL A   1      44.975  27.911  30.094  1.00  0.00     0.031 C 
ATOM     61  C   UNL A   1      43.325  30.465  35.345  1.00  0.00     0.029 A 
ATOM     62  C   UNL A   1      43.325  30.007  34.038  1.00  0.00     0.049 A 
ATOM     63  H   UNL A   1      41.806  30.155  32.578  1.00  0.00     0.167 HD
ATOM     64  C   UNL A   1      44.271  28.870  32.052  1.00  0.00     0.074 A 
ATOM     65  C   UNL A   1      45.321  28.166  31.347  1.00  0.00     0.031 C 
ATOM     66  C   UNL A   1      44.371  29.311  33.331  1.00  0.00     0.037 A 
BRANCH  53  67
ATOM     67  C   UNL A   1      39.355  32.325  35.327  1.00  0.00     0.057 A 
ATOM     68  C   UNL A   1      39.617  33.688  35.518  1.00  0.00     0.134 A 
ATOM     69  C   UNL A   1      38.497  31.702  36.244  1.00  0.00     0.134 A 
ATOM     70  F   UNL A   1      40.443  34.347  34.691  1.00  0.00    -0.206 F 
ATOM     71  C   UNL A   1      39.048  34.403  36.574  1.00  0.00     0.040 A 
ATOM     72  C   UNL A   1      37.896  32.414  37.286  1.00  0.00     0.040 A 
ATOM     73  F   UNL A   1      38.206  30.398  36.125  1.00  0.00    -0.206 F 
ATOM     74  C   UNL A   1      38.175  33.767  37.455  1.00  0.00     0.006 A 
ENDBRANCH  53  67
BRANCH  54  75
ATOM     75  C   UNL A   1      43.471  27.515  27.625  1.00  0.00     0.057 A 
ATOM     76  C   UNL A   1      43.393  26.123  27.503  1.00  0.00     0.134 A 
ATOM     77  C   UNL A   1      44.131  28.217  26.611  1.00  0.00     0.134 A 
ATOM     78  F   UNL A   1      42.784  25.392  28.449  1.00  0.00    -0.206 F 
ATOM     79  C   UNL A   1      43.946  25.454  26.411  1.00  0.00     0.040 A 
ATOM     80  C   UNL A   1      44.659  27.563  25.496  1.00  0.00     0.040 A 
ATOM     81  F   UNL A   1      44.226  29.553  26.664  1.00  0.00    -0.206 F 
ATOM     82  C   UNL A   1      44.569  26.176  25.396  1.00  0.00     0.006 A 
ENDBRANCH  54  75
BRANCH  66  83
ATOM     83  C   UNL A   1      45.651  29.013  34.062  1.00  0.00     0.057 A 
ATOM     84  C   UNL A   1      46.730  29.906  34.004  1.00  0.00     0.134 A 
ATOM     85  C   UNL A   1      45.828  27.841  34.810  1.00  0.00     0.134 A 
ATOM     86  F   UNL A   1      46.635  31.044  33.301  1.00  0.00    -0.206 F 
ATOM     87  C   UNL A   1      47.934  29.644  34.658  1.00  0.00     0.040 A 
ATOM     88  C   UNL A   1      47.016  27.584  35.498  1.00  0.00     0.040 A 
ATOM     89  F   UNL A   1      44.832  26.948  34.922  1.00  0.00    -0.206 F 
ATOM     90  C   UNL A   1      48.077  28.485  35.417  1.00  0.00     0.006 A 
ENDBRANCH  66  83
ENDBRANCH  40  41
ENDBRANCH  33  35
ENDBRANCH  32  33
ENDBRANCH  31  32
ENDBRANCH  30  31
ENDBRANCH  29  30
ENDBRANCH  28  29
ENDBRANCH   1  28
TORSDOF 21
ENDMDL
