MODEL 1
REMARK VINA RESULT:     -10.0      0.000      0.000
REMARK SMILES C[C@H](CNS(=O)(=O)c1ccc(C(=O)OCCOCCOCCOC(=O)c2ccc(-c3c4nc(c(-c5c(F)cccc5F)c5ccc([nH]5)c(-c5c(F)cccc5F)c5nc(c(-c6c(F)cccc6F)c6ccc3[nH]6)C=C5)C=C4)cc2)cc1F)[NH+](C)C
REMARK SMILES IDX 17 1 16 2 15 3 14 4 12 5 13 6 11 7 8 8 9 9 81 10 10 11 80 12
REMARK SMILES IDX 82 13 5 14 6 15 7 16 4 17 3 19 2 20 1 21 83 22 84 23 85 24
REMARK SMILES IDX 18 26 19 27 20 28 21 29 22 30 23 31 24 32 25 33 26 34 27 35
REMARK SMILES IDX 79 36 28 37 78 38 29 39 30 40 31 41 72 42 32 43 77 44 71 45
REMARK SMILES IDX 73 46 33 47 76 48 70 49 69 50 34 52 60 53 43 54 59 55 44 56
REMARK SMILES IDX 47 57 58 58 74 59 45 60 46 61 57 63 75 64 48 65 35 66 36 67
REMARK SMILES IDX 41 68 37 69 38 70 40 71 42 72 39 73 61 74 62 75 67 76 63 77
REMARK SMILES IDX 64 78 66 79 68 80 65 81 49 82 50 83 55 84 51 85 52 86 54 87
REMARK SMILES IDX 56 88 53 89
REMARK H PARENT 4 18 83 25 73 51 47 62
REMARK Flexibility Score: inf
ROOT
ATOM      1  O   UNL A   1      41.863  19.903  26.575  1.00  0.00    -0.376 OA
ENDROOT
BRANCH   1   2
ATOM      2  C   UNL A   1      40.525  20.038  26.110  1.00  0.00     0.202 C 
BRANCH   2   3
ATOM      3  C   UNL A   1      39.871  21.412  26.272  1.00  0.00     0.261 C 
BRANCH   3   4
ATOM      4  O   UNL A   1      38.578  21.487  25.649  1.00  0.00    -0.460 OA
BRANCH   4   5
ATOM      5  C   UNL A   1      37.933  22.664  25.808  1.00  0.00     0.338 C 
ATOM      6  O   UNL A   1      38.421  23.750  26.073  1.00  0.00    -0.246 OA
BRANCH   5   7
ATOM      7  C   UNL A   1      36.515  22.520  25.427  1.00  0.00     0.063 A 
ATOM      8  C   UNL A   1      33.863  21.991  24.778  1.00  0.00     0.118 A 
ATOM      9  C   UNL A   1      34.304  21.778  26.085  1.00  0.00     0.026 A 
ATOM     10  C   UNL A   1      34.723  22.536  23.826  1.00  0.00     0.144 A 
ATOM     11  C   UNL A   1      35.639  22.017  26.400  1.00  0.00     0.017 A 
ATOM     12  C   UNL A   1      36.051  22.823  24.146  1.00  0.00     0.056 A 
ATOM     13  F   UNL A   1      34.303  22.780  22.579  1.00  0.00    -0.205 F 
BRANCH   8  14
ATOM     14  S   UNL A   1      32.266  21.477  24.239  1.00  0.00     0.243 S 
ATOM     15  O   UNL A   1      31.774  22.444  23.287  1.00  0.00    -0.207 OA
ATOM     16  O   UNL A   1      31.520  21.093  25.417  1.00  0.00    -0.207 OA
BRANCH  14  17
ATOM     17  N   UNL A   1      32.519  20.032  23.402  1.00  0.00    -0.205 NA
ATOM     18  H   UNL A   1      31.611  19.577  23.312  1.00  0.00     0.141 HD
BRANCH  17  19
ATOM     19  C   UNL A   1      33.451  19.030  23.961  1.00  0.00     0.163 C 
BRANCH  19  20
ATOM     20  C   UNL A   1      33.011  17.566  23.651  1.00  0.00     0.195 C 
ATOM     21  C   UNL A   1      34.090  16.769  22.898  1.00  0.00     0.076 C 
BRANCH  20  22
ATOM     22  N   UNL A   1      32.434  16.876  24.829  1.00  0.00    -0.337 N 
ATOM     23  C   UNL A   1      32.933  15.510  24.990  1.00  0.00     0.332 C 
ATOM     24  C   UNL A   1      32.521  17.606  26.089  1.00  0.00     0.332 C 
ATOM     25  H   UNL A   1      31.440  16.833  24.604  1.00  0.00     0.347 HD
ENDBRANCH  20  22
ENDBRANCH  19  20
ENDBRANCH  17  19
ENDBRANCH  14  17
ENDBRANCH   8  14
ENDBRANCH   5   7
ENDBRANCH   4   5
ENDBRANCH   3   4
ENDBRANCH   2   3
ENDBRANCH   1   2
BRANCH   1  26
ATOM     26  C   UNL A   1      42.895  19.571  25.653  1.00  0.00     0.188 C 
BRANCH  26  27
ATOM     27  C   UNL A   1      44.126  20.488  25.517  1.00  0.00     0.188 C 
BRANCH  27  28
ATOM     28  O   UNL A   1      44.461  20.816  24.178  1.00  0.00    -0.376 OA
BRANCH  28  29
ATOM     29  C   UNL A   1      44.502  22.201  23.864  1.00  0.00     0.202 C 
BRANCH  29  30
ATOM     30  C   UNL A   1      43.508  23.039  24.673  1.00  0.00     0.261 C 
BRANCH  30  31
ATOM     31  O   UNL A   1      43.800  24.445  24.710  1.00  0.00    -0.460 OA
BRANCH  31  32
ATOM     32  C   UNL A   1      44.645  24.863  25.676  1.00  0.00     0.338 C 
ATOM     33  O   UNL A   1      45.853  24.718  25.714  1.00  0.00    -0.246 OA
BRANCH  32  34
ATOM     34  C   UNL A   1      43.880  25.679  26.640  1.00  0.00     0.060 A 
ATOM     35  C   UNL A   1      44.170  27.044  26.747  1.00  0.00     0.016 A 
ATOM     36  C   UNL A   1      42.907  25.092  27.455  1.00  0.00     0.016 A 
ATOM     37  C   UNL A   1      43.516  27.818  27.708  1.00  0.00     0.010 A 
ATOM     38  C   UNL A   1      42.265  25.864  28.425  1.00  0.00     0.010 A 
ATOM     39  C   UNL A   1      42.592  27.221  28.579  1.00  0.00    -0.014 A 
BRANCH  39  40
ATOM     40  C   UNL A   1      42.121  27.963  29.774  1.00  0.00     0.031 A 
ATOM     41  C   UNL A   1      40.900  28.829  29.640  1.00  0.00     0.074 A 
ATOM     42  C   UNL A   1      42.750  27.862  30.958  1.00  0.00     0.049 A 
ATOM     43  N   UNL A   1      40.311  29.579  30.537  1.00  0.00    -0.248 NA
ATOM     44  C   UNL A   1      40.254  28.852  28.316  1.00  0.00     0.031 C 
ATOM     45  C   UNL A   1      43.925  27.037  31.227  1.00  0.00     0.029 A 
ATOM     46  N   UNL A   1      42.479  28.469  32.159  1.00  0.00    -0.354 N 
ATOM     47  C   UNL A   1      39.223  30.152  29.892  1.00  0.00     0.074 A 
ATOM     48  C   UNL A   1      39.248  29.689  28.521  1.00  0.00     0.031 C 
ATOM     49  C   UNL A   1      44.278  27.192  32.516  1.00  0.00     0.029 A 
ATOM     50  C   UNL A   1      43.368  28.145  33.153  1.00  0.00     0.049 A 
ATOM     51  H   UNL A   1      41.719  29.081  32.294  1.00  0.00     0.167 HD
ATOM     52  C   UNL A   1      38.281  30.981  30.396  1.00  0.00     0.037 A 
ATOM     53  C   UNL A   1      43.443  28.576  34.428  1.00  0.00     0.037 A 
ATOM     54  C   UNL A   1      38.258  31.458  31.750  1.00  0.00     0.049 A 
ATOM     55  C   UNL A   1      42.427  29.561  34.947  1.00  0.00     0.074 A 
ATOM     56  C   UNL A   1      37.344  32.308  32.348  1.00  0.00     0.029 A 
ATOM     57  N   UNL A   1      39.198  31.133  32.715  1.00  0.00    -0.354 N 
ATOM     58  N   UNL A   1      41.393  30.080  34.332  1.00  0.00    -0.248 NA
ATOM     59  C   UNL A   1      42.590  30.018  36.335  1.00  0.00     0.031 C 
ATOM     60  C   UNL A   1      37.749  32.523  33.669  1.00  0.00     0.029 A 
ATOM     61  C   UNL A   1      38.893  31.777  33.901  1.00  0.00     0.049 A 
ATOM     62  H   UNL A   1      39.966  30.534  32.577  1.00  0.00     0.167 HD
ATOM     63  C   UNL A   1      40.769  30.903  35.263  1.00  0.00     0.074 A 
ATOM     64  C   UNL A   1      41.538  30.813  36.486  1.00  0.00     0.031 C 
ATOM     65  C   UNL A   1      39.658  31.665  35.115  1.00  0.00     0.037 A 
BRANCH  52  66
ATOM     66  C   UNL A   1      37.197  31.433  29.467  1.00  0.00     0.057 A 
ATOM     67  C   UNL A   1      37.242  32.702  28.876  1.00  0.00     0.134 A 
ATOM     68  C   UNL A   1      36.088  30.625  29.191  1.00  0.00     0.134 A 
ATOM     69  F   UNL A   1      38.280  33.522  29.103  1.00  0.00    -0.206 F 
ATOM     70  C   UNL A   1      36.216  33.154  28.048  1.00  0.00     0.040 A 
ATOM     71  C   UNL A   1      35.064  31.060  28.349  1.00  0.00     0.040 A 
ATOM     72  F   UNL A   1      35.998  29.393  29.714  1.00  0.00    -0.206 F 
ATOM     73  C   UNL A   1      35.124  32.331  27.781  1.00  0.00     0.006 A 
ENDBRANCH  52  66
BRANCH  53  74
ATOM     74  C   UNL A   1      44.524  28.080  35.315  1.00  0.00     0.057 A 
ATOM     75  C   UNL A   1      44.372  26.905  36.060  1.00  0.00     0.134 A 
ATOM     76  C   UNL A   1      45.738  28.765  35.427  1.00  0.00     0.134 A 
ATOM     77  F   UNL A   1      43.231  26.202  35.991  1.00  0.00    -0.206 F 
ATOM     78  C   UNL A   1      45.387  26.434  36.894  1.00  0.00     0.040 A 
ATOM     79  C   UNL A   1      46.769  28.295  36.243  1.00  0.00     0.040 A 
ATOM     80  F   UNL A   1      45.950  29.884  34.719  1.00  0.00    -0.206 F 
ATOM     81  C   UNL A   1      46.591  27.129  36.984  1.00  0.00     0.006 A 
ENDBRANCH  53  74
BRANCH  65  82
ATOM     82  C   UNL A   1      39.177  32.438  36.306  1.00  0.00     0.057 A 
ATOM     83  C   UNL A   1      38.211  31.894  37.164  1.00  0.00     0.134 A 
ATOM     84  C   UNL A   1      39.599  33.749  36.553  1.00  0.00     0.134 A 
ATOM     85  F   UNL A   1      37.757  30.646  36.974  1.00  0.00    -0.206 F 
ATOM     86  C   UNL A   1      37.671  32.635  38.216  1.00  0.00     0.040 A 
ATOM     87  C   UNL A   1      39.081  34.493  37.614  1.00  0.00     0.040 A 
ATOM     88  F   UNL A   1      40.527  34.322  35.771  1.00  0.00    -0.206 F 
ATOM     89  C   UNL A   1      38.108  33.939  38.443  1.00  0.00     0.006 A 
ENDBRANCH  65  82
ENDBRANCH  39  40
ENDBRANCH  32  34
ENDBRANCH  31  32
ENDBRANCH  30  31
ENDBRANCH  29  30
ENDBRANCH  28  29
ENDBRANCH  27  28
ENDBRANCH  26  27
ENDBRANCH   1  26
TORSDOF 22
ENDMDL
MODEL 2
REMARK VINA RESULT:     -10.0      2.120      6.854
REMARK SMILES C[C@H](CNS(=O)(=O)c1ccc(C(=O)OCCOCCOCCOC(=O)c2ccc(-c3c4nc(c(-c5c(F)cccc5F)c5ccc([nH]5)c(-c5c(F)cccc5F)c5nc(c(-c6c(F)cccc6F)c6ccc3[nH]6)C=C5)C=C4)cc2)cc1F)[NH+](C)C
REMARK SMILES IDX 17 1 16 2 15 3 14 4 12 5 13 6 11 7 8 8 9 9 81 10 10 11 80 12
REMARK SMILES IDX 82 13 5 14 6 15 7 16 4 17 3 19 2 20 1 21 83 22 84 23 85 24
REMARK SMILES IDX 18 26 19 27 20 28 21 29 22 30 23 31 24 32 25 33 26 34 27 35
REMARK SMILES IDX 79 36 28 37 78 38 29 39 30 40 31 41 72 42 32 43 77 44 71 45
REMARK SMILES IDX 73 46 33 47 76 48 70 49 69 50 34 52 60 53 43 54 59 55 44 56
REMARK SMILES IDX 47 57 58 58 74 59 45 60 46 61 57 63 75 64 48 65 35 66 36 67
REMARK SMILES IDX 41 68 37 69 38 70 40 71 42 72 39 73 61 74 62 75 67 76 63 77
REMARK SMILES IDX 64 78 66 79 68 80 65 81 49 82 50 83 55 84 51 85 52 86 54 87
REMARK SMILES IDX 56 88 53 89
REMARK H PARENT 4 18 83 25 73 51 47 62
REMARK Flexibility Score: inf
ROOT
ATOM      1  O   UNL A   1      41.846  20.997  25.859  1.00  0.00    -0.376 OA
ENDROOT
BRANCH   1   2
ATOM      2  C   UNL A   1      40.895  21.345  26.857  1.00  0.00     0.202 C 
BRANCH   2   3
ATOM      3  C   UNL A   1      39.429  21.411  26.424  1.00  0.00     0.261 C 
BRANCH   3   4
ATOM      4  O   UNL A   1      39.140  22.567  25.620  1.00  0.00    -0.460 OA
BRANCH   4   5
ATOM      5  C   UNL A   1      38.229  23.417  26.145  1.00  0.00     0.338 C 
ATOM      6  O   UNL A   1      38.415  24.277  26.990  1.00  0.00    -0.246 OA
BRANCH   5   7
ATOM      7  C   UNL A   1      36.953  23.307  25.415  1.00  0.00     0.063 A 
ATOM      8  C   UNL A   1      34.624  23.312  23.894  1.00  0.00     0.118 A 
ATOM      9  C   UNL A   1      35.858  23.165  23.257  1.00  0.00     0.026 A 
ATOM     10  C   UNL A   1      34.555  23.380  25.285  1.00  0.00     0.144 A 
ATOM     11  C   UNL A   1      37.023  23.191  24.018  1.00  0.00     0.017 A 
ATOM     12  C   UNL A   1      35.716  23.359  26.059  1.00  0.00     0.056 A 
ATOM     13  F   UNL A   1      33.376  23.483  25.910  1.00  0.00    -0.205 F 
BRANCH   8  14
ATOM     14  S   UNL A   1      33.131  23.543  22.988  1.00  0.00     0.243 S 
ATOM     15  O   UNL A   1      32.058  22.901  23.709  1.00  0.00    -0.207 OA
ATOM     16  O   UNL A   1      33.422  23.254  21.602  1.00  0.00    -0.207 OA
BRANCH  14  17
ATOM     17  N   UNL A   1      32.836  25.205  23.026  1.00  0.00    -0.205 NA
ATOM     18  H   UNL A   1      33.186  25.590  22.149  1.00  0.00     0.141 HD
BRANCH  17  19
ATOM     19  C   UNL A   1      33.418  26.015  24.117  1.00  0.00     0.163 C 
BRANCH  19  20
ATOM     20  C   UNL A   1      32.434  27.108  24.641  1.00  0.00     0.195 C 
ATOM     21  C   UNL A   1      32.251  27.058  26.167  1.00  0.00     0.076 C 
BRANCH  20  22
ATOM     22  N   UNL A   1      32.722  28.453  24.090  1.00  0.00    -0.337 N 
ATOM     23  C   UNL A   1      32.473  29.527  25.051  1.00  0.00     0.332 C 
ATOM     24  C   UNL A   1      34.034  28.611  23.472  1.00  0.00     0.332 C 
ATOM     25  H   UNL A   1      32.048  28.536  23.329  1.00  0.00     0.347 HD
ENDBRANCH  20  22
ENDBRANCH  19  20
ENDBRANCH  17  19
ENDBRANCH  14  17
ENDBRANCH   8  14
ENDBRANCH   5   7
ENDBRANCH   4   5
ENDBRANCH   3   4
ENDBRANCH   2   3
ENDBRANCH   1   2
BRANCH   1  26
ATOM     26  C   UNL A   1      42.359  19.670  25.812  1.00  0.00     0.188 C 
BRANCH  26  27
ATOM     27  C   UNL A   1      43.821  19.428  25.389  1.00  0.00     0.188 C 
BRANCH  27  28
ATOM     28  O   UNL A   1      44.221  20.151  24.236  1.00  0.00    -0.376 OA
BRANCH  28  29
ATOM     29  C   UNL A   1      45.025  21.299  24.465  1.00  0.00     0.202 C 
BRANCH  29  30
ATOM     30  C   UNL A   1      44.418  22.590  23.907  1.00  0.00     0.261 C 
BRANCH  30  31
ATOM     31  O   UNL A   1      43.841  23.457  24.897  1.00  0.00    -0.460 OA
BRANCH  31  32
ATOM     32  C   UNL A   1      44.530  24.579  25.195  1.00  0.00     0.338 C 
ATOM     33  O   UNL A   1      45.597  24.937  24.730  1.00  0.00    -0.246 OA
BRANCH  32  34
ATOM     34  C   UNL A   1      43.699  25.408  26.091  1.00  0.00     0.060 A 
ATOM     35  C   UNL A   1      43.873  26.797  26.078  1.00  0.00     0.016 A 
ATOM     36  C   UNL A   1      42.781  24.814  26.963  1.00  0.00     0.016 A 
ATOM     37  C   UNL A   1      43.156  27.593  26.974  1.00  0.00     0.010 A 
ATOM     38  C   UNL A   1      42.076  25.610  27.867  1.00  0.00     0.010 A 
ATOM     39  C   UNL A   1      42.288  26.999  27.901  1.00  0.00    -0.014 A 
BRANCH  39  40
ATOM     40  C   UNL A   1      41.757  27.799  29.031  1.00  0.00     0.031 A 
ATOM     41  C   UNL A   1      42.478  27.740  30.348  1.00  0.00     0.074 A 
ATOM     42  C   UNL A   1      40.668  28.576  28.892  1.00  0.00     0.049 A 
ATOM     43  N   UNL A   1      42.195  28.339  31.477  1.00  0.00    -0.248 NA
ATOM     44  C   UNL A   1      43.681  26.893  30.400  1.00  0.00     0.031 C 
ATOM     45  C   UNL A   1      39.896  28.742  27.663  1.00  0.00     0.029 A 
ATOM     46  N   UNL A   1      40.024  29.370  29.808  1.00  0.00    -0.354 N 
ATOM     47  C   UNL A   1      43.188  27.951  32.367  1.00  0.00     0.074 A 
ATOM     48  C   UNL A   1      44.064  27.043  31.659  1.00  0.00     0.031 C 
ATOM     49  C   UNL A   1      38.876  29.587  27.903  1.00  0.00     0.029 A 
ATOM     50  C   UNL A   1      38.912  30.000  29.306  1.00  0.00     0.049 A 
ATOM     51  H   UNL A   1      40.330  29.478  30.737  1.00  0.00     0.167 HD
ATOM     52  C   UNL A   1      43.363  28.325  33.655  1.00  0.00     0.037 A 
ATOM     53  C   UNL A   1      38.022  30.808  29.914  1.00  0.00     0.037 A 
ATOM     54  C   UNL A   1      42.489  29.212  34.371  1.00  0.00     0.049 A 
ATOM     55  C   UNL A   1      38.193  31.149  31.372  1.00  0.00     0.074 A 
ATOM     56  C   UNL A   1      42.584  29.642  35.682  1.00  0.00     0.029 A 
ATOM     57  N   UNL A   1      41.355  29.800  33.835  1.00  0.00    -0.354 N 
ATOM     58  N   UNL A   1      39.146  30.791  32.197  1.00  0.00    -0.248 NA
ATOM     59  C   UNL A   1      37.165  32.006  31.981  1.00  0.00     0.031 C 
ATOM     60  C   UNL A   1      41.488  30.467  35.951  1.00  0.00     0.029 A 
ATOM     61  C   UNL A   1      40.732  30.578  34.795  1.00  0.00     0.049 A 
ATOM     62  H   UNL A   1      41.039  29.683  32.911  1.00  0.00     0.167 HD
ATOM     63  C   UNL A   1      38.847  31.397  33.412  1.00  0.00     0.074 A 
ATOM     64  C   UNL A   1      37.626  32.149  33.217  1.00  0.00     0.031 C 
ATOM     65  C   UNL A   1      39.526  31.334  34.583  1.00  0.00     0.037 A 
BRANCH  52  66
ATOM     66  C   UNL A   1      44.546  27.761  34.379  1.00  0.00     0.057 A 
ATOM     67  C   UNL A   1      45.790  28.400  34.325  1.00  0.00     0.134 A 
ATOM     68  C   UNL A   1      44.460  26.561  35.095  1.00  0.00     0.134 A 
ATOM     69  F   UNL A   1      45.935  29.553  33.654  1.00  0.00    -0.206 F 
ATOM     70  C   UNL A   1      46.912  27.860  34.954  1.00  0.00     0.040 A 
ATOM     71  C   UNL A   1      45.571  26.021  35.745  1.00  0.00     0.040 A 
ATOM     72  F   UNL A   1      43.290  25.913  35.197  1.00  0.00    -0.206 F 
ATOM     73  C   UNL A   1      46.803  26.668  35.668  1.00  0.00     0.006 A 
ENDBRANCH  52  66
BRANCH  53  74
ATOM     74  C   UNL A   1      36.879  31.360  29.146  1.00  0.00     0.057 A 
ATOM     75  C   UNL A   1      36.882  32.681  28.683  1.00  0.00     0.134 A 
ATOM     76  C   UNL A   1      35.762  30.572  28.849  1.00  0.00     0.134 A 
ATOM     77  F   UNL A   1      37.927  33.483  28.934  1.00  0.00    -0.206 F 
ATOM     78  C   UNL A   1      35.809  33.203  27.960  1.00  0.00     0.040 A 
ATOM     79  C   UNL A   1      34.690  31.075  28.109  1.00  0.00     0.040 A 
ATOM     80  F   UNL A   1      35.712  29.292  29.246  1.00  0.00    -0.206 F 
ATOM     81  C   UNL A   1      34.710  32.397  27.668  1.00  0.00     0.006 A 
ENDBRANCH  53  74
BRANCH  65  82
ATOM     82  C   UNL A   1      38.994  32.122  35.743  1.00  0.00     0.057 A 
ATOM     83  C   UNL A   1      39.351  33.467  35.912  1.00  0.00     0.134 A 
ATOM     84  C   UNL A   1      38.207  31.529  36.736  1.00  0.00     0.134 A 
ATOM     85  F   UNL A   1      40.113  34.089  35.000  1.00  0.00    -0.206 F 
ATOM     86  C   UNL A   1      38.954  34.189  37.038  1.00  0.00     0.040 A 
ATOM     87  C   UNL A   1      37.788  32.247  37.857  1.00  0.00     0.040 A 
ATOM     88  F   UNL A   1      37.827  30.247  36.626  1.00  0.00    -0.206 F 
ATOM     89  C   UNL A   1      38.169  33.578  38.014  1.00  0.00     0.006 A 
ENDBRANCH  65  82
ENDBRANCH  39  40
ENDBRANCH  32  34
ENDBRANCH  31  32
ENDBRANCH  30  31
ENDBRANCH  29  30
ENDBRANCH  28  29
ENDBRANCH  27  28
ENDBRANCH  26  27
ENDBRANCH   1  26
TORSDOF 22
ENDMDL
MODEL 3
REMARK VINA RESULT:     -10.0      5.103     10.639
REMARK SMILES C[C@H](CNS(=O)(=O)c1ccc(C(=O)OCCOCCOCCOC(=O)c2ccc(-c3c4nc(c(-c5c(F)cccc5F)c5ccc([nH]5)c(-c5c(F)cccc5F)c5nc(c(-c6c(F)cccc6F)c6ccc3[nH]6)C=C5)C=C4)cc2)cc1F)[NH+](C)C
REMARK SMILES IDX 17 1 16 2 15 3 14 4 12 5 13 6 11 7 8 8 9 9 81 10 10 11 80 12
REMARK SMILES IDX 82 13 5 14 6 15 7 16 4 17 3 19 2 20 1 21 83 22 84 23 85 24
REMARK SMILES IDX 18 26 19 27 20 28 21 29 22 30 23 31 24 32 25 33 26 34 27 35
REMARK SMILES IDX 79 36 28 37 78 38 29 39 30 40 31 41 72 42 32 43 77 44 71 45
REMARK SMILES IDX 73 46 33 47 76 48 70 49 69 50 34 52 60 53 43 54 59 55 44 56
REMARK SMILES IDX 47 57 58 58 74 59 45 60 46 61 57 63 75 64 48 65 35 66 36 67
REMARK SMILES IDX 41 68 37 69 38 70 40 71 42 72 39 73 61 74 62 75 67 76 63 77
REMARK SMILES IDX 64 78 66 79 68 80 65 81 49 82 50 83 55 84 51 85 52 86 54 87
REMARK SMILES IDX 56 88 53 89
REMARK H PARENT 4 18 83 25 73 51 47 62
REMARK Flexibility Score: inf
ROOT
ATOM      1  O   UNL A   1      34.405  33.844  28.768  1.00  0.00    -0.376 OA
ENDROOT
BRANCH   1   2
ATOM      2  C   UNL A   1      33.535  32.927  28.115  1.00  0.00     0.202 C 
BRANCH   2   3
ATOM      3  C   UNL A   1      34.158  31.625  27.607  1.00  0.00     0.261 C 
BRANCH   3   4
ATOM      4  O   UNL A   1      33.226  30.530  27.605  1.00  0.00    -0.460 OA
BRANCH   4   5
ATOM      5  C   UNL A   1      32.256  30.605  26.667  1.00  0.00     0.338 C 
ATOM      6  O   UNL A   1      31.502  31.538  26.449  1.00  0.00    -0.246 OA
BRANCH   5   7
ATOM      7  C   UNL A   1      32.332  29.440  25.766  1.00  0.00     0.063 A 
ATOM      8  C   UNL A   1      32.728  27.317  24.012  1.00  0.00     0.118 A 
ATOM      9  C   UNL A   1      33.550  27.442  25.133  1.00  0.00     0.026 A 
ATOM     10  C   UNL A   1      31.671  28.205  23.814  1.00  0.00     0.144 A 
ATOM     11  C   UNL A   1      33.367  28.521  25.994  1.00  0.00     0.017 A 
ATOM     12  C   UNL A   1      31.451  29.262  24.697  1.00  0.00     0.056 A 
ATOM     13  F   UNL A   1      30.852  28.074  22.763  1.00  0.00    -0.205 F 
BRANCH   8  14
ATOM     14  S   UNL A   1      33.052  26.135  22.747  1.00  0.00     0.243 S 
ATOM     15  O   UNL A   1      33.667  26.817  21.633  1.00  0.00    -0.207 OA
ATOM     16  O   UNL A   1      31.862  25.325  22.604  1.00  0.00    -0.207 OA
BRANCH  14  17
ATOM     17  N   UNL A   1      34.207  25.089  23.395  1.00  0.00    -0.205 NA
ATOM     18  H   UNL A   1      35.053  25.194  22.835  1.00  0.00     0.141 HD
BRANCH  17  19
ATOM     19  C   UNL A   1      33.909  23.642  23.464  1.00  0.00     0.163 C 
BRANCH  19  20
ATOM     20  C   UNL A   1      34.212  23.036  24.870  1.00  0.00     0.195 C 
ATOM     21  C   UNL A   1      34.773  24.075  25.855  1.00  0.00     0.076 C 
BRANCH  20  22
ATOM     22  N   UNL A   1      33.096  22.216  25.396  1.00  0.00    -0.337 N 
ATOM     23  C   UNL A   1      31.985  22.092  24.451  1.00  0.00     0.332 C 
ATOM     24  C   UNL A   1      33.471  20.908  25.921  1.00  0.00     0.332 C 
ATOM     25  H   UNL A   1      32.777  22.754  26.201  1.00  0.00     0.347 HD
ENDBRANCH  20  22
ENDBRANCH  19  20
ENDBRANCH  17  19
ENDBRANCH  14  17
ENDBRANCH   8  14
ENDBRANCH   5   7
ENDBRANCH   4   5
ENDBRANCH   3   4
ENDBRANCH   2   3
ENDBRANCH   1   2
BRANCH   1  26
ATOM     26  C   UNL A   1      34.003  35.199  28.928  1.00  0.00     0.188 C 
BRANCH  26  27
ATOM     27  C   UNL A   1      32.963  35.570  30.004  1.00  0.00     0.188 C 
BRANCH  27  28
ATOM     28  O   UNL A   1      33.526  36.032  31.222  1.00  0.00    -0.376 OA
BRANCH  28  29
ATOM     29  C   UNL A   1      33.771  35.046  32.213  1.00  0.00     0.202 C 
BRANCH  29  30
ATOM     30  C   UNL A   1      35.257  34.722  32.396  1.00  0.00     0.261 C 
BRANCH  30  31
ATOM     31  O   UNL A   1      35.658  33.439  31.888  1.00  0.00    -0.460 OA
BRANCH  31  32
ATOM     32  C   UNL A   1      36.246  32.598  32.765  1.00  0.00     0.338 C 
ATOM     33  O   UNL A   1      35.966  32.440  33.939  1.00  0.00    -0.246 OA
BRANCH  32  34
ATOM     34  C   UNL A   1      37.213  31.763  32.026  1.00  0.00     0.060 A 
ATOM     35  C   UNL A   1      38.228  31.114  32.741  1.00  0.00     0.016 A 
ATOM     36  C   UNL A   1      37.140  31.649  30.635  1.00  0.00     0.016 A 
ATOM     37  C   UNL A   1      39.201  30.385  32.056  1.00  0.00     0.010 A 
ATOM     38  C   UNL A   1      38.123  30.931  29.950  1.00  0.00     0.010 A 
ATOM     39  C   UNL A   1      39.177  30.327  30.654  1.00  0.00    -0.014 A 
BRANCH  39  40
ATOM     40  C   UNL A   1      40.356  29.809  29.919  1.00  0.00     0.031 A 
ATOM     41  C   UNL A   1      41.514  30.738  29.681  1.00  0.00     0.074 A 
ATOM     42  C   UNL A   1      40.410  28.539  29.482  1.00  0.00     0.049 A 
ATOM     43  N   UNL A   1      42.641  30.516  29.054  1.00  0.00    -0.248 NA
ATOM     44  C   UNL A   1      41.384  32.101  30.225  1.00  0.00     0.031 C 
ATOM     45  C   UNL A   1      39.369  27.532  29.671  1.00  0.00     0.029 A 
ATOM     46  N   UNL A   1      41.393  27.884  28.782  1.00  0.00    -0.354 N 
ATOM     47  C   UNL A   1      43.357  31.704  29.137  1.00  0.00     0.074 A 
ATOM     48  C   UNL A   1      42.527  32.653  29.849  1.00  0.00     0.031 C 
ATOM     49  C   UNL A   1      39.768  26.382  29.097  1.00  0.00     0.029 A 
ATOM     50  C   UNL A   1      41.080  26.582  28.480  1.00  0.00     0.049 A 
ATOM     51  H   UNL A   1      42.242  28.308  28.520  1.00  0.00     0.167 HD
ATOM     52  C   UNL A   1      44.597  31.978  28.674  1.00  0.00     0.037 A 
ATOM     53  C   UNL A   1      41.770  25.662  27.778  1.00  0.00     0.037 A 
ATOM     54  C   UNL A   1      45.421  31.048  27.953  1.00  0.00     0.049 A 
ATOM     55  C   UNL A   1      43.118  26.014  27.204  1.00  0.00     0.074 A 
ATOM     56  C   UNL A   1      46.690  31.241  27.438  1.00  0.00     0.029 A 
ATOM     57  N   UNL A   1      45.050  29.750  27.638  1.00  0.00    -0.354 N 
ATOM     58  N   UNL A   1      43.792  27.133  27.306  1.00  0.00    -0.248 NA
ATOM     59  C   UNL A   1      43.800  24.975  26.417  1.00  0.00     0.031 C 
ATOM     60  C   UNL A   1      47.077  30.069  26.782  1.00  0.00     0.029 A 
ATOM     61  C   UNL A   1      46.063  29.135  26.922  1.00  0.00     0.049 A 
ATOM     62  H   UNL A   1      44.197  29.329  27.886  1.00  0.00     0.167 HD
ATOM     63  C   UNL A   1      44.983  26.926  26.620  1.00  0.00     0.074 A 
ATOM     64  C   UNL A   1      44.944  25.572  26.109  1.00  0.00     0.031 C 
ATOM     65  C   UNL A   1      46.017  27.782  26.433  1.00  0.00     0.037 A 
BRANCH  52  66
ATOM     66  C   UNL A   1      45.136  33.352  28.927  1.00  0.00     0.057 A 
ATOM     67  C   UNL A   1      44.895  34.394  28.024  1.00  0.00     0.134 A 
ATOM     68  C   UNL A   1      45.929  33.630  30.047  1.00  0.00     0.134 A 
ATOM     69  F   UNL A   1      44.142  34.188  26.932  1.00  0.00    -0.206 F 
ATOM     70  C   UNL A   1      45.431  35.666  28.223  1.00  0.00     0.040 A 
ATOM     71  C   UNL A   1      46.455  34.904  30.266  1.00  0.00     0.040 A 
ATOM     72  F   UNL A   1      46.180  32.676  30.956  1.00  0.00    -0.206 F 
ATOM     73  C   UNL A   1      46.212  35.924  29.348  1.00  0.00     0.006 A 
ENDBRANCH  52  66
BRANCH  53  74
ATOM     74  C   UNL A   1      41.202  24.307  27.575  1.00  0.00     0.057 A 
ATOM     75  C   UNL A   1      40.165  24.080  26.663  1.00  0.00     0.134 A 
ATOM     76  C   UNL A   1      41.693  23.205  28.283  1.00  0.00     0.134 A 
ATOM     77  F   UNL A   1      39.655  25.097  25.952  1.00  0.00    -0.206 F 
ATOM     78  C   UNL A   1      39.629  22.806  26.469  1.00  0.00     0.040 A 
ATOM     79  C   UNL A   1      41.179  21.922  28.085  1.00  0.00     0.040 A 
ATOM     80  F   UNL A   1      42.702  23.356  29.154  1.00  0.00    -0.206 F 
ATOM     81  C   UNL A   1      40.140  21.722  27.180  1.00  0.00     0.006 A 
ENDBRANCH  53  74
BRANCH  65  82
ATOM     82  C   UNL A   1      47.210  27.283  25.675  1.00  0.00     0.057 A 
ATOM     83  C   UNL A   1      48.248  26.618  26.341  1.00  0.00     0.134 A 
ATOM     84  C   UNL A   1      47.374  27.539  24.309  1.00  0.00     0.134 A 
ATOM     85  F   UNL A   1      48.156  26.353  27.653  1.00  0.00    -0.206 F 
ATOM     86  C   UNL A   1      49.415  26.239  25.676  1.00  0.00     0.040 A 
ATOM     87  C   UNL A   1      48.528  27.146  23.629  1.00  0.00     0.040 A 
ATOM     88  F   UNL A   1      46.411  28.166  23.615  1.00  0.00    -0.206 F 
ATOM     89  C   UNL A   1      49.556  26.502  24.315  1.00  0.00     0.006 A 
ENDBRANCH  65  82
ENDBRANCH  39  40
ENDBRANCH  32  34
ENDBRANCH  31  32
ENDBRANCH  30  31
ENDBRANCH  29  30
ENDBRANCH  28  29
ENDBRANCH  27  28
ENDBRANCH  26  27
ENDBRANCH   1  26
TORSDOF 22
ENDMDL
