MODEL 1
REMARK VINA RESULT:     -11.2      0.000      0.000
REMARK SMILES CC(C)N(c1cc2c(cc1Cl)C=C(C(=O)OCCOCCOCCOC(=O)c1ccc(-c3c4nc(c(-c5c(F)cccc5F)c5ccc([nH]5)c(-c5c(F)cccc5F)c5nc(c(-c6c(F)cccc6F)c6ccc3[nH]6)C=C5)C=C4)cc1)[C@@H](C(F)(F)F)O2)C(C)C
REMARK SMILES IDX 20 1 19 2 18 3 17 4 16 5 14 6 15 7 13 8 5 9 6 10 10 11 7 12
REMARK SMILES IDX 9 13 11 14 8 15 87 16 12 17 82 18 4 19 2 20 1 21 3 22 88 23
REMARK SMILES IDX 89 24 90 25 83 26 84 27 85 28 86 29 21 30 22 31 23 32 24 33
REMARK SMILES IDX 25 34 26 35 27 36 28 37 29 38 81 39 30 40 80 41 31 42 32 43
REMARK SMILES IDX 33 44 74 45 34 46 79 47 73 48 75 49 35 50 78 51 72 52 71 53
REMARK SMILES IDX 36 55 62 56 45 57 61 58 46 59 49 60 60 61 76 62 47 63 48 64
REMARK SMILES IDX 59 66 77 67 50 68 37 69 38 70 43 71 39 72 40 73 42 74 44 75
REMARK SMILES IDX 41 76 63 77 64 78 69 79 65 80 66 81 68 82 70 83 67 84 51 85
REMARK SMILES IDX 52 86 57 87 53 88 54 89 56 90 58 91 55 92
REMARK H PARENT 75 54 49 65
REMARK Flexibility Score: inf
ROOT
ATOM      1  C   UNL A   1      40.179  22.320  26.914  1.00  0.00     0.188 C 
ENDROOT
BRANCH   1   2
ATOM      2  O   UNL A   1      38.896  22.086  26.367  1.00  0.00    -0.376 OA
BRANCH   2   3
ATOM      3  C   UNL A   1      38.691  21.111  25.359  1.00  0.00     0.202 C 
BRANCH   3   4
ATOM      4  C   UNL A   1      37.293  20.599  25.003  1.00  0.00     0.261 C 
BRANCH   4   5
ATOM      5  O   UNL A   1      36.255  21.577  25.137  1.00  0.00    -0.460 OA
BRANCH   5   6
ATOM      6  C   UNL A   1      35.010  21.118  24.868  1.00  0.00     0.338 C 
ATOM      7  O   UNL A   1      34.670  19.953  24.747  1.00  0.00    -0.246 OA
BRANCH   6   8
ATOM      8  C   UNL A   1      34.051  22.236  24.880  1.00  0.00     0.087 C 
ATOM      9  C   UNL A   1      32.048  26.843  24.395  1.00  0.00     0.060 A 
ATOM     10  C   UNL A   1      31.728  25.679  25.137  1.00  0.00     0.074 A 
ATOM     11  C   UNL A   1      33.054  26.701  23.411  1.00  0.00     0.065 A 
ATOM     12  C   UNL A   1      32.435  24.480  24.991  1.00  0.00     0.130 A 
ATOM     13  C   UNL A   1      33.732  25.485  23.236  1.00  0.00     0.034 A 
ATOM     14  Cl  UNL A   1      33.649  27.999  22.433  1.00  0.00    -0.082 Cl
ATOM     15  C   UNL A   1      33.455  24.392  24.054  1.00  0.00     0.019 A 
ATOM     16  O   UNL A   1      32.084  23.454  25.825  1.00  0.00    -0.475 OA
ATOM     17  C   UNL A   1      34.287  23.208  23.991  1.00  0.00     0.027 C 
ATOM     18  C   UNL A   1      32.920  22.259  25.872  1.00  0.00     0.316 C 
BRANCH   9  19
ATOM     19  N   UNL A   1      31.403  28.056  24.726  1.00  0.00    -0.365 N 
BRANCH  19  20
ATOM     20  C   UNL A   1      31.880  28.820  25.903  1.00  0.00     0.076 C 
ATOM     21  C   UNL A   1      33.291  28.423  26.338  1.00  0.00     0.030 C 
ATOM     22  C   UNL A   1      31.789  30.336  25.729  1.00  0.00     0.030 C 
ENDBRANCH  19  20
BRANCH  19  23
ATOM     23  C   UNL A   1      30.262  28.438  23.855  1.00  0.00     0.076 C 
ATOM     24  C   UNL A   1      30.688  29.213  22.611  1.00  0.00     0.030 C 
ATOM     25  C   UNL A   1      29.351  27.267  23.504  1.00  0.00     0.030 C 
ENDBRANCH  19  23
ENDBRANCH   9  19
BRANCH  18  26
ATOM     26  C   UNL A   1      33.408  22.052  27.315  1.00  0.00     0.430 C 
ATOM     27  F   UNL A   1      33.665  20.747  27.568  1.00  0.00    -0.167 F 
ATOM     28  F   UNL A   1      34.558  22.727  27.555  1.00  0.00    -0.167 F 
ATOM     29  F   UNL A   1      32.498  22.473  28.222  1.00  0.00    -0.167 F 
ENDBRANCH  18  26
ENDBRANCH   6   8
ENDBRANCH   5   6
ENDBRANCH   4   5
ENDBRANCH   3   4
ENDBRANCH   2   3
ENDBRANCH   1   2
BRANCH   1  30
ATOM     30  C   UNL A   1      41.390  21.442  26.534  1.00  0.00     0.188 C 
BRANCH  30  31
ATOM     31  O   UNL A   1      42.157  21.711  25.378  1.00  0.00    -0.376 OA
BRANCH  31  32
ATOM     32  C   UNL A   1      43.569  21.569  25.419  1.00  0.00     0.202 C 
BRANCH  32  33
ATOM     33  C   UNL A   1      44.482  22.562  24.697  1.00  0.00     0.261 C 
BRANCH  33  34
ATOM     34  O   UNL A   1      43.927  23.877  24.573  1.00  0.00    -0.460 OA
BRANCH  34  35
ATOM     35  C   UNL A   1      44.698  24.879  25.058  1.00  0.00     0.338 C 
ATOM     36  O   UNL A   1      45.774  25.263  24.630  1.00  0.00    -0.246 OA
BRANCH  35  37
ATOM     37  C   UNL A   1      43.942  25.604  26.095  1.00  0.00     0.060 A 
ATOM     38  C   UNL A   1      42.892  24.990  26.776  1.00  0.00     0.016 A 
ATOM     39  C   UNL A   1      44.307  26.926  26.386  1.00  0.00     0.016 A 
ATOM     40  C   UNL A   1      42.224  25.693  27.780  1.00  0.00     0.010 A 
ATOM     41  C   UNL A   1      43.630  27.634  27.380  1.00  0.00     0.010 A 
ATOM     42  C   UNL A   1      42.601  27.011  28.100  1.00  0.00    -0.014 A 
BRANCH  42  43
ATOM     43  C   UNL A   1      42.034  27.658  29.305  1.00  0.00     0.031 A 
ATOM     44  C   UNL A   1      42.662  27.515  30.657  1.00  0.00     0.074 A 
ATOM     45  C   UNL A   1      40.921  28.400  29.151  1.00  0.00     0.049 A 
ATOM     46  N   UNL A   1      42.357  28.133  31.771  1.00  0.00    -0.248 NA
ATOM     47  C   UNL A   1      43.763  26.552  30.777  1.00  0.00     0.031 C 
ATOM     48  C   UNL A   1      40.195  28.571  27.891  1.00  0.00     0.029 A 
ATOM     49  N   UNL A   1      40.215  29.153  30.052  1.00  0.00    -0.354 N 
ATOM     50  C   UNL A   1      43.248  27.658  32.723  1.00  0.00     0.074 A 
ATOM     51  C   UNL A   1      44.068  26.658  32.066  1.00  0.00     0.031 C 
ATOM     52  C   UNL A   1      39.162  29.403  28.093  1.00  0.00     0.029 A 
ATOM     53  C   UNL A   1      39.148  29.811  29.493  1.00  0.00     0.049 A 
ATOM     54  H   UNL A   1      40.450  29.216  31.006  1.00  0.00     0.167 HD
ATOM     55  C   UNL A   1      43.379  28.039  34.018  1.00  0.00     0.037 A 
ATOM     56  C   UNL A   1      38.266  30.662  30.046  1.00  0.00     0.037 A 
ATOM     57  C   UNL A   1      42.536  29.011  34.673  1.00  0.00     0.049 A 
ATOM     58  C   UNL A   1      38.411  31.036  31.493  1.00  0.00     0.074 A 
ATOM     59  C   UNL A   1      42.620  29.495  35.969  1.00  0.00     0.029 A 
ATOM     60  N   UNL A   1      41.440  29.631  34.090  1.00  0.00    -0.354 N 
ATOM     61  N   UNL A   1      39.323  30.663  32.357  1.00  0.00    -0.248 NA
ATOM     62  C   UNL A   1      37.408  31.961  32.035  1.00  0.00     0.031 C 
ATOM     63  C   UNL A   1      41.545  30.367  36.184  1.00  0.00     0.029 A 
ATOM     64  C   UNL A   1      40.821  30.467  35.008  1.00  0.00     0.049 A 
ATOM     65  H   UNL A   1      41.145  29.497  33.161  1.00  0.00     0.167 HD
ATOM     66  C   UNL A   1      39.019  31.326  33.538  1.00  0.00     0.074 A 
ATOM     67  C   UNL A   1      37.852  32.141  33.271  1.00  0.00     0.031 C 
ATOM     68  C   UNL A   1      39.649  31.264  34.737  1.00  0.00     0.037 A 
BRANCH  55  69
ATOM     69  C   UNL A   1      44.481  27.402  34.815  1.00  0.00     0.057 A 
ATOM     70  C   UNL A   1      45.760  27.971  34.861  1.00  0.00     0.134 A 
ATOM     71  C   UNL A   1      44.286  26.195  35.500  1.00  0.00     0.134 A 
ATOM     72  F   UNL A   1      46.020  29.119  34.219  1.00  0.00    -0.206 F 
ATOM     73  C   UNL A   1      46.804  27.363  35.563  1.00  0.00     0.040 A 
ATOM     74  C   UNL A   1      45.316  25.590  36.224  1.00  0.00     0.040 A 
ATOM     75  F   UNL A   1      43.084  25.599  35.498  1.00  0.00    -0.206 F 
ATOM     76  C   UNL A   1      46.582  26.172  36.251  1.00  0.00     0.006 A 
ENDBRANCH  55  69
BRANCH  56  77
ATOM     77  C   UNL A   1      37.188  31.253  29.216  1.00  0.00     0.057 A 
ATOM     78  C   UNL A   1      36.044  30.522  28.882  1.00  0.00     0.134 A 
ATOM     79  C   UNL A   1      37.276  32.570  28.753  1.00  0.00     0.134 A 
ATOM     80  F   UNL A   1      35.907  29.252  29.290  1.00  0.00    -0.206 F 
ATOM     81  C   UNL A   1      35.021  31.081  28.115  1.00  0.00     0.040 A 
ATOM     82  C   UNL A   1      36.250  33.150  28.006  1.00  0.00     0.040 A 
ATOM     83  F   UNL A   1      38.344  33.323  29.055  1.00  0.00    -0.206 F 
ATOM     84  C   UNL A   1      35.119  32.402  27.683  1.00  0.00     0.006 A 
ENDBRANCH  56  77
BRANCH  68  85
ATOM     85  C   UNL A   1      39.089  32.118  35.838  1.00  0.00     0.057 A 
ATOM     86  C   UNL A   1      38.181  31.590  36.764  1.00  0.00     0.134 A 
ATOM     87  C   UNL A   1      39.462  33.461  35.994  1.00  0.00     0.134 A 
ATOM     88  F   UNL A   1      37.777  30.314  36.671  1.00  0.00    -0.206 F 
ATOM     89  C   UNL A   1      37.671  32.362  37.809  1.00  0.00     0.040 A 
ATOM     90  C   UNL A   1      38.982  34.235  37.052  1.00  0.00     0.040 A 
ATOM     91  F   UNL A   1      40.342  34.024  35.153  1.00  0.00    -0.206 F 
ATOM     92  C   UNL A   1      38.079  33.685  37.962  1.00  0.00     0.006 A 
ENDBRANCH  68  85
ENDBRANCH  42  43
ENDBRANCH  35  37
ENDBRANCH  34  35
ENDBRANCH  33  34
ENDBRANCH  32  33
ENDBRANCH  31  32
ENDBRANCH  30  31
ENDBRANCH   1  30
TORSDOF 21
ENDMDL
MODEL 2
REMARK VINA RESULT:     -10.8      0.618      5.958
REMARK SMILES CC(C)N(c1cc2c(cc1Cl)C=C(C(=O)OCCOCCOCCOC(=O)c1ccc(-c3c4nc(c(-c5c(F)cccc5F)c5ccc([nH]5)c(-c5c(F)cccc5F)c5nc(c(-c6c(F)cccc6F)c6ccc3[nH]6)C=C5)C=C4)cc1)[C@@H](C(F)(F)F)O2)C(C)C
REMARK SMILES IDX 20 1 19 2 18 3 17 4 16 5 14 6 15 7 13 8 5 9 6 10 10 11 7 12
REMARK SMILES IDX 9 13 11 14 8 15 87 16 12 17 82 18 4 19 2 20 1 21 3 22 88 23
REMARK SMILES IDX 89 24 90 25 83 26 84 27 85 28 86 29 21 30 22 31 23 32 24 33
REMARK SMILES IDX 25 34 26 35 27 36 28 37 29 38 81 39 30 40 80 41 31 42 32 43
REMARK SMILES IDX 33 44 74 45 34 46 79 47 73 48 75 49 35 50 78 51 72 52 71 53
REMARK SMILES IDX 36 55 62 56 45 57 61 58 46 59 49 60 60 61 76 62 47 63 48 64
REMARK SMILES IDX 59 66 77 67 50 68 37 69 38 70 43 71 39 72 40 73 42 74 44 75
REMARK SMILES IDX 41 76 63 77 64 78 69 79 65 80 66 81 68 82 70 83 67 84 51 85
REMARK SMILES IDX 52 86 57 87 53 88 54 89 56 90 58 91 55 92
REMARK H PARENT 75 54 49 65
REMARK Flexibility Score: inf
ROOT
ATOM      1  C   UNL A   1      40.465  21.660  26.446  1.00  0.00     0.188 C 
ENDROOT
BRANCH   1   2
ATOM      2  O   UNL A   1      39.174  21.830  25.896  1.00  0.00    -0.376 OA
BRANCH   2   3
ATOM      3  C   UNL A   1      38.424  20.724  25.421  1.00  0.00     0.202 C 
BRANCH   3   4
ATOM      4  C   UNL A   1      37.124  20.909  24.634  1.00  0.00     0.261 C 
BRANCH   4   5
ATOM      5  O   UNL A   1      36.030  21.411  25.412  1.00  0.00    -0.460 OA
BRANCH   5   6
ATOM      6  C   UNL A   1      34.806  21.048  24.964  1.00  0.00     0.338 C 
ATOM      7  O   UNL A   1      34.416  19.914  24.740  1.00  0.00    -0.246 OA
BRANCH   6   8
ATOM      8  C   UNL A   1      33.921  22.225  24.912  1.00  0.00     0.087 C 
ATOM      9  C   UNL A   1      32.197  26.897  24.093  1.00  0.00     0.060 A 
ATOM     10  C   UNL A   1      31.838  25.827  24.948  1.00  0.00     0.074 A 
ATOM     11  C   UNL A   1      33.147  26.602  23.087  1.00  0.00     0.065 A 
ATOM     12  C   UNL A   1      32.459  24.574  24.884  1.00  0.00     0.130 A 
ATOM     13  C   UNL A   1      33.737  25.332  22.996  1.00  0.00     0.034 A 
ATOM     14  Cl  UNL A   1      33.780  27.766  21.973  1.00  0.00    -0.082 Cl
ATOM     15  C   UNL A   1      33.428  24.336  23.919  1.00  0.00     0.019 A 
ATOM     16  O   UNL A   1      32.081  23.651  25.820  1.00  0.00    -0.475 OA
ATOM     17  C   UNL A   1      34.180  23.097  23.931  1.00  0.00     0.027 C 
ATOM     18  C   UNL A   1      32.840  22.411  25.942  1.00  0.00     0.316 C 
BRANCH   9  19
ATOM     19  N   UNL A   1      31.647  28.175  24.338  1.00  0.00    -0.365 N 
BRANCH  19  20
ATOM     20  C   UNL A   1      30.329  28.509  23.750  1.00  0.00     0.076 C 
ATOM     21  C   UNL A   1      30.422  29.549  22.634  1.00  0.00     0.030 C 
ATOM     22  C   UNL A   1      29.544  27.288  23.268  1.00  0.00     0.030 C 
ENDBRANCH  19  20
BRANCH  19  23
ATOM     23  C   UNL A   1      32.481  29.090  25.158  1.00  0.00     0.076 C 
ATOM     24  C   UNL A   1      31.660  30.003  26.065  1.00  0.00     0.030 C 
ATOM     25  C   UNL A   1      33.583  28.374  25.931  1.00  0.00     0.030 C 
ENDBRANCH  19  23
ENDBRANCH   9  19
BRANCH  18  26
ATOM     26  C   UNL A   1      33.378  22.299  27.377  1.00  0.00     0.430 C 
ATOM     27  F   UNL A   1      33.713  21.022  27.682  1.00  0.00    -0.167 F 
ATOM     28  F   UNL A   1      34.496  23.044  27.551  1.00  0.00    -0.167 F 
ATOM     29  F   UNL A   1      32.472  22.712  28.292  1.00  0.00    -0.167 F 
ENDBRANCH  18  26
ENDBRANCH   6   8
ENDBRANCH   5   6
ENDBRANCH   4   5
ENDBRANCH   3   4
ENDBRANCH   2   3
ENDBRANCH   1   2
BRANCH   1  30
ATOM     30  C   UNL A   1      41.291  20.382  26.188  1.00  0.00     0.188 C 
BRANCH  30  31
ATOM     31  O   UNL A   1      42.666  20.320  26.508  1.00  0.00    -0.376 OA
BRANCH  31  32
ATOM     32  C   UNL A   1      43.637  20.540  25.495  1.00  0.00     0.202 C 
BRANCH  32  33
ATOM     33  C   UNL A   1      43.994  21.958  25.042  1.00  0.00     0.261 C 
BRANCH  33  34
ATOM     34  O   UNL A   1      43.655  22.974  25.993  1.00  0.00    -0.460 OA
BRANCH  34  35
ATOM     35  C   UNL A   1      43.971  24.240  25.625  1.00  0.00     0.338 C 
ATOM     36  O   UNL A   1      44.547  24.596  24.611  1.00  0.00    -0.246 OA
BRANCH  35  37
ATOM     37  C   UNL A   1      43.325  25.183  26.555  1.00  0.00     0.060 A 
ATOM     38  C   UNL A   1      42.344  24.749  27.447  1.00  0.00     0.016 A 
ATOM     39  C   UNL A   1      43.723  26.526  26.528  1.00  0.00     0.016 A 
ATOM     40  C   UNL A   1      41.782  25.662  28.341  1.00  0.00     0.010 A 
ATOM     41  C   UNL A   1      43.152  27.441  27.413  1.00  0.00     0.010 A 
ATOM     42  C   UNL A   1      42.196  27.008  28.342  1.00  0.00    -0.014 A 
BRANCH  42  43
ATOM     43  C   UNL A   1      41.755  27.905  29.435  1.00  0.00     0.031 A 
ATOM     44  C   UNL A   1      40.555  28.790  29.303  1.00  0.00     0.074 A 
ATOM     45  C   UNL A   1      42.470  27.899  30.576  1.00  0.00     0.049 A 
ATOM     46  N   UNL A   1      39.972  29.521  30.220  1.00  0.00    -0.248 NA
ATOM     47  C   UNL A   1      39.935  28.874  27.974  1.00  0.00     0.031 C 
ATOM     48  C   UNL A   1      43.685  27.114  30.800  1.00  0.00     0.029 A 
ATOM     49  N   UNL A   1      42.274  28.562  31.758  1.00  0.00    -0.354 N 
ATOM     50  C   UNL A   1      38.896  30.131  29.591  1.00  0.00     0.074 A 
ATOM     51  C   UNL A   1      38.942  29.727  28.199  1.00  0.00     0.031 C 
ATOM     52  C   UNL A   1      44.110  27.317  32.055  1.00  0.00     0.029 A 
ATOM     53  C   UNL A   1      43.207  28.253  32.716  1.00  0.00     0.049 A 
ATOM     54  H   UNL A   1      41.536  29.197  31.906  1.00  0.00     0.167 HD
ATOM     55  C   UNL A   1      37.950  30.937  30.134  1.00  0.00     0.037 A 
ATOM     56  C   UNL A   1      43.312  28.666  33.991  1.00  0.00     0.037 A 
ATOM     57  C   UNL A   1      37.930  31.362  31.513  1.00  0.00     0.049 A 
ATOM     58  C   UNL A   1      42.271  29.590  34.554  1.00  0.00     0.074 A 
ATOM     59  C   UNL A   1      36.988  32.140  32.166  1.00  0.00     0.029 A 
ATOM     60  N   UNL A   1      38.912  31.063  32.448  1.00  0.00    -0.354 N 
ATOM     61  N   UNL A   1      41.198  30.076  33.980  1.00  0.00    -0.248 NA
ATOM     62  C   UNL A   1      42.453  30.011  35.949  1.00  0.00     0.031 C 
ATOM     63  C   UNL A   1      37.426  32.354  33.480  1.00  0.00     0.029 A 
ATOM     64  C   UNL A   1      38.614  31.666  33.661  1.00  0.00     0.049 A 
ATOM     65  H   UNL A   1      39.703  30.503  32.276  1.00  0.00     0.167 HD
ATOM     66  C   UNL A   1      40.564  30.840  34.950  1.00  0.00     0.074 A 
ATOM     67  C   UNL A   1      41.361  30.732  36.154  1.00  0.00     0.031 C 
ATOM     68  C   UNL A   1      39.423  31.567  34.852  1.00  0.00     0.037 A 
BRANCH  55  69
ATOM     69  C   UNL A   1      36.848  31.412  29.229  1.00  0.00     0.057 A 
ATOM     70  C   UNL A   1      36.818  32.731  28.760  1.00  0.00     0.134 A 
ATOM     71  C   UNL A   1      35.788  30.572  28.863  1.00  0.00     0.134 A 
ATOM     72  F   UNL A   1      37.794  33.592  29.083  1.00  0.00    -0.206 F 
ATOM     73  C   UNL A   1      35.774  33.195  27.957  1.00  0.00     0.040 A 
ATOM     74  C   UNL A   1      34.752  31.019  28.040  1.00  0.00     0.040 A 
ATOM     75  F   UNL A   1      35.757  29.296  29.276  1.00  0.00    -0.206 F 
ATOM     76  C   UNL A   1      34.741  32.337  27.589  1.00  0.00     0.006 A 
ENDBRANCH  55  69
BRANCH  56  77
ATOM     77  C   UNL A   1      44.428  28.177  34.838  1.00  0.00     0.057 A 
ATOM     78  C   UNL A   1      45.618  28.899  34.962  1.00  0.00     0.134 A 
ATOM     79  C   UNL A   1      44.316  26.980  35.553  1.00  0.00     0.134 A 
ATOM     80  F   UNL A   1      45.787  30.049  34.294  1.00  0.00    -0.206 F 
ATOM     81  C   UNL A   1      46.663  28.448  35.770  1.00  0.00     0.040 A 
ATOM     82  C   UNL A   1      45.342  26.529  36.384  1.00  0.00     0.040 A 
ATOM     83  F   UNL A   1      43.191  26.253  35.483  1.00  0.00    -0.206 F 
ATOM     84  C   UNL A   1      46.522  27.265  36.492  1.00  0.00     0.006 A 
ENDBRANCH  56  77
BRANCH  68  85
ATOM     85  C   UNL A   1      38.972  32.284  36.091  1.00  0.00     0.057 A 
ATOM     86  C   UNL A   1      38.169  31.640  37.040  1.00  0.00     0.134 A 
ATOM     87  C   UNL A   1      39.347  33.609  36.357  1.00  0.00     0.134 A 
ATOM     88  F   UNL A   1      37.768  30.374  36.848  1.00  0.00    -0.206 F 
ATOM     89  C   UNL A   1      37.762  32.283  38.211  1.00  0.00     0.040 A 
ATOM     90  C   UNL A   1      38.972  34.253  37.537  1.00  0.00     0.040 A 
ATOM     91  F   UNL A   1      40.131  34.278  35.499  1.00  0.00    -0.206 F 
ATOM     92  C   UNL A   1      38.173  33.589  38.467  1.00  0.00     0.006 A 
ENDBRANCH  68  85
ENDBRANCH  42  43
ENDBRANCH  35  37
ENDBRANCH  34  35
ENDBRANCH  33  34
ENDBRANCH  32  33
ENDBRANCH  31  32
ENDBRANCH  30  31
ENDBRANCH   1  30
TORSDOF 21
ENDMDL
MODEL 3
REMARK VINA RESULT:     -10.2      4.781     10.152
REMARK SMILES CC(C)N(c1cc2c(cc1Cl)C=C(C(=O)OCCOCCOCCOC(=O)c1ccc(-c3c4nc(c(-c5c(F)cccc5F)c5ccc([nH]5)c(-c5c(F)cccc5F)c5nc(c(-c6c(F)cccc6F)c6ccc3[nH]6)C=C5)C=C4)cc1)[C@@H](C(F)(F)F)O2)C(C)C
REMARK SMILES IDX 20 1 19 2 18 3 17 4 16 5 14 6 15 7 13 8 5 9 6 10 10 11 7 12
REMARK SMILES IDX 9 13 11 14 8 15 87 16 12 17 82 18 4 19 2 20 1 21 3 22 88 23
REMARK SMILES IDX 89 24 90 25 83 26 84 27 85 28 86 29 21 30 22 31 23 32 24 33
REMARK SMILES IDX 25 34 26 35 27 36 28 37 29 38 81 39 30 40 80 41 31 42 32 43
REMARK SMILES IDX 33 44 74 45 34 46 79 47 73 48 75 49 35 50 78 51 72 52 71 53
REMARK SMILES IDX 36 55 62 56 45 57 61 58 46 59 49 60 60 61 76 62 47 63 48 64
REMARK SMILES IDX 59 66 77 67 50 68 37 69 38 70 43 71 39 72 40 73 42 74 44 75
REMARK SMILES IDX 41 76 63 77 64 78 69 79 65 80 66 81 68 82 70 83 67 84 51 85
REMARK SMILES IDX 52 86 57 87 53 88 54 89 56 90 58 91 55 92
REMARK H PARENT 75 54 49 65
REMARK Flexibility Score: inf
ROOT
ATOM      1  C   UNL A   1      34.083  34.053  27.921  1.00  0.00     0.188 C 
ENDROOT
BRANCH   1   2
ATOM      2  O   UNL A   1      33.204  32.952  27.810  1.00  0.00    -0.376 OA
BRANCH   2   3
ATOM      3  C   UNL A   1      33.650  31.697  27.322  1.00  0.00     0.202 C 
BRANCH   3   4
ATOM      4  C   UNL A   1      32.723  30.482  27.253  1.00  0.00     0.261 C 
BRANCH   4   5
ATOM      5  O   UNL A   1      33.080  29.524  26.249  1.00  0.00    -0.460 OA
BRANCH   5   6
ATOM      6  C   UNL A   1      32.067  29.164  25.427  1.00  0.00     0.338 C 
ATOM      7  O   UNL A   1      31.183  29.886  24.995  1.00  0.00    -0.246 OA
BRANCH   6   8
ATOM      8  C   UNL A   1      32.249  27.770  24.987  1.00  0.00     0.087 C 
ATOM      9  C   UNL A   1      33.662  22.926  24.861  1.00  0.00     0.060 A 
ATOM     10  C   UNL A   1      33.271  23.886  23.896  1.00  0.00     0.074 A 
ATOM     11  C   UNL A   1      33.475  23.289  26.216  1.00  0.00     0.065 A 
ATOM     12  C   UNL A   1      32.828  25.167  24.249  1.00  0.00     0.130 A 
ATOM     13  C   UNL A   1      32.989  24.558  26.567  1.00  0.00     0.034 A 
ATOM     14  Cl  UNL A   1      33.937  22.302  27.561  1.00  0.00    -0.082 Cl
ATOM     15  C   UNL A   1      32.710  25.509  25.588  1.00  0.00     0.019 A 
ATOM     16  O   UNL A   1      32.562  26.029  23.222  1.00  0.00    -0.475 OA
ATOM     17  C   UNL A   1      32.392  26.871  25.968  1.00  0.00     0.027 C 
ATOM     18  C   UNL A   1      32.307  27.435  23.522  1.00  0.00     0.316 C 
BRANCH   9  19
ATOM     19  N   UNL A   1      34.260  21.725  24.420  1.00  0.00    -0.365 N 
BRANCH  19  20
ATOM     20  C   UNL A   1      33.389  20.569  24.102  1.00  0.00     0.076 C 
ATOM     21  C   UNL A   1      32.890  19.840  25.350  1.00  0.00     0.030 C 
ATOM     22  C   UNL A   1      32.212  20.918  23.191  1.00  0.00     0.030 C 
ENDBRANCH  19  20
BRANCH  19  23
ATOM     23  C   UNL A   1      35.743  21.733  24.344  1.00  0.00     0.076 C 
ATOM     24  C   UNL A   1      36.338  23.138  24.355  1.00  0.00     0.030 C 
ATOM     25  C   UNL A   1      36.406  20.833  25.382  1.00  0.00     0.030 C 
ENDBRANCH  19  23
ENDBRANCH   9  19
BRANCH  18  26
ATOM     26  C   UNL A   1      33.333  28.296  22.768  1.00  0.00     0.430 C 
ATOM     27  F   UNL A   1      32.799  29.479  22.385  1.00  0.00    -0.167 F 
ATOM     28  F   UNL A   1      34.406  28.587  23.543  1.00  0.00    -0.167 F 
ATOM     29  F   UNL A   1      33.795  27.677  21.657  1.00  0.00    -0.167 F 
ENDBRANCH  18  26
ENDBRANCH   6   8
ENDBRANCH   5   6
ENDBRANCH   4   5
ENDBRANCH   3   4
ENDBRANCH   2   3
ENDBRANCH   1   2
BRANCH   1  30
ATOM     30  C   UNL A   1      35.279  34.034  28.897  1.00  0.00     0.188 C 
BRANCH  30  31
ATOM     31  O   UNL A   1      35.280  33.203  30.040  1.00  0.00    -0.376 OA
BRANCH  31  32
ATOM     32  C   UNL A   1      34.347  33.438  31.084  1.00  0.00     0.202 C 
BRANCH  32  33
ATOM     33  C   UNL A   1      34.599  32.909  32.498  1.00  0.00     0.261 C 
BRANCH  33  34
ATOM     34  O   UNL A   1      35.657  31.946  32.579  1.00  0.00    -0.460 OA
BRANCH  34  35
ATOM     35  C   UNL A   1      36.885  32.456  32.841  1.00  0.00     0.338 C 
ATOM     36  O   UNL A   1      37.186  33.258  33.709  1.00  0.00    -0.246 OA
BRANCH  35  37
ATOM     37  C   UNL A   1      37.884  31.733  32.034  1.00  0.00     0.060 A 
ATOM     38  C   UNL A   1      38.018  31.984  30.668  1.00  0.00     0.016 A 
ATOM     39  C   UNL A   1      38.702  30.791  32.672  1.00  0.00     0.016 A 
ATOM     40  C   UNL A   1      39.002  31.310  29.944  1.00  0.00     0.010 A 
ATOM     41  C   UNL A   1      39.677  30.108  31.944  1.00  0.00     0.010 A 
ATOM     42  C   UNL A   1      39.849  30.383  30.581  1.00  0.00    -0.014 A 
BRANCH  42  43
ATOM     43  C   UNL A   1      41.021  29.846  29.851  1.00  0.00     0.031 A 
ATOM     44  C   UNL A   1      41.059  28.445  29.327  1.00  0.00     0.074 A 
ATOM     45  C   UNL A   1      42.069  30.669  29.661  1.00  0.00     0.049 A 
ATOM     46  N   UNL A   1      41.956  27.884  28.554  1.00  0.00    -0.248 NA
ATOM     47  C   UNL A   1      39.960  27.557  29.726  1.00  0.00     0.031 C 
ATOM     48  C   UNL A   1      42.163  32.039  30.169  1.00  0.00     0.029 A 
ATOM     49  N   UNL A   1      43.245  30.479  28.983  1.00  0.00    -0.354 N 
ATOM     50  C   UNL A   1      41.517  26.584  28.346  1.00  0.00     0.074 A 
ATOM     51  C   UNL A   1      40.302  26.424  29.122  1.00  0.00     0.031 C 
ATOM     52  C   UNL A   1      43.321  32.578  29.759  1.00  0.00     0.029 A 
ATOM     53  C   UNL A   1      44.052  31.589  28.974  1.00  0.00     0.049 A 
ATOM     54  H   UNL A   1      43.486  29.631  28.547  1.00  0.00     0.167 HD
ATOM     55  C   UNL A   1      42.069  25.624  27.563  1.00  0.00     0.037 A 
ATOM     56  C   UNL A   1      45.243  31.792  28.383  1.00  0.00     0.037 A 
ATOM     57  C   UNL A   1      43.297  25.780  26.821  1.00  0.00     0.049 A 
ATOM     58  C   UNL A   1      45.850  30.697  27.556  1.00  0.00     0.074 A 
ATOM     59  C   UNL A   1      43.912  24.880  25.966  1.00  0.00     0.029 A 
ATOM     60  N   UNL A   1      44.112  26.903  26.864  1.00  0.00    -0.354 N 
ATOM     61  N   UNL A   1      45.374  29.508  27.278  1.00  0.00    -0.248 NA
ATOM     62  C   UNL A   1      47.156  30.981  26.949  1.00  0.00     0.031 C 
ATOM     63  C   UNL A   1      45.122  25.439  25.532  1.00  0.00     0.029 A 
ATOM     64  C   UNL A   1      45.237  26.707  26.076  1.00  0.00     0.049 A 
ATOM     65  H   UNL A   1      43.919  27.720  27.377  1.00  0.00     0.167 HD
ATOM     66  C   UNL A   1      46.310  28.911  26.445  1.00  0.00     0.074 A 
ATOM     67  C   UNL A   1      47.369  29.879  26.244  1.00  0.00     0.031 C 
ATOM     68  C   UNL A   1      46.294  27.671  25.895  1.00  0.00     0.037 A 
BRANCH  55  69
ATOM     69  C   UNL A   1      41.344  24.312  27.467  1.00  0.00     0.057 A 
ATOM     70  C   UNL A   1      41.804  23.180  28.152  1.00  0.00     0.134 A 
ATOM     71  C   UNL A   1      40.213  24.158  26.653  1.00  0.00     0.134 A 
ATOM     72  F   UNL A   1      42.888  23.253  28.938  1.00  0.00    -0.206 F 
ATOM     73  C   UNL A   1      41.164  21.945  28.033  1.00  0.00     0.040 A 
ATOM     74  C   UNL A   1      39.551  22.933  26.545  1.00  0.00     0.040 A 
ATOM     75  F   UNL A   1      39.719  25.203  25.972  1.00  0.00    -0.206 F 
ATOM     76  C   UNL A   1      40.030  21.820  27.233  1.00  0.00     0.006 A 
ENDBRANCH  55  69
BRANCH  56  77
ATOM     77  C   UNL A   1      45.924  33.103  28.522  1.00  0.00     0.057 A 
ATOM     78  C   UNL A   1      46.836  33.344  29.554  1.00  0.00     0.134 A 
ATOM     79  C   UNL A   1      45.684  34.137  27.611  1.00  0.00     0.134 A 
ATOM     80  F   UNL A   1      47.099  32.394  30.462  1.00  0.00    -0.206 F 
ATOM     81  C   UNL A   1      47.489  34.571  29.676  1.00  0.00     0.040 A 
ATOM     82  C   UNL A   1      46.348  35.361  27.706  1.00  0.00     0.040 A 
ATOM     83  F   UNL A   1      44.830  33.957  26.592  1.00  0.00    -0.206 F 
ATOM     84  C   UNL A   1      47.252  35.580  28.744  1.00  0.00     0.006 A 
ENDBRANCH  56  77
BRANCH  68  85
ATOM     85  C   UNL A   1      47.455  27.310  25.014  1.00  0.00     0.057 A 
ATOM     86  C   UNL A   1      47.462  27.659  23.658  1.00  0.00     0.134 A 
ATOM     87  C   UNL A   1      48.578  26.632  25.511  1.00  0.00     0.134 A 
ATOM     88  F   UNL A   1      46.418  28.303  23.115  1.00  0.00    -0.206 F 
ATOM     89  C   UNL A   1      48.543  27.354  22.830  1.00  0.00     0.040 A 
ATOM     90  C   UNL A   1      49.678  26.348  24.700  1.00  0.00     0.040 A 
ATOM     91  F   UNL A   1      48.645  26.286  26.805  1.00  0.00    -0.206 F 
ATOM     92  C   UNL A   1      49.661  26.707  23.353  1.00  0.00     0.006 A 
ENDBRANCH  68  85
ENDBRANCH  42  43
ENDBRANCH  35  37
ENDBRANCH  34  35
ENDBRANCH  33  34
ENDBRANCH  32  33
ENDBRANCH  31  32
ENDBRANCH  30  31
ENDBRANCH   1  30
TORSDOF 21
ENDMDL
