MODEL 1
REMARK VINA RESULT:      -9.4      0.000      0.000
REMARK SMILES CC[C@@H](C)[C@H](NC(=O)[C@H](C)N1C(=O)N2CCC3=c4cc(OC)ccc4=N[C@H]3[C@@]2(C)C1=O)C(=O)OCCOCCOCCOC(=O)c1ccc(-c2c3nc(c(-c4c(F)cccc4F)c4ccc([nH]4)c(-c4c(F)cccc4F)c4nc(c(-c5c(F)cccc5F)c5ccc2[nH]5)C=C4)C=C3)cc1
REMARK SMILES IDX 38 1 37 2 36 3 35 4 34 5 32 6 33 7 5 8 3 9 4 10 2 11 1 12
REMARK SMILES IDX 6 13 7 14 8 16 9 17 10 18 11 19 12 20 30 21 14 22 13 23
REMARK SMILES IDX 28 24 31 25 15 26 27 27 29 28 16 29 17 30 26 31 18 32 25 33
REMARK SMILES IDX 19 34 24 35 20 36 23 37 21 38 22 39 39 40 40 41 41 42 42 43
REMARK SMILES IDX 43 44 44 45 45 46 46 47 47 48 99 49 48 50 98 51 49 52 50 53
REMARK SMILES IDX 51 54 92 55 52 56 97 57 91 58 93 59 53 60 96 61 90 62 89 63
REMARK SMILES IDX 54 65 80 66 63 67 79 68 64 69 67 70 78 71 94 72 65 73 66 74
REMARK SMILES IDX 77 76 95 77 68 78 55 79 56 80 61 81 57 82 58 83 60 84 62 85
REMARK SMILES IDX 59 86 81 87 82 88 87 89 83 90 84 91 86 92 88 93 85 94 69 95
REMARK SMILES IDX 70 96 75 97 71 98 72 99 74 100 76 101 73 102
REMARK H PARENT 6 15 93 64 67 75
REMARK Flexibility Score: inf
ROOT
ATOM      1  C   UNL A   1      38.007  32.793  33.014  1.00  0.00     0.188 C 
ENDROOT
BRANCH   1   2
ATOM      2  O   UNL A   1      39.062  31.925  33.424  1.00  0.00    -0.376 OA
BRANCH   2   3
ATOM      3  C   UNL A   1      38.849  30.546  33.685  1.00  0.00     0.202 C 
BRANCH   3   4
ATOM      4  C   UNL A   1      40.120  29.577  33.636  1.00  0.00     0.261 C 
BRANCH   4   5
ATOM      5  O   UNL A   1      40.740  28.664  35.090  1.00  0.00    -0.462 OA
BRANCH   5   6
ATOM      6  C   UNL A   1      42.439  27.938  35.770  1.00  0.00     0.328 C 
ATOM      7  O   UNL A   1      42.758  27.962  36.978  1.00  0.00    -0.250 OA
BRANCH   6   8
ATOM      8  C   UNL A   1      43.441  26.833  34.704  1.00  0.00     0.195 C 
BRANCH   8   9
ATOM      9  C   UNL A   1      44.009  27.592  33.447  1.00  0.00     0.019 C 
ATOM     10  C   UNL A   1      43.686  26.943  32.108  1.00  0.00     0.010 C 
BRANCH   9  11
ATOM     11  C   UNL A   1      45.498  28.048  33.551  1.00  0.00     0.002 C 
ATOM     12  C   UNL A   1      46.119  28.075  34.934  1.00  0.00     0.004 C 
ENDBRANCH   9  11
ENDBRANCH   8   9
BRANCH   8  13
ATOM     13  N   UNL A   1      43.199  25.413  34.214  1.00  0.00    -0.341 N 
ATOM     14  C   UNL A   1      44.063  24.349  34.149  1.00  0.00     0.243 C 
ATOM     15  H   UNL A   1      42.286  25.229  33.896  1.00  0.00     0.164 HD
ATOM     16  O   UNL A   1      43.745  23.329  33.539  1.00  0.00    -0.273 OA
BRANCH  14  17
ATOM     17  C   UNL A   1      45.392  24.498  34.841  1.00  0.00     0.181 C 
ATOM     18  C   UNL A   1      46.565  24.104  33.908  1.00  0.00     0.042 C 
BRANCH  17  19
ATOM     19  N   UNL A   1      45.214  23.594  35.947  1.00  0.00    -0.250 N 
ATOM     20  C   UNL A   1      45.651  21.830  35.530  1.00  0.00     0.328 C 
ATOM     21  C   UNL A   1      45.244  23.985  37.781  1.00  0.00     0.259 C 
ATOM     22  N   UNL A   1      45.866  21.012  37.159  1.00  0.00    -0.307 N 
ATOM     23  O   UNL A   1      45.618  21.275  34.446  1.00  0.00    -0.248 OA
ATOM     24  C   UNL A   1      46.191  22.248  38.546  1.00  0.00     0.147 C 
ATOM     25  O   UNL A   1      44.474  24.816  38.236  1.00  0.00    -0.271 OA
ATOM     26  C   UNL A   1      46.172  19.599  37.422  1.00  0.00     0.127 C 
ATOM     27  C   UNL A   1      47.999  21.820  38.068  1.00  0.00     0.168 C 
ATOM     28  C   UNL A   1      45.929  21.815  39.980  1.00  0.00     0.048 C 
ATOM     29  C   UNL A   1      47.546  19.330  38.156  1.00  0.00     0.055 C 
ATOM     30  C   UNL A   1      48.638  20.407  37.952  1.00  0.00    -0.032 C 
ATOM     31  N   UNL A   1      48.143  22.001  36.512  1.00  0.00    -0.274 NA
ATOM     32  C   UNL A   1      49.474  20.256  36.854  1.00  0.00     0.005 A 
ATOM     33  C   UNL A   1      48.404  20.823  36.041  1.00  0.00     0.066 A 
ATOM     34  C   UNL A   1      50.612  21.054  36.151  1.00  0.00     0.056 A 
ATOM     35  C   UNL A   1      48.338  20.312  34.668  1.00  0.00     0.032 A 
ATOM     36  C   UNL A   1      50.529  21.274  34.785  1.00  0.00     0.119 A 
ATOM     37  C   UNL A   1      49.462  20.624  34.021  1.00  0.00     0.048 A 
BRANCH  36  38
ATOM     38  O   UNL A   1      51.282  22.092  33.981  1.00  0.00    -0.497 OA
ATOM     39  C   UNL A   1      52.037  21.473  32.937  1.00  0.00     0.278 C 
ENDBRANCH  36  38
ENDBRANCH  17  19
ENDBRANCH  14  17
ENDBRANCH   8  13
ENDBRANCH   6   8
ENDBRANCH   5   6
ENDBRANCH   4   5
ENDBRANCH   3   4
ENDBRANCH   2   3
ENDBRANCH   1   2
BRANCH   1  40
ATOM     40  C   UNL A   1      37.151  32.448  31.792  1.00  0.00     0.188 C 
BRANCH  40  41
ATOM     41  O   UNL A   1      35.750  32.463  32.044  1.00  0.00    -0.376 OA
BRANCH  41  42
ATOM     42  C   UNL A   1      34.905  32.645  30.918  1.00  0.00     0.202 C 
BRANCH  42  43
ATOM     43  C   UNL A   1      35.709  32.442  29.634  1.00  0.00     0.261 C 
BRANCH  43  44
ATOM     44  O   UNL A   1      34.810  32.099  28.570  1.00  0.00    -0.460 OA
BRANCH  44  45
ATOM     45  C   UNL A   1      34.808  30.786  28.212  1.00  0.00     0.338 C 
ATOM     46  O   UNL A   1      33.908  30.187  27.648  1.00  0.00    -0.246 OA
BRANCH  45  47
ATOM     47  C   UNL A   1      36.156  30.214  28.463  1.00  0.00     0.060 A 
ATOM     48  C   UNL A   1      37.158  30.281  27.489  1.00  0.00     0.016 A 
ATOM     49  C   UNL A   1      36.399  29.533  29.665  1.00  0.00     0.016 A 
ATOM     50  C   UNL A   1      38.385  29.667  27.711  1.00  0.00     0.010 A 
ATOM     51  C   UNL A   1      37.641  28.931  29.898  1.00  0.00     0.010 A 
ATOM     52  C   UNL A   1      38.646  29.012  28.926  1.00  0.00    -0.014 A 
BRANCH  52  53
ATOM     53  C   UNL A   1      40.049  28.640  29.214  1.00  0.00     0.031 A 
ATOM     54  C   UNL A   1      40.640  27.338  28.779  1.00  0.00     0.074 A 
ATOM     55  C   UNL A   1      40.811  29.582  29.800  1.00  0.00     0.049 A 
ATOM     56  N   UNL A   1      41.900  26.987  28.748  1.00  0.00    -0.248 NA
ATOM     57  C   UNL A   1      39.709  26.298  28.323  1.00  0.00     0.031 C 
ATOM     58  C   UNL A   1      40.319  30.878  30.275  1.00  0.00     0.029 A 
ATOM     59  N   UNL A   1      42.155  29.621  30.054  1.00  0.00    -0.354 N 
ATOM     60  C   UNL A   1      41.923  25.690  28.255  1.00  0.00     0.074 A 
ATOM     61  C   UNL A   1      40.543  25.305  28.031  1.00  0.00     0.031 C 
ATOM     62  C   UNL A   1      41.355  31.607  30.712  1.00  0.00     0.029 A 
ATOM     63  C   UNL A   1      42.574  30.821  30.574  1.00  0.00     0.049 A 
ATOM     64  H   UNL A   1      42.761  28.865  29.881  1.00  0.00     0.167 HD
ATOM     65  C   UNL A   1      43.001  24.906  28.008  1.00  0.00     0.037 A 
ATOM     66  C   UNL A   1      43.809  31.246  30.892  1.00  0.00     0.037 A 
ATOM     67  C   UNL A   1      44.367  25.301  28.257  1.00  0.00     0.049 A 
ATOM     68  C   UNL A   1      44.974  30.335  30.639  1.00  0.00     0.074 A 
ATOM     69  C   UNL A   1      45.532  24.601  27.987  1.00  0.00     0.029 A 
ATOM     70  N   UNL A   1      44.753  26.493  28.856  1.00  0.00    -0.354 N 
ATOM     71  N   UNL A   1      44.994  29.155  30.071  1.00  0.00    -0.248 NA
ATOM     72  C   UNL A   1      46.290  30.823  31.069  1.00  0.00     0.031 C 
ATOM     73  C   UNL A   1      46.614  25.341  28.477  1.00  0.00     0.029 A 
ATOM     74  C   UNL A   1      46.132  26.529  29.002  1.00  0.00     0.049 A 
ATOM     75  H   UNL A   1      44.138  27.209  29.135  1.00  0.00     0.167 HD
ATOM     76  C   UNL A   1      46.325  28.766  30.054  1.00  0.00     0.074 A 
ATOM     77  C   UNL A   1      47.084  29.851  30.643  1.00  0.00     0.031 C 
ATOM     78  C   UNL A   1      46.872  27.613  29.598  1.00  0.00     0.037 A 
BRANCH  65  79
ATOM     79  C   UNL A   1      42.757  23.532  27.454  1.00  0.00     0.057 A 
ATOM     80  C   UNL A   1      42.770  23.305  26.072  1.00  0.00     0.134 A 
ATOM     81  C   UNL A   1      42.435  22.448  28.281  1.00  0.00     0.134 A 
ATOM     82  F   UNL A   1      43.058  24.302  25.221  1.00  0.00    -0.206 F 
ATOM     83  C   UNL A   1      42.465  22.055  25.531  1.00  0.00     0.040 A 
ATOM     84  C   UNL A   1      42.152  21.186  27.753  1.00  0.00     0.040 A 
ATOM     85  F   UNL A   1      42.406  22.594  29.614  1.00  0.00    -0.206 F 
ATOM     86  C   UNL A   1      42.158  20.988  26.374  1.00  0.00     0.006 A 
ENDBRANCH  65  79
BRANCH  66  87
ATOM     87  C   UNL A   1      44.009  32.597  31.468  1.00  0.00     0.057 A 
ATOM     88  C   UNL A   1      44.060  32.796  32.852  1.00  0.00     0.134 A 
ATOM     89  C   UNL A   1      44.182  33.718  30.648  1.00  0.00     0.134 A 
ATOM     90  F   UNL A   1      43.890  31.764  33.692  1.00  0.00    -0.206 F 
ATOM     91  C   UNL A   1      44.279  34.059  33.402  1.00  0.00     0.040 A 
ATOM     92  C   UNL A   1      44.432  34.982  31.183  1.00  0.00     0.040 A 
ATOM     93  F   UNL A   1      44.155  33.590  29.312  1.00  0.00    -0.206 F 
ATOM     94  C   UNL A   1      44.479  35.154  32.565  1.00  0.00     0.006 A 
ENDBRANCH  66  87
BRANCH  78  95
ATOM     95  C   UNL A   1      48.363  27.488  29.707  1.00  0.00     0.057 A 
ATOM     96  C   UNL A   1      49.198  27.946  28.679  1.00  0.00     0.134 A 
ATOM     97  C   UNL A   1      48.978  26.928  30.836  1.00  0.00     0.134 A 
ATOM     98  F   UNL A   1      48.676  28.488  27.568  1.00  0.00    -0.206 F 
ATOM     99  C   UNL A   1      50.587  27.857  28.773  1.00  0.00     0.040 A 
ATOM    100  C   UNL A   1      50.367  26.863  30.955  1.00  0.00     0.040 A 
ATOM    101  F   UNL A   1      48.237  26.489  31.865  1.00  0.00    -0.206 F 
ATOM    102  C   UNL A   1      51.175  27.325  29.917  1.00  0.00     0.006 A 
ENDBRANCH  78  95
ENDBRANCH  52  53
ENDBRANCH  45  47
ENDBRANCH  44  45
ENDBRANCH  43  44
ENDBRANCH  42  43
ENDBRANCH  41  42
ENDBRANCH  40  41
ENDBRANCH   1  40
TORSDOF 23
ENDMDL
MODEL 2
REMARK VINA RESULT:      -9.1      3.685      9.347
REMARK SMILES CC[C@@H](C)[C@H](NC(=O)[C@H](C)N1C(=O)N2CCC3=c4cc(OC)ccc4=N[C@H]3[C@@]2(C)C1=O)C(=O)OCCOCCOCCOC(=O)c1ccc(-c2c3nc(c(-c4c(F)cccc4F)c4ccc([nH]4)c(-c4c(F)cccc4F)c4nc(c(-c5c(F)cccc5F)c5ccc2[nH]5)C=C4)C=C3)cc1
REMARK SMILES IDX 38 1 37 2 36 3 35 4 34 5 32 6 33 7 5 8 3 9 4 10 2 11 1 12
REMARK SMILES IDX 6 13 7 14 8 16 9 17 10 18 11 19 12 20 30 21 14 22 13 23
REMARK SMILES IDX 28 24 31 25 15 26 27 27 29 28 16 29 17 30 26 31 18 32 25 33
REMARK SMILES IDX 19 34 24 35 20 36 23 37 21 38 22 39 39 40 40 41 41 42 42 43
REMARK SMILES IDX 43 44 44 45 45 46 46 47 47 48 99 49 48 50 98 51 49 52 50 53
REMARK SMILES IDX 51 54 92 55 52 56 97 57 91 58 93 59 53 60 96 61 90 62 89 63
REMARK SMILES IDX 54 65 80 66 63 67 79 68 64 69 67 70 78 71 94 72 65 73 66 74
REMARK SMILES IDX 77 76 95 77 68 78 55 79 56 80 61 81 57 82 58 83 60 84 62 85
REMARK SMILES IDX 59 86 81 87 82 88 87 89 83 90 84 91 86 92 88 93 85 94 69 95
REMARK SMILES IDX 70 96 75 97 71 98 72 99 74 100 76 101 73 102
REMARK H PARENT 6 15 93 64 67 75
REMARK Flexibility Score: inf
ROOT
ATOM      1  C   UNL A   1      34.107  24.508  24.666  1.00  0.00     0.188 C 
ENDROOT
BRANCH   1   2
ATOM      2  O   UNL A   1      34.247  25.927  24.721  1.00  0.00    -0.376 OA
BRANCH   2   3
ATOM      3  C   UNL A   1      33.649  26.706  25.745  1.00  0.00     0.202 C 
BRANCH   3   4
ATOM      4  C   UNL A   1      33.557  28.286  25.517  1.00  0.00     0.261 C 
BRANCH   4   5
ATOM      5  O   UNL A   1      34.159  29.511  26.730  1.00  0.00    -0.462 OA
BRANCH   5   6
ATOM      6  C   UNL A   1      35.770  29.863  27.804  1.00  0.00     0.328 C 
ATOM      7  O   UNL A   1      36.890  30.095  27.300  1.00  0.00    -0.250 OA
BRANCH   6   8
ATOM      8  C   UNL A   1      35.599  30.265  29.585  1.00  0.00     0.195 C 
BRANCH   8   9
ATOM      9  C   UNL A   1      35.691  31.815  29.844  1.00  0.00     0.019 C 
ATOM     10  C   UNL A   1      35.717  32.217  31.312  1.00  0.00     0.010 C 
BRANCH   9  11
ATOM     11  C   UNL A   1      34.725  32.699  28.995  1.00  0.00     0.002 C 
ATOM     12  C   UNL A   1      35.313  33.934  28.338  1.00  0.00     0.004 C 
ENDBRANCH   9  11
ENDBRANCH   8   9
BRANCH   8  13
ATOM     13  N   UNL A   1      36.214  29.634  30.825  1.00  0.00    -0.341 N 
ATOM     14  C   UNL A   1      37.505  29.231  31.056  1.00  0.00     0.243 C 
ATOM     15  H   UNL A   1      35.592  29.493  31.575  1.00  0.00     0.164 HD
ATOM     16  O   UNL A   1      37.776  28.559  32.050  1.00  0.00    -0.273 OA
BRANCH  14  17
ATOM     17  C   UNL A   1      38.544  29.641  30.046  1.00  0.00     0.181 C 
ATOM     18  C   UNL A   1      38.948  28.454  29.135  1.00  0.00     0.042 C 
BRANCH  17  19
ATOM     19  N   UNL A   1      39.602  30.075  30.921  1.00  0.00    -0.250 N 
ATOM     20  C   UNL A   1      41.002  28.849  31.045  1.00  0.00     0.328 C 
ATOM     21  C   UNL A   1      40.066  31.828  31.397  1.00  0.00     0.259 C 
ATOM     22  N   UNL A   1      42.401  29.816  31.734  1.00  0.00    -0.307 N 
ATOM     23  O   UNL A   1      40.967  27.640  30.895  1.00  0.00    -0.248 OA
ATOM     24  C   UNL A   1      42.179  31.673  31.489  1.00  0.00     0.147 C 
ATOM     25  O   UNL A   1      39.234  32.556  31.915  1.00  0.00    -0.271 OA
ATOM     26  C   UNL A   1      43.744  29.331  32.081  1.00  0.00     0.127 C 
ATOM     27  C   UNL A   1      43.206  31.263  29.921  1.00  0.00     0.168 C 
ATOM     28  C   UNL A   1      42.969  32.621  32.378  1.00  0.00     0.048 C 
ATOM     29  C   UNL A   1      44.929  29.973  31.255  1.00  0.00     0.055 C 
ATOM     30  C   UNL A   1      44.559  30.499  29.848  1.00  0.00    -0.032 C 
ATOM     31  N   UNL A   1      42.503  30.065  29.182  1.00  0.00    -0.274 NA
ATOM     32  C   UNL A   1      44.639  29.595  28.797  1.00  0.00     0.005 A 
ATOM     33  C   UNL A   1      43.343  29.080  29.224  1.00  0.00     0.066 A 
ATOM     34  C   UNL A   1      44.301  29.560  27.277  1.00  0.00     0.056 A 
ATOM     35  C   UNL A   1      43.141  27.647  28.984  1.00  0.00     0.032 A 
ATOM     36  C   UNL A   1      43.533  28.515  26.786  1.00  0.00     0.119 A 
ATOM     37  C   UNL A   1      43.193  27.402  27.675  1.00  0.00     0.048 A 
BRANCH  36  38
ATOM     38  O   UNL A   1      42.949  28.359  25.555  1.00  0.00    -0.497 OA
ATOM     39  C   UNL A   1      42.827  27.028  25.050  1.00  0.00     0.278 C 
ENDBRANCH  36  38
ENDBRANCH  17  19
ENDBRANCH  14  17
ENDBRANCH   8  13
ENDBRANCH   6   8
ENDBRANCH   5   6
ENDBRANCH   4   5
ENDBRANCH   3   4
ENDBRANCH   2   3
ENDBRANCH   1   2
BRANCH   1  40
ATOM     40  C   UNL A   1      34.951  23.611  25.576  1.00  0.00     0.188 C 
BRANCH  40  41
ATOM     41  O   UNL A   1      34.988  22.247  25.170  1.00  0.00    -0.376 OA
BRANCH  41  42
ATOM     42  C   UNL A   1      36.216  21.777  24.637  1.00  0.00     0.202 C 
BRANCH  42  43
ATOM     43  C   UNL A   1      37.217  21.551  25.771  1.00  0.00     0.261 C 
BRANCH  43  44
ATOM     44  O   UNL A   1      38.548  21.666  25.249  1.00  0.00    -0.460 OA
BRANCH  44  45
ATOM     45  C   UNL A   1      39.459  20.812  25.790  1.00  0.00     0.338 C 
ATOM     46  O   UNL A   1      39.389  19.596  25.816  1.00  0.00    -0.246 OA
BRANCH  45  47
ATOM     47  C   UNL A   1      40.658  21.584  26.207  1.00  0.00     0.060 A 
ATOM     48  C   UNL A   1      40.565  22.946  26.513  1.00  0.00     0.016 A 
ATOM     49  C   UNL A   1      41.910  20.951  26.221  1.00  0.00     0.016 A 
ATOM     50  C   UNL A   1      41.712  23.669  26.821  1.00  0.00     0.010 A 
ATOM     51  C   UNL A   1      43.063  21.673  26.549  1.00  0.00     0.010 A 
ATOM     52  C   UNL A   1      42.964  23.033  26.868  1.00  0.00    -0.014 A 
BRANCH  52  53
ATOM     53  C   UNL A   1      44.086  23.780  27.480  1.00  0.00     0.031 A 
ATOM     54  C   UNL A   1      45.077  24.549  26.668  1.00  0.00     0.074 A 
ATOM     55  C   UNL A   1      44.113  23.825  28.825  1.00  0.00     0.049 A 
ATOM     56  N   UNL A   1      45.951  25.434  27.075  1.00  0.00    -0.248 NA
ATOM     57  C   UNL A   1      45.097  24.298  25.221  1.00  0.00     0.031 C 
ATOM     58  C   UNL A   1      43.197  23.094  29.705  1.00  0.00     0.029 A 
ATOM     59  N   UNL A   1      44.901  24.542  29.685  1.00  0.00    -0.354 N 
ATOM     60  C   UNL A   1      46.618  25.863  25.937  1.00  0.00     0.074 A 
ATOM     61  C   UNL A   1      46.068  25.113  24.824  1.00  0.00     0.031 C 
ATOM     62  C   UNL A   1      43.439  23.442  30.976  1.00  0.00     0.029 A 
ATOM     63  C   UNL A   1      44.541  24.394  31.001  1.00  0.00     0.049 A 
ATOM     64  H   UNL A   1      45.652  25.106  29.389  1.00  0.00     0.167 HD
ATOM     65  C   UNL A   1      47.592  26.801  25.840  1.00  0.00     0.037 A 
ATOM     66  C   UNL A   1      45.035  24.976  32.108  1.00  0.00     0.037 A 
ATOM     67  C   UNL A   1      48.140  27.523  26.964  1.00  0.00     0.049 A 
ATOM     68  C   UNL A   1      46.139  25.982  31.964  1.00  0.00     0.074 A 
ATOM     69  C   UNL A   1      49.088  28.533  26.962  1.00  0.00     0.029 A 
ATOM     70  N   UNL A   1      47.807  27.296  28.292  1.00  0.00    -0.354 N 
ATOM     71  N   UNL A   1      46.686  26.459  30.873  1.00  0.00    -0.248 NA
ATOM     72  C   UNL A   1      46.688  26.533  33.208  1.00  0.00     0.031 C 
ATOM     73  C   UNL A   1      49.372  28.873  28.290  1.00  0.00     0.029 A 
ATOM     74  C   UNL A   1      48.561  28.115  29.119  1.00  0.00     0.049 A 
ATOM     75  H   UNL A   1      47.134  26.648  28.602  1.00  0.00     0.167 HD
ATOM     76  C   UNL A   1      47.630  27.384  31.298  1.00  0.00     0.074 A 
ATOM     77  C   UNL A   1      47.557  27.419  32.745  1.00  0.00     0.031 C 
ATOM     78  C   UNL A   1      48.484  28.132  30.558  1.00  0.00     0.037 A 
BRANCH  65  79
ATOM     79  C   UNL A   1      48.147  27.098  24.476  1.00  0.00     0.057 A 
ATOM     80  C   UNL A   1      47.406  27.843  23.549  1.00  0.00     0.134 A 
ATOM     81  C   UNL A   1      49.379  26.585  24.051  1.00  0.00     0.134 A 
ATOM     82  F   UNL A   1      46.211  28.353  23.885  1.00  0.00    -0.206 F 
ATOM     83  C   UNL A   1      47.866  28.061  22.249  1.00  0.00     0.040 A 
ATOM     84  C   UNL A   1      49.861  26.816  22.761  1.00  0.00     0.040 A 
ATOM     85  F   UNL A   1      50.141  25.864  24.888  1.00  0.00    -0.206 F 
ATOM     86  C   UNL A   1      49.100  27.550  21.852  1.00  0.00     0.006 A 
ENDBRANCH  65  79
BRANCH  66  87
ATOM     87  C   UNL A   1      44.485  24.634  33.442  1.00  0.00     0.057 A 
ATOM     88  C   UNL A   1      44.918  23.499  34.136  1.00  0.00     0.134 A 
ATOM     89  C   UNL A   1      43.534  25.449  34.066  1.00  0.00     0.134 A 
ATOM     90  F   UNL A   1      45.820  22.672  33.587  1.00  0.00    -0.206 F 
ATOM     91  C   UNL A   1      44.429  23.188  35.404  1.00  0.00     0.040 A 
ATOM     92  C   UNL A   1      43.058  25.166  35.346  1.00  0.00     0.040 A 
ATOM     93  F   UNL A   1      43.088  26.558  33.455  1.00  0.00    -0.206 F 
ATOM     94  C   UNL A   1      43.506  24.030  36.018  1.00  0.00     0.006 A 
ENDBRANCH  66  87
BRANCH  78  95
ATOM     95  C   UNL A   1      49.388  29.062  31.314  1.00  0.00     0.057 A 
ATOM     96  C   UNL A   1      50.603  28.606  31.843  1.00  0.00     0.134 A 
ATOM     97  C   UNL A   1      49.067  30.412  31.507  1.00  0.00     0.134 A 
ATOM     98  F   UNL A   1      50.970  27.323  31.700  1.00  0.00    -0.206 F 
ATOM     99  C   UNL A   1      51.466  29.460  32.530  1.00  0.00     0.040 A 
ATOM    100  C   UNL A   1      49.937  31.283  32.164  1.00  0.00     0.040 A 
ATOM    101  F   UNL A   1      47.928  30.918  31.008  1.00  0.00    -0.206 F 
ATOM    102  C   UNL A   1      51.139  30.805  32.682  1.00  0.00     0.006 A 
ENDBRANCH  78  95
ENDBRANCH  52  53
ENDBRANCH  45  47
ENDBRANCH  44  45
ENDBRANCH  43  44
ENDBRANCH  42  43
ENDBRANCH  41  42
ENDBRANCH  40  41
ENDBRANCH   1  40
TORSDOF 23
ENDMDL
MODEL 3
REMARK VINA RESULT:      -8.7      3.818      9.453
REMARK SMILES CC[C@@H](C)[C@H](NC(=O)[C@H](C)N1C(=O)N2CCC3=c4cc(OC)ccc4=N[C@H]3[C@@]2(C)C1=O)C(=O)OCCOCCOCCOC(=O)c1ccc(-c2c3nc(c(-c4c(F)cccc4F)c4ccc([nH]4)c(-c4c(F)cccc4F)c4nc(c(-c5c(F)cccc5F)c5ccc2[nH]5)C=C4)C=C3)cc1
REMARK SMILES IDX 38 1 37 2 36 3 35 4 34 5 32 6 33 7 5 8 3 9 4 10 2 11 1 12
REMARK SMILES IDX 6 13 7 14 8 16 9 17 10 18 11 19 12 20 30 21 14 22 13 23
REMARK SMILES IDX 28 24 31 25 15 26 27 27 29 28 16 29 17 30 26 31 18 32 25 33
REMARK SMILES IDX 19 34 24 35 20 36 23 37 21 38 22 39 39 40 40 41 41 42 42 43
REMARK SMILES IDX 43 44 44 45 45 46 46 47 47 48 99 49 48 50 98 51 49 52 50 53
REMARK SMILES IDX 51 54 92 55 52 56 97 57 91 58 93 59 53 60 96 61 90 62 89 63
REMARK SMILES IDX 54 65 80 66 63 67 79 68 64 69 67 70 78 71 94 72 65 73 66 74
REMARK SMILES IDX 77 76 95 77 68 78 55 79 56 80 61 81 57 82 58 83 60 84 62 85
REMARK SMILES IDX 59 86 81 87 82 88 87 89 83 90 84 91 86 92 88 93 85 94 69 95
REMARK SMILES IDX 70 96 75 97 71 98 72 99 74 100 76 101 73 102
REMARK H PARENT 6 15 93 64 67 75
REMARK Flexibility Score: inf
ROOT
ATOM      1  C   UNL A   1      34.111  25.133  24.613  1.00  0.00     0.188 C 
ENDROOT
BRANCH   1   2
ATOM      2  O   UNL A   1      34.220  26.500  25.008  1.00  0.00    -0.376 OA
BRANCH   2   3
ATOM      3  C   UNL A   1      33.290  27.108  25.892  1.00  0.00     0.202 C 
BRANCH   3   4
ATOM      4  C   UNL A   1      33.649  28.557  26.465  1.00  0.00     0.261 C 
BRANCH   4   5
ATOM      5  O   UNL A   1      35.340  29.054  26.942  1.00  0.00    -0.462 OA
BRANCH   5   6
ATOM      6  C   UNL A   1      36.334  29.559  28.564  1.00  0.00     0.328 C 
ATOM      7  O   UNL A   1      35.870  29.428  29.718  1.00  0.00    -0.250 OA
BRANCH   6   8
ATOM      8  C   UNL A   1      38.139  29.862  28.461  1.00  0.00     0.195 C 
BRANCH   8   9
ATOM      9  C   UNL A   1      38.941  28.529  28.220  1.00  0.00     0.019 C 
ATOM     10  C   UNL A   1      39.067  27.629  29.442  1.00  0.00     0.010 C 
BRANCH   9  11
ATOM     11  C   UNL A   1      40.287  28.683  27.445  1.00  0.00     0.002 C 
ATOM     12  C   UNL A   1      40.736  27.508  26.597  1.00  0.00     0.004 C 
ENDBRANCH   9  11
ENDBRANCH   8   9
BRANCH   8  13
ATOM     13  N   UNL A   1      39.068  30.719  29.308  1.00  0.00    -0.341 N 
ATOM     14  C   UNL A   1      38.794  31.842  30.047  1.00  0.00     0.243 C 
ATOM     15  H   UNL A   1      40.007  30.424  29.328  1.00  0.00     0.164 HD
ATOM     16  O   UNL A   1      39.713  32.518  30.509  1.00  0.00    -0.273 OA
BRANCH  14  17
ATOM     17  C   UNL A   1      37.346  32.196  30.249  1.00  0.00     0.181 C 
ATOM     18  C   UNL A   1      36.942  33.435  29.412  1.00  0.00     0.042 C 
BRANCH  17  19
ATOM     19  N   UNL A   1      37.331  32.436  31.668  1.00  0.00    -0.250 N 
ATOM     20  C   UNL A   1      37.651  30.901  32.677  1.00  0.00     0.328 C 
ATOM     21  C   UNL A   1      37.671  34.041  32.576  1.00  0.00     0.259 C 
ATOM     22  N   UNL A   1      38.111  31.529  34.339  1.00  0.00    -0.307 N 
ATOM     23  O   UNL A   1      37.427  29.740  32.384  1.00  0.00    -0.248 OA
ATOM     24  C   UNL A   1      38.689  33.324  34.292  1.00  0.00     0.147 C 
ATOM     25  O   UNL A   1      37.007  35.034  32.322  1.00  0.00    -0.271 OA
ATOM     26  C   UNL A   1      38.422  30.744  35.541  1.00  0.00     0.127 C 
ATOM     27  C   UNL A   1      40.383  32.437  34.135  1.00  0.00     0.168 C 
ATOM     28  C   UNL A   1      38.656  34.129  35.582  1.00  0.00     0.048 C 
ATOM     29  C   UNL A   1      39.892  30.916  36.099  1.00  0.00     0.055 C 
ATOM     30  C   UNL A   1      40.960  31.327  35.059  1.00  0.00    -0.032 C 
ATOM     31  N   UNL A   1      40.274  31.391  32.965  1.00  0.00    -0.274 NA
ATOM     32  C   UNL A   1      41.601  30.302  34.375  1.00  0.00     0.005 A 
ATOM     33  C   UNL A   1      40.425  30.228  33.514  1.00  0.00     0.066 A 
ATOM     34  C   UNL A   1      42.626  30.155  33.212  1.00  0.00     0.056 A 
ATOM     35  C   UNL A   1      40.123  28.887  33.002  1.00  0.00     0.032 A 
ATOM     36  C   UNL A   1      42.325  29.306  32.158  1.00  0.00     0.119 A 
ATOM     37  C   UNL A   1      41.132  28.462  32.242  1.00  0.00     0.048 A 
BRANCH  36  38
ATOM     38  O   UNL A   1      42.955  29.152  30.949  1.00  0.00    -0.497 OA
ATOM     39  C   UNL A   1      42.565  28.037  30.144  1.00  0.00     0.278 C 
ENDBRANCH  36  38
ENDBRANCH  17  19
ENDBRANCH  14  17
ENDBRANCH   8  13
ENDBRANCH   6   8
ENDBRANCH   5   6
ENDBRANCH   4   5
ENDBRANCH   3   4
ENDBRANCH   2   3
ENDBRANCH   1   2
BRANCH   1  40
ATOM     40  C   UNL A   1      34.519  24.014  25.575  1.00  0.00     0.188 C 
BRANCH  40  41
ATOM     41  O   UNL A   1      35.123  22.894  24.938  1.00  0.00    -0.376 OA
BRANCH  41  42
ATOM     42  C   UNL A   1      35.848  22.004  25.771  1.00  0.00     0.202 C 
BRANCH  42  43
ATOM     43  C   UNL A   1      37.163  21.621  25.093  1.00  0.00     0.261 C 
BRANCH  43  44
ATOM     44  O   UNL A   1      38.252  21.942  25.969  1.00  0.00    -0.460 OA
BRANCH  44  45
ATOM     45  C   UNL A   1      39.297  21.070  25.940  1.00  0.00     0.338 C 
ATOM     46  O   UNL A   1      39.276  19.924  25.528  1.00  0.00    -0.246 OA
BRANCH  45  47
ATOM     47  C   UNL A   1      40.536  21.787  26.340  1.00  0.00     0.060 A 
ATOM     48  C   UNL A   1      40.515  23.157  26.622  1.00  0.00     0.016 A 
ATOM     49  C   UNL A   1      41.754  21.090  26.362  1.00  0.00     0.016 A 
ATOM     50  C   UNL A   1      41.699  23.824  26.913  1.00  0.00     0.010 A 
ATOM     51  C   UNL A   1      42.944  21.757  26.673  1.00  0.00     0.010 A 
ATOM     52  C   UNL A   1      42.917  23.126  26.968  1.00  0.00    -0.014 A 
BRANCH  52  53
ATOM     53  C   UNL A   1      44.078  23.824  27.563  1.00  0.00     0.031 A 
ATOM     54  C   UNL A   1      45.066  24.585  26.739  1.00  0.00     0.074 A 
ATOM     55  C   UNL A   1      44.147  23.834  28.907  1.00  0.00     0.049 A 
ATOM     56  N   UNL A   1      45.978  25.434  27.140  1.00  0.00    -0.248 NA
ATOM     57  C   UNL A   1      45.035  24.370  25.287  1.00  0.00     0.031 C 
ATOM     58  C   UNL A   1      43.237  23.108  29.796  1.00  0.00     0.029 A 
ATOM     59  N   UNL A   1      44.982  24.506  29.759  1.00  0.00    -0.354 N 
ATOM     60  C   UNL A   1      46.622  25.872  25.993  1.00  0.00     0.074 A 
ATOM     61  C   UNL A   1      46.017  25.167  24.879  1.00  0.00     0.031 C 
ATOM     62  C   UNL A   1      43.527  23.416  31.067  1.00  0.00     0.029 A 
ATOM     63  C   UNL A   1      44.657  24.336  31.082  1.00  0.00     0.049 A 
ATOM     64  H   UNL A   1      45.739  25.056  29.454  1.00  0.00     0.167 HD
ATOM     65  C   UNL A   1      47.620  26.784  25.888  1.00  0.00     0.037 A 
ATOM     66  C   UNL A   1      45.202  24.875  32.186  1.00  0.00     0.037 A 
ATOM     67  C   UNL A   1      48.223  27.461  27.012  1.00  0.00     0.049 A 
ATOM     68  C   UNL A   1      46.330  25.852  32.033  1.00  0.00     0.074 A 
ATOM     69  C   UNL A   1      49.200  28.443  27.005  1.00  0.00     0.029 A 
ATOM     70  N   UNL A   1      47.924  27.210  28.344  1.00  0.00    -0.354 N 
ATOM     71  N   UNL A   1      46.858  26.341  30.938  1.00  0.00    -0.248 NA
ATOM     72  C   UNL A   1      46.932  26.355  33.273  1.00  0.00     0.031 C 
ATOM     73  C   UNL A   1      49.534  28.741  28.332  1.00  0.00     0.029 A 
ATOM     74  C   UNL A   1      48.727  27.986  29.167  1.00  0.00     0.049 A 
ATOM     75  H   UNL A   1      47.242  26.574  28.659  1.00  0.00     0.167 HD
ATOM     76  C   UNL A   1      47.841  27.227  31.355  1.00  0.00     0.074 A 
ATOM     77  C   UNL A   1      47.813  27.227  32.805  1.00  0.00     0.031 C 
ATOM     78  C   UNL A   1      48.693  27.969  30.608  1.00  0.00     0.037 A 
BRANCH  65  79
ATOM     79  C   UNL A   1      48.142  27.099  24.516  1.00  0.00     0.057 A 
ATOM     80  C   UNL A   1      47.408  27.911  23.641  1.00  0.00     0.134 A 
ATOM     81  C   UNL A   1      49.331  26.541  24.030  1.00  0.00     0.134 A 
ATOM     82  F   UNL A   1      46.253  28.468  24.036  1.00  0.00    -0.206 F 
ATOM     83  C   UNL A   1      47.833  28.151  22.333  1.00  0.00     0.040 A 
ATOM     84  C   UNL A   1      49.779  26.792  22.731  1.00  0.00     0.040 A 
ATOM     85  F   UNL A   1      50.084  25.755  24.815  1.00  0.00    -0.206 F 
ATOM     86  C   UNL A   1      49.026  27.593  21.875  1.00  0.00     0.006 A 
ENDBRANCH  65  79
BRANCH  66  87
ATOM     87  C   UNL A   1      44.683  24.515  33.528  1.00  0.00     0.057 A 
ATOM     88  C   UNL A   1      45.167  23.398  34.218  1.00  0.00     0.134 A 
ATOM     89  C   UNL A   1      43.710  25.295  34.163  1.00  0.00     0.134 A 
ATOM     90  F   UNL A   1      46.092  22.604  33.658  1.00  0.00    -0.206 F 
ATOM     91  C   UNL A   1      44.707  23.071  35.493  1.00  0.00     0.040 A 
ATOM     92  C   UNL A   1      43.262  24.998  35.450  1.00  0.00     0.040 A 
ATOM     93  F   UNL A   1      43.216  26.386  33.557  1.00  0.00    -0.206 F 
ATOM     94  C   UNL A   1      43.761  23.880  36.118  1.00  0.00     0.006 A 
ENDBRANCH  66  87
BRANCH  78  95
ATOM     95  C   UNL A   1      49.648  28.852  31.358  1.00  0.00     0.057 A 
ATOM     96  C   UNL A   1      50.920  28.389  31.718  1.00  0.00     0.134 A 
ATOM     97  C   UNL A   1      49.315  30.168  31.712  1.00  0.00     0.134 A 
ATOM     98  F   UNL A   1      51.301  27.139  31.414  1.00  0.00    -0.206 F 
ATOM     99  C   UNL A   1      51.828  29.204  32.396  1.00  0.00     0.040 A 
ATOM    100  C   UNL A   1      50.226  31.001  32.362  1.00  0.00     0.040 A 
ATOM    101  F   UNL A   1      48.120  30.680  31.379  1.00  0.00    -0.206 F 
ATOM    102  C   UNL A   1      51.486  30.517  32.710  1.00  0.00     0.006 A 
ENDBRANCH  78  95
ENDBRANCH  52  53
ENDBRANCH  45  47
ENDBRANCH  44  45
ENDBRANCH  43  44
ENDBRANCH  42  43
ENDBRANCH  41  42
ENDBRANCH  40  41
ENDBRANCH   1  40
TORSDOF 23
ENDMDL
