MODEL 1
REMARK VINA RESULT:     -10.1      0.000      0.000
REMARK SMILES O=C(Cc1c(F)cccc1F)NC[C@H]1CC[C@H](C(=O)OCCOCCOCCOC(=O)c2ccc(-c3c4nc(c(-c5c(F)cccc5F)c5ccc([nH]5)c(-c5c(F)cccc5F)c5nc(c(-c6c(F)cccc6F)c6ccc3[nH]6)C=C5)C=C4)cc2)O1
REMARK SMILES IDX 24 1 23 2 22 3 21 4 20 5 18 6 19 7 17 8 14 9 15 10 86 11
REMARK SMILES IDX 16 12 13 13 12 14 1 15 2 16 3 18 4 19 5 20 10 21 6 22 7 23
REMARK SMILES IDX 9 24 11 25 8 26 25 27 26 28 27 29 28 30 29 31 30 32 31 33
REMARK SMILES IDX 32 34 33 35 85 36 34 37 84 38 35 39 36 40 37 41 78 42 38 43
REMARK SMILES IDX 83 44 77 45 79 46 39 47 82 48 76 49 75 50 40 52 66 53 49 54
REMARK SMILES IDX 65 55 50 56 53 57 64 58 80 59 51 60 52 61 63 63 81 64 54 65
REMARK SMILES IDX 41 66 42 67 47 68 43 69 44 70 46 71 48 72 45 73 67 74 68 75
REMARK SMILES IDX 73 76 69 77 70 78 72 79 74 80 71 81 55 82 56 83 61 84 57 85
REMARK SMILES IDX 58 86 60 87 62 88 59 89
REMARK H PARENT 12 17 79 51 53 62
REMARK Flexibility Score: inf
ROOT
ATOM      1  C   UNL A   1      40.354  22.057  26.178  1.00  0.00     0.188 C 
ENDROOT
BRANCH   1   2
ATOM      2  O   UNL A   1      39.189  22.504  26.860  1.00  0.00    -0.376 OA
BRANCH   2   3
ATOM      3  C   UNL A   1      38.594  23.724  26.410  1.00  0.00     0.202 C 
BRANCH   3   4
ATOM      4  C   UNL A   1      37.115  23.683  25.986  1.00  0.00     0.261 C 
BRANCH   4   5
ATOM      5  O   UNL A   1      36.871  22.959  24.759  1.00  0.00    -0.461 OA
BRANCH   5   6
ATOM      6  C   UNL A   1      36.290  21.736  24.892  1.00  0.00     0.335 C 
ATOM      7  O   UNL A   1      36.792  20.800  25.510  1.00  0.00    -0.249 OA
BRANCH   6   8
ATOM      8  C   UNL A   1      34.887  21.649  24.276  1.00  0.00     0.228 C 
ATOM      9  C   UNL A   1      33.311  23.321  24.776  1.00  0.00     0.138 C 
ATOM     10  C   UNL A   1      33.193  22.207  25.807  1.00  0.00     0.037 C 
ATOM     11  O   UNL A   1      34.464  22.990  23.971  1.00  0.00    -0.361 OA
ATOM     12  C   UNL A   1      33.757  21.023  25.072  1.00  0.00     0.047 C 
BRANCH   9  13
ATOM     13  C   UNL A   1      32.133  23.479  23.800  1.00  0.00     0.147 C 
BRANCH  13  14
ATOM     14  N   UNL A   1      31.843  24.839  23.408  1.00  0.00    -0.353 N 
ATOM     15  O   UNL A   1      33.282  24.859  21.632  1.00  0.00    -0.275 OA
ATOM     16  C   UNL A   1      32.408  25.413  22.293  1.00  0.00     0.224 C 
ATOM     17  H   UNL A   1      31.222  25.371  23.957  1.00  0.00     0.163 HD
BRANCH  16  18
ATOM     18  C   UNL A   1      31.965  26.836  22.004  1.00  0.00     0.141 C 
BRANCH  18  19
ATOM     19  C   UNL A   1      32.088  27.827  23.135  1.00  0.00     0.033 A 
ATOM     20  C   UNL A   1      30.954  28.517  23.574  1.00  0.00     0.129 A 
ATOM     21  C   UNL A   1      33.281  28.052  23.827  1.00  0.00     0.129 A 
ATOM     22  F   UNL A   1      29.775  28.308  22.971  1.00  0.00    -0.207 F 
ATOM     23  C   UNL A   1      31.010  29.429  24.627  1.00  0.00     0.040 A 
ATOM     24  C   UNL A   1      33.360  28.975  24.869  1.00  0.00     0.040 A 
ATOM     25  F   UNL A   1      34.394  27.390  23.488  1.00  0.00    -0.207 F 
ATOM     26  C   UNL A   1      32.221  29.669  25.272  1.00  0.00     0.006 A 
ENDBRANCH  18  19
ENDBRANCH  16  18
ENDBRANCH  13  14
ENDBRANCH   9  13
ENDBRANCH   6   8
ENDBRANCH   5   6
ENDBRANCH   4   5
ENDBRANCH   3   4
ENDBRANCH   2   3
ENDBRANCH   1   2
BRANCH   1  27
ATOM     27  C   UNL A   1      40.752  20.592  26.392  1.00  0.00     0.188 C 
BRANCH  27  28
ATOM     28  O   UNL A   1      42.103  20.409  26.757  1.00  0.00    -0.376 OA
BRANCH  28  29
ATOM     29  C   UNL A   1      43.097  20.241  25.751  1.00  0.00     0.202 C 
BRANCH  29  30
ATOM     30  C   UNL A   1      44.053  21.409  25.409  1.00  0.00     0.261 C 
BRANCH  30  31
ATOM     31  O   UNL A   1      44.035  22.564  26.272  1.00  0.00    -0.460 OA
BRANCH  31  32
ATOM     32  C   UNL A   1      44.068  23.787  25.694  1.00  0.00     0.338 C 
ATOM     33  O   UNL A   1      44.344  24.033  24.531  1.00  0.00    -0.246 OA
BRANCH  32  34
ATOM     34  C   UNL A   1      43.411  24.750  26.623  1.00  0.00     0.060 A 
ATOM     35  C   UNL A   1      43.800  26.098  26.563  1.00  0.00     0.016 A 
ATOM     36  C   UNL A   1      42.357  24.372  27.461  1.00  0.00     0.016 A 
ATOM     37  C   UNL A   1      43.168  27.058  27.361  1.00  0.00     0.010 A 
ATOM     38  C   UNL A   1      41.739  25.331  28.276  1.00  0.00     0.010 A 
ATOM     39  C   UNL A   1      42.160  26.673  28.253  1.00  0.00    -0.014 A 
BRANCH  39  40
ATOM     40  C   UNL A   1      41.688  27.612  29.306  1.00  0.00     0.031 A 
ATOM     41  C   UNL A   1      42.407  27.611  30.629  1.00  0.00     0.074 A 
ATOM     42  C   UNL A   1      40.654  28.454  29.112  1.00  0.00     0.049 A 
ATOM     43  N   UNL A   1      42.129  28.258  31.732  1.00  0.00    -0.248 NA
ATOM     44  C   UNL A   1      43.606  26.761  30.715  1.00  0.00     0.031 C 
ATOM     45  C   UNL A   1      39.906  28.607  27.868  1.00  0.00     0.029 A 
ATOM     46  N   UNL A   1      40.051  29.337  29.978  1.00  0.00    -0.354 N 
ATOM     47  C   UNL A   1      43.108  27.884  32.644  1.00  0.00     0.074 A 
ATOM     48  C   UNL A   1      43.972  26.935  31.977  1.00  0.00     0.031 C 
ATOM     49  C   UNL A   1      38.934  29.518  28.054  1.00  0.00     0.029 A 
ATOM     50  C   UNL A   1      38.964  29.983  29.441  1.00  0.00     0.049 A 
ATOM     51  H   UNL A   1      40.368  29.491  30.898  1.00  0.00     0.167 HD
ATOM     52  C   UNL A   1      43.279  28.300  33.920  1.00  0.00     0.037 A 
ATOM     53  C   UNL A   1      38.079  30.829  30.010  1.00  0.00     0.037 A 
ATOM     54  C   UNL A   1      42.423  29.244  34.586  1.00  0.00     0.049 A 
ATOM     55  C   UNL A   1      38.230  31.203  31.464  1.00  0.00     0.074 A 
ATOM     56  C   UNL A   1      42.524  29.731  35.877  1.00  0.00     0.029 A 
ATOM     57  N   UNL A   1      41.307  29.839  34.020  1.00  0.00    -0.354 N 
ATOM     58  N   UNL A   1      39.161  30.851  32.316  1.00  0.00    -0.248 NA
ATOM     59  C   UNL A   1      37.204  32.090  32.036  1.00  0.00     0.031 C 
ATOM     60  C   UNL A   1      41.437  30.576  36.111  1.00  0.00     0.029 A 
ATOM     61  C   UNL A   1      40.694  30.666  34.945  1.00  0.00     0.049 A 
ATOM     62  H   UNL A   1      40.997  29.695  33.096  1.00  0.00     0.167 HD
ATOM     63  C   UNL A   1      38.851  31.491  33.512  1.00  0.00     0.074 A 
ATOM     64  C   UNL A   1      37.651  32.263  33.273  1.00  0.00     0.031 C 
ATOM     65  C   UNL A   1      39.505  31.442  34.699  1.00  0.00     0.037 A 
BRANCH  52  66
ATOM     66  C   UNL A   1      44.426  27.720  34.694  1.00  0.00     0.057 A 
ATOM     67  C   UNL A   1      44.258  26.554  35.450  1.00  0.00     0.134 A 
ATOM     68  C   UNL A   1      45.678  28.347  34.742  1.00  0.00     0.134 A 
ATOM     69  F   UNL A   1      43.083  25.906  35.452  1.00  0.00    -0.206 F 
ATOM     70  C   UNL A   1      45.288  26.039  36.240  1.00  0.00     0.040 A 
ATOM     71  C   UNL A   1      46.725  27.826  35.504  1.00  0.00     0.040 A 
ATOM     72  F   UNL A   1      45.911  29.458  34.027  1.00  0.00    -0.206 F 
ATOM     73  C   UNL A   1      46.527  26.675  36.264  1.00  0.00     0.006 A 
ENDBRANCH  52  66
BRANCH  53  74
ATOM     74  C   UNL A   1      36.954  31.378  29.205  1.00  0.00     0.057 A 
ATOM     75  C   UNL A   1      35.834  30.599  28.887  1.00  0.00     0.134 A 
ATOM     76  C   UNL A   1      36.970  32.699  28.743  1.00  0.00     0.134 A 
ATOM     77  F   UNL A   1      35.750  29.329  29.307  1.00  0.00    -0.206 F 
ATOM     78  C   UNL A   1      34.783  31.106  28.119  1.00  0.00     0.040 A 
ATOM     79  C   UNL A   1      35.914  33.227  27.997  1.00  0.00     0.040 A 
ATOM     80  F   UNL A   1      37.998  33.506  29.041  1.00  0.00    -0.206 F 
ATOM     81  C   UNL A   1      34.820  32.426  27.675  1.00  0.00     0.006 A 
ENDBRANCH  53  74
BRANCH  65  82
ATOM     82  C   UNL A   1      38.970  32.265  35.837  1.00  0.00     0.057 A 
ATOM     83  C   UNL A   1      39.346  33.607  35.983  1.00  0.00     0.134 A 
ATOM     84  C   UNL A   1      38.170  31.708  36.840  1.00  0.00     0.134 A 
ATOM     85  F   UNL A   1      40.124  34.201  35.065  1.00  0.00    -0.206 F 
ATOM     86  C   UNL A   1      38.961  34.359  37.095  1.00  0.00     0.040 A 
ATOM     87  C   UNL A   1      37.755  32.456  37.944  1.00  0.00     0.040 A 
ATOM     88  F   UNL A   1      37.769  30.429  36.760  1.00  0.00    -0.206 F 
ATOM     89  C   UNL A   1      38.161  33.783  38.079  1.00  0.00     0.006 A 
ENDBRANCH  65  82
ENDBRANCH  39  40
ENDBRANCH  32  34
ENDBRANCH  31  32
ENDBRANCH  30  31
ENDBRANCH  29  30
ENDBRANCH  28  29
ENDBRANCH  27  28
ENDBRANCH   1  27
TORSDOF 21
ENDMDL
MODEL 2
REMARK VINA RESULT:     -10.0      3.763      6.565
REMARK SMILES O=C(Cc1c(F)cccc1F)NC[C@H]1CC[C@H](C(=O)OCCOCCOCCOC(=O)c2ccc(-c3c4nc(c(-c5c(F)cccc5F)c5ccc([nH]5)c(-c5c(F)cccc5F)c5nc(c(-c6c(F)cccc6F)c6ccc3[nH]6)C=C5)C=C4)cc2)O1
REMARK SMILES IDX 24 1 23 2 22 3 21 4 20 5 18 6 19 7 17 8 14 9 15 10 86 11
REMARK SMILES IDX 16 12 13 13 12 14 1 15 2 16 3 18 4 19 5 20 10 21 6 22 7 23
REMARK SMILES IDX 9 24 11 25 8 26 25 27 26 28 27 29 28 30 29 31 30 32 31 33
REMARK SMILES IDX 32 34 33 35 85 36 34 37 84 38 35 39 36 40 37 41 78 42 38 43
REMARK SMILES IDX 83 44 77 45 79 46 39 47 82 48 76 49 75 50 40 52 66 53 49 54
REMARK SMILES IDX 65 55 50 56 53 57 64 58 80 59 51 60 52 61 63 63 81 64 54 65
REMARK SMILES IDX 41 66 42 67 47 68 43 69 44 70 46 71 48 72 45 73 67 74 68 75
REMARK SMILES IDX 73 76 69 77 70 78 72 79 74 80 71 81 55 82 56 83 61 84 57 85
REMARK SMILES IDX 58 86 60 87 62 88 59 89
REMARK H PARENT 12 17 79 51 53 62
REMARK Flexibility Score: inf
ROOT
ATOM      1  C   UNL A   1      35.682  22.319  25.417  1.00  0.00     0.188 C 
ENDROOT
BRANCH   1   2
ATOM      2  O   UNL A   1      34.920  21.659  24.414  1.00  0.00    -0.376 OA
BRANCH   2   3
ATOM      3  C   UNL A   1      33.610  21.209  24.777  1.00  0.00     0.202 C 
BRANCH   3   4
ATOM      4  C   UNL A   1      32.563  21.085  23.656  1.00  0.00     0.261 C 
BRANCH   4   5
ATOM      5  O   UNL A   1      32.473  22.246  22.799  1.00  0.00    -0.461 OA
BRANCH   5   6
ATOM      6  C   UNL A   1      31.748  23.291  23.284  1.00  0.00     0.335 C 
ATOM      7  O   UNL A   1      30.593  23.197  23.690  1.00  0.00    -0.249 OA
BRANCH   6   8
ATOM      8  C   UNL A   1      32.540  24.603  23.370  1.00  0.00     0.228 C 
ATOM      9  C   UNL A   1      31.768  26.485  22.188  1.00  0.00     0.138 C 
ATOM     10  C   UNL A   1      32.711  25.692  21.294  1.00  0.00     0.037 C 
ATOM     11  O   UNL A   1      31.588  25.682  23.377  1.00  0.00    -0.361 OA
ATOM     12  C   UNL A   1      33.550  24.941  22.290  1.00  0.00     0.047 C 
BRANCH   9  13
ATOM     13  C   UNL A   1      32.270  27.858  22.665  1.00  0.00     0.147 C 
BRANCH  13  14
ATOM     14  N   UNL A   1      32.361  28.011  24.099  1.00  0.00    -0.353 N 
ATOM     15  O   UNL A   1      30.488  29.306  24.293  1.00  0.00    -0.275 OA
ATOM     16  C   UNL A   1      31.408  28.687  24.823  1.00  0.00     0.224 C 
ATOM     17  H   UNL A   1      33.132  27.620  24.572  1.00  0.00     0.163 HD
BRANCH  16  18
ATOM     18  C   UNL A   1      31.638  28.721  26.323  1.00  0.00     0.141 C 
BRANCH  18  19
ATOM     19  C   UNL A   1      32.839  29.495  26.807  1.00  0.00     0.033 A 
ATOM     20  C   UNL A   1      34.069  28.845  26.946  1.00  0.00     0.129 A 
ATOM     21  C   UNL A   1      32.809  30.868  27.067  1.00  0.00     0.129 A 
ATOM     22  F   UNL A   1      34.163  27.536  26.670  1.00  0.00    -0.207 F 
ATOM     23  C   UNL A   1      35.213  29.519  27.371  1.00  0.00     0.040 A 
ATOM     24  C   UNL A   1      33.939  31.553  27.512  1.00  0.00     0.040 A 
ATOM     25  F   UNL A   1      31.674  31.561  26.909  1.00  0.00    -0.207 F 
ATOM     26  C   UNL A   1      35.147  30.878  27.666  1.00  0.00     0.006 A 
ENDBRANCH  18  19
ENDBRANCH  16  18
ENDBRANCH  13  14
ENDBRANCH   9  13
ENDBRANCH   6   8
ENDBRANCH   5   6
ENDBRANCH   4   5
ENDBRANCH   3   4
ENDBRANCH   2   3
ENDBRANCH   1   2
BRANCH   1  27
ATOM     27  C   UNL A   1      37.103  21.793  25.651  1.00  0.00     0.188 C 
BRANCH  27  28
ATOM     28  O   UNL A   1      37.280  20.437  25.305  1.00  0.00    -0.376 OA
BRANCH  28  29
ATOM     29  C   UNL A   1      38.562  19.965  24.902  1.00  0.00     0.202 C 
BRANCH  29  30
ATOM     30  C   UNL A   1      39.541  19.396  25.956  1.00  0.00     0.261 C 
BRANCH  30  31
ATOM     31  O   UNL A   1      40.930  19.281  25.588  1.00  0.00    -0.460 OA
BRANCH  31  32
ATOM     32  C   UNL A   1      41.859  19.460  26.557  1.00  0.00     0.338 C 
ATOM     33  O   UNL A   1      42.666  18.632  26.950  1.00  0.00    -0.246 OA
BRANCH  32  34
ATOM     34  C   UNL A   1      41.945  20.920  26.844  1.00  0.00     0.060 A 
ATOM     35  C   UNL A   1      41.776  21.816  25.775  1.00  0.00     0.016 A 
ATOM     36  C   UNL A   1      42.079  21.414  28.145  1.00  0.00     0.016 A 
ATOM     37  C   UNL A   1      41.777  23.196  25.997  1.00  0.00     0.010 A 
ATOM     38  C   UNL A   1      42.101  22.798  28.364  1.00  0.00     0.010 A 
ATOM     39  C   UNL A   1      41.981  23.699  27.289  1.00  0.00    -0.014 A 
BRANCH  39  40
ATOM     40  C   UNL A   1      42.276  25.142  27.498  1.00  0.00     0.031 A 
ATOM     41  C   UNL A   1      43.581  25.679  26.974  1.00  0.00     0.074 A 
ATOM     42  C   UNL A   1      41.422  25.970  28.128  1.00  0.00     0.049 A 
ATOM     43  N   UNL A   1      44.113  26.866  27.115  1.00  0.00    -0.248 NA
ATOM     44  C   UNL A   1      44.397  24.744  26.182  1.00  0.00     0.031 C 
ATOM     45  C   UNL A   1      40.101  25.604  28.633  1.00  0.00     0.029 A 
ATOM     46  N   UNL A   1      41.552  27.299  28.459  1.00  0.00    -0.354 N 
ATOM     47  C   UNL A   1      45.328  26.816  26.442  1.00  0.00     0.074 A 
ATOM     48  C   UNL A   1      45.469  25.477  25.915  1.00  0.00     0.031 C 
ATOM     49  C   UNL A   1      39.547  26.679  29.222  1.00  0.00     0.029 A 
ATOM     50  C   UNL A   1      40.489  27.797  29.174  1.00  0.00     0.049 A 
ATOM     51  H   UNL A   1      42.334  27.842  28.209  1.00  0.00     0.167 HD
ATOM     52  C   UNL A   1      46.240  27.800  26.270  1.00  0.00     0.037 A 
ATOM     53  C   UNL A   1      40.310  29.007  29.747  1.00  0.00     0.037 A 
ATOM     54  C   UNL A   1      46.104  29.133  26.790  1.00  0.00     0.049 A 
ATOM     55  C   UNL A   1      41.385  30.058  29.628  1.00  0.00     0.074 A 
ATOM     56  C   UNL A   1      46.975  30.199  26.659  1.00  0.00     0.029 A 
ATOM     57  N   UNL A   1      45.033  29.582  27.547  1.00  0.00    -0.354 N 
ATOM     58  N   UNL A   1      42.526  30.005  28.984  1.00  0.00    -0.248 NA
ATOM     59  C   UNL A   1      41.149  31.338  30.317  1.00  0.00     0.031 C 
ATOM     60  C   UNL A   1      46.461  31.276  27.383  1.00  0.00     0.029 A 
ATOM     61  C   UNL A   1      45.237  30.901  27.914  1.00  0.00     0.049 A 
ATOM     62  H   UNL A   1      44.245  29.043  27.787  1.00  0.00     0.167 HD
ATOM     63  C   UNL A   1      43.129  31.246  29.167  1.00  0.00     0.074 A 
ATOM     64  C   UNL A   1      42.223  32.037  29.972  1.00  0.00     0.031 C 
ATOM     65  C   UNL A   1      44.325  31.687  28.706  1.00  0.00     0.037 A 
BRANCH  52  66
ATOM     66  C   UNL A   1      47.486  27.468  25.501  1.00  0.00     0.057 A 
ATOM     67  C   UNL A   1      47.529  27.630  24.110  1.00  0.00     0.134 A 
ATOM     68  C   UNL A   1      48.619  26.932  26.124  1.00  0.00     0.134 A 
ATOM     69  F   UNL A   1      46.475  28.136  23.450  1.00  0.00    -0.206 F 
ATOM     70  C   UNL A   1      48.648  27.256  23.365  1.00  0.00     0.040 A 
ATOM     71  C   UNL A   1      49.756  26.580  25.394  1.00  0.00     0.040 A 
ATOM     72  F   UNL A   1      48.650  26.767  27.455  1.00  0.00    -0.206 F 
ATOM     73  C   UNL A   1      49.767  26.732  24.009  1.00  0.00     0.006 A 
ENDBRANCH  52  66
BRANCH  53  74
ATOM     74  C   UNL A   1      39.060  29.292  30.504  1.00  0.00     0.057 A 
ATOM     75  C   UNL A   1      38.885  28.849  31.821  1.00  0.00     0.134 A 
ATOM     76  C   UNL A   1      38.015  30.022  29.928  1.00  0.00     0.134 A 
ATOM     77  F   UNL A   1      39.852  28.152  32.436  1.00  0.00    -0.206 F 
ATOM     78  C   UNL A   1      37.708  29.101  32.529  1.00  0.00     0.040 A 
ATOM     79  C   UNL A   1      36.843  30.305  30.632  1.00  0.00     0.040 A 
ATOM     80  F   UNL A   1      38.134  30.502  28.682  1.00  0.00    -0.206 F 
ATOM     81  C   UNL A   1      36.683  29.836  31.935  1.00  0.00     0.006 A 
ENDBRANCH  53  74
BRANCH  65  82
ATOM     82  C   UNL A   1      44.730  33.099  29.025  1.00  0.00     0.057 A 
ATOM     83  C   UNL A   1      44.433  34.143  28.137  1.00  0.00     0.134 A 
ATOM     84  C   UNL A   1      45.498  33.413  30.152  1.00  0.00     0.134 A 
ATOM     85  F   UNL A   1      43.713  33.910  27.029  1.00  0.00    -0.206 F 
ATOM     86  C   UNL A   1      44.901  35.441  28.349  1.00  0.00     0.040 A 
ATOM     87  C   UNL A   1      45.949  34.713  30.391  1.00  0.00     0.040 A 
ATOM     88  F   UNL A   1      45.813  32.462  31.046  1.00  0.00    -0.206 F 
ATOM     89  C   UNL A   1      45.661  35.729  29.481  1.00  0.00     0.006 A 
ENDBRANCH  65  82
ENDBRANCH  39  40
ENDBRANCH  32  34
ENDBRANCH  31  32
ENDBRANCH  30  31
ENDBRANCH  29  30
ENDBRANCH  28  29
ENDBRANCH  27  28
ENDBRANCH   1  27
TORSDOF 21
ENDMDL
MODEL 3
REMARK VINA RESULT:      -9.8      2.964      8.800
REMARK SMILES O=C(Cc1c(F)cccc1F)NC[C@H]1CC[C@H](C(=O)OCCOCCOCCOC(=O)c2ccc(-c3c4nc(c(-c5c(F)cccc5F)c5ccc([nH]5)c(-c5c(F)cccc5F)c5nc(c(-c6c(F)cccc6F)c6ccc3[nH]6)C=C5)C=C4)cc2)O1
REMARK SMILES IDX 24 1 23 2 22 3 21 4 20 5 18 6 19 7 17 8 14 9 15 10 86 11
REMARK SMILES IDX 16 12 13 13 12 14 1 15 2 16 3 18 4 19 5 20 10 21 6 22 7 23
REMARK SMILES IDX 9 24 11 25 8 26 25 27 26 28 27 29 28 30 29 31 30 32 31 33
REMARK SMILES IDX 32 34 33 35 85 36 34 37 84 38 35 39 36 40 37 41 78 42 38 43
REMARK SMILES IDX 83 44 77 45 79 46 39 47 82 48 76 49 75 50 40 52 66 53 49 54
REMARK SMILES IDX 65 55 50 56 53 57 64 58 80 59 51 60 52 61 63 63 81 64 54 65
REMARK SMILES IDX 41 66 42 67 47 68 43 69 44 70 46 71 48 72 45 73 67 74 68 75
REMARK SMILES IDX 73 76 69 77 70 78 72 79 74 80 71 81 55 82 56 83 61 84 57 85
REMARK SMILES IDX 58 86 60 87 62 88 59 89
REMARK H PARENT 12 17 79 51 53 62
REMARK Flexibility Score: inf
ROOT
ATOM      1  C   UNL A   1      27.881  31.645  22.882  1.00  0.00     0.188 C 
ENDROOT
BRANCH   1   2
ATOM      2  O   UNL A   1      27.226  30.516  23.446  1.00  0.00    -0.376 OA
BRANCH   2   3
ATOM      3  C   UNL A   1      27.520  29.236  22.878  1.00  0.00     0.202 C 
BRANCH   3   4
ATOM      4  C   UNL A   1      28.947  29.001  22.351  1.00  0.00     0.261 C 
BRANCH   4   5
ATOM      5  O   UNL A   1      29.549  27.768  22.806  1.00  0.00    -0.461 OA
BRANCH   5   6
ATOM      6  C   UNL A   1      30.865  27.837  23.147  1.00  0.00     0.335 C 
ATOM      7  O   UNL A   1      31.584  28.806  22.920  1.00  0.00    -0.249 OA
BRANCH   6   8
ATOM      8  C   UNL A   1      31.361  26.618  23.937  1.00  0.00     0.228 C 
ATOM      9  C   UNL A   1      30.091  25.838  25.757  1.00  0.00     0.138 C 
ATOM     10  C   UNL A   1      31.087  26.875  26.257  1.00  0.00     0.037 C 
ATOM     11  O   UNL A   1      30.206  25.848  24.316  1.00  0.00    -0.361 OA
ATOM     12  C   UNL A   1      32.163  26.826  25.209  1.00  0.00     0.047 C 
BRANCH   9  13
ATOM     13  C   UNL A   1      30.332  24.386  26.200  1.00  0.00     0.147 C 
BRANCH  13  14
ATOM     14  N   UNL A   1      31.035  23.564  25.243  1.00  0.00    -0.353 N 
ATOM     15  O   UNL A   1      33.011  23.544  26.391  1.00  0.00    -0.275 OA
ATOM     16  C   UNL A   1      32.330  23.148  25.449  1.00  0.00     0.224 C 
ATOM     17  H   UNL A   1      30.572  23.293  24.416  1.00  0.00     0.163 HD
BRANCH  16  18
ATOM     18  C   UNL A   1      32.904  22.258  24.361  1.00  0.00     0.141 C 
BRANCH  18  19
ATOM     19  C   UNL A   1      34.407  22.143  24.303  1.00  0.00     0.033 A 
ATOM     20  C   UNL A   1      35.046  21.116  25.003  1.00  0.00     0.129 A 
ATOM     21  C   UNL A   1      35.207  22.979  23.521  1.00  0.00     0.129 A 
ATOM     22  F   UNL A   1      34.321  20.260  25.737  1.00  0.00    -0.207 F 
ATOM     23  C   UNL A   1      36.431  20.954  24.967  1.00  0.00     0.040 A 
ATOM     24  C   UNL A   1      36.595  22.844  23.489  1.00  0.00     0.040 A 
ATOM     25  F   UNL A   1      34.653  23.954  22.789  1.00  0.00    -0.207 F 
ATOM     26  C   UNL A   1      37.211  21.828  24.215  1.00  0.00     0.006 A 
ENDBRANCH  18  19
ENDBRANCH  16  18
ENDBRANCH  13  14
ENDBRANCH   9  13
ENDBRANCH   6   8
ENDBRANCH   5   6
ENDBRANCH   4   5
ENDBRANCH   3   4
ENDBRANCH   2   3
ENDBRANCH   1   2
BRANCH   1  27
ATOM     27  C   UNL A   1      29.034  32.244  23.696  1.00  0.00     0.188 C 
BRANCH  27  28
ATOM     28  O   UNL A   1      29.731  31.304  24.485  1.00  0.00    -0.376 OA
BRANCH  28  29
ATOM     29  C   UNL A   1      30.628  31.749  25.498  1.00  0.00     0.202 C 
BRANCH  29  30
ATOM     30  C   UNL A   1      31.755  30.813  25.995  1.00  0.00     0.261 C 
BRANCH  30  31
ATOM     31  O   UNL A   1      32.357  31.109  27.272  1.00  0.00    -0.460 OA
BRANCH  31  32
ATOM     32  C   UNL A   1      33.104  32.233  27.374  1.00  0.00     0.338 C 
ATOM     33  O   UNL A   1      32.712  33.381  27.231  1.00  0.00    -0.246 OA
BRANCH  32  34
ATOM     34  C   UNL A   1      34.406  31.862  27.997  1.00  0.00     0.060 A 
ATOM     35  C   UNL A   1      34.657  30.502  28.245  1.00  0.00     0.016 A 
ATOM     36  C   UNL A   1      35.411  32.805  28.235  1.00  0.00     0.016 A 
ATOM     37  C   UNL A   1      35.889  30.089  28.762  1.00  0.00     0.010 A 
ATOM     38  C   UNL A   1      36.638  32.392  28.773  1.00  0.00     0.010 A 
ATOM     39  C   UNL A   1      36.874  31.037  29.068  1.00  0.00    -0.014 A 
BRANCH  39  40
ATOM     40  C   UNL A   1      38.060  30.654  29.881  1.00  0.00     0.031 A 
ATOM     41  C   UNL A   1      39.074  29.730  29.261  1.00  0.00     0.074 A 
ATOM     42  C   UNL A   1      38.252  31.106  31.135  1.00  0.00     0.049 A 
ATOM     43  N   UNL A   1      40.133  29.174  29.792  1.00  0.00    -0.248 NA
ATOM     44  C   UNL A   1      38.862  29.389  27.845  1.00  0.00     0.031 C 
ATOM     45  C   UNL A   1      37.388  32.050  31.839  1.00  0.00     0.029 A 
ATOM     46  N   UNL A   1      39.243  30.816  32.044  1.00  0.00    -0.354 N 
ATOM     47  C   UNL A   1      40.703  28.410  28.782  1.00  0.00     0.074 A 
ATOM     48  C   UNL A   1      39.862  28.550  27.614  1.00  0.00     0.031 C 
ATOM     49  C   UNL A   1      37.879  32.251  33.075  1.00  0.00     0.029 A 
ATOM     50  C   UNL A   1      39.068  31.419  33.265  1.00  0.00     0.049 A 
ATOM     51  H   UNL A   1      40.007  30.230  31.838  1.00  0.00     0.167 HD
ATOM     52  C   UNL A   1      41.832  27.664  28.819  1.00  0.00     0.037 A 
ATOM     53  C   UNL A   1      39.768  31.293  34.413  1.00  0.00     0.037 A 
ATOM     54  C   UNL A   1      42.672  27.522  29.977  1.00  0.00     0.049 A 
ATOM     55  C   UNL A   1      40.966  30.378  34.462  1.00  0.00     0.074 A 
ATOM     56  C   UNL A   1      43.840  26.793  30.105  1.00  0.00     0.029 A 
ATOM     57  N   UNL A   1      42.432  28.114  31.207  1.00  0.00    -0.354 N 
ATOM     58  N   UNL A   1      41.502  29.665  33.501  1.00  0.00    -0.248 NA
ATOM     59  C   UNL A   1      41.657  30.247  35.755  1.00  0.00     0.031 C 
ATOM     60  C   UNL A   1      44.277  26.896  31.428  1.00  0.00     0.029 A 
ATOM     61  C   UNL A   1      43.415  27.742  32.108  1.00  0.00     0.049 A 
ATOM     62  H   UNL A   1      41.675  28.711  31.410  1.00  0.00     0.167 HD
ATOM     63  C   UNL A   1      42.602  29.026  34.064  1.00  0.00     0.074 A 
ATOM     64  C   UNL A   1      42.666  29.443  35.448  1.00  0.00     0.031 C 
ATOM     65  C   UNL A   1      43.480  28.171  33.482  1.00  0.00     0.037 A 
BRANCH  52  66
ATOM     66  C   UNL A   1      42.217  26.921  27.574  1.00  0.00     0.057 A 
ATOM     67  C   UNL A   1      42.972  27.549  26.575  1.00  0.00     0.134 A 
ATOM     68  C   UNL A   1      41.793  25.608  27.334  1.00  0.00     0.134 A 
ATOM     69  F   UNL A   1      43.407  28.808  26.739  1.00  0.00    -0.206 F 
ATOM     70  C   UNL A   1      43.276  26.904  25.375  1.00  0.00     0.040 A 
ATOM     71  C   UNL A   1      42.116  24.942  26.151  1.00  0.00     0.040 A 
ATOM     72  F   UNL A   1      41.082  24.943  28.257  1.00  0.00    -0.206 F 
ATOM     73  C   UNL A   1      42.850  25.595  25.163  1.00  0.00     0.006 A 
ENDBRANCH  52  66
BRANCH  53  74
ATOM     74  C   UNL A   1      39.348  32.046  35.626  1.00  0.00     0.057 A 
ATOM     75  C   UNL A   1      39.840  33.329  35.899  1.00  0.00     0.134 A 
ATOM     76  C   UNL A   1      38.435  31.502  36.537  1.00  0.00     0.134 A 
ATOM     77  F   UNL A   1      40.710  33.912  35.062  1.00  0.00    -0.206 F 
ATOM     78  C   UNL A   1      39.460  34.032  37.044  1.00  0.00     0.040 A 
ATOM     79  C   UNL A   1      38.025  32.204  37.672  1.00  0.00     0.040 A 
ATOM     80  F   UNL A   1      37.901  30.292  36.316  1.00  0.00    -0.206 F 
ATOM     81  C   UNL A   1      38.545  33.470  37.933  1.00  0.00     0.006 A 
ENDBRANCH  53  74
BRANCH  65  82
ATOM     82  C   UNL A   1      44.612  27.641  34.317  1.00  0.00     0.057 A 
ATOM     83  C   UNL A   1      45.834  28.325  34.375  1.00  0.00     0.134 A 
ATOM     84  C   UNL A   1      44.531  26.411  34.979  1.00  0.00     0.134 A 
ATOM     85  F   UNL A   1      45.986  29.504  33.751  1.00  0.00    -0.206 F 
ATOM     86  C   UNL A   1      46.939  27.795  35.044  1.00  0.00     0.040 A 
ATOM     87  C   UNL A   1      45.621  25.882  35.675  1.00  0.00     0.040 A 
ATOM     88  F   UNL A   1      43.388  25.707  34.969  1.00  0.00    -0.206 F 
ATOM     89  C   UNL A   1      46.833  26.570  35.698  1.00  0.00     0.006 A 
ENDBRANCH  65  82
ENDBRANCH  39  40
ENDBRANCH  32  34
ENDBRANCH  31  32
ENDBRANCH  30  31
ENDBRANCH  29  30
ENDBRANCH  28  29
ENDBRANCH  27  28
ENDBRANCH   1  27
TORSDOF 21
ENDMDL
