MODEL 1
REMARK VINA RESULT:     -11.4      0.000      0.000
REMARK SMILES NS(=O)(=O)c1ccc(-n2nc(C(=O)OCCOCCOCCOC(=O)c3ccc(-c4c5nc(c(-c6c(F)cccc6F)c6ccc([nH]6)c(-c6c(F)cccc6F)c6nc(c(-c7c(F)cccc7F)c7ccc4[nH]7)C=C6)C=C5)cc3)c(Cl)c2-c2ccc(Cl)cc2)cc1
REMARK SMILES IDX 18 1 17 2 16 3 15 4 14 5 12 6 13 7 11 8 9 9 10 10 82 11
REMARK SMILES IDX 80 12 81 13 8 14 5 15 6 16 91 17 7 18 90 19 2 20 3 21 4 22
REMARK SMILES IDX 1 23 83 26 84 27 89 28 85 29 88 30 86 31 87 32 19 33 20 34
REMARK SMILES IDX 21 35 22 36 23 37 24 38 25 39 26 40 27 41 79 42 28 43 78 44
REMARK SMILES IDX 29 45 30 46 31 47 72 48 32 49 77 50 71 51 73 52 33 53 76 54
REMARK SMILES IDX 70 55 69 56 34 58 60 59 43 60 59 61 44 62 47 63 58 64 74 65
REMARK SMILES IDX 45 66 46 67 57 69 75 70 48 71 35 72 36 73 41 74 37 75 38 76
REMARK SMILES IDX 40 77 42 78 39 79 61 80 62 81 67 82 63 83 64 84 66 85 68 86
REMARK SMILES IDX 65 87 49 88 50 89 55 90 51 91 52 92 54 93 56 94 53 95
REMARK H PARENT 1 24 1 25 73 57 47 68
REMARK Flexibility Score: inf
ROOT
ATOM      1  C   UNL A   1      35.776  21.505  24.601  1.00  0.00     0.188 C 
ENDROOT
BRANCH   1   2
ATOM      2  O   UNL A   1      34.855  20.822  25.444  1.00  0.00    -0.376 OA
BRANCH   2   3
ATOM      3  C   UNL A   1      33.997  19.827  24.897  1.00  0.00     0.202 C 
BRANCH   3   4
ATOM      4  C   UNL A   1      32.564  20.210  24.489  1.00  0.00     0.261 C 
BRANCH   4   5
ATOM      5  O   UNL A   1      32.201  21.568  24.782  1.00  0.00    -0.458 OA
BRANCH   5   6
ATOM      6  C   UNL A   1      32.217  22.463  23.750  1.00  0.00     0.360 C 
ATOM      7  O   UNL A   1      32.382  22.148  22.576  1.00  0.00    -0.244 OA
BRANCH   6   8
ATOM      8  C   UNL A   1      31.945  23.844  24.186  1.00  0.00     0.190 A 
ATOM      9  N   UNL A   1      31.077  25.806  24.170  1.00  0.00    -0.231 N 
ATOM     10  N   UNL A   1      30.909  24.554  23.685  1.00  0.00    -0.159 NA
ATOM     11  C   UNL A   1      32.107  25.888  25.091  1.00  0.00     0.094 A 
ATOM     12  C   UNL A   1      32.636  24.611  25.158  1.00  0.00     0.102 A 
ATOM     13  Cl  UNL A   1      33.913  24.093  26.160  1.00  0.00    -0.079 Cl
BRANCH   9  14
ATOM     14  C   UNL A   1      30.357  26.880  23.598  1.00  0.00     0.065 A 
ATOM     15  C   UNL A   1      29.008  29.076  22.559  1.00  0.00     0.082 A 
ATOM     16  C   UNL A   1      28.307  28.131  23.317  1.00  0.00     0.024 A 
ATOM     17  C   UNL A   1      30.371  28.907  22.288  1.00  0.00     0.024 A 
ATOM     18  C   UNL A   1      28.979  27.009  23.820  1.00  0.00     0.030 A 
ATOM     19  C   UNL A   1      31.053  27.819  22.827  1.00  0.00     0.030 A 
BRANCH  15  20
ATOM     20  S   UNL A   1      28.225  30.521  21.902  1.00  0.00     0.238 S 
ATOM     21  O   UNL A   1      27.213  30.956  22.840  1.00  0.00    -0.207 OA
ATOM     22  O   UNL A   1      27.946  30.285  20.508  1.00  0.00    -0.207 OA
BRANCH  20  23
ATOM     23  N   UNL A   1      29.402  31.717  21.941  1.00  0.00    -0.225 NA
ATOM     24  H   UNL A   1      30.125  31.462  22.614  1.00  0.00     0.137 HD
ATOM     25  H   UNL A   1      28.979  32.604  22.217  1.00  0.00     0.137 HD
ENDBRANCH  20  23
ENDBRANCH  15  20
ENDBRANCH   9  14
BRANCH  11  26
ATOM     26  C   UNL A   1      32.527  27.100  25.796  1.00  0.00     0.002 A 
ATOM     27  C   UNL A   1      31.653  27.670  26.733  1.00  0.00     0.012 A 
ATOM     28  C   UNL A   1      33.751  27.730  25.533  1.00  0.00     0.012 A 
ATOM     29  C   UNL A   1      31.981  28.860  27.381  1.00  0.00     0.021 A 
ATOM     30  C   UNL A   1      34.081  28.922  26.188  1.00  0.00     0.021 A 
ATOM     31  C   UNL A   1      33.192  29.486  27.102  1.00  0.00     0.041 A 
ATOM     32  Cl  UNL A   1      33.580  30.969  27.881  1.00  0.00    -0.084 Cl
ENDBRANCH  11  26
ENDBRANCH   6   8
ENDBRANCH   5   6
ENDBRANCH   4   5
ENDBRANCH   3   4
ENDBRANCH   2   3
ENDBRANCH   1   2
BRANCH   1  33
ATOM     33  C   UNL A   1      37.291  21.230  24.721  1.00  0.00     0.188 C 
BRANCH  33  34
ATOM     34  O   UNL A   1      38.050  22.323  25.208  1.00  0.00    -0.376 OA
BRANCH  34  35
ATOM     35  C   UNL A   1      39.027  22.056  26.204  1.00  0.00     0.202 C 
BRANCH  35  36
ATOM     36  C   UNL A   1      39.668  20.669  26.200  1.00  0.00     0.261 C 
BRANCH  36  37
ATOM     37  O   UNL A   1      40.744  20.508  25.287  1.00  0.00    -0.460 OA
BRANCH  37  38
ATOM     38  C   UNL A   1      41.865  19.960  25.793  1.00  0.00     0.338 C 
ATOM     39  O   UNL A   1      42.273  18.824  25.637  1.00  0.00    -0.246 OA
BRANCH  38  40
ATOM     40  C   UNL A   1      42.520  20.970  26.627  1.00  0.00     0.060 A 
ATOM     41  C   UNL A   1      42.283  20.941  28.003  1.00  0.00     0.016 A 
ATOM     42  C   UNL A   1      43.137  22.060  25.995  1.00  0.00     0.016 A 
ATOM     43  C   UNL A   1      42.478  22.102  28.721  1.00  0.00     0.010 A 
ATOM     44  C   UNL A   1      43.308  23.221  26.706  1.00  0.00     0.010 A 
ATOM     45  C   UNL A   1      42.888  23.247  28.035  1.00  0.00    -0.014 A 
BRANCH  45  46
ATOM     46  C   UNL A   1      42.781  24.519  28.712  1.00  0.00     0.031 A 
ATOM     47  C   UNL A   1      41.598  25.328  28.363  1.00  0.00     0.074 A 
ATOM     48  C   UNL A   1      43.648  24.841  29.691  1.00  0.00     0.049 A 
ATOM     49  N   UNL A   1      41.563  26.520  27.866  1.00  0.00    -0.248 NA
ATOM     50  C   UNL A   1      40.279  24.691  28.505  1.00  0.00     0.031 C 
ATOM     51  C   UNL A   1      44.645  23.970  30.328  1.00  0.00     0.029 A 
ATOM     52  N   UNL A   1      43.733  25.988  30.414  1.00  0.00    -0.354 N 
ATOM     53  C   UNL A   1      40.215  26.857  27.807  1.00  0.00     0.074 A 
ATOM     54  C   UNL A   1      39.473  25.651  28.057  1.00  0.00     0.031 C 
ATOM     55  C   UNL A   1      45.068  24.549  31.474  1.00  0.00     0.029 A 
ATOM     56  C   UNL A   1      44.462  25.865  31.587  1.00  0.00     0.049 A 
ATOM     57  H   UNL A   1      43.312  26.831  30.131  1.00  0.00     0.167 HD
ATOM     58  C   UNL A   1      39.807  28.153  27.800  1.00  0.00     0.037 A 
ATOM     59  C   UNL A   1      44.483  26.751  32.612  1.00  0.00     0.037 A 
ATOM     60  C   UNL A   1      40.860  29.044  27.392  1.00  0.00     0.049 A 
ATOM     61  C   UNL A   1      43.952  28.042  32.108  1.00  0.00     0.074 A 
ATOM     62  C   UNL A   1      41.644  29.165  26.261  1.00  0.00     0.029 A 
ATOM     63  N   UNL A   1      41.479  29.801  28.355  1.00  0.00    -0.354 N 
ATOM     64  N   UNL A   1      44.575  28.818  31.266  1.00  0.00    -0.248 NA
ATOM     65  C   UNL A   1      42.519  28.277  32.225  1.00  0.00     0.031 C 
ATOM     66  C   UNL A   1      42.919  29.590  26.733  1.00  0.00     0.029 A 
ATOM     67  C   UNL A   1      42.827  29.731  28.119  1.00  0.00     0.049 A 
ATOM     68  H   UNL A   1      41.037  30.302  29.079  1.00  0.00     0.167 HD
ATOM     69  C   UNL A   1      43.576  29.337  30.454  1.00  0.00     0.074 A 
ATOM     70  C   UNL A   1      42.328  29.056  31.158  1.00  0.00     0.031 C 
ATOM     71  C   UNL A   1      43.827  29.690  29.160  1.00  0.00     0.037 A 
BRANCH  58  72
ATOM     72  C   UNL A   1      38.564  28.628  28.505  1.00  0.00     0.057 A 
ATOM     73  C   UNL A   1      37.709  29.536  27.859  1.00  0.00     0.134 A 
ATOM     74  C   UNL A   1      38.323  28.452  29.885  1.00  0.00     0.134 A 
ATOM     75  F   UNL A   1      37.858  29.810  26.554  1.00  0.00    -0.206 F 
ATOM     76  C   UNL A   1      36.725  30.255  28.547  1.00  0.00     0.040 A 
ATOM     77  C   UNL A   1      37.307  29.122  30.568  1.00  0.00     0.040 A 
ATOM     78  F   UNL A   1      39.117  27.706  30.664  1.00  0.00    -0.206 F 
ATOM     79  C   UNL A   1      36.523  30.052  29.906  1.00  0.00     0.006 A 
ENDBRANCH  58  72
BRANCH  59  80
ATOM     80  C   UNL A   1      44.655  26.474  34.055  1.00  0.00     0.057 A 
ATOM     81  C   UNL A   1      43.627  25.891  34.808  1.00  0.00     0.134 A 
ATOM     82  C   UNL A   1      45.913  26.544  34.681  1.00  0.00     0.134 A 
ATOM     83  F   UNL A   1      42.403  25.737  34.284  1.00  0.00    -0.206 F 
ATOM     84  C   UNL A   1      43.841  25.392  36.100  1.00  0.00     0.040 A 
ATOM     85  C   UNL A   1      46.138  26.063  35.974  1.00  0.00     0.040 A 
ATOM     86  F   UNL A   1      46.991  27.001  34.027  1.00  0.00    -0.206 F 
ATOM     87  C   UNL A   1      45.102  25.471  36.684  1.00  0.00     0.006 A 
ENDBRANCH  59  80
BRANCH  71  88
ATOM     88  C   UNL A   1      45.263  29.763  28.721  1.00  0.00     0.057 A 
ATOM     89  C   UNL A   1      45.986  28.664  28.234  1.00  0.00     0.134 A 
ATOM     90  C   UNL A   1      45.886  31.015  28.647  1.00  0.00     0.134 A 
ATOM     91  F   UNL A   1      45.434  27.446  28.164  1.00  0.00    -0.206 F 
ATOM     92  C   UNL A   1      47.288  28.797  27.744  1.00  0.00     0.040 A 
ATOM     93  C   UNL A   1      47.173  31.166  28.128  1.00  0.00     0.040 A 
ATOM     94  F   UNL A   1      45.231  32.120  29.037  1.00  0.00    -0.206 F 
ATOM     95  C   UNL A   1      47.884  30.054  27.684  1.00  0.00     0.006 A 
ENDBRANCH  71  88
ENDBRANCH  45  46
ENDBRANCH  38  40
ENDBRANCH  37  38
ENDBRANCH  36  37
ENDBRANCH  35  36
ENDBRANCH  34  35
ENDBRANCH  33  34
ENDBRANCH   1  33
TORSDOF 21
ENDMDL
MODEL 2
REMARK VINA RESULT:     -11.2      3.157      4.560
REMARK SMILES NS(=O)(=O)c1ccc(-n2nc(C(=O)OCCOCCOCCOC(=O)c3ccc(-c4c5nc(c(-c6c(F)cccc6F)c6ccc([nH]6)c(-c6c(F)cccc6F)c6nc(c(-c7c(F)cccc7F)c7ccc4[nH]7)C=C6)C=C5)cc3)c(Cl)c2-c2ccc(Cl)cc2)cc1
REMARK SMILES IDX 18 1 17 2 16 3 15 4 14 5 12 6 13 7 11 8 9 9 10 10 82 11
REMARK SMILES IDX 80 12 81 13 8 14 5 15 6 16 91 17 7 18 90 19 2 20 3 21 4 22
REMARK SMILES IDX 1 23 83 26 84 27 89 28 85 29 88 30 86 31 87 32 19 33 20 34
REMARK SMILES IDX 21 35 22 36 23 37 24 38 25 39 26 40 27 41 79 42 28 43 78 44
REMARK SMILES IDX 29 45 30 46 31 47 72 48 32 49 77 50 71 51 73 52 33 53 76 54
REMARK SMILES IDX 70 55 69 56 34 58 60 59 43 60 59 61 44 62 47 63 58 64 74 65
REMARK SMILES IDX 45 66 46 67 57 69 75 70 48 71 35 72 36 73 41 74 37 75 38 76
REMARK SMILES IDX 40 77 42 78 39 79 61 80 62 81 67 82 63 83 64 84 66 85 68 86
REMARK SMILES IDX 65 87 49 88 50 89 55 90 51 91 52 92 54 93 56 94 53 95
REMARK H PARENT 1 24 1 25 73 57 47 68
REMARK Flexibility Score: inf
ROOT
ATOM      1  C   UNL A   1      34.789  20.887  25.079  1.00  0.00     0.188 C 
ENDROOT
BRANCH   1   2
ATOM      2  O   UNL A   1      33.957  19.815  24.651  1.00  0.00    -0.376 OA
BRANCH   2   3
ATOM      3  C   UNL A   1      32.640  20.084  24.181  1.00  0.00     0.202 C 
BRANCH   3   4
ATOM      4  C   UNL A   1      32.117  21.529  24.194  1.00  0.00     0.261 C 
BRANCH   4   5
ATOM      5  O   UNL A   1      32.119  22.178  22.913  1.00  0.00    -0.458 OA
BRANCH   5   6
ATOM      6  C   UNL A   1      33.033  23.172  22.710  1.00  0.00     0.360 C 
ATOM      7  O   UNL A   1      34.027  23.051  22.001  1.00  0.00    -0.244 OA
BRANCH   6   8
ATOM      8  C   UNL A   1      32.664  24.434  23.375  1.00  0.00     0.190 A 
ATOM      9  N   UNL A   1      31.663  26.306  23.687  1.00  0.00    -0.231 N 
ATOM     10  N   UNL A   1      31.585  25.150  22.988  1.00  0.00    -0.159 NA
ATOM     11  C   UNL A   1      32.681  26.294  24.626  1.00  0.00     0.094 A 
ATOM     12  C   UNL A   1      33.296  25.063  24.477  1.00  0.00     0.102 A 
ATOM     13  Cl  UNL A   1      34.601  24.464  25.395  1.00  0.00    -0.079 Cl
BRANCH   9  14
ATOM     14  C   UNL A   1      30.874  27.413  23.299  1.00  0.00     0.065 A 
ATOM     15  C   UNL A   1      29.271  29.514  22.438  1.00  0.00     0.082 A 
ATOM     16  C   UNL A   1      30.659  29.587  22.262  1.00  0.00     0.024 A 
ATOM     17  C   UNL A   1      28.689  28.413  23.076  1.00  0.00     0.024 A 
ATOM     18  C   UNL A   1      31.471  28.541  22.720  1.00  0.00     0.030 A 
ATOM     19  C   UNL A   1      29.488  27.349  23.487  1.00  0.00     0.030 A 
BRANCH  15  20
ATOM     20  S   UNL A   1      28.186  30.793  21.876  1.00  0.00     0.238 S 
ATOM     21  O   UNL A   1      27.234  31.078  22.927  1.00  0.00    -0.207 OA
ATOM     22  O   UNL A   1      27.787  30.481  20.526  1.00  0.00    -0.207 OA
BRANCH  20  23
ATOM     23  N   UNL A   1      29.143  32.168  21.766  1.00  0.00    -0.225 NA
ATOM     24  H   UNL A   1      29.680  32.278  22.627  1.00  0.00     0.137 HD
ATOM     25  H   UNL A   1      28.550  32.986  21.629  1.00  0.00     0.137 HD
ENDBRANCH  20  23
ENDBRANCH  15  20
ENDBRANCH   9  14
BRANCH  11  26
ATOM     26  C   UNL A   1      33.013  27.390  25.538  1.00  0.00     0.002 A 
ATOM     27  C   UNL A   1      34.181  28.130  25.304  1.00  0.00     0.012 A 
ATOM     28  C   UNL A   1      32.226  27.692  26.657  1.00  0.00     0.012 A 
ATOM     29  C   UNL A   1      34.573  29.139  26.181  1.00  0.00     0.021 A 
ATOM     30  C   UNL A   1      32.618  28.710  27.535  1.00  0.00     0.021 A 
ATOM     31  C   UNL A   1      33.793  29.422  27.298  1.00  0.00     0.041 A 
ATOM     32  Cl  UNL A   1      34.294  30.647  28.395  1.00  0.00    -0.084 Cl
ENDBRANCH  11  26
ENDBRANCH   6   8
ENDBRANCH   5   6
ENDBRANCH   4   5
ENDBRANCH   3   4
ENDBRANCH   2   3
ENDBRANCH   1   2
BRANCH   1  33
ATOM     33  C   UNL A   1      36.327  20.750  25.016  1.00  0.00     0.188 C 
BRANCH  33  34
ATOM     34  O   UNL A   1      37.025  21.530  25.970  1.00  0.00    -0.376 OA
BRANCH  34  35
ATOM     35  C   UNL A   1      38.123  22.307  25.511  1.00  0.00     0.202 C 
BRANCH  35  36
ATOM     36  C   UNL A   1      38.279  23.710  26.095  1.00  0.00     0.261 C 
BRANCH  36  37
ATOM     37  O   UNL A   1      39.282  23.836  27.093  1.00  0.00    -0.460 OA
BRANCH  37  38
ATOM     38  C   UNL A   1      40.186  24.814  26.895  1.00  0.00     0.338 C 
ATOM     39  O   UNL A   1      41.241  24.741  26.291  1.00  0.00    -0.246 OA
BRANCH  38  40
ATOM     40  C   UNL A   1      39.706  26.014  27.584  1.00  0.00     0.060 A 
ATOM     41  C   UNL A   1      40.014  27.258  27.028  1.00  0.00     0.016 A 
ATOM     42  C   UNL A   1      39.194  25.878  28.882  1.00  0.00     0.016 A 
ATOM     43  C   UNL A   1      40.003  28.360  27.856  1.00  0.00     0.010 A 
ATOM     44  C   UNL A   1      39.205  26.972  29.711  1.00  0.00     0.010 A 
ATOM     45  C   UNL A   1      39.698  28.175  29.207  1.00  0.00    -0.014 A 
BRANCH  45  46
ATOM     46  C   UNL A   1      39.997  29.250  30.125  1.00  0.00     0.031 A 
ATOM     47  C   UNL A   1      38.870  30.149  30.440  1.00  0.00     0.074 A 
ATOM     48  C   UNL A   1      41.196  29.306  30.736  1.00  0.00     0.049 A 
ATOM     49  N   UNL A   1      38.792  31.426  30.259  1.00  0.00    -0.248 NA
ATOM     50  C   UNL A   1      37.634  29.531  30.942  1.00  0.00     0.031 C 
ATOM     51  C   UNL A   1      42.249  28.283  30.739  1.00  0.00     0.029 A 
ATOM     52  N   UNL A   1      41.673  30.244  31.595  1.00  0.00    -0.354 N 
ATOM     53  C   UNL A   1      37.567  31.802  30.798  1.00  0.00     0.074 A 
ATOM     54  C   UNL A   1      36.835  30.590  31.055  1.00  0.00     0.031 C 
ATOM     55  C   UNL A   1      43.130  28.560  31.726  1.00  0.00     0.029 A 
ATOM     56  C   UNL A   1      42.766  29.826  32.339  1.00  0.00     0.049 A 
ATOM     57  H   UNL A   1      41.279  31.141  31.681  1.00  0.00     0.167 HD
ATOM     58  C   UNL A   1      37.338  33.072  31.223  1.00  0.00     0.037 A 
ATOM     59  C   UNL A   1      43.267  30.439  33.438  1.00  0.00     0.037 A 
ATOM     60  C   UNL A   1      38.261  34.007  30.638  1.00  0.00     0.049 A 
ATOM     61  C   UNL A   1      42.740  31.827  33.464  1.00  0.00     0.074 A 
ATOM     62  C   UNL A   1      38.579  34.375  29.344  1.00  0.00     0.029 A 
ATOM     63  N   UNL A   1      39.275  34.496  31.422  1.00  0.00    -0.354 N 
ATOM     64  N   UNL A   1      43.092  32.766  32.630  1.00  0.00    -0.248 NA
ATOM     65  C   UNL A   1      41.489  32.064  34.172  1.00  0.00     0.031 C 
ATOM     66  C   UNL A   1      39.978  34.642  29.365  1.00  0.00     0.029 A 
ATOM     67  C   UNL A   1      40.422  34.450  30.674  1.00  0.00     0.049 A 
ATOM     68  H   UNL A   1      39.194  34.820  32.349  1.00  0.00     0.167 HD
ATOM     69  C   UNL A   1      41.931  33.489  32.398  1.00  0.00     0.074 A 
ATOM     70  C   UNL A   1      41.009  33.081  33.453  1.00  0.00     0.031 C 
ATOM     71  C   UNL A   1      41.725  34.135  31.212  1.00  0.00     0.037 A 
BRANCH  58  72
ATOM     72  C   UNL A   1      36.507  33.396  32.437  1.00  0.00     0.057 A 
ATOM     73  C   UNL A   1      35.437  34.298  32.319  1.00  0.00     0.134 A 
ATOM     74  C   UNL A   1      36.887  33.082  33.760  1.00  0.00     0.134 A 
ATOM     75  F   UNL A   1      35.004  34.697  31.114  1.00  0.00    -0.206 F 
ATOM     76  C   UNL A   1      34.828  34.885  33.434  1.00  0.00     0.040 A 
ATOM     77  C   UNL A   1      36.248  33.618  34.879  1.00  0.00     0.040 A 
ATOM     78  F   UNL A   1      37.956  32.326  34.041  1.00  0.00    -0.206 F 
ATOM     79  C   UNL A   1      35.234  34.548  34.720  1.00  0.00     0.006 A 
ENDBRANCH  58  72
BRANCH  59  80
ATOM     80  C   UNL A   1      43.927  29.821  34.609  1.00  0.00     0.057 A 
ATOM     81  C   UNL A   1      45.160  30.296  35.079  1.00  0.00     0.134 A 
ATOM     82  C   UNL A   1      43.256  28.914  35.449  1.00  0.00     0.134 A 
ATOM     83  F   UNL A   1      45.855  31.198  34.373  1.00  0.00    -0.206 F 
ATOM     84  C   UNL A   1      45.684  29.904  36.318  1.00  0.00     0.040 A 
ATOM     85  C   UNL A   1      43.774  28.504  36.680  1.00  0.00     0.040 A 
ATOM     86  F   UNL A   1      42.030  28.461  35.144  1.00  0.00    -0.206 F 
ATOM     87  C   UNL A   1      44.987  29.010  37.126  1.00  0.00     0.006 A 
ENDBRANCH  59  80
BRANCH  71  88
ATOM     88  C   UNL A   1      42.894  34.274  30.279  1.00  0.00     0.057 A 
ATOM     89  C   UNL A   1      43.266  33.296  29.345  1.00  0.00     0.134 A 
ATOM     90  C   UNL A   1      43.572  35.497  30.220  1.00  0.00     0.134 A 
ATOM     91  F   UNL A   1      42.603  32.136  29.254  1.00  0.00    -0.206 F 
ATOM     92  C   UNL A   1      44.299  33.508  28.428  1.00  0.00     0.040 A 
ATOM     93  C   UNL A   1      44.583  35.734  29.286  1.00  0.00     0.040 A 
ATOM     94  F   UNL A   1      43.228  36.502  31.041  1.00  0.00    -0.206 F 
ATOM     95  C   UNL A   1      44.958  34.733  28.393  1.00  0.00     0.006 A 
ENDBRANCH  71  88
ENDBRANCH  45  46
ENDBRANCH  38  40
ENDBRANCH  37  38
ENDBRANCH  36  37
ENDBRANCH  35  36
ENDBRANCH  34  35
ENDBRANCH  33  34
ENDBRANCH   1  33
TORSDOF 21
ENDMDL
MODEL 3
REMARK VINA RESULT:     -11.2      2.421      5.984
REMARK SMILES NS(=O)(=O)c1ccc(-n2nc(C(=O)OCCOCCOCCOC(=O)c3ccc(-c4c5nc(c(-c6c(F)cccc6F)c6ccc([nH]6)c(-c6c(F)cccc6F)c6nc(c(-c7c(F)cccc7F)c7ccc4[nH]7)C=C6)C=C5)cc3)c(Cl)c2-c2ccc(Cl)cc2)cc1
REMARK SMILES IDX 18 1 17 2 16 3 15 4 14 5 12 6 13 7 11 8 9 9 10 10 82 11
REMARK SMILES IDX 80 12 81 13 8 14 5 15 6 16 91 17 7 18 90 19 2 20 3 21 4 22
REMARK SMILES IDX 1 23 83 26 84 27 89 28 85 29 88 30 86 31 87 32 19 33 20 34
REMARK SMILES IDX 21 35 22 36 23 37 24 38 25 39 26 40 27 41 79 42 28 43 78 44
REMARK SMILES IDX 29 45 30 46 31 47 72 48 32 49 77 50 71 51 73 52 33 53 76 54
REMARK SMILES IDX 70 55 69 56 34 58 60 59 43 60 59 61 44 62 47 63 58 64 74 65
REMARK SMILES IDX 45 66 46 67 57 69 75 70 48 71 35 72 36 73 41 74 37 75 38 76
REMARK SMILES IDX 40 77 42 78 39 79 61 80 62 81 67 82 63 83 64 84 66 85 68 86
REMARK SMILES IDX 65 87 49 88 50 89 55 90 51 91 52 92 54 93 56 94 53 95
REMARK H PARENT 1 24 1 25 73 57 47 68
REMARK Flexibility Score: inf
ROOT
ATOM      1  C   UNL A   1      34.901  20.864  24.631  1.00  0.00     0.188 C 
ENDROOT
BRANCH   1   2
ATOM      2  O   UNL A   1      33.937  19.818  24.682  1.00  0.00    -0.376 OA
BRANCH   2   3
ATOM      3  C   UNL A   1      32.562  20.111  24.463  1.00  0.00     0.202 C 
BRANCH   3   4
ATOM      4  C   UNL A   1      32.102  21.578  24.420  1.00  0.00     0.261 C 
BRANCH   4   5
ATOM      5  O   UNL A   1      31.881  22.098  23.100  1.00  0.00    -0.458 OA
BRANCH   5   6
ATOM      6  C   UNL A   1      32.670  23.135  22.689  1.00  0.00     0.360 C 
ATOM      7  O   UNL A   1      33.548  23.029  21.839  1.00  0.00    -0.244 OA
BRANCH   6   8
ATOM      8  C   UNL A   1      32.307  24.415  23.323  1.00  0.00     0.190 A 
ATOM      9  N   UNL A   1      31.305  26.292  23.596  1.00  0.00    -0.231 N 
ATOM     10  N   UNL A   1      31.218  25.115  22.934  1.00  0.00    -0.159 NA
ATOM     11  C   UNL A   1      32.340  26.312  24.516  1.00  0.00     0.094 A 
ATOM     12  C   UNL A   1      32.957  25.080  24.393  1.00  0.00     0.102 A 
ATOM     13  Cl  UNL A   1      34.281  24.513  25.304  1.00  0.00    -0.079 Cl
BRANCH   9  14
ATOM     14  C   UNL A   1      30.505  27.384  23.189  1.00  0.00     0.065 A 
ATOM     15  C   UNL A   1      28.997  29.608  22.480  1.00  0.00     0.082 A 
ATOM     16  C   UNL A   1      28.385  28.548  23.160  1.00  0.00     0.024 A 
ATOM     17  C   UNL A   1      30.348  29.544  22.122  1.00  0.00     0.024 A 
ATOM     18  C   UNL A   1      29.137  27.414  23.495  1.00  0.00     0.030 A 
ATOM     19  C   UNL A   1      31.110  28.439  22.497  1.00  0.00     0.030 A 
BRANCH  15  20
ATOM     20  S   UNL A   1      28.111  31.074  22.036  1.00  0.00     0.238 S 
ATOM     21  O   UNL A   1      27.221  31.416  23.124  1.00  0.00    -0.207 OA
ATOM     22  O   UNL A   1      27.659  30.929  20.676  1.00  0.00    -0.207 OA
BRANCH  20  23
ATOM     23  N   UNL A   1      29.262  32.295  22.011  1.00  0.00    -0.225 NA
ATOM     24  H   UNL A   1      29.510  32.511  21.046  1.00  0.00     0.137 HD
ATOM     25  H   UNL A   1      30.095  31.989  22.515  1.00  0.00     0.137 HD
ENDBRANCH  20  23
ENDBRANCH  15  20
ENDBRANCH   9  14
BRANCH  11  26
ATOM     26  C   UNL A   1      32.684  27.436  25.388  1.00  0.00     0.002 A 
ATOM     27  C   UNL A   1      31.773  27.819  26.383  1.00  0.00     0.012 A 
ATOM     28  C   UNL A   1      33.870  28.165  25.233  1.00  0.00     0.012 A 
ATOM     29  C   UNL A   1      32.026  28.923  27.195  1.00  0.00     0.021 A 
ATOM     30  C   UNL A   1      34.126  29.270  26.052  1.00  0.00     0.021 A 
ATOM     31  C   UNL A   1      33.200  29.649  27.023  1.00  0.00     0.041 A 
ATOM     32  Cl  UNL A   1      33.496  31.029  28.006  1.00  0.00    -0.084 Cl
ENDBRANCH  11  26
ENDBRANCH   6   8
ENDBRANCH   5   6
ENDBRANCH   4   5
ENDBRANCH   3   4
ENDBRANCH   2   3
ENDBRANCH   1   2
BRANCH   1  33
ATOM     33  C   UNL A   1      36.348  20.612  25.111  1.00  0.00     0.188 C 
BRANCH  33  34
ATOM     34  O   UNL A   1      36.896  21.655  25.898  1.00  0.00    -0.376 OA
BRANCH  34  35
ATOM     35  C   UNL A   1      37.364  22.814  25.222  1.00  0.00     0.202 C 
BRANCH  35  36
ATOM     36  C   UNL A   1      38.002  23.910  26.075  1.00  0.00     0.261 C 
BRANCH  36  37
ATOM     37  O   UNL A   1      38.929  23.449  27.047  1.00  0.00    -0.460 OA
BRANCH  37  38
ATOM     38  C   UNL A   1      40.201  23.313  26.628  1.00  0.00     0.338 C 
ATOM     39  O   UNL A   1      40.721  22.328  26.136  1.00  0.00    -0.246 OA
BRANCH  38  40
ATOM     40  C   UNL A   1      40.900  24.569  26.905  1.00  0.00     0.060 A 
ATOM     41  C   UNL A   1      41.664  24.652  28.072  1.00  0.00     0.016 A 
ATOM     42  C   UNL A   1      40.573  25.698  26.141  1.00  0.00     0.016 A 
ATOM     43  C   UNL A   1      41.926  25.903  28.590  1.00  0.00     0.010 A 
ATOM     44  C   UNL A   1      40.815  26.942  26.669  1.00  0.00     0.010 A 
ATOM     45  C   UNL A   1      41.406  27.018  27.929  1.00  0.00    -0.014 A 
BRANCH  45  46
ATOM     46  C   UNL A   1      41.402  28.282  28.631  1.00  0.00     0.031 A 
ATOM     47  C   UNL A   1      42.545  29.171  28.347  1.00  0.00     0.074 A 
ATOM     48  C   UNL A   1      40.336  28.642  29.372  1.00  0.00     0.049 A 
ATOM     49  N   UNL A   1      43.411  29.649  29.178  1.00  0.00    -0.248 NA
ATOM     50  C   UNL A   1      42.811  29.500  26.938  1.00  0.00     0.031 C 
ATOM     51  C   UNL A   1      39.028  27.978  29.445  1.00  0.00     0.029 A 
ATOM     52  N   UNL A   1      40.158  29.760  30.124  1.00  0.00    -0.354 N 
ATOM     53  C   UNL A   1      44.221  30.492  28.425  1.00  0.00     0.074 A 
ATOM     54  C   UNL A   1      43.913  30.240  27.043  1.00  0.00     0.031 C 
ATOM     55  C   UNL A   1      38.138  28.819  30.015  1.00  0.00     0.029 A 
ATOM     56  C   UNL A   1      38.835  30.021  30.444  1.00  0.00     0.049 A 
ATOM     57  H   UNL A   1      40.903  30.334  30.415  1.00  0.00     0.167 HD
ATOM     58  C   UNL A   1      44.912  31.511  28.999  1.00  0.00     0.037 A 
ATOM     59  C   UNL A   1      38.346  31.183  30.941  1.00  0.00     0.037 A 
ATOM     60  C   UNL A   1      45.080  31.315  30.413  1.00  0.00     0.049 A 
ATOM     61  C   UNL A   1      39.489  31.964  31.476  1.00  0.00     0.074 A 
ATOM     62  C   UNL A   1      45.656  30.332  31.195  1.00  0.00     0.029 A 
ATOM     63  N   UNL A   1      44.310  32.065  31.268  1.00  0.00    -0.354 N 
ATOM     64  N   UNL A   1      40.161  31.649  32.548  1.00  0.00    -0.248 NA
ATOM     65  C   UNL A   1      40.161  32.888  30.572  1.00  0.00     0.031 C 
ATOM     66  C   UNL A   1      44.841  30.256  32.361  1.00  0.00     0.029 A 
ATOM     67  C   UNL A   1      43.837  31.216  32.234  1.00  0.00     0.049 A 
ATOM     68  H   UNL A   1      44.133  33.031  31.200  1.00  0.00     0.167 HD
ATOM     69  C   UNL A   1      41.475  31.987  32.256  1.00  0.00     0.074 A 
ATOM     70  C   UNL A   1      41.396  32.842  31.076  1.00  0.00     0.031 C 
ATOM     71  C   UNL A   1      42.521  31.316  32.822  1.00  0.00     0.037 A 
BRANCH  58  72
ATOM     72  C   UNL A   1      45.117  32.844  28.329  1.00  0.00     0.057 A 
ATOM     73  C   UNL A   1      44.009  33.671  28.083  1.00  0.00     0.134 A 
ATOM     74  C   UNL A   1      46.306  33.220  27.667  1.00  0.00     0.134 A 
ATOM     75  F   UNL A   1      42.815  33.400  28.631  1.00  0.00    -0.206 F 
ATOM     76  C   UNL A   1      44.066  34.757  27.202  1.00  0.00     0.040 A 
ATOM     77  C   UNL A   1      46.389  34.334  26.831  1.00  0.00     0.040 A 
ATOM     78  F   UNL A   1      47.419  32.476  27.710  1.00  0.00    -0.206 F 
ATOM     79  C   UNL A   1      45.258  35.091  26.570  1.00  0.00     0.006 A 
ENDBRANCH  58  72
BRANCH  59  80
ATOM     80  C   UNL A   1      37.011  31.782  30.719  1.00  0.00     0.057 A 
ATOM     81  C   UNL A   1      36.024  31.737  31.713  1.00  0.00     0.134 A 
ATOM     82  C   UNL A   1      36.748  32.629  29.627  1.00  0.00     0.134 A 
ATOM     83  F   UNL A   1      36.201  30.996  32.815  1.00  0.00    -0.206 F 
ATOM     84  C   UNL A   1      34.853  32.503  31.633  1.00  0.00     0.040 A 
ATOM     85  C   UNL A   1      35.578  33.386  29.528  1.00  0.00     0.040 A 
ATOM     86  F   UNL A   1      37.658  32.818  28.659  1.00  0.00    -0.206 F 
ATOM     87  C   UNL A   1      34.630  33.336  30.540  1.00  0.00     0.006 A 
ENDBRANCH  59  80
BRANCH  71  88
ATOM     88  C   UNL A   1      42.221  30.395  33.971  1.00  0.00     0.057 A 
ATOM     89  C   UNL A   1      41.831  29.057  33.815  1.00  0.00     0.134 A 
ATOM     90  C   UNL A   1      42.483  30.831  35.275  1.00  0.00     0.134 A 
ATOM     91  F   UNL A   1      41.663  28.520  32.600  1.00  0.00    -0.206 F 
ATOM     92  C   UNL A   1      41.659  28.207  34.911  1.00  0.00     0.040 A 
ATOM     93  C   UNL A   1      42.348  29.982  36.376  1.00  0.00     0.040 A 
ATOM     94  F   UNL A   1      42.921  32.081  35.495  1.00  0.00    -0.206 F 
ATOM     95  C   UNL A   1      41.923  28.668  36.198  1.00  0.00     0.006 A 
ENDBRANCH  71  88
ENDBRANCH  45  46
ENDBRANCH  38  40
ENDBRANCH  37  38
ENDBRANCH  36  37
ENDBRANCH  35  36
ENDBRANCH  34  35
ENDBRANCH  33  34
ENDBRANCH   1  33
TORSDOF 21
ENDMDL
