MODEL 1
REMARK VINA RESULT:     -10.2      0.000      0.000
REMARK SMILES C[C@@H](C(=O)OCCOCCOCCOC(=O)c1ccc(-c2c3nc(c(-c4c(F)cccc4F)c4ccc([nH]4)c(-c4c(F)cccc4F)c4nc(c(-c5c(F)cccc5F)c5ccc2[nH]5)C=C4)C=C3)cc1)c1ccc(C[C@H]2CCC[C@H]2O)cc1
REMARK SMILES IDX 9 1 8 2 7 3 6 4 5 5 3 6 4 7 2 8 1 9 71 10 72 11 83 12 73 13
REMARK SMILES IDX 82 14 74 15 75 16 76 17 77 18 80 19 78 20 79 21 81 22 10 24
REMARK SMILES IDX 11 25 12 26 13 27 14 28 15 29 16 30 17 31 18 32 70 33 19 34
REMARK SMILES IDX 69 35 20 36 21 37 22 38 63 39 23 40 68 41 62 42 64 43 24 44
REMARK SMILES IDX 67 45 61 46 60 47 25 49 51 50 34 51 50 52 35 53 38 54 49 55
REMARK SMILES IDX 65 56 36 57 37 58 48 60 66 61 39 62 26 63 27 64 32 65 28 66
REMARK SMILES IDX 29 67 31 68 33 69 30 70 52 71 53 72 58 73 54 74 55 75 57 76
REMARK SMILES IDX 59 77 56 78 40 79 41 80 46 81 42 82 43 83 45 84 47 85 44 86
REMARK H PARENT 81 23 64 48 38 59
REMARK Flexibility Score: inf
ROOT
ATOM      1  C   UNL A   1      39.296  22.086  26.271  1.00  0.00     0.188 C 
ENDROOT
BRANCH   1   2
ATOM      2  O   UNL A   1      39.478  23.488  26.129  1.00  0.00    -0.376 OA
BRANCH   2   3
ATOM      3  C   UNL A   1      38.442  24.360  26.573  1.00  0.00     0.202 C 
BRANCH   3   4
ATOM      4  C   UNL A   1      36.974  23.950  26.362  1.00  0.00     0.261 C 
BRANCH   4   5
ATOM      5  O   UNL A   1      36.490  24.051  25.004  1.00  0.00    -0.463 OA
BRANCH   5   6
ATOM      6  C   UNL A   1      35.180  24.389  24.855  1.00  0.00     0.313 C 
ATOM      7  O   UNL A   1      34.538  24.999  25.706  1.00  0.00    -0.252 OA
BRANCH   6   8
ATOM      8  C   UNL A   1      34.545  23.934  23.531  1.00  0.00     0.126 C 
ATOM      9  C   UNL A   1      33.625  24.898  22.769  1.00  0.00     0.025 C 
BRANCH   8  10
ATOM     10  C   UNL A   1      33.908  22.556  23.677  1.00  0.00    -0.034 A 
ATOM     11  C   UNL A   1      34.342  21.696  24.692  1.00  0.00     0.005 A 
ATOM     12  C   UNL A   1      32.869  22.120  22.845  1.00  0.00     0.005 A 
ATOM     13  C   UNL A   1      33.783  20.425  24.839  1.00  0.00     0.004 A 
ATOM     14  C   UNL A   1      32.312  20.849  22.994  1.00  0.00     0.004 A 
ATOM     15  C   UNL A   1      32.800  19.968  23.958  1.00  0.00    -0.048 A 
BRANCH  15  16
ATOM     16  C   UNL A   1      32.316  18.541  24.003  1.00  0.00     0.041 C 
BRANCH  16  17
ATOM     17  C   UNL A   1      33.162  17.545  24.817  1.00  0.00     0.022 C 
ATOM     18  C   UNL A   1      32.402  16.365  25.452  1.00  0.00     0.007 C 
ATOM     19  C   UNL A   1      34.379  16.900  24.135  1.00  0.00     0.117 C 
ATOM     20  C   UNL A   1      33.401  15.207  25.523  1.00  0.00     0.003 C 
ATOM     21  C   UNL A   1      34.750  15.788  25.109  1.00  0.00     0.032 C 
BRANCH  19  22
ATOM     22  O   UNL A   1      34.118  16.307  22.873  1.00  0.00    -0.393 OA
ATOM     23  H   UNL A   1      33.844  16.993  22.243  1.00  0.00     0.210 HD
ENDBRANCH  19  22
ENDBRANCH  16  17
ENDBRANCH  15  16
ENDBRANCH   8  10
ENDBRANCH   6   8
ENDBRANCH   5   6
ENDBRANCH   4   5
ENDBRANCH   3   4
ENDBRANCH   2   3
ENDBRANCH   1   2
BRANCH   1  24
ATOM     24  C   UNL A   1      40.539  21.205  26.485  1.00  0.00     0.188 C 
BRANCH  24  25
ATOM     25  O   UNL A   1      41.671  21.615  25.760  1.00  0.00    -0.376 OA
BRANCH  25  26
ATOM     26  C   UNL A   1      42.943  21.120  26.123  1.00  0.00     0.202 C 
BRANCH  26  27
ATOM     27  C   UNL A   1      44.228  21.865  25.723  1.00  0.00     0.261 C 
BRANCH  27  28
ATOM     28  O   UNL A   1      44.512  23.106  26.387  1.00  0.00    -0.460 OA
BRANCH  28  29
ATOM     29  C   UNL A   1      44.122  24.249  25.780  1.00  0.00     0.338 C 
ATOM     30  O   UNL A   1      44.095  24.470  24.580  1.00  0.00    -0.246 OA
BRANCH  29  31
ATOM     31  C   UNL A   1      43.521  25.125  26.815  1.00  0.00     0.060 A 
ATOM     32  C   UNL A   1      44.013  26.428  26.970  1.00  0.00     0.016 A 
ATOM     33  C   UNL A   1      42.470  24.675  27.619  1.00  0.00     0.016 A 
ATOM     34  C   UNL A   1      43.467  27.271  27.945  1.00  0.00     0.010 A 
ATOM     35  C   UNL A   1      41.932  25.516  28.602  1.00  0.00     0.010 A 
ATOM     36  C   UNL A   1      42.437  26.815  28.781  1.00  0.00    -0.014 A 
BRANCH  36  37
ATOM     37  C   UNL A   1      42.020  27.625  29.955  1.00  0.00     0.031 A 
ATOM     38  C   UNL A   1      40.816  28.514  29.817  1.00  0.00     0.074 A 
ATOM     39  C   UNL A   1      42.683  27.579  31.125  1.00  0.00     0.049 A 
ATOM     40  N   UNL A   1      40.285  29.337  30.686  1.00  0.00    -0.248 NA
ATOM     41  C   UNL A   1      40.127  28.476  28.519  1.00  0.00     0.031 C 
ATOM     42  C   UNL A   1      43.856  26.755  31.402  1.00  0.00     0.029 A 
ATOM     43  N   UNL A   1      42.458  28.251  32.304  1.00  0.00    -0.354 N 
ATOM     44  C   UNL A   1      39.204  29.920  30.036  1.00  0.00     0.074 A 
ATOM     45  C   UNL A   1      39.168  29.370  28.697  1.00  0.00     0.031 C 
ATOM     46  C   UNL A   1      44.241  26.958  32.675  1.00  0.00     0.029 A 
ATOM     47  C   UNL A   1      43.371  27.962  33.290  1.00  0.00     0.049 A 
ATOM     48  H   UNL A   1      41.713  28.881  32.429  1.00  0.00     0.167 HD
ATOM     49  C   UNL A   1      38.326  30.837  30.504  1.00  0.00     0.037 A 
ATOM     50  C   UNL A   1      43.502  28.466  34.535  1.00  0.00     0.037 A 
ATOM     51  C   UNL A   1      38.376  31.415  31.821  1.00  0.00     0.049 A 
ATOM     52  C   UNL A   1      42.549  29.534  35.013  1.00  0.00     0.074 A 
ATOM     53  C   UNL A   1      37.534  32.361  32.379  1.00  0.00     0.029 A 
ATOM     54  N   UNL A   1      39.333  31.117  32.780  1.00  0.00    -0.354 N 
ATOM     55  N   UNL A   1      41.516  30.062  34.400  1.00  0.00    -0.248 NA
ATOM     56  C   UNL A   1      42.789  30.088  36.356  1.00  0.00     0.031 C 
ATOM     57  C   UNL A   1      38.012  32.675  33.655  1.00  0.00     0.029 A 
ATOM     58  C   UNL A   1      39.114  31.879  33.917  1.00  0.00     0.049 A 
ATOM     59  H   UNL A   1      40.059  30.461  32.669  1.00  0.00     0.167 HD
ATOM     60  C   UNL A   1      40.977  30.989  35.285  1.00  0.00     0.074 A 
ATOM     61  C   UNL A   1      41.780  30.938  36.487  1.00  0.00     0.031 C 
ATOM     62  C   UNL A   1      39.914  31.814  35.115  1.00  0.00     0.037 A 
BRANCH  49  63
ATOM     63  C   UNL A   1      37.258  31.305  29.559  1.00  0.00     0.057 A 
ATOM     64  C   UNL A   1      37.333  32.544  28.910  1.00  0.00     0.134 A 
ATOM     65  C   UNL A   1      36.145  30.500  29.287  1.00  0.00     0.134 A 
ATOM     66  F   UNL A   1      38.364  33.371  29.142  1.00  0.00    -0.206 F 
ATOM     67  C   UNL A   1      36.326  32.978  28.048  1.00  0.00     0.040 A 
ATOM     68  C   UNL A   1      35.146  30.909  28.404  1.00  0.00     0.040 A 
ATOM     69  F   UNL A   1      36.013  29.299  29.873  1.00  0.00    -0.206 F 
ATOM     70  C   UNL A   1      35.230  32.156  27.788  1.00  0.00     0.006 A 
ENDBRANCH  49  63
BRANCH  50  71
ATOM     71  C   UNL A   1      44.599  27.997  35.426  1.00  0.00     0.057 A 
ATOM     72  C   UNL A   1      44.421  26.904  36.284  1.00  0.00     0.134 A 
ATOM     73  C   UNL A   1      45.832  28.656  35.476  1.00  0.00     0.134 A 
ATOM     74  F   UNL A   1      43.251  26.248  36.307  1.00  0.00    -0.206 F 
ATOM     75  C   UNL A   1      45.418  26.500  37.174  1.00  0.00     0.040 A 
ATOM     76  C   UNL A   1      46.850  28.243  36.337  1.00  0.00     0.040 A 
ATOM     77  F   UNL A   1      46.067  29.715  34.686  1.00  0.00    -0.206 F 
ATOM     78  C   UNL A   1      46.640  27.168  37.197  1.00  0.00     0.006 A 
ENDBRANCH  50  71
BRANCH  62  79
ATOM     79  C   UNL A   1      39.526  32.704  36.264  1.00  0.00     0.057 A 
ATOM     80  C   UNL A   1      40.089  33.973  36.448  1.00  0.00     0.134 A 
ATOM     81  C   UNL A   1      38.534  32.304  37.170  1.00  0.00     0.134 A 
ATOM     82  F   UNL A   1      41.050  34.418  35.623  1.00  0.00    -0.206 F 
ATOM     83  C   UNL A   1      39.697  34.801  37.504  1.00  0.00     0.040 A 
ATOM     84  C   UNL A   1      38.113  33.133  38.211  1.00  0.00     0.040 A 
ATOM     85  F   UNL A   1      37.943  31.105  37.048  1.00  0.00    -0.206 F 
ATOM     86  C   UNL A   1      38.701  34.384  38.383  1.00  0.00     0.006 A 
ENDBRANCH  62  79
ENDBRANCH  36  37
ENDBRANCH  29  31
ENDBRANCH  28  29
ENDBRANCH  27  28
ENDBRANCH  26  27
ENDBRANCH  25  26
ENDBRANCH  24  25
ENDBRANCH   1  24
TORSDOF 21
ENDMDL
MODEL 2
REMARK VINA RESULT:     -10.1      4.746      8.405
REMARK SMILES C[C@@H](C(=O)OCCOCCOCCOC(=O)c1ccc(-c2c3nc(c(-c4c(F)cccc4F)c4ccc([nH]4)c(-c4c(F)cccc4F)c4nc(c(-c5c(F)cccc5F)c5ccc2[nH]5)C=C4)C=C3)cc1)c1ccc(C[C@H]2CCC[C@H]2O)cc1
REMARK SMILES IDX 9 1 8 2 7 3 6 4 5 5 3 6 4 7 2 8 1 9 71 10 72 11 83 12 73 13
REMARK SMILES IDX 82 14 74 15 75 16 76 17 77 18 80 19 78 20 79 21 81 22 10 24
REMARK SMILES IDX 11 25 12 26 13 27 14 28 15 29 16 30 17 31 18 32 70 33 19 34
REMARK SMILES IDX 69 35 20 36 21 37 22 38 63 39 23 40 68 41 62 42 64 43 24 44
REMARK SMILES IDX 67 45 61 46 60 47 25 49 51 50 34 51 50 52 35 53 38 54 49 55
REMARK SMILES IDX 65 56 36 57 37 58 48 60 66 61 39 62 26 63 27 64 32 65 28 66
REMARK SMILES IDX 29 67 31 68 33 69 30 70 52 71 53 72 58 73 54 74 55 75 57 76
REMARK SMILES IDX 59 77 56 78 40 79 41 80 46 81 42 82 43 83 45 84 47 85 44 86
REMARK H PARENT 81 23 64 48 38 59
REMARK Flexibility Score: inf
ROOT
ATOM      1  C   UNL A   1      39.618  21.841  26.222  1.00  0.00     0.188 C 
ENDROOT
BRANCH   1   2
ATOM      2  O   UNL A   1      39.667  23.256  26.348  1.00  0.00    -0.376 OA
BRANCH   2   3
ATOM      3  C   UNL A   1      38.455  23.962  26.600  1.00  0.00     0.202 C 
BRANCH   3   4
ATOM      4  C   UNL A   1      37.167  23.522  25.881  1.00  0.00     0.261 C 
BRANCH   4   5
ATOM      5  O   UNL A   1      36.362  24.592  25.340  1.00  0.00    -0.463 OA
BRANCH   5   6
ATOM      6  C   UNL A   1      35.029  24.340  25.217  1.00  0.00     0.313 C 
ATOM      7  O   UNL A   1      34.227  24.479  26.136  1.00  0.00    -0.252 OA
BRANCH   6   8
ATOM      8  C   UNL A   1      34.594  23.847  23.828  1.00  0.00     0.126 C 
ATOM      9  C   UNL A   1      33.774  24.777  22.924  1.00  0.00     0.025 C 
BRANCH   8  10
ATOM     10  C   UNL A   1      33.965  22.460  23.915  1.00  0.00    -0.034 A 
ATOM     11  C   UNL A   1      34.533  21.493  24.751  1.00  0.00     0.005 A 
ATOM     12  C   UNL A   1      32.807  22.117  23.205  1.00  0.00     0.005 A 
ATOM     13  C   UNL A   1      33.983  20.213  24.839  1.00  0.00     0.004 A 
ATOM     14  C   UNL A   1      32.259  20.837  23.295  1.00  0.00     0.004 A 
ATOM     15  C   UNL A   1      32.872  19.854  24.070  1.00  0.00    -0.048 A 
BRANCH  15  16
ATOM     16  C   UNL A   1      32.380  18.430  24.029  1.00  0.00     0.041 C 
BRANCH  16  17
ATOM     17  C   UNL A   1      33.183  17.393  24.834  1.00  0.00     0.022 C 
ATOM     18  C   UNL A   1      32.381  16.215  25.420  1.00  0.00     0.007 C 
ATOM     19  C   UNL A   1      34.399  16.736  24.161  1.00  0.00     0.117 C 
ATOM     20  C   UNL A   1      33.350  15.032  25.481  1.00  0.00     0.003 C 
ATOM     21  C   UNL A   1      34.722  15.590  25.113  1.00  0.00     0.032 C 
BRANCH  19  22
ATOM     22  O   UNL A   1      34.153  16.185  22.878  1.00  0.00    -0.393 OA
ATOM     23  H   UNL A   1      33.354  16.585  22.501  1.00  0.00     0.210 HD
ENDBRANCH  19  22
ENDBRANCH  16  17
ENDBRANCH  15  16
ENDBRANCH   8  10
ENDBRANCH   6   8
ENDBRANCH   5   6
ENDBRANCH   4   5
ENDBRANCH   3   4
ENDBRANCH   2   3
ENDBRANCH   1   2
BRANCH   1  24
ATOM     24  C   UNL A   1      40.563  20.995  27.092  1.00  0.00     0.188 C 
BRANCH  24  25
ATOM     25  O   UNL A   1      41.752  20.609  26.449  1.00  0.00    -0.376 OA
BRANCH  25  26
ATOM     26  C   UNL A   1      42.327  19.354  26.749  1.00  0.00     0.202 C 
BRANCH  26  27
ATOM     27  C   UNL A   1      43.076  18.547  25.676  1.00  0.00     0.261 C 
BRANCH  27  28
ATOM     28  O   UNL A   1      44.434  18.917  25.393  1.00  0.00    -0.460 OA
BRANCH  28  29
ATOM     29  C   UNL A   1      44.675  19.620  24.265  1.00  0.00     0.338 C 
ATOM     30  O   UNL A   1      44.529  19.235  23.116  1.00  0.00    -0.246 OA
BRANCH  29  31
ATOM     31  C   UNL A   1      44.941  21.025  24.659  1.00  0.00     0.060 A 
ATOM     32  C   UNL A   1      45.458  21.286  25.935  1.00  0.00     0.016 A 
ATOM     33  C   UNL A   1      44.697  22.080  23.774  1.00  0.00     0.016 A 
ATOM     34  C   UNL A   1      45.710  22.604  26.332  1.00  0.00     0.010 A 
ATOM     35  C   UNL A   1      44.940  23.400  24.178  1.00  0.00     0.010 A 
ATOM     36  C   UNL A   1      45.434  23.671  25.464  1.00  0.00    -0.014 A 
BRANCH  36  37
ATOM     37  C   UNL A   1      45.486  25.069  25.967  1.00  0.00     0.031 A 
ATOM     38  C   UNL A   1      46.803  25.793  25.926  1.00  0.00     0.074 A 
ATOM     39  C   UNL A   1      44.397  25.695  26.449  1.00  0.00     0.049 A 
ATOM     40  N   UNL A   1      47.103  26.998  26.339  1.00  0.00    -0.248 NA
ATOM     41  C   UNL A   1      47.933  25.051  25.349  1.00  0.00     0.031 C 
ATOM     42  C   UNL A   1      43.059  25.118  26.537  1.00  0.00     0.029 A 
ATOM     43  N   UNL A   1      44.251  26.963  26.959  1.00  0.00    -0.354 N 
ATOM     44  C   UNL A   1      48.459  27.155  26.080  1.00  0.00     0.074 A 
ATOM     45  C   UNL A   1      48.924  25.918  25.491  1.00  0.00     0.031 C 
ATOM     46  C   UNL A   1      42.222  26.035  27.057  1.00  0.00     0.029 A 
ATOM     47  C   UNL A   1      42.974  27.247  27.382  1.00  0.00     0.049 A 
ATOM     48  H   UNL A   1      44.993  27.608  27.017  1.00  0.00     0.167 HD
ATOM     49  C   UNL A   1      49.251  28.228  26.317  1.00  0.00     0.037 A 
ATOM     50  C   UNL A   1      42.477  28.349  27.983  1.00  0.00     0.037 A 
ATOM     51  C   UNL A   1      48.804  29.448  26.934  1.00  0.00     0.049 A 
ATOM     52  C   UNL A   1      43.393  29.508  28.295  1.00  0.00     0.074 A 
ATOM     53  C   UNL A   1      49.539  30.585  27.225  1.00  0.00     0.029 A 
ATOM     54  N   UNL A   1      47.510  29.686  27.373  1.00  0.00    -0.354 N 
ATOM     55  N   UNL A   1      44.668  29.656  28.025  1.00  0.00    -0.248 NA
ATOM     56  C   UNL A   1      42.800  30.649  29.011  1.00  0.00     0.031 C 
ATOM     57  C   UNL A   1      48.703  31.488  27.890  1.00  0.00     0.029 A 
ATOM     58  C   UNL A   1      47.433  30.942  27.955  1.00  0.00     0.049 A 
ATOM     59  H   UNL A   1      46.759  29.056  27.285  1.00  0.00     0.167 HD
ATOM     60  C   UNL A   1      45.022  30.908  28.517  1.00  0.00     0.074 A 
ATOM     61  C   UNL A   1      43.824  31.489  29.083  1.00  0.00     0.031 C 
ATOM     62  C   UNL A   1      46.232  31.519  28.507  1.00  0.00     0.037 A 
BRANCH  49  63
ATOM     63  C   UNL A   1      50.699  28.103  25.945  1.00  0.00     0.057 A 
ATOM     64  C   UNL A   1      51.138  28.235  24.621  1.00  0.00     0.134 A 
ATOM     65  C   UNL A   1      51.667  27.856  26.926  1.00  0.00     0.134 A 
ATOM     66  F   UNL A   1      50.259  28.454  23.632  1.00  0.00    -0.206 F 
ATOM     67  C   UNL A   1      52.485  28.098  24.283  1.00  0.00     0.040 A 
ATOM     68  C   UNL A   1      53.020  27.746  26.604  1.00  0.00     0.040 A 
ATOM     69  F   UNL A   1      51.314  27.721  28.214  1.00  0.00    -0.206 F 
ATOM     70  C   UNL A   1      53.432  27.858  25.278  1.00  0.00     0.006 A 
ENDBRANCH  49  63
BRANCH  50  71
ATOM     71  C   UNL A   1      41.040  28.414  28.365  1.00  0.00     0.057 A 
ATOM     72  C   UNL A   1      40.078  28.934  27.490  1.00  0.00     0.134 A 
ATOM     73  C   UNL A   1      40.601  28.004  29.629  1.00  0.00     0.134 A 
ATOM     74  F   UNL A   1      40.438  29.374  26.275  1.00  0.00    -0.206 F 
ATOM     75  C   UNL A   1      38.739  29.066  27.865  1.00  0.00     0.040 A 
ATOM     76  C   UNL A   1      39.260  28.098  30.006  1.00  0.00     0.040 A 
ATOM     77  F   UNL A   1      41.471  27.503  30.519  1.00  0.00    -0.206 F 
ATOM     78  C   UNL A   1      38.326  28.640  29.126  1.00  0.00     0.006 A 
ENDBRANCH  50  71
BRANCH  62  79
ATOM     79  C   UNL A   1      46.324  32.903  29.087  1.00  0.00     0.057 A 
ATOM     80  C   UNL A   1      46.050  34.049  28.330  1.00  0.00     0.134 A 
ATOM     81  C   UNL A   1      46.641  33.088  30.440  1.00  0.00     0.134 A 
ATOM     82  F   UNL A   1      45.748  33.947  27.026  1.00  0.00    -0.206 F 
ATOM     83  C   UNL A   1      46.110  35.328  28.890  1.00  0.00     0.040 A 
ATOM     84  C   UNL A   1      46.676  34.359  31.019  1.00  0.00     0.040 A 
ATOM     85  F   UNL A   1      46.904  32.035  31.229  1.00  0.00    -0.206 F 
ATOM     86  C   UNL A   1      46.415  35.484  30.240  1.00  0.00     0.006 A 
ENDBRANCH  62  79
ENDBRANCH  36  37
ENDBRANCH  29  31
ENDBRANCH  28  29
ENDBRANCH  27  28
ENDBRANCH  26  27
ENDBRANCH  25  26
ENDBRANCH  24  25
ENDBRANCH   1  24
TORSDOF 21
ENDMDL
MODEL 3
REMARK VINA RESULT:      -9.9      3.277      8.361
REMARK SMILES C[C@@H](C(=O)OCCOCCOCCOC(=O)c1ccc(-c2c3nc(c(-c4c(F)cccc4F)c4ccc([nH]4)c(-c4c(F)cccc4F)c4nc(c(-c5c(F)cccc5F)c5ccc2[nH]5)C=C4)C=C3)cc1)c1ccc(C[C@H]2CCC[C@H]2O)cc1
REMARK SMILES IDX 9 1 8 2 7 3 6 4 5 5 3 6 4 7 2 8 1 9 71 10 72 11 83 12 73 13
REMARK SMILES IDX 82 14 74 15 75 16 76 17 77 18 80 19 78 20 79 21 81 22 10 24
REMARK SMILES IDX 11 25 12 26 13 27 14 28 15 29 16 30 17 31 18 32 70 33 19 34
REMARK SMILES IDX 69 35 20 36 21 37 22 38 63 39 23 40 68 41 62 42 64 43 24 44
REMARK SMILES IDX 67 45 61 46 60 47 25 49 51 50 34 51 50 52 35 53 38 54 49 55
REMARK SMILES IDX 65 56 36 57 37 58 48 60 66 61 39 62 26 63 27 64 32 65 28 66
REMARK SMILES IDX 29 67 31 68 33 69 30 70 52 71 53 72 58 73 54 74 55 75 57 76
REMARK SMILES IDX 59 77 56 78 40 79 41 80 46 81 42 82 43 83 45 84 47 85 44 86
REMARK H PARENT 81 23 64 48 38 59
REMARK Flexibility Score: inf
ROOT
ATOM      1  C   UNL A   1      30.837  29.846  24.543  1.00  0.00     0.188 C 
ENDROOT
BRANCH   1   2
ATOM      2  O   UNL A   1      30.874  28.462  24.221  1.00  0.00    -0.376 OA
BRANCH   2   3
ATOM      3  C   UNL A   1      29.850  27.927  23.388  1.00  0.00     0.202 C 
BRANCH   3   4
ATOM      4  C   UNL A   1      29.031  26.723  23.886  1.00  0.00     0.261 C 
BRANCH   4   5
ATOM      5  O   UNL A   1      29.732  25.813  24.762  1.00  0.00    -0.463 OA
BRANCH   5   6
ATOM      6  C   UNL A   1      30.580  24.933  24.161  1.00  0.00     0.313 C 
ATOM      7  O   UNL A   1      30.500  24.618  22.977  1.00  0.00    -0.252 OA
BRANCH   6   8
ATOM      8  C   UNL A   1      31.654  24.341  25.088  1.00  0.00     0.126 C 
ATOM      9  C   UNL A   1      32.936  25.140  25.359  1.00  0.00     0.025 C 
BRANCH   8  10
ATOM     10  C   UNL A   1      31.969  22.898  24.704  1.00  0.00    -0.034 A 
ATOM     11  C   UNL A   1      32.193  22.571  23.363  1.00  0.00     0.005 A 
ATOM     12  C   UNL A   1      32.075  21.877  25.657  1.00  0.00     0.005 A 
ATOM     13  C   UNL A   1      32.471  21.256  22.985  1.00  0.00     0.004 A 
ATOM     14  C   UNL A   1      32.353  20.563  25.277  1.00  0.00     0.004 A 
ATOM     15  C   UNL A   1      32.500  20.229  23.932  1.00  0.00    -0.048 A 
BRANCH  15  16
ATOM     16  C   UNL A   1      32.627  18.787  23.513  1.00  0.00     0.041 C 
BRANCH  16  17
ATOM     17  C   UNL A   1      33.337  17.836  24.494  1.00  0.00     0.022 C 
ATOM     18  C   UNL A   1      32.430  16.885  25.298  1.00  0.00     0.007 C 
ATOM     19  C   UNL A   1      34.456  16.935  23.949  1.00  0.00     0.117 C 
ATOM     20  C   UNL A   1      33.268  15.634  25.575  1.00  0.00     0.003 C 
ATOM     21  C   UNL A   1      34.680  15.959  25.098  1.00  0.00     0.032 C 
BRANCH  19  22
ATOM     22  O   UNL A   1      34.117  16.183  22.795  1.00  0.00    -0.393 OA
ATOM     23  H   UNL A   1      34.386  15.259  22.920  1.00  0.00     0.210 HD
ENDBRANCH  19  22
ENDBRANCH  16  17
ENDBRANCH  15  16
ENDBRANCH   8  10
ENDBRANCH   6   8
ENDBRANCH   5   6
ENDBRANCH   4   5
ENDBRANCH   3   4
ENDBRANCH   2   3
ENDBRANCH   1   2
BRANCH   1  24
ATOM     24  C   UNL A   1      31.704  30.351  25.709  1.00  0.00     0.188 C 
BRANCH  24  25
ATOM     25  O   UNL A   1      31.309  31.597  26.228  1.00  0.00    -0.376 OA
BRANCH  25  26
ATOM     26  C   UNL A   1      32.049  32.174  27.284  1.00  0.00     0.202 C 
BRANCH  26  27
ATOM     27  C   UNL A   1      32.450  33.658  27.253  1.00  0.00     0.261 C 
BRANCH  27  28
ATOM     28  O   UNL A   1      32.397  34.387  28.489  1.00  0.00    -0.460 OA
BRANCH  28  29
ATOM     29  C   UNL A   1      33.471  35.134  28.828  1.00  0.00     0.338 C 
ATOM     30  O   UNL A   1      33.502  36.344  28.985  1.00  0.00    -0.246 OA
BRANCH  29  31
ATOM     31  C   UNL A   1      34.568  34.205  29.194  1.00  0.00     0.060 A 
ATOM     32  C   UNL A   1      34.282  33.111  30.022  1.00  0.00     0.016 A 
ATOM     33  C   UNL A   1      35.866  34.399  28.715  1.00  0.00     0.016 A 
ATOM     34  C   UNL A   1      35.302  32.225  30.388  1.00  0.00     0.010 A 
ATOM     35  C   UNL A   1      36.888  33.517  29.090  1.00  0.00     0.010 A 
ATOM     36  C   UNL A   1      36.615  32.433  29.941  1.00  0.00    -0.014 A 
BRANCH  36  37
ATOM     37  C   UNL A   1      37.729  31.630  30.511  1.00  0.00     0.031 A 
ATOM     38  C   UNL A   1      38.122  31.870  31.942  1.00  0.00     0.074 A 
ATOM     39  C   UNL A   1      38.384  30.703  29.788  1.00  0.00     0.049 A 
ATOM     40  N   UNL A   1      39.080  31.323  32.645  1.00  0.00    -0.248 NA
ATOM     41  C   UNL A   1      37.331  32.872  32.672  1.00  0.00     0.031 C 
ATOM     42  C   UNL A   1      38.102  30.360  28.397  1.00  0.00     0.029 A 
ATOM     43  N   UNL A   1      39.430  29.880  30.132  1.00  0.00    -0.354 N 
ATOM     44  C   UNL A   1      39.013  31.920  33.898  1.00  0.00     0.074 A 
ATOM     45  C   UNL A   1      37.932  32.882  33.851  1.00  0.00     0.031 C 
ATOM     46  C   UNL A   1      38.945  29.385  28.009  1.00  0.00     0.029 A 
ATOM     47  C   UNL A   1      39.857  29.068  29.108  1.00  0.00     0.049 A 
ATOM     48  H   UNL A   1      39.836  29.873  31.029  1.00  0.00     0.167 HD
ATOM     49  C   UNL A   1      39.784  31.696  34.988  1.00  0.00     0.037 A 
ATOM     50  C   UNL A   1      40.881  28.190  29.057  1.00  0.00     0.037 A 
ATOM     51  C   UNL A   1      40.882  30.768  35.032  1.00  0.00     0.049 A 
ATOM     52  C   UNL A   1      41.767  28.004  30.266  1.00  0.00     0.074 A 
ATOM     53  C   UNL A   1      41.727  30.484  36.091  1.00  0.00     0.029 A 
ATOM     54  N   UNL A   1      41.300  29.986  33.966  1.00  0.00    -0.354 N 
ATOM     55  N   UNL A   1      41.680  28.556  31.452  1.00  0.00    -0.248 NA
ATOM     56  C   UNL A   1      42.904  27.082  30.121  1.00  0.00     0.031 C 
ATOM     57  C   UNL A   1      42.690  29.571  35.649  1.00  0.00     0.029 A 
ATOM     58  C   UNL A   1      42.407  29.237  34.336  1.00  0.00     0.049 A 
ATOM     59  H   UNL A   1      40.875  29.966  33.079  1.00  0.00     0.167 HD
ATOM     60  C   UNL A   1      42.733  28.034  32.196  1.00  0.00     0.074 A 
ATOM     61  C   UNL A   1      43.433  27.105  31.336  1.00  0.00     0.031 C 
ATOM     62  C   UNL A   1      43.093  28.305  33.475  1.00  0.00     0.037 A 
BRANCH  49  63
ATOM     63  C   UNL A   1      39.488  32.512  36.213  1.00  0.00     0.057 A 
ATOM     64  C   UNL A   1      40.169  33.705  36.490  1.00  0.00     0.134 A 
ATOM     65  C   UNL A   1      38.503  32.104  37.119  1.00  0.00     0.134 A 
ATOM     66  F   UNL A   1      41.137  34.142  35.671  1.00  0.00    -0.206 F 
ATOM     67  C   UNL A   1      39.900  34.447  37.641  1.00  0.00     0.040 A 
ATOM     68  C   UNL A   1      38.204  32.852  38.258  1.00  0.00     0.040 A 
ATOM     69  F   UNL A   1      37.812  30.972  36.911  1.00  0.00    -0.206 F 
ATOM     70  C   UNL A   1      38.909  34.023  38.527  1.00  0.00     0.006 A 
ENDBRANCH  49  63
BRANCH  50  71
ATOM     71  C   UNL A   1      41.158  27.428  27.809  1.00  0.00     0.057 A 
ATOM     72  C   UNL A   1      40.637  26.143  27.611  1.00  0.00     0.134 A 
ATOM     73  C   UNL A   1      41.988  27.944  26.807  1.00  0.00     0.134 A 
ATOM     74  F   UNL A   1      39.859  25.578  28.548  1.00  0.00    -0.206 F 
ATOM     75  C   UNL A   1      40.948  25.391  26.476  1.00  0.00     0.040 A 
ATOM     76  C   UNL A   1      42.281  27.217  25.652  1.00  0.00     0.040 A 
ATOM     77  F   UNL A   1      42.527  29.165  26.936  1.00  0.00    -0.206 F 
ATOM     78  C   UNL A   1      41.768  25.932  25.489  1.00  0.00     0.006 A 
ENDBRANCH  50  71
BRANCH  62  79
ATOM     79  C   UNL A   1      44.270  27.564  34.045  1.00  0.00     0.057 A 
ATOM     80  C   UNL A   1      45.573  28.078  33.992  1.00  0.00     0.134 A 
ATOM     81  C   UNL A   1      44.090  26.339  34.703  1.00  0.00     0.134 A 
ATOM     82  F   UNL A   1      45.820  29.241  33.370  1.00  0.00    -0.206 F 
ATOM     83  C   UNL A   1      46.653  27.391  34.552  1.00  0.00     0.040 A 
ATOM     84  C   UNL A   1      45.157  25.658  35.292  1.00  0.00     0.040 A 
ATOM     85  F   UNL A   1      42.868  25.793  34.802  1.00  0.00    -0.206 F 
ATOM     86  C   UNL A   1      46.445  26.182  35.212  1.00  0.00     0.006 A 
ENDBRANCH  62  79
ENDBRANCH  36  37
ENDBRANCH  29  31
ENDBRANCH  28  29
ENDBRANCH  27  28
ENDBRANCH  26  27
ENDBRANCH  25  26
ENDBRANCH  24  25
ENDBRANCH   1  24
TORSDOF 21
ENDMDL
