MODEL 1
REMARK VINA RESULT:      -7.9      0.000      0.000
REMARK SMILES O=C(OCCOCCOCCOC(=O)C(F)(F)[C@H](O)c1ccccc1C1CC1)c1ccc(-c2c3nc(c(-c4c(F)cccc4F)c4ccc([nH]4)c(-c4c(F)cccc4F)c4nc(c(-c5c(F)cccc5F)c5ccc2[nH]5)C=C4)C=C3)cc1
REMARK SMILES IDX 8 1 7 2 6 3 5 4 4 5 3 6 2 7 1 8 29 9 30 10 82 11 31 12 81 13
REMARK SMILES IDX 32 14 33 15 34 16 75 17 35 18 80 19 74 20 76 21 36 22 79 23
REMARK SMILES IDX 73 24 72 25 37 27 63 28 46 29 62 30 47 31 50 32 61 33 77 34
REMARK SMILES IDX 48 35 49 36 60 38 78 39 51 40 38 41 39 42 44 43 40 44 41 45
REMARK SMILES IDX 43 46 45 47 42 48 64 49 65 50 70 51 66 52 67 53 69 54 71 55
REMARK SMILES IDX 68 56 52 57 53 58 58 59 54 60 55 61 57 62 59 63 56 64 9 65
REMARK SMILES IDX 10 66 11 67 12 68 13 69 14 70 15 71 16 72 17 73 18 74 20 75
REMARK SMILES IDX 21 76 25 77 22 78 24 79 23 80 26 81 27 82 28 83 19 84
REMARK H PARENT 76 26 50 37 19 85
REMARK Flexibility Score: inf
ROOT
ATOM      1  C   UNL A   1      34.595  34.819  33.128  1.00  0.00     0.188 C 
ENDROOT
BRANCH   1   2
ATOM      2  C   UNL A   1      33.369  35.658  32.790  1.00  0.00     0.188 C 
BRANCH   2   3
ATOM      3  O   UNL A   1      32.730  35.291  31.566  1.00  0.00    -0.376 OA
BRANCH   3   4
ATOM      4  C   UNL A   1      32.660  36.341  30.593  1.00  0.00     0.202 C 
BRANCH   4   5
ATOM      5  C   UNL A   1      33.044  35.994  29.140  1.00  0.00     0.261 C 
BRANCH   5   6
ATOM      6  O   UNL A   1      32.540  34.738  28.638  1.00  0.00    -0.460 OA
BRANCH   6   7
ATOM      7  C   UNL A   1      33.198  33.628  28.235  1.00  0.00     0.338 C 
ATOM      8  O   UNL A   1      32.603  32.809  27.523  1.00  0.00    -0.246 OA
BRANCH   7   9
ATOM      9  C   UNL A   1      34.607  33.337  28.596  1.00  0.00     0.060 A 
ATOM     10  C   UNL A   1      35.703  33.737  27.838  1.00  0.00     0.016 A 
ATOM     11  C   UNL A   1      34.854  32.688  29.815  1.00  0.00     0.016 A 
ATOM     12  C   UNL A   1      36.995  33.372  28.176  1.00  0.00     0.010 A 
ATOM     13  C   UNL A   1      36.162  32.393  30.212  1.00  0.00     0.010 A 
ATOM     14  C   UNL A   1      37.236  32.695  29.365  1.00  0.00    -0.014 A 
BRANCH  14  15
ATOM     15  C   UNL A   1      38.601  32.210  29.641  1.00  0.00     0.031 A 
ATOM     16  C   UNL A   1      38.964  30.826  29.213  1.00  0.00     0.074 A 
ATOM     17  C   UNL A   1      39.542  33.032  30.137  1.00  0.00     0.049 A 
ATOM     18  N   UNL A   1      40.067  30.162  29.425  1.00  0.00    -0.248 NA
ATOM     19  C   UNL A   1      37.968  30.108  28.400  1.00  0.00     0.031 C 
ATOM     20  C   UNL A   1      39.368  34.464  30.374  1.00  0.00     0.029 A 
ATOM     21  N   UNL A   1      40.839  32.788  30.516  1.00  0.00    -0.354 N 
ATOM     22  C   UNL A   1      39.899  28.951  28.775  1.00  0.00     0.074 A 
ATOM     23  C   UNL A   1      38.579  28.953  28.186  1.00  0.00     0.031 C 
ATOM     24  C   UNL A   1      40.510  34.957  30.874  1.00  0.00     0.029 A 
ATOM     25  C   UNL A   1      41.435  33.872  31.109  1.00  0.00     0.049 A 
ATOM     26  H   UNL A   1      41.293  31.926  30.375  1.00  0.00     0.167 HD
ATOM     27  C   UNL A   1      40.785  27.935  28.673  1.00  0.00     0.037 A 
ATOM     28  C   UNL A   1      42.562  33.976  31.834  1.00  0.00     0.037 A 
ATOM     29  C   UNL A   1      42.092  27.963  29.273  1.00  0.00     0.049 A 
ATOM     30  C   UNL A   1      43.432  32.766  31.919  1.00  0.00     0.074 A 
ATOM     31  C   UNL A   1      43.064  26.983  29.269  1.00  0.00     0.029 A 
ATOM     32  N   UNL A   1      42.599  29.034  29.998  1.00  0.00    -0.354 N 
ATOM     33  N   UNL A   1      43.252  31.598  31.354  1.00  0.00    -0.248 NA
ATOM     34  C   UNL A   1      44.663  32.884  32.707  1.00  0.00     0.031 C 
ATOM     35  C   UNL A   1      44.137  27.437  30.045  1.00  0.00     0.029 A 
ATOM     36  C   UNL A   1      43.856  28.720  30.486  1.00  0.00     0.049 A 
ATOM     37  H   UNL A   1      42.134  29.889  30.143  1.00  0.00     0.167 HD
ATOM     38  C   UNL A   1      44.372  30.851  31.672  1.00  0.00     0.074 A 
ATOM     39  C   UNL A   1      45.219  31.699  32.491  1.00  0.00     0.031 C 
ATOM     40  C   UNL A   1      44.676  29.584  31.300  1.00  0.00     0.037 A 
BRANCH  27  41
ATOM     41  C   UNL A   1      40.322  26.705  27.957  1.00  0.00     0.057 A 
ATOM     42  C   UNL A   1      39.478  25.760  28.554  1.00  0.00     0.134 A 
ATOM     43  C   UNL A   1      40.771  26.442  26.656  1.00  0.00     0.134 A 
ATOM     44  F   UNL A   1      39.043  25.935  29.811  1.00  0.00    -0.206 F 
ATOM     45  C   UNL A   1      39.117  24.584  27.892  1.00  0.00     0.040 A 
ATOM     46  C   UNL A   1      40.397  25.283  25.976  1.00  0.00     0.040 A 
ATOM     47  F   UNL A   1      41.592  27.301  26.034  1.00  0.00    -0.206 F 
ATOM     48  C   UNL A   1      39.574  24.346  26.598  1.00  0.00     0.006 A 
ENDBRANCH  27  41
BRANCH  28  49
ATOM     49  C   UNL A   1      42.869  35.224  32.582  1.00  0.00     0.057 A 
ATOM     50  C   UNL A   1      42.430  35.433  33.892  1.00  0.00     0.134 A 
ATOM     51  C   UNL A   1      43.610  36.253  31.982  1.00  0.00     0.134 A 
ATOM     52  F   UNL A   1      41.701  34.497  34.516  1.00  0.00    -0.206 F 
ATOM     53  C   UNL A   1      42.705  36.622  34.575  1.00  0.00     0.040 A 
ATOM     54  C   UNL A   1      43.914  37.436  32.660  1.00  0.00     0.040 A 
ATOM     55  F   UNL A   1      44.059  36.120  30.725  1.00  0.00    -0.206 F 
ATOM     56  C   UNL A   1      43.453  37.626  33.961  1.00  0.00     0.006 A 
ENDBRANCH  28  49
BRANCH  40  57
ATOM     57  C   UNL A   1      46.004  29.065  31.744  1.00  0.00     0.057 A 
ATOM     58  C   UNL A   1      46.147  28.307  32.911  1.00  0.00     0.134 A 
ATOM     59  C   UNL A   1      47.147  29.302  30.971  1.00  0.00     0.134 A 
ATOM     60  F   UNL A   1      45.090  28.072  33.704  1.00  0.00    -0.206 F 
ATOM     61  C   UNL A   1      47.389  27.814  33.304  1.00  0.00     0.040 A 
ATOM     62  C   UNL A   1      48.388  28.788  31.337  1.00  0.00     0.040 A 
ATOM     63  F   UNL A   1      47.070  30.023  29.842  1.00  0.00    -0.206 F 
ATOM     64  C   UNL A   1      48.512  28.045  32.510  1.00  0.00     0.006 A 
ENDBRANCH  40  57
ENDBRANCH  14  15
ENDBRANCH   7   9
ENDBRANCH   6   7
ENDBRANCH   5   6
ENDBRANCH   4   5
ENDBRANCH   3   4
ENDBRANCH   2   3
ENDBRANCH   1   2
BRANCH   1  65
ATOM     65  O   UNL A   1      35.869  35.445  33.026  1.00  0.00    -0.376 OA
BRANCH  65  66
ATOM     66  C   UNL A   1      37.015  34.608  32.948  1.00  0.00     0.202 C 
BRANCH  66  67
ATOM     67  C   UNL A   1      38.053  34.707  34.071  1.00  0.00     0.261 C 
BRANCH  67  68
ATOM     68  O   UNL A   1      37.901  33.779  35.150  1.00  0.00    -0.459 OA
BRANCH  68  69
ATOM     69  C   UNL A   1      39.056  33.335  35.727  1.00  0.00     0.380 C 
ATOM     70  O   UNL A   1      39.665  33.928  36.625  1.00  0.00    -0.245 OA
BRANCH  69  71
ATOM     71  C   UNL A   1      39.578  32.089  35.034  1.00  0.00     0.372 C 
ATOM     72  F   UNL A   1      39.853  32.334  33.709  1.00  0.00    -0.190 F 
ATOM     73  F   UNL A   1      40.779  31.814  35.620  1.00  0.00    -0.190 F 
BRANCH  71  74
ATOM     74  C   UNL A   1      38.628  30.850  35.093  1.00  0.00     0.227 C 
BRANCH  74  75
ATOM     75  C   UNL A   1      38.516  30.051  33.785  1.00  0.00    -0.009 A 
ATOM     76  C   UNL A   1      37.332  30.211  33.016  1.00  0.00     0.007 A 
ATOM     77  C   UNL A   1      39.503  29.148  33.303  1.00  0.00    -0.039 A 
ATOM     78  C   UNL A   1      37.015  29.366  31.955  1.00  0.00     0.000 A 
ATOM     79  C   UNL A   1      39.080  28.227  32.309  1.00  0.00     0.004 A 
ATOM     80  C   UNL A   1      37.858  28.319  31.651  1.00  0.00     0.000 A 
BRANCH  77  81
ATOM     81  C   UNL A   1      41.008  29.114  33.540  1.00  0.00     0.019 C 
ATOM     82  C   UNL A   1      41.639  28.612  34.800  1.00  0.00     0.009 C 
ATOM     83  C   UNL A   1      41.966  27.971  33.474  1.00  0.00     0.009 C 
ENDBRANCH  77  81
ENDBRANCH  74  75
BRANCH  74  84
ATOM     84  O   UNL A   1      38.969  29.983  36.203  1.00  0.00    -0.381 OA
ATOM     85  H   UNL A   1      38.848  30.463  37.037  1.00  0.00     0.211 HD
ENDBRANCH  74  84
ENDBRANCH  71  74
ENDBRANCH  69  71
ENDBRANCH  68  69
ENDBRANCH  67  68
ENDBRANCH  66  67
ENDBRANCH  65  66
ENDBRANCH   1  65
TORSDOF 21
ENDMDL
MODEL 2
REMARK VINA RESULT:      -7.6      5.802     11.065
REMARK SMILES O=C(OCCOCCOCCOC(=O)C(F)(F)[C@H](O)c1ccccc1C1CC1)c1ccc(-c2c3nc(c(-c4c(F)cccc4F)c4ccc([nH]4)c(-c4c(F)cccc4F)c4nc(c(-c5c(F)cccc5F)c5ccc2[nH]5)C=C4)C=C3)cc1
REMARK SMILES IDX 8 1 7 2 6 3 5 4 4 5 3 6 2 7 1 8 29 9 30 10 82 11 31 12 81 13
REMARK SMILES IDX 32 14 33 15 34 16 75 17 35 18 80 19 74 20 76 21 36 22 79 23
REMARK SMILES IDX 73 24 72 25 37 27 63 28 46 29 62 30 47 31 50 32 61 33 77 34
REMARK SMILES IDX 48 35 49 36 60 38 78 39 51 40 38 41 39 42 44 43 40 44 41 45
REMARK SMILES IDX 43 46 45 47 42 48 64 49 65 50 70 51 66 52 67 53 69 54 71 55
REMARK SMILES IDX 68 56 52 57 53 58 58 59 54 60 55 61 57 62 59 63 56 64 9 65
REMARK SMILES IDX 10 66 11 67 12 68 13 69 14 70 15 71 16 72 17 73 18 74 20 75
REMARK SMILES IDX 21 76 25 77 22 78 24 79 23 80 26 81 27 82 28 83 19 84
REMARK H PARENT 76 26 50 37 19 85
REMARK Flexibility Score: inf
ROOT
ATOM      1  C   UNL A   1      35.316  21.091  25.165  1.00  0.00     0.188 C 
ENDROOT
BRANCH   1   2
ATOM      2  C   UNL A   1      35.366  19.609  24.816  1.00  0.00     0.188 C 
BRANCH   2   3
ATOM      3  O   UNL A   1      36.648  19.007  25.002  1.00  0.00    -0.376 OA
BRANCH   3   4
ATOM      4  C   UNL A   1      37.755  19.848  24.659  1.00  0.00     0.202 C 
BRANCH   4   5
ATOM      5  C   UNL A   1      38.827  20.094  25.742  1.00  0.00     0.261 C 
BRANCH   5   6
ATOM      6  O   UNL A   1      39.941  19.178  25.746  1.00  0.00    -0.460 OA
BRANCH   6   7
ATOM      7  C   UNL A   1      41.240  19.378  26.059  1.00  0.00     0.338 C 
ATOM      8  O   UNL A   1      42.014  18.412  26.038  1.00  0.00    -0.246 OA
BRANCH   7   9
ATOM      9  C   UNL A   1      41.798  20.704  26.422  1.00  0.00     0.060 A 
ATOM     10  C   UNL A   1      41.945  21.154  27.730  1.00  0.00     0.016 A 
ATOM     11  C   UNL A   1      42.277  21.523  25.389  1.00  0.00     0.016 A 
ATOM     12  C   UNL A   1      42.397  22.432  28.014  1.00  0.00     0.010 A 
ATOM     13  C   UNL A   1      42.820  22.781  25.670  1.00  0.00     0.010 A 
ATOM     14  C   UNL A   1      42.836  23.257  26.988  1.00  0.00    -0.014 A 
BRANCH  14  15
ATOM     15  C   UNL A   1      43.194  24.652  27.302  1.00  0.00     0.031 A 
ATOM     16  C   UNL A   1      44.633  25.048  27.243  1.00  0.00     0.074 A 
ATOM     17  C   UNL A   1      42.245  25.584  27.501  1.00  0.00     0.049 A 
ATOM     18  N   UNL A   1      45.187  26.186  27.560  1.00  0.00    -0.248 NA
ATOM     19  C   UNL A   1      45.570  24.042  26.715  1.00  0.00     0.031 C 
ATOM     20  C   UNL A   1      40.808  25.365  27.353  1.00  0.00     0.029 A 
ATOM     21  N   UNL A   1      42.345  26.907  27.853  1.00  0.00    -0.354 N 
ATOM     22  C   UNL A   1      46.533  26.034  27.272  1.00  0.00     0.074 A 
ATOM     23  C   UNL A   1      46.724  24.686  26.784  1.00  0.00     0.031 C 
ATOM     24  C   UNL A   1      40.169  26.510  27.631  1.00  0.00     0.029 A 
ATOM     25  C   UNL A   1      41.126  27.488  28.095  1.00  0.00     0.049 A 
ATOM     26  H   UNL A   1      43.202  27.387  27.923  1.00  0.00     0.167 HD
ATOM     27  C   UNL A   1      47.516  26.953  27.395  1.00  0.00     0.037 A 
ATOM     28  C   UNL A   1      40.802  28.646  28.696  1.00  0.00     0.037 A 
ATOM     29  C   UNL A   1      47.295  28.287  27.886  1.00  0.00     0.049 A 
ATOM     30  C   UNL A   1      41.921  29.567  29.053  1.00  0.00     0.074 A 
ATOM     31  C   UNL A   1      48.214  29.296  28.088  1.00  0.00     0.029 A 
ATOM     32  N   UNL A   1      46.054  28.788  28.263  1.00  0.00    -0.354 N 
ATOM     33  N   UNL A   1      43.203  29.406  28.836  1.00  0.00    -0.248 NA
ATOM     34  C   UNL A   1      41.564  30.831  29.704  1.00  0.00     0.031 C 
ATOM     35  C   UNL A   1      47.540  30.388  28.648  1.00  0.00     0.029 A 
ATOM     36  C   UNL A   1      46.192  30.079  28.742  1.00  0.00     0.049 A 
ATOM     37  H   UNL A   1      45.203  28.297  28.200  1.00  0.00     0.167 HD
ATOM     38  C   UNL A   1      43.807  30.569  29.276  1.00  0.00     0.074 A 
ATOM     39  C   UNL A   1      42.748  31.422  29.783  1.00  0.00     0.031 C 
ATOM     40  C   UNL A   1      45.120  30.904  29.242  1.00  0.00     0.037 A 
BRANCH  27  41
ATOM     41  C   UNL A   1      48.905  26.505  27.066  1.00  0.00     0.057 A 
ATOM     42  C   UNL A   1      49.759  25.940  28.023  1.00  0.00     0.134 A 
ATOM     43  C   UNL A   1      49.412  26.685  25.773  1.00  0.00     0.134 A 
ATOM     44  F   UNL A   1      49.347  25.774  29.289  1.00  0.00    -0.206 F 
ATOM     45  C   UNL A   1      51.076  25.595  27.711  1.00  0.00     0.040 A 
ATOM     46  C   UNL A   1      50.717  26.321  25.444  1.00  0.00     0.040 A 
ATOM     47  F   UNL A   1      48.650  27.233  24.815  1.00  0.00    -0.206 F 
ATOM     48  C   UNL A   1      51.557  25.781  26.416  1.00  0.00     0.006 A 
ENDBRANCH  27  41
BRANCH  28  49
ATOM     49  C   UNL A   1      39.391  28.941  29.061  1.00  0.00     0.057 A 
ATOM     50  C   UNL A   1      38.889  28.708  30.343  1.00  0.00     0.134 A 
ATOM     51  C   UNL A   1      38.500  29.458  28.108  1.00  0.00     0.134 A 
ATOM     52  F   UNL A   1      39.683  28.197  31.295  1.00  0.00    -0.206 F 
ATOM     53  C   UNL A   1      37.553  28.966  30.665  1.00  0.00     0.040 A 
ATOM     54  C   UNL A   1      37.169  29.744  28.421  1.00  0.00     0.040 A 
ATOM     55  F   UNL A   1      38.913  29.702  26.855  1.00  0.00    -0.206 F 
ATOM     56  C   UNL A   1      36.689  29.491  29.703  1.00  0.00     0.006 A 
ENDBRANCH  28  49
BRANCH  40  57
ATOM     57  C   UNL A   1      45.466  32.273  29.730  1.00  0.00     0.057 A 
ATOM     58  C   UNL A   1      45.429  33.387  28.886  1.00  0.00     0.134 A 
ATOM     59  C   UNL A   1      45.807  32.477  31.072  1.00  0.00     0.134 A 
ATOM     60  F   UNL A   1      45.133  33.246  27.584  1.00  0.00    -0.206 F 
ATOM     61  C   UNL A   1      45.736  34.662  29.358  1.00  0.00     0.040 A 
ATOM     62  C   UNL A   1      46.086  33.750  31.563  1.00  0.00     0.040 A 
ATOM     63  F   UNL A   1      45.859  31.444  31.928  1.00  0.00    -0.206 F 
ATOM     64  C   UNL A   1      46.056  34.846  30.703  1.00  0.00     0.006 A 
ENDBRANCH  40  57
ENDBRANCH  14  15
ENDBRANCH   7   9
ENDBRANCH   6   7
ENDBRANCH   5   6
ENDBRANCH   4   5
ENDBRANCH   3   4
ENDBRANCH   2   3
ENDBRANCH   1   2
BRANCH   1  65
ATOM     65  O   UNL A   1      34.434  21.914  24.409  1.00  0.00    -0.376 OA
BRANCH  65  66
ATOM     66  C   UNL A   1      33.116  21.437  24.179  1.00  0.00     0.202 C 
BRANCH  66  67
ATOM     67  C   UNL A   1      32.133  21.448  25.355  1.00  0.00     0.261 C 
BRANCH  67  68
ATOM     68  O   UNL A   1      31.278  22.592  25.448  1.00  0.00    -0.459 OA
BRANCH  68  69
ATOM     69  C   UNL A   1      31.607  23.512  26.401  1.00  0.00     0.380 C 
ATOM     70  O   UNL A   1      31.429  23.359  27.615  1.00  0.00    -0.245 OA
BRANCH  69  71
ATOM     71  C   UNL A   1      32.094  24.807  25.776  1.00  0.00     0.372 C 
ATOM     72  F   UNL A   1      33.375  25.104  26.179  1.00  0.00    -0.190 F 
ATOM     73  F   UNL A   1      32.171  24.566  24.435  1.00  0.00    -0.190 F 
BRANCH  71  74
ATOM     74  C   UNL A   1      31.209  26.059  26.071  1.00  0.00     0.227 C 
BRANCH  74  75
ATOM     75  C   UNL A   1      31.140  27.092  24.935  1.00  0.00    -0.009 A 
ATOM     76  C   UNL A   1      29.967  27.113  24.135  1.00  0.00     0.007 A 
ATOM     77  C   UNL A   1      32.177  28.012  24.615  1.00  0.00    -0.039 A 
ATOM     78  C   UNL A   1      29.893  27.826  22.941  1.00  0.00     0.000 A 
ATOM     79  C   UNL A   1      32.111  28.612  23.331  1.00  0.00     0.004 A 
ATOM     80  C   UNL A   1      31.001  28.517  22.498  1.00  0.00     0.000 A 
BRANCH  77  81
ATOM     81  C   UNL A   1      33.266  28.615  25.495  1.00  0.00     0.019 C 
ATOM     82  C   UNL A   1      32.995  29.566  26.616  1.00  0.00     0.009 C 
ATOM     83  C   UNL A   1      33.693  28.255  26.879  1.00  0.00     0.009 C 
ENDBRANCH  77  81
ENDBRANCH  74  75
BRANCH  74  84
ATOM     84  O   UNL A   1      29.881  25.671  26.501  1.00  0.00    -0.381 OA
ATOM     85  H   UNL A   1      29.484  26.392  27.014  1.00  0.00     0.211 HD
ENDBRANCH  74  84
ENDBRANCH  71  74
ENDBRANCH  69  71
ENDBRANCH  68  69
ENDBRANCH  67  68
ENDBRANCH  66  67
ENDBRANCH  65  66
ENDBRANCH   1  65
TORSDOF 21
ENDMDL
MODEL 3
REMARK VINA RESULT:      -7.6      5.518     11.045
REMARK SMILES O=C(OCCOCCOCCOC(=O)C(F)(F)[C@H](O)c1ccccc1C1CC1)c1ccc(-c2c3nc(c(-c4c(F)cccc4F)c4ccc([nH]4)c(-c4c(F)cccc4F)c4nc(c(-c5c(F)cccc5F)c5ccc2[nH]5)C=C4)C=C3)cc1
REMARK SMILES IDX 8 1 7 2 6 3 5 4 4 5 3 6 2 7 1 8 29 9 30 10 82 11 31 12 81 13
REMARK SMILES IDX 32 14 33 15 34 16 75 17 35 18 80 19 74 20 76 21 36 22 79 23
REMARK SMILES IDX 73 24 72 25 37 27 63 28 46 29 62 30 47 31 50 32 61 33 77 34
REMARK SMILES IDX 48 35 49 36 60 38 78 39 51 40 38 41 39 42 44 43 40 44 41 45
REMARK SMILES IDX 43 46 45 47 42 48 64 49 65 50 70 51 66 52 67 53 69 54 71 55
REMARK SMILES IDX 68 56 52 57 53 58 58 59 54 60 55 61 57 62 59 63 56 64 9 65
REMARK SMILES IDX 10 66 11 67 12 68 13 69 14 70 15 71 16 72 17 73 18 74 20 75
REMARK SMILES IDX 21 76 25 77 22 78 24 79 23 80 26 81 27 82 28 83 19 84
REMARK H PARENT 76 26 50 37 19 85
REMARK Flexibility Score: inf
ROOT
ATOM      1  C   UNL A   1      36.336  22.881  23.644  1.00  0.00     0.188 C 
ENDROOT
BRANCH   1   2
ATOM      2  C   UNL A   1      36.888  21.582  24.218  1.00  0.00     0.188 C 
BRANCH   2   3
ATOM      3  O   UNL A   1      37.298  21.672  25.583  1.00  0.00    -0.376 OA
BRANCH   3   4
ATOM      4  C   UNL A   1      38.598  21.135  25.851  1.00  0.00     0.202 C 
BRANCH   4   5
ATOM      5  C   UNL A   1      38.961  19.785  25.197  1.00  0.00     0.261 C 
BRANCH   5   6
ATOM      6  O   UNL A   1      40.108  19.107  25.748  1.00  0.00    -0.460 OA
BRANCH   6   7
ATOM      7  C   UNL A   1      41.366  19.549  25.972  1.00  0.00     0.338 C 
ATOM      8  O   UNL A   1      42.311  18.771  25.796  1.00  0.00    -0.246 OA
BRANCH   7   9
ATOM      9  C   UNL A   1      41.679  20.931  26.413  1.00  0.00     0.060 A 
ATOM     10  C   UNL A   1      41.997  21.971  25.545  1.00  0.00     0.016 A 
ATOM     11  C   UNL A   1      41.571  21.226  27.780  1.00  0.00     0.016 A 
ATOM     12  C   UNL A   1      42.360  23.223  26.012  1.00  0.00     0.010 A 
ATOM     13  C   UNL A   1      41.847  22.512  28.255  1.00  0.00     0.010 A 
ATOM     14  C   UNL A   1      42.290  23.505  27.370  1.00  0.00    -0.014 A 
BRANCH  14  15
ATOM     15  C   UNL A   1      42.798  24.802  27.853  1.00  0.00     0.031 A 
ATOM     16  C   UNL A   1      41.810  25.860  28.224  1.00  0.00     0.074 A 
ATOM     17  C   UNL A   1      44.108  24.989  28.090  1.00  0.00     0.049 A 
ATOM     18  N   UNL A   1      42.025  27.094  28.589  1.00  0.00    -0.248 NA
ATOM     19  C   UNL A   1      40.393  25.461  28.229  1.00  0.00     0.031 C 
ATOM     20  C   UNL A   1      45.137  23.956  27.987  1.00  0.00     0.029 A 
ATOM     21  N   UNL A   1      44.800  26.108  28.483  1.00  0.00    -0.354 N 
ATOM     22  C   UNL A   1      40.773  27.619  28.863  1.00  0.00     0.074 A 
ATOM     23  C   UNL A   1      39.799  26.585  28.596  1.00  0.00     0.031 C 
ATOM     24  C   UNL A   1      46.323  24.501  28.291  1.00  0.00     0.029 A 
ATOM     25  C   UNL A   1      46.159  25.925  28.479  1.00  0.00     0.049 A 
ATOM     26  H   UNL A   1      44.364  26.953  28.741  1.00  0.00     0.167 HD
ATOM     27  C   UNL A   1      40.476  28.859  29.313  1.00  0.00     0.037 A 
ATOM     28  C   UNL A   1      47.171  26.807  28.541  1.00  0.00     0.037 A 
ATOM     29  C   UNL A   1      41.469  29.867  29.567  1.00  0.00     0.049 A 
ATOM     30  C   UNL A   1      46.819  28.233  28.804  1.00  0.00     0.074 A 
ATOM     31  C   UNL A   1      41.289  31.169  29.992  1.00  0.00     0.029 A 
ATOM     32  N   UNL A   1      42.837  29.680  29.405  1.00  0.00    -0.354 N 
ATOM     33  N   UNL A   1      45.632  28.750  29.008  1.00  0.00    -0.248 NA
ATOM     34  C   UNL A   1      47.925  29.192  28.874  1.00  0.00     0.031 C 
ATOM     35  C   UNL A   1      42.543  31.789  30.026  1.00  0.00     0.029 A 
ATOM     36  C   UNL A   1      43.510  30.858  29.677  1.00  0.00     0.049 A 
ATOM     37  H   UNL A   1      43.263  28.834  29.137  1.00  0.00     0.167 HD
ATOM     38  C   UNL A   1      45.847  30.087  29.284  1.00  0.00     0.074 A 
ATOM     39  C   UNL A   1      47.281  30.302  29.208  1.00  0.00     0.031 C 
ATOM     40  C   UNL A   1      44.938  31.043  29.592  1.00  0.00     0.037 A 
BRANCH  27  41
ATOM     41  C   UNL A   1      39.025  29.188  29.473  1.00  0.00     0.057 A 
ATOM     42  C   UNL A   1      38.351  29.045  30.693  1.00  0.00     0.134 A 
ATOM     43  C   UNL A   1      38.277  29.615  28.368  1.00  0.00     0.134 A 
ATOM     44  F   UNL A   1      39.002  28.605  31.782  1.00  0.00    -0.206 F 
ATOM     45  C   UNL A   1      36.981  29.291  30.803  1.00  0.00     0.040 A 
ATOM     46  C   UNL A   1      36.913  29.887  28.471  1.00  0.00     0.040 A 
ATOM     47  F   UNL A   1      38.859  29.759  27.168  1.00  0.00    -0.206 F 
ATOM     48  C   UNL A   1      36.259  29.717  29.690  1.00  0.00     0.006 A 
ENDBRANCH  27  41
BRANCH  28  49
ATOM     49  C   UNL A   1      48.569  26.377  28.269  1.00  0.00     0.057 A 
ATOM     50  C   UNL A   1      49.430  25.960  29.287  1.00  0.00     0.134 A 
ATOM     51  C   UNL A   1      49.079  26.388  26.962  1.00  0.00     0.134 A 
ATOM     52  F   UNL A   1      49.012  25.945  30.560  1.00  0.00    -0.206 F 
ATOM     53  C   UNL A   1      50.750  25.582  29.019  1.00  0.00     0.040 A 
ATOM     54  C   UNL A   1      50.386  25.989  26.677  1.00  0.00     0.040 A 
ATOM     55  F   UNL A   1      48.307  26.780  25.937  1.00  0.00    -0.206 F 
ATOM     56  C   UNL A   1      51.230  25.591  27.710  1.00  0.00     0.006 A 
ENDBRANCH  28  49
BRANCH  40  57
ATOM     57  C   UNL A   1      45.483  32.396  29.913  1.00  0.00     0.057 A 
ATOM     58  C   UNL A   1      45.960  32.715  31.188  1.00  0.00     0.134 A 
ATOM     59  C   UNL A   1      45.560  33.378  28.918  1.00  0.00     0.134 A 
ATOM     60  F   UNL A   1      45.887  31.820  32.186  1.00  0.00    -0.206 F 
ATOM     61  C   UNL A   1      46.483  33.976  31.469  1.00  0.00     0.040 A 
ATOM     62  C   UNL A   1      46.110  34.631  29.179  1.00  0.00     0.040 A 
ATOM     63  F   UNL A   1      45.117  33.128  27.676  1.00  0.00    -0.206 F 
ATOM     64  C   UNL A   1      46.569  34.934  30.459  1.00  0.00     0.006 A 
ENDBRANCH  40  57
ENDBRANCH  14  15
ENDBRANCH   7   9
ENDBRANCH   6   7
ENDBRANCH   5   6
ENDBRANCH   4   5
ENDBRANCH   3   4
ENDBRANCH   2   3
ENDBRANCH   1   2
BRANCH   1  65
ATOM     65  O   UNL A   1      35.010  23.249  24.007  1.00  0.00    -0.376 OA
BRANCH  65  66
ATOM     66  C   UNL A   1      33.944  22.765  23.202  1.00  0.00     0.202 C 
BRANCH  66  67
ATOM     67  C   UNL A   1      33.160  23.780  22.363  1.00  0.00     0.261 C 
BRANCH  67  68
ATOM     68  O   UNL A   1      33.828  25.014  22.086  1.00  0.00    -0.459 OA
BRANCH  68  69
ATOM     69  C   UNL A   1      33.029  26.066  21.742  1.00  0.00     0.380 C 
ATOM     70  O   UNL A   1      32.248  26.070  20.784  1.00  0.00    -0.245 OA
BRANCH  69  71
ATOM     71  C   UNL A   1      33.316  27.284  22.602  1.00  0.00     0.372 C 
ATOM     72  F   UNL A   1      33.904  26.926  23.792  1.00  0.00    -0.190 F 
ATOM     73  F   UNL A   1      34.255  28.004  21.924  1.00  0.00    -0.190 F 
BRANCH  71  74
ATOM     74  C   UNL A   1      32.071  28.164  22.942  1.00  0.00     0.227 C 
BRANCH  74  75
ATOM     75  C   UNL A   1      31.777  28.327  24.442  1.00  0.00    -0.009 A 
ATOM     76  C   UNL A   1      32.078  29.580  25.039  1.00  0.00     0.007 A 
ATOM     77  C   UNL A   1      31.246  27.305  25.277  1.00  0.00    -0.039 A 
ATOM     78  C   UNL A   1      32.085  29.763  26.420  1.00  0.00     0.000 A 
ATOM     79  C   UNL A   1      31.397  27.494  26.675  1.00  0.00     0.004 A 
ATOM     80  C   UNL A   1      31.819  28.691  27.244  1.00  0.00     0.000 A 
BRANCH  77  81
ATOM     81  C   UNL A   1      30.367  26.108  24.932  1.00  0.00     0.019 C 
ATOM     82  C   UNL A   1      28.964  26.228  24.427  1.00  0.00     0.009 C 
ATOM     83  C   UNL A   1      30.015  25.524  23.604  1.00  0.00     0.009 C 
ENDBRANCH  77  81
ENDBRANCH  74  75
BRANCH  74  84
ATOM     84  O   UNL A   1      32.149  29.454  22.286  1.00  0.00    -0.381 OA
ATOM     85  H   UNL A   1      31.730  30.127  22.845  1.00  0.00     0.211 HD
ENDBRANCH  74  84
ENDBRANCH  71  74
ENDBRANCH  69  71
ENDBRANCH  68  69
ENDBRANCH  67  68
ENDBRANCH  66  67
ENDBRANCH  65  66
ENDBRANCH   1  65
TORSDOF 21
ENDMDL
