MODEL 1
REMARK VINA RESULT:     -10.8      0.000      0.000
REMARK SMILES COc1ccc(NC(=O)[C@@H]2CC=CC[C@H]2C(=O)OCCOCCOCCOC(=O)c2ccc(-c3c4nc(c(-c5c(F)cccc5F)c5ccc([nH]5)c(-c5c(F)cccc5F)c5nc(c(-c6c(F)cccc6F)c6ccc3[nH]6)C=C5)C=C4)cc2)cc1Cl
REMARK SMILES IDX 22 1 21 2 20 3 19 4 18 5 16 6 17 7 15 8 10 9 11 10 12 11
REMARK SMILES IDX 14 12 13 13 8 14 7 15 9 17 6 18 3 19 4 20 85 21 5 22 84 23
REMARK SMILES IDX 86 24 2 25 1 26 23 27 24 28 25 29 26 30 27 31 28 32 29 33
REMARK SMILES IDX 30 34 31 35 83 36 32 37 82 38 33 39 34 40 35 41 76 42 36 43
REMARK SMILES IDX 81 44 75 45 77 46 37 47 80 48 74 49 73 50 38 52 64 53 47 54
REMARK SMILES IDX 63 55 48 56 51 57 62 58 78 59 49 60 50 61 61 63 79 64 52 65
REMARK SMILES IDX 39 66 40 67 45 68 41 69 42 70 44 71 46 72 43 73 65 74 66 75
REMARK SMILES IDX 71 76 67 77 68 78 70 79 72 80 69 81 53 82 54 83 59 84 55 85
REMARK SMILES IDX 56 86 58 87 60 88 57 89
REMARK H PARENT 7 16 77 51 51 62
REMARK Flexibility Score: inf
ROOT
ATOM      1  C   UNL A   1      40.777  20.226  26.676  1.00  0.00     0.188 C 
ENDROOT
BRANCH   1   2
ATOM      2  O   UNL A   1      40.146  21.084  25.728  1.00  0.00    -0.376 OA
BRANCH   2   3
ATOM      3  C   UNL A   1      38.988  21.796  26.127  1.00  0.00     0.202 C 
BRANCH   3   4
ATOM      4  C   UNL A   1      37.860  21.896  25.099  1.00  0.00     0.261 C 
BRANCH   4   5
ATOM      5  O   UNL A   1      36.527  22.021  25.642  1.00  0.00    -0.463 OA
BRANCH   5   6
ATOM      6  C   UNL A   1      36.081  23.301  25.765  1.00  0.00     0.310 C 
ATOM      7  O   UNL A   1      36.813  24.276  25.908  1.00  0.00    -0.252 OA
BRANCH   6   8
ATOM      8  C   UNL A   1      34.578  23.397  25.951  1.00  0.00     0.116 C 
ATOM      9  C   UNL A   1      33.606  23.056  24.784  1.00  0.00     0.097 C 
ATOM     10  C   UNL A   1      32.188  23.460  25.259  1.00  0.00     0.041 C 
ATOM     11  C   UNL A   1      31.852  23.002  26.649  1.00  0.00    -0.030 C 
ATOM     12  C   UNL A   1      34.239  22.572  27.204  1.00  0.00     0.043 C 
ATOM     13  C   UNL A   1      32.776  22.577  27.519  1.00  0.00    -0.030 C 
BRANCH   9  14
ATOM     14  C   UNL A   1      33.933  23.841  23.527  1.00  0.00     0.228 C 
ATOM     15  N   UNL A   1      33.644  25.153  23.317  1.00  0.00    -0.326 N 
ATOM     16  H   UNL A   1      33.917  25.432  22.413  1.00  0.00     0.169 HD
ATOM     17  O   UNL A   1      34.542  23.294  22.600  1.00  0.00    -0.274 OA
BRANCH  15  18
ATOM     18  C   UNL A   1      33.069  26.223  24.017  1.00  0.00     0.042 A 
ATOM     19  C   UNL A   1      31.940  28.637  24.896  1.00  0.00     0.137 A 
ATOM     20  C   UNL A   1      33.104  28.140  25.487  1.00  0.00     0.050 A 
ATOM     21  C   UNL A   1      31.272  27.874  23.943  1.00  0.00     0.085 A 
ATOM     22  C   UNL A   1      33.647  26.915  25.073  1.00  0.00     0.030 A 
ATOM     23  C   UNL A   1      31.827  26.664  23.521  1.00  0.00     0.050 A 
ATOM     24  Cl  UNL A   1      29.808  28.414  23.206  1.00  0.00    -0.080 Cl
BRANCH  19  25
ATOM     25  O   UNL A   1      31.594  29.940  25.134  1.00  0.00    -0.495 OA
ATOM     26  C   UNL A   1      31.779  30.304  26.496  1.00  0.00     0.278 C 
ENDBRANCH  19  25
ENDBRANCH  15  18
ENDBRANCH   9  14
ENDBRANCH   6   8
ENDBRANCH   5   6
ENDBRANCH   4   5
ENDBRANCH   3   4
ENDBRANCH   2   3
ENDBRANCH   1   2
BRANCH   1  27
ATOM     27  C   UNL A   1      41.870  19.262  26.194  1.00  0.00     0.188 C 
BRANCH  27  28
ATOM     28  O   UNL A   1      42.668  19.850  25.167  1.00  0.00    -0.376 OA
BRANCH  28  29
ATOM     29  C   UNL A   1      44.052  19.949  25.484  1.00  0.00     0.202 C 
BRANCH  29  30
ATOM     30  C   UNL A   1      44.469  21.418  25.607  1.00  0.00     0.261 C 
BRANCH  30  31
ATOM     31  O   UNL A   1      43.373  22.350  25.643  1.00  0.00    -0.460 OA
BRANCH  31  32
ATOM     32  C   UNL A   1      43.648  23.607  25.238  1.00  0.00     0.338 C 
ATOM     33  O   UNL A   1      44.254  23.946  24.237  1.00  0.00    -0.246 OA
BRANCH  32  34
ATOM     34  C   UNL A   1      42.952  24.561  26.119  1.00  0.00     0.060 A 
ATOM     35  C   UNL A   1      43.323  25.904  26.038  1.00  0.00     0.016 A 
ATOM     36  C   UNL A   1      42.014  24.147  27.061  1.00  0.00     0.016 A 
ATOM     37  C   UNL A   1      42.815  26.839  26.934  1.00  0.00     0.010 A 
ATOM     38  C   UNL A   1      41.494  25.086  27.959  1.00  0.00     0.010 A 
ATOM     39  C   UNL A   1      41.920  26.430  27.925  1.00  0.00    -0.014 A 
BRANCH  39  40
ATOM     40  C   UNL A   1      41.542  27.364  29.012  1.00  0.00     0.031 A 
ATOM     41  C   UNL A   1      42.326  27.340  30.293  1.00  0.00     0.074 A 
ATOM     42  C   UNL A   1      40.542  28.249  28.857  1.00  0.00     0.049 A 
ATOM     43  N   UNL A   1      42.100  27.966  31.420  1.00  0.00    -0.248 NA
ATOM     44  C   UNL A   1      43.532  26.498  30.303  1.00  0.00     0.031 C 
ATOM     45  C   UNL A   1      39.767  28.449  27.634  1.00  0.00     0.029 A 
ATOM     46  N   UNL A   1      40.009  29.147  29.748  1.00  0.00    -0.354 N 
ATOM     47  C   UNL A   1      43.113  27.566  32.282  1.00  0.00     0.074 A 
ATOM     48  C   UNL A   1      43.952  26.641  31.551  1.00  0.00     0.031 C 
ATOM     49  C   UNL A   1      38.852  29.409  27.854  1.00  0.00     0.029 A 
ATOM     50  C   UNL A   1      38.942  29.850  29.244  1.00  0.00     0.049 A 
ATOM     51  H   UNL A   1      40.356  29.275  30.660  1.00  0.00     0.167 HD
ATOM     52  C   UNL A   1      43.323  27.933  33.568  1.00  0.00     0.037 A 
ATOM     53  C   UNL A   1      38.114  30.724  29.848  1.00  0.00     0.037 A 
ATOM     54  C   UNL A   1      42.502  28.869  34.290  1.00  0.00     0.049 A 
ATOM     55  C   UNL A   1      38.304  31.040  31.307  1.00  0.00     0.074 A 
ATOM     56  C   UNL A   1      42.638  29.309  35.594  1.00  0.00     0.029 A 
ATOM     57  N   UNL A   1      41.390  29.508  33.764  1.00  0.00    -0.354 N 
ATOM     58  N   UNL A   1      39.241  30.632  32.129  1.00  0.00    -0.248 NA
ATOM     59  C   UNL A   1      37.308  31.928  31.927  1.00  0.00     0.031 C 
ATOM     60  C   UNL A   1      41.581  30.183  35.873  1.00  0.00     0.029 A 
ATOM     61  C   UNL A   1      40.813  30.320  34.727  1.00  0.00     0.049 A 
ATOM     62  H   UNL A   1      41.060  29.402  32.843  1.00  0.00     0.167 HD
ATOM     63  C   UNL A   1      38.963  31.230  33.353  1.00  0.00     0.074 A 
ATOM     64  C   UNL A   1      37.775  32.037  33.164  1.00  0.00     0.031 C 
ATOM     65  C   UNL A   1      39.634  31.123  34.525  1.00  0.00     0.037 A 
BRANCH  52  66
ATOM     66  C   UNL A   1      44.459  27.271  34.288  1.00  0.00     0.057 A 
ATOM     67  C   UNL A   1      45.761  27.787  34.262  1.00  0.00     0.134 A 
ATOM     68  C   UNL A   1      44.243  26.092  35.013  1.00  0.00     0.134 A 
ATOM     69  F   UNL A   1      46.037  28.902  33.568  1.00  0.00    -0.206 F 
ATOM     70  C   UNL A   1      46.814  27.137  34.908  1.00  0.00     0.040 A 
ATOM     71  C   UNL A   1      45.282  25.447  35.683  1.00  0.00     0.040 A 
ATOM     72  F   UNL A   1      43.019  25.548  35.078  1.00  0.00    -0.206 F 
ATOM     73  C   UNL A   1      46.575  25.965  35.623  1.00  0.00     0.006 A 
ENDBRANCH  52  66
BRANCH  53  74
ATOM     74  C   UNL A   1      37.001  31.342  29.085  1.00  0.00     0.057 A 
ATOM     75  C   UNL A   1      37.053  32.685  28.696  1.00  0.00     0.134 A 
ATOM     76  C   UNL A   1      35.855  30.613  28.744  1.00  0.00     0.134 A 
ATOM     77  F   UNL A   1      38.111  33.441  29.021  1.00  0.00    -0.206 F 
ATOM     78  C   UNL A   1      36.000  33.285  28.002  1.00  0.00     0.040 A 
ATOM     79  C   UNL A   1      34.807  31.193  28.030  1.00  0.00     0.040 A 
ATOM     80  F   UNL A   1      35.742  29.324  29.097  1.00  0.00    -0.206 F 
ATOM     81  C   UNL A   1      34.875  32.536  27.662  1.00  0.00     0.006 A 
ENDBRANCH  53  74
BRANCH  65  82
ATOM     82  C   UNL A   1      39.123  31.922  35.687  1.00  0.00     0.057 A 
ATOM     83  C   UNL A   1      38.240  31.376  36.628  1.00  0.00     0.134 A 
ATOM     84  C   UNL A   1      39.553  33.239  35.891  1.00  0.00     0.134 A 
ATOM     85  F   UNL A   1      37.781  30.124  36.483  1.00  0.00    -0.206 F 
ATOM     86  C   UNL A   1      37.792  32.119  37.722  1.00  0.00     0.040 A 
ATOM     87  C   UNL A   1      39.129  33.984  36.992  1.00  0.00     0.040 A 
ATOM     88  F   UNL A   1      40.404  33.818  35.030  1.00  0.00    -0.206 F 
ATOM     89  C   UNL A   1      38.242  33.424  37.910  1.00  0.00     0.006 A 
ENDBRANCH  65  82
ENDBRANCH  39  40
ENDBRANCH  32  34
ENDBRANCH  31  32
ENDBRANCH  30  31
ENDBRANCH  29  30
ENDBRANCH  28  29
ENDBRANCH  27  28
ENDBRANCH   1  27
TORSDOF 20
ENDMDL
MODEL 2
REMARK VINA RESULT:     -10.4      4.328     10.017
REMARK SMILES COc1ccc(NC(=O)[C@@H]2CC=CC[C@H]2C(=O)OCCOCCOCCOC(=O)c2ccc(-c3c4nc(c(-c5c(F)cccc5F)c5ccc([nH]5)c(-c5c(F)cccc5F)c5nc(c(-c6c(F)cccc6F)c6ccc3[nH]6)C=C5)C=C4)cc2)cc1Cl
REMARK SMILES IDX 22 1 21 2 20 3 19 4 18 5 16 6 17 7 15 8 10 9 11 10 12 11
REMARK SMILES IDX 14 12 13 13 8 14 7 15 9 17 6 18 3 19 4 20 85 21 5 22 84 23
REMARK SMILES IDX 86 24 2 25 1 26 23 27 24 28 25 29 26 30 27 31 28 32 29 33
REMARK SMILES IDX 30 34 31 35 83 36 32 37 82 38 33 39 34 40 35 41 76 42 36 43
REMARK SMILES IDX 81 44 75 45 77 46 37 47 80 48 74 49 73 50 38 52 64 53 47 54
REMARK SMILES IDX 63 55 48 56 51 57 62 58 78 59 49 60 50 61 61 63 79 64 52 65
REMARK SMILES IDX 39 66 40 67 45 68 41 69 42 70 44 71 46 72 43 73 65 74 66 75
REMARK SMILES IDX 71 76 67 77 68 78 70 79 72 80 69 81 53 82 54 83 59 84 55 85
REMARK SMILES IDX 56 86 58 87 60 88 57 89
REMARK H PARENT 7 16 77 51 51 62
REMARK Flexibility Score: inf
ROOT
ATOM      1  C   UNL A   1      34.997  32.839  27.987  1.00  0.00     0.188 C 
ENDROOT
BRANCH   1   2
ATOM      2  O   UNL A   1      34.406  31.717  27.334  1.00  0.00    -0.376 OA
BRANCH   2   3
ATOM      3  C   UNL A   1      34.744  30.417  27.786  1.00  0.00     0.202 C 
BRANCH   3   4
ATOM      4  C   UNL A   1      34.099  29.247  27.042  1.00  0.00     0.261 C 
BRANCH   4   5
ATOM      5  O   UNL A   1      33.877  29.449  25.629  1.00  0.00    -0.463 OA
BRANCH   5   6
ATOM      6  C   UNL A   1      32.568  29.526  25.265  1.00  0.00     0.310 C 
ATOM      7  O   UNL A   1      31.804  30.417  25.622  1.00  0.00    -0.252 OA
BRANCH   6   8
ATOM      8  C   UNL A   1      32.065  28.276  24.566  1.00  0.00     0.116 C 
ATOM      9  C   UNL A   1      30.947  27.401  25.204  1.00  0.00     0.097 C 
ATOM     10  C   UNL A   1      30.839  26.123  24.335  1.00  0.00     0.041 C 
ATOM     11  C   UNL A   1      30.810  26.385  22.857  1.00  0.00    -0.030 C 
ATOM     12  C   UNL A   1      31.682  28.698  23.137  1.00  0.00     0.043 C 
ATOM     13  C   UNL A   1      31.167  27.557  22.317  1.00  0.00    -0.030 C 
BRANCH   9  14
ATOM     14  C   UNL A   1      31.290  26.988  26.623  1.00  0.00     0.228 C 
ATOM     15  N   UNL A   1      32.191  26.032  26.972  1.00  0.00    -0.326 N 
ATOM     16  H   UNL A   1      32.215  25.913  27.949  1.00  0.00     0.169 HD
ATOM     17  O   UNL A   1      30.756  27.565  27.578  1.00  0.00    -0.274 OA
BRANCH  15  18
ATOM     18  C   UNL A   1      33.096  25.166  26.342  1.00  0.00     0.042 A 
ATOM     19  C   UNL A   1      35.100  23.336  25.629  1.00  0.00     0.137 A 
ATOM     20  C   UNL A   1      35.092  24.626  25.093  1.00  0.00     0.050 A 
ATOM     21  C   UNL A   1      34.044  22.918  26.432  1.00  0.00     0.085 A 
ATOM     22  C   UNL A   1      34.069  25.528  25.420  1.00  0.00     0.030 A 
ATOM     23  C   UNL A   1      33.039  23.826  26.770  1.00  0.00     0.050 A 
ATOM     24  Cl  UNL A   1      33.975  21.324  27.090  1.00  0.00    -0.080 Cl
BRANCH  19  25
ATOM     25  O   UNL A   1      36.237  22.584  25.501  1.00  0.00    -0.495 OA
ATOM     26  C   UNL A   1      36.412  22.098  24.175  1.00  0.00     0.278 C 
ENDBRANCH  19  25
ENDBRANCH  15  18
ENDBRANCH   9  14
ENDBRANCH   6   8
ENDBRANCH   5   6
ENDBRANCH   4   5
ENDBRANCH   3   4
ENDBRANCH   2   3
ENDBRANCH   1   2
BRANCH   1  27
ATOM     27  C   UNL A   1      34.082  33.920  28.578  1.00  0.00     0.188 C 
BRANCH  27  28
ATOM     28  O   UNL A   1      33.868  33.717  29.974  1.00  0.00    -0.376 OA
BRANCH  28  29
ATOM     29  C   UNL A   1      33.906  34.906  30.753  1.00  0.00     0.202 C 
BRANCH  29  30
ATOM     30  C   UNL A   1      34.832  34.726  31.961  1.00  0.00     0.261 C 
BRANCH  30  31
ATOM     31  O   UNL A   1      36.037  33.988  31.686  1.00  0.00    -0.460 OA
BRANCH  31  32
ATOM     32  C   UNL A   1      36.189  32.827  32.357  1.00  0.00     0.338 C 
ATOM     33  O   UNL A   1      35.552  32.442  33.321  1.00  0.00    -0.246 OA
BRANCH  32  34
ATOM     34  C   UNL A   1      37.163  31.982  31.645  1.00  0.00     0.060 A 
ATOM     35  C   UNL A   1      38.025  31.200  32.415  1.00  0.00     0.016 A 
ATOM     36  C   UNL A   1      37.290  32.010  30.259  1.00  0.00     0.016 A 
ATOM     37  C   UNL A   1      39.061  30.487  31.824  1.00  0.00     0.010 A 
ATOM     38  C   UNL A   1      38.327  31.287  29.658  1.00  0.00     0.010 A 
ATOM     39  C   UNL A   1      39.242  30.552  30.441  1.00  0.00    -0.014 A 
BRANCH  39  40
ATOM     40  C   UNL A   1      40.462  29.978  29.825  1.00  0.00     0.031 A 
ATOM     41  C   UNL A   1      41.675  30.851  29.670  1.00  0.00     0.074 A 
ATOM     42  C   UNL A   1      40.512  28.690  29.441  1.00  0.00     0.049 A 
ATOM     43  N   UNL A   1      42.801  30.610  29.049  1.00  0.00    -0.248 NA
ATOM     44  C   UNL A   1      41.609  32.176  30.307  1.00  0.00     0.031 C 
ATOM     45  C   UNL A   1      39.447  27.708  29.625  1.00  0.00     0.029 A 
ATOM     46  N   UNL A   1      41.513  27.993  28.811  1.00  0.00    -0.354 N 
ATOM     47  C   UNL A   1      43.562  31.764  29.189  1.00  0.00     0.074 A 
ATOM     48  C   UNL A   1      42.768  32.706  29.949  1.00  0.00     0.031 C 
ATOM     49  C   UNL A   1      39.850  26.531  29.113  1.00  0.00     0.029 A 
ATOM     50  C   UNL A   1      41.175  26.694  28.521  1.00  0.00     0.049 A 
ATOM     51  H   UNL A   1      42.387  28.386  28.588  1.00  0.00     0.167 HD
ATOM     52  C   UNL A   1      44.807  32.017  28.723  1.00  0.00     0.037 A 
ATOM     53  C   UNL A   1      41.847  25.757  27.825  1.00  0.00     0.037 A 
ATOM     54  C   UNL A   1      45.606  31.074  27.985  1.00  0.00     0.049 A 
ATOM     55  C   UNL A   1      43.187  26.093  27.229  1.00  0.00     0.074 A 
ATOM     56  C   UNL A   1      46.881  31.236  27.476  1.00  0.00     0.029 A 
ATOM     57  N   UNL A   1      45.200  29.791  27.653  1.00  0.00    -0.354 N 
ATOM     58  N   UNL A   1      43.888  27.197  27.331  1.00  0.00    -0.248 NA
ATOM     59  C   UNL A   1      43.823  25.054  26.402  1.00  0.00     0.031 C 
ATOM     60  C   UNL A   1      47.232  30.064  26.796  1.00  0.00     0.029 A 
ATOM     61  C   UNL A   1      46.191  29.157  26.920  1.00  0.00     0.049 A 
ATOM     62  H   UNL A   1      44.337  29.389  27.900  1.00  0.00     0.167 HD
ATOM     63  C   UNL A   1      45.053  26.978  26.606  1.00  0.00     0.074 A 
ATOM     64  C   UNL A   1      44.971  25.633  26.076  1.00  0.00     0.031 C 
ATOM     65  C   UNL A   1      46.099  27.816  26.402  1.00  0.00     0.037 A 
BRANCH  52  66
ATOM     66  C   UNL A   1      45.354  33.394  28.954  1.00  0.00     0.057 A 
ATOM     67  C   UNL A   1      46.121  33.711  30.082  1.00  0.00     0.134 A 
ATOM     68  C   UNL A   1      45.099  34.418  28.033  1.00  0.00     0.134 A 
ATOM     69  F   UNL A   1      46.383  32.780  31.011  1.00  0.00    -0.206 F 
ATOM     70  C   UNL A   1      46.591  35.008  30.299  1.00  0.00     0.040 A 
ATOM     71  C   UNL A   1      45.584  35.711  28.227  1.00  0.00     0.040 A 
ATOM     72  F   UNL A   1      44.373  34.177  26.932  1.00  0.00    -0.206 F 
ATOM     73  C   UNL A   1      46.325  36.011  29.369  1.00  0.00     0.006 A 
ENDBRANCH  52  66
BRANCH  53  74
ATOM     74  C   UNL A   1      41.250  24.413  27.622  1.00  0.00     0.057 A 
ATOM     75  C   UNL A   1      41.718  23.302  28.333  1.00  0.00     0.134 A 
ATOM     76  C   UNL A   1      40.216  24.204  26.702  1.00  0.00     0.134 A 
ATOM     77  F   UNL A   1      42.729  23.436  29.204  1.00  0.00    -0.206 F 
ATOM     78  C   UNL A   1      41.185  22.028  28.130  1.00  0.00     0.040 A 
ATOM     79  C   UNL A   1      39.657  22.941  26.507  1.00  0.00     0.040 A 
ATOM     80  F   UNL A   1      39.731  25.227  25.984  1.00  0.00    -0.206 F 
ATOM     81  C   UNL A   1      40.146  21.847  27.219  1.00  0.00     0.006 A 
ENDBRANCH  53  74
BRANCH  65  82
ATOM     82  C   UNL A   1      47.254  27.294  25.601  1.00  0.00     0.057 A 
ATOM     83  C   UNL A   1      47.380  27.552  24.231  1.00  0.00     0.134 A 
ATOM     84  C   UNL A   1      48.276  26.560  26.217  1.00  0.00     0.134 A 
ATOM     85  F   UNL A   1      46.430  28.239  23.578  1.00  0.00    -0.206 F 
ATOM     86  C   UNL A   1      48.473  27.085  23.498  1.00  0.00     0.040 A 
ATOM     87  C   UNL A   1      49.385  26.107  25.501  1.00  0.00     0.040 A 
ATOM     88  F   UNL A   1      48.219  26.284  27.529  1.00  0.00    -0.206 F 
ATOM     89  C   UNL A   1      49.483  26.366  24.135  1.00  0.00     0.006 A 
ENDBRANCH  65  82
ENDBRANCH  39  40
ENDBRANCH  32  34
ENDBRANCH  31  32
ENDBRANCH  30  31
ENDBRANCH  29  30
ENDBRANCH  28  29
ENDBRANCH  27  28
ENDBRANCH   1  27
TORSDOF 20
ENDMDL
MODEL 3
REMARK VINA RESULT:     -10.0      4.798      6.907
REMARK SMILES COc1ccc(NC(=O)[C@@H]2CC=CC[C@H]2C(=O)OCCOCCOCCOC(=O)c2ccc(-c3c4nc(c(-c5c(F)cccc5F)c5ccc([nH]5)c(-c5c(F)cccc5F)c5nc(c(-c6c(F)cccc6F)c6ccc3[nH]6)C=C5)C=C4)cc2)cc1Cl
REMARK SMILES IDX 22 1 21 2 20 3 19 4 18 5 16 6 17 7 15 8 10 9 11 10 12 11
REMARK SMILES IDX 14 12 13 13 8 14 7 15 9 17 6 18 3 19 4 20 85 21 5 22 84 23
REMARK SMILES IDX 86 24 2 25 1 26 23 27 24 28 25 29 26 30 27 31 28 32 29 33
REMARK SMILES IDX 30 34 31 35 83 36 32 37 82 38 33 39 34 40 35 41 76 42 36 43
REMARK SMILES IDX 81 44 75 45 77 46 37 47 80 48 74 49 73 50 38 52 64 53 47 54
REMARK SMILES IDX 63 55 48 56 51 57 62 58 78 59 49 60 50 61 61 63 79 64 52 65
REMARK SMILES IDX 39 66 40 67 45 68 41 69 42 70 44 71 46 72 43 73 65 74 66 75
REMARK SMILES IDX 71 76 67 77 68 78 70 79 72 80 69 81 53 82 54 83 59 84 55 85
REMARK SMILES IDX 56 86 58 87 60 88 57 89
REMARK H PARENT 7 16 77 51 51 62
REMARK Flexibility Score: inf
ROOT
ATOM      1  C   UNL A   1      40.867  22.239  26.383  1.00  0.00     0.188 C 
ENDROOT
BRANCH   1   2
ATOM      2  O   UNL A   1      39.770  21.514  25.832  1.00  0.00    -0.376 OA
BRANCH   2   3
ATOM      3  C   UNL A   1      38.456  21.900  26.195  1.00  0.00     0.202 C 
BRANCH   3   4
ATOM      4  C   UNL A   1      37.698  22.768  25.189  1.00  0.00     0.261 C 
BRANCH   4   5
ATOM      5  O   UNL A   1      36.857  22.055  24.256  1.00  0.00    -0.463 OA
BRANCH   5   6
ATOM      6  C   UNL A   1      35.857  22.798  23.710  1.00  0.00     0.310 C 
ATOM      7  O   UNL A   1      36.024  23.881  23.156  1.00  0.00    -0.252 OA
BRANCH   6   8
ATOM      8  C   UNL A   1      34.470  22.285  24.056  1.00  0.00     0.116 C 
ATOM      9  C   UNL A   1      33.363  22.184  22.966  1.00  0.00     0.097 C 
ATOM     10  C   UNL A   1      32.049  21.827  23.706  1.00  0.00     0.041 C 
ATOM     11  C   UNL A   1      32.190  20.722  24.712  1.00  0.00    -0.030 C 
ATOM     12  C   UNL A   1      34.669  20.933  24.762  1.00  0.00     0.043 C 
ATOM     13  C   UNL A   1      33.375  20.301  25.171  1.00  0.00    -0.030 C 
BRANCH   9  14
ATOM     14  C   UNL A   1      33.162  23.499  22.237  1.00  0.00     0.228 C 
ATOM     15  N   UNL A   1      32.840  24.684  22.820  1.00  0.00    -0.326 N 
ATOM     16  H   UNL A   1      32.726  25.389  22.142  1.00  0.00     0.169 HD
ATOM     17  O   UNL A   1      33.327  23.556  21.013  1.00  0.00    -0.274 OA
BRANCH  15  18
ATOM     18  C   UNL A   1      32.626  25.193  24.109  1.00  0.00     0.042 A 
ATOM     19  C   UNL A   1      31.774  26.526  26.427  1.00  0.00     0.137 A 
ATOM     20  C   UNL A   1      33.100  26.620  26.000  1.00  0.00     0.050 A 
ATOM     21  C   UNL A   1      30.896  25.674  25.764  1.00  0.00     0.085 A 
ATOM     22  C   UNL A   1      33.535  25.924  24.862  1.00  0.00     0.030 A 
ATOM     23  C   UNL A   1      31.329  24.998  24.621  1.00  0.00     0.050 A 
ATOM     24  Cl  UNL A   1      29.257  25.482  26.267  1.00  0.00    -0.080 Cl
BRANCH  19  25
ATOM     25  O   UNL A   1      31.328  27.415  27.368  1.00  0.00    -0.495 OA
ATOM     26  C   UNL A   1      32.070  28.628  27.354  1.00  0.00     0.278 C 
ENDBRANCH  19  25
ENDBRANCH  15  18
ENDBRANCH   9  14
ENDBRANCH   6   8
ENDBRANCH   5   6
ENDBRANCH   4   5
ENDBRANCH   3   4
ENDBRANCH   2   3
ENDBRANCH   1   2
BRANCH   1  27
ATOM     27  C   UNL A   1      42.141  21.476  26.773  1.00  0.00     0.188 C 
BRANCH  27  28
ATOM     28  O   UNL A   1      41.837  20.183  27.292  1.00  0.00    -0.376 OA
BRANCH  28  29
ATOM     29  C   UNL A   1      41.807  19.150  26.314  1.00  0.00     0.202 C 
BRANCH  29  30
ATOM     30  C   UNL A   1      43.220  18.859  25.799  1.00  0.00     0.261 C 
BRANCH  30  31
ATOM     31  O   UNL A   1      43.512  19.419  24.505  1.00  0.00    -0.460 OA
BRANCH  31  32
ATOM     32  C   UNL A   1      44.818  19.598  24.216  1.00  0.00     0.338 C 
ATOM     33  O   UNL A   1      45.573  18.803  23.684  1.00  0.00    -0.246 OA
BRANCH  32  34
ATOM     34  C   UNL A   1      45.186  20.996  24.493  1.00  0.00     0.060 A 
ATOM     35  C   UNL A   1      45.735  21.284  25.744  1.00  0.00     0.016 A 
ATOM     36  C   UNL A   1      44.931  22.021  23.587  1.00  0.00     0.016 A 
ATOM     37  C   UNL A   1      45.975  22.597  26.132  1.00  0.00     0.010 A 
ATOM     38  C   UNL A   1      45.179  23.344  23.970  1.00  0.00     0.010 A 
ATOM     39  C   UNL A   1      45.667  23.642  25.259  1.00  0.00    -0.014 A 
BRANCH  39  40
ATOM     40  C   UNL A   1      45.714  25.045  25.737  1.00  0.00     0.031 A 
ATOM     41  C   UNL A   1      47.019  25.787  25.675  1.00  0.00     0.074 A 
ATOM     42  C   UNL A   1      44.610  25.669  26.184  1.00  0.00     0.049 A 
ATOM     43  N   UNL A   1      47.330  26.965  26.152  1.00  0.00    -0.248 NA
ATOM     44  C   UNL A   1      48.122  25.108  24.978  1.00  0.00     0.031 C 
ATOM     45  C   UNL A   1      43.263  25.102  26.203  1.00  0.00     0.029 A 
ATOM     46  N   UNL A   1      44.458  26.926  26.713  1.00  0.00    -0.354 N 
ATOM     47  C   UNL A   1      48.671  27.153  25.844  1.00  0.00     0.074 A 
ATOM     48  C   UNL A   1      49.116  25.967  25.145  1.00  0.00     0.031 C 
ATOM     49  C   UNL A   1      42.419  26.011  26.722  1.00  0.00     0.029 A 
ATOM     50  C   UNL A   1      43.174  27.196  27.121  1.00  0.00     0.049 A 
ATOM     51  H   UNL A   1      45.196  27.572  26.793  1.00  0.00     0.167 HD
ATOM     52  C   UNL A   1      49.462  28.216  26.123  1.00  0.00     0.037 A 
ATOM     53  C   UNL A   1      42.677  28.265  27.772  1.00  0.00     0.037 A 
ATOM     54  C   UNL A   1      49.015  29.405  26.799  1.00  0.00     0.049 A 
ATOM     55  C   UNL A   1      43.595  29.391  28.162  1.00  0.00     0.074 A 
ATOM     56  C   UNL A   1      49.740  30.538  27.122  1.00  0.00     0.029 A 
ATOM     57  N   UNL A   1      47.723  29.612  27.257  1.00  0.00    -0.354 N 
ATOM     58  N   UNL A   1      44.871  29.549  27.903  1.00  0.00    -0.248 NA
ATOM     59  C   UNL A   1      43.005  30.482  28.954  1.00  0.00     0.031 C 
ATOM     60  C   UNL A   1      48.897  31.414  27.815  1.00  0.00     0.029 A 
ATOM     61  C   UNL A   1      47.636  30.844  27.884  1.00  0.00     0.049 A 
ATOM     62  H   UNL A   1      46.978  28.978  27.152  1.00  0.00     0.167 HD
ATOM     63  C   UNL A   1      45.230  30.764  28.475  1.00  0.00     0.074 A 
ATOM     64  C   UNL A   1      44.035  31.307  29.089  1.00  0.00     0.031 C 
ATOM     65  C   UNL A   1      46.439  31.376  28.487  1.00  0.00     0.037 A 
BRANCH  52  66
ATOM     66  C   UNL A   1      50.907  28.108  25.740  1.00  0.00     0.057 A 
ATOM     67  C   UNL A   1      51.348  28.307  24.426  1.00  0.00     0.134 A 
ATOM     68  C   UNL A   1      51.871  27.793  26.707  1.00  0.00     0.134 A 
ATOM     69  F   UNL A   1      50.472  28.591  23.450  1.00  0.00    -0.206 F 
ATOM     70  C   UNL A   1      52.693  28.166  24.081  1.00  0.00     0.040 A 
ATOM     71  C   UNL A   1      53.221  27.674  26.379  1.00  0.00     0.040 A 
ATOM     72  F   UNL A   1      51.513  27.593  27.984  1.00  0.00    -0.206 F 
ATOM     73  C   UNL A   1      53.634  27.851  25.060  1.00  0.00     0.006 A 
ENDBRANCH  52  66
BRANCH  53  74
ATOM     74  C   UNL A   1      41.237  28.311  28.131  1.00  0.00     0.057 A 
ATOM     75  C   UNL A   1      40.789  27.842  29.371  1.00  0.00     0.134 A 
ATOM     76  C   UNL A   1      40.277  28.805  27.241  1.00  0.00     0.134 A 
ATOM     77  F   UNL A   1      41.658  27.328  30.253  1.00  0.00    -0.206 F 
ATOM     78  C   UNL A   1      39.434  27.854  29.709  1.00  0.00     0.040 A 
ATOM     79  C   UNL A   1      38.923  28.846  27.575  1.00  0.00     0.040 A 
ATOM     80  F   UNL A   1      40.644  29.261  26.034  1.00  0.00    -0.206 F 
ATOM     81  C   UNL A   1      38.498  28.364  28.811  1.00  0.00     0.006 A 
ENDBRANCH  53  74
BRANCH  65  82
ATOM     82  C   UNL A   1      46.527  32.716  29.154  1.00  0.00     0.057 A 
ATOM     83  C   UNL A   1      46.881  32.849  30.502  1.00  0.00     0.134 A 
ATOM     84  C   UNL A   1      46.298  33.890  28.426  1.00  0.00     0.134 A 
ATOM     85  F   UNL A   1      47.101  31.762  31.257  1.00  0.00    -0.206 F 
ATOM     86  C   UNL A   1      46.987  34.102  31.107  1.00  0.00     0.040 A 
ATOM     87  C   UNL A   1      46.423  35.150  29.014  1.00  0.00     0.040 A 
ATOM     88  F   UNL A   1      45.963  33.833  27.129  1.00  0.00    -0.206 F 
ATOM     89  C   UNL A   1      46.765  35.258  30.361  1.00  0.00     0.006 A 
ENDBRANCH  65  82
ENDBRANCH  39  40
ENDBRANCH  32  34
ENDBRANCH  31  32
ENDBRANCH  30  31
ENDBRANCH  29  30
ENDBRANCH  28  29
ENDBRANCH  27  28
ENDBRANCH   1  27
TORSDOF 20
ENDMDL
