MODEL 1
REMARK VINA RESULT:     -10.9      0.000      0.000
REMARK SMILES O=C(OCCOCCOCCOC(=O)[C@H]1CCCN(C(=O)c2cccc3[nH]ccc23)C1)c1ccc(-c2c3nc(c(-c4c(F)cccc4F)c4ccc([nH]4)c(-c4c(F)cccc4F)c4nc(c(-c5c(F)cccc5F)c5ccc2[nH]5)C=C4)C=C3)cc1
REMARK SMILES IDX 7 1 6 2 5 3 4 4 3 5 2 6 1 7 32 8 33 9 85 10 34 11 84 12
REMARK SMILES IDX 35 13 36 14 37 15 78 16 38 17 83 18 77 19 79 20 39 21 82 22
REMARK SMILES IDX 76 23 75 24 40 26 66 27 49 28 65 29 50 30 53 31 64 32 80 33
REMARK SMILES IDX 51 34 52 35 63 37 81 38 54 39 41 40 42 41 47 42 43 43 44 44
REMARK SMILES IDX 46 45 48 46 45 47 67 48 68 49 73 50 69 51 70 52 72 53 74 54
REMARK SMILES IDX 71 55 55 56 56 57 61 58 57 59 58 60 60 61 62 62 59 63 8 64
REMARK SMILES IDX 9 65 10 66 11 67 12 68 13 69 14 70 15 71 16 72 31 73 17 74
REMARK SMILES IDX 19 75 18 76 20 77 21 78 22 79 23 80 30 81 24 82 26 83 29 84
REMARK SMILES IDX 25 85 27 86 28 87
REMARK H PARENT 79 25 53 36 27 88
REMARK Flexibility Score: inf
ROOT
ATOM      1  C   UNL A   1      39.671  21.142  26.241  1.00  0.00     0.188 C 
ENDROOT
BRANCH   1   2
ATOM      2  O   UNL A   1      40.851  21.632  25.596  1.00  0.00    -0.376 OA
BRANCH   2   3
ATOM      3  C   UNL A   1      42.098  21.190  26.133  1.00  0.00     0.202 C 
BRANCH   3   4
ATOM      4  C   UNL A   1      43.376  21.644  25.408  1.00  0.00     0.261 C 
BRANCH   4   5
ATOM      5  O   UNL A   1      43.274  22.888  24.704  1.00  0.00    -0.460 OA
BRANCH   5   6
ATOM      6  C   UNL A   1      43.802  24.097  25.012  1.00  0.00     0.338 C 
ATOM      7  O   UNL A   1      44.937  24.344  24.603  1.00  0.00    -0.246 OA
BRANCH   6   8
ATOM      8  C   UNL A   1      43.144  25.125  25.891  1.00  0.00     0.060 A 
ATOM      9  C   UNL A   1      43.428  26.492  25.927  1.00  0.00     0.016 A 
ATOM     10  C   UNL A   1      42.143  24.652  26.764  1.00  0.00     0.016 A 
ATOM     11  C   UNL A   1      42.781  27.356  26.807  1.00  0.00     0.010 A 
ATOM     12  C   UNL A   1      41.499  25.506  27.665  1.00  0.00     0.010 A 
ATOM     13  C   UNL A   1      41.848  26.859  27.711  1.00  0.00    -0.014 A 
BRANCH  13  14
ATOM     14  C   UNL A   1      41.450  27.703  28.854  1.00  0.00     0.031 A 
ATOM     15  C   UNL A   1      42.289  27.647  30.080  1.00  0.00     0.074 A 
ATOM     16  C   UNL A   1      40.459  28.603  28.770  1.00  0.00     0.049 A 
ATOM     17  N   UNL A   1      42.132  28.282  31.206  1.00  0.00    -0.248 NA
ATOM     18  C   UNL A   1      43.497  26.810  30.003  1.00  0.00     0.031 C 
ATOM     19  C   UNL A   1      39.761  28.919  27.541  1.00  0.00     0.029 A 
ATOM     20  N   UNL A   1      39.879  29.421  29.702  1.00  0.00    -0.354 N 
ATOM     21  C   UNL A   1      43.232  27.939  31.971  1.00  0.00     0.074 A 
ATOM     22  C   UNL A   1      44.033  27.020  31.194  1.00  0.00     0.031 C 
ATOM     23  C   UNL A   1      38.800  29.820  27.800  1.00  0.00     0.029 A 
ATOM     24  C   UNL A   1      38.799  30.115  29.215  1.00  0.00     0.049 A 
ATOM     25  H   UNL A   1      40.204  29.505  30.628  1.00  0.00     0.167 HD
ATOM     26  C   UNL A   1      43.534  28.367  33.215  1.00  0.00     0.037 A 
ATOM     27  C   UNL A   1      37.883  30.884  29.829  1.00  0.00     0.037 A 
ATOM     28  C   UNL A   1      42.683  29.235  33.979  1.00  0.00     0.049 A 
ATOM     29  C   UNL A   1      38.084  31.137  31.284  1.00  0.00     0.074 A 
ATOM     30  C   UNL A   1      42.833  29.664  35.282  1.00  0.00     0.029 A 
ATOM     31  N   UNL A   1      41.495  29.787  33.507  1.00  0.00    -0.354 N 
ATOM     32  N   UNL A   1      39.081  30.745  32.038  1.00  0.00    -0.248 NA
ATOM     33  C   UNL A   1      37.072  31.940  31.973  1.00  0.00     0.031 C 
ATOM     34  C   UNL A   1      41.704  30.419  35.621  1.00  0.00     0.029 A 
ATOM     35  C   UNL A   1      40.881  30.519  34.508  1.00  0.00     0.049 A 
ATOM     36  H   UNL A   1      41.143  29.673  32.595  1.00  0.00     0.167 HD
ATOM     37  C   UNL A   1      38.854  31.303  33.280  1.00  0.00     0.074 A 
ATOM     38  C   UNL A   1      37.605  32.037  33.183  1.00  0.00     0.031 C 
ATOM     39  C   UNL A   1      39.634  31.237  34.385  1.00  0.00     0.037 A 
BRANCH  26  40
ATOM     40  C   UNL A   1      44.773  27.780  33.817  1.00  0.00     0.057 A 
ATOM     41  C   UNL A   1      46.035  28.367  33.654  1.00  0.00     0.134 A 
ATOM     42  C   UNL A   1      44.712  26.536  34.456  1.00  0.00     0.134 A 
ATOM     43  F   UNL A   1      46.165  29.536  33.007  1.00  0.00    -0.206 F 
ATOM     44  C   UNL A   1      47.199  27.713  34.063  1.00  0.00     0.040 A 
ATOM     45  C   UNL A   1      45.865  25.886  34.893  1.00  0.00     0.040 A 
ATOM     46  F   UNL A   1      43.536  25.914  34.624  1.00  0.00    -0.206 F 
ATOM     47  C   UNL A   1      47.114  26.468  34.683  1.00  0.00     0.006 A 
ENDBRANCH  26  40
BRANCH  27  48
ATOM     48  C   UNL A   1      36.724  31.433  29.082  1.00  0.00     0.057 A 
ATOM     49  C   UNL A   1      36.677  32.767  28.663  1.00  0.00     0.134 A 
ATOM     50  C   UNL A   1      35.632  30.619  28.747  1.00  0.00     0.134 A 
ATOM     51  F   UNL A   1      37.684  33.601  28.960  1.00  0.00    -0.206 F 
ATOM     52  C   UNL A   1      35.589  33.275  27.946  1.00  0.00     0.040 A 
ATOM     53  C   UNL A   1      34.547  31.113  28.021  1.00  0.00     0.040 A 
ATOM     54  F   UNL A   1      35.613  29.329  29.107  1.00  0.00    -0.206 F 
ATOM     55  C   UNL A   1      34.520  32.444  27.618  1.00  0.00     0.006 A 
ENDBRANCH  27  48
BRANCH  39  56
ATOM     56  C   UNL A   1      39.182  32.040  35.560  1.00  0.00     0.057 A 
ATOM     57  C   UNL A   1      38.403  31.490  36.583  1.00  0.00     0.134 A 
ATOM     58  C   UNL A   1      39.574  33.379  35.679  1.00  0.00     0.134 A 
ATOM     59  F   UNL A   1      37.975  30.221  36.506  1.00  0.00    -0.206 F 
ATOM     60  C   UNL A   1      38.019  32.252  37.686  1.00  0.00     0.040 A 
ATOM     61  C   UNL A   1      39.221  34.140  36.789  1.00  0.00     0.040 A 
ATOM     62  F   UNL A   1      40.317  33.959  34.724  1.00  0.00    -0.206 F 
ATOM     63  C   UNL A   1      38.440  33.577  37.796  1.00  0.00     0.006 A 
ENDBRANCH  39  56
ENDBRANCH  13  14
ENDBRANCH   6   8
ENDBRANCH   5   6
ENDBRANCH   4   5
ENDBRANCH   3   4
ENDBRANCH   2   3
ENDBRANCH   1   2
BRANCH   1  64
ATOM     64  C   UNL A   1      38.373  21.927  26.020  1.00  0.00     0.188 C 
BRANCH  64  65
ATOM     65  O   UNL A   1      37.662  21.492  24.872  1.00  0.00    -0.376 OA
BRANCH  65  66
ATOM     66  C   UNL A   1      36.990  20.242  25.007  1.00  0.00     0.202 C 
BRANCH  66  67
ATOM     67  C   UNL A   1      35.457  20.251  24.933  1.00  0.00     0.261 C 
BRANCH  67  68
ATOM     68  O   UNL A   1      34.853  21.544  25.089  1.00  0.00    -0.463 OA
BRANCH  68  69
ATOM     69  C   UNL A   1      34.226  21.879  26.250  1.00  0.00     0.310 C 
ATOM     70  O   UNL A   1      34.030  21.109  27.180  1.00  0.00    -0.252 OA
BRANCH  69  71
ATOM     71  C   UNL A   1      33.850  23.359  26.208  1.00  0.00     0.119 C 
ATOM     72  C   UNL A   1      35.078  24.130  25.713  1.00  0.00     0.019 C 
ATOM     73  C   UNL A   1      32.621  23.608  25.318  1.00  0.00     0.135 C 
ATOM     74  C   UNL A   1      34.785  25.515  25.189  1.00  0.00     0.022 C 
ATOM     75  N   UNL A   1      32.439  25.035  24.999  1.00  0.00    -0.338 N 
ATOM     76  C   UNL A   1      33.564  25.631  24.309  1.00  0.00     0.120 C 
BRANCH  75  77
ATOM     77  C   UNL A   1      31.361  25.753  25.529  1.00  0.00     0.254 C 
ATOM     78  O   UNL A   1      30.863  25.475  26.618  1.00  0.00    -0.269 OA
BRANCH  77  79
ATOM     79  C   UNL A   1      30.769  26.882  24.754  1.00  0.00     0.049 A 
ATOM     80  C   UNL A   1      29.754  26.646  23.807  1.00  0.00     0.014 A 
ATOM     81  C   UNL A   1      31.143  28.222  25.031  1.00  0.00     0.012 A 
ATOM     82  C   UNL A   1      29.167  27.700  23.105  1.00  0.00     0.003 A 
ATOM     83  C   UNL A   1      30.543  29.250  24.294  1.00  0.00     0.046 A 
ATOM     84  C   UNL A   1      32.036  28.853  25.946  1.00  0.00     0.029 A 
ATOM     85  C   UNL A   1      29.571  29.020  23.315  1.00  0.00     0.027 A 
ATOM     86  N   UNL A   1      31.074  30.442  24.737  1.00  0.00    -0.361 N 
ATOM     87  C   UNL A   1      31.960  30.214  25.754  1.00  0.00     0.083 A 
ATOM     88  H   UNL A   1      30.849  31.329  24.374  1.00  0.00     0.166 HD
ENDBRANCH  77  79
ENDBRANCH  75  77
ENDBRANCH  69  71
ENDBRANCH  68  69
ENDBRANCH  67  68
ENDBRANCH  66  67
ENDBRANCH  65  66
ENDBRANCH  64  65
ENDBRANCH   1  64
TORSDOF 19
ENDMDL
MODEL 2
REMARK VINA RESULT:     -10.8      3.825      5.770
REMARK SMILES O=C(OCCOCCOCCOC(=O)[C@H]1CCCN(C(=O)c2cccc3[nH]ccc23)C1)c1ccc(-c2c3nc(c(-c4c(F)cccc4F)c4ccc([nH]4)c(-c4c(F)cccc4F)c4nc(c(-c5c(F)cccc5F)c5ccc2[nH]5)C=C4)C=C3)cc1
REMARK SMILES IDX 7 1 6 2 5 3 4 4 3 5 2 6 1 7 32 8 33 9 85 10 34 11 84 12
REMARK SMILES IDX 35 13 36 14 37 15 78 16 38 17 83 18 77 19 79 20 39 21 82 22
REMARK SMILES IDX 76 23 75 24 40 26 66 27 49 28 65 29 50 30 53 31 64 32 80 33
REMARK SMILES IDX 51 34 52 35 63 37 81 38 54 39 41 40 42 41 47 42 43 43 44 44
REMARK SMILES IDX 46 45 48 46 45 47 67 48 68 49 73 50 69 51 70 52 72 53 74 54
REMARK SMILES IDX 71 55 55 56 56 57 61 58 57 59 58 60 60 61 62 62 59 63 8 64
REMARK SMILES IDX 9 65 10 66 11 67 12 68 13 69 14 70 15 71 16 72 31 73 17 74
REMARK SMILES IDX 19 75 18 76 20 77 21 78 22 79 23 80 30 81 24 82 26 83 29 84
REMARK SMILES IDX 25 85 27 86 28 87
REMARK H PARENT 79 25 53 36 27 88
REMARK Flexibility Score: inf
ROOT
ATOM      1  C   UNL A   1      36.497  22.625  25.321  1.00  0.00     0.188 C 
ENDROOT
BRANCH   1   2
ATOM      2  O   UNL A   1      37.834  22.294  24.933  1.00  0.00    -0.376 OA
BRANCH   2   3
ATOM      3  C   UNL A   1      38.515  21.341  25.750  1.00  0.00     0.202 C 
BRANCH   3   4
ATOM      4  C   UNL A   1      38.944  20.024  25.085  1.00  0.00     0.261 C 
BRANCH   4   5
ATOM      5  O   UNL A   1      39.857  19.220  25.844  1.00  0.00    -0.460 OA
BRANCH   5   6
ATOM      6  C   UNL A   1      41.192  19.368  26.021  1.00  0.00     0.338 C 
ATOM      7  O   UNL A   1      41.905  18.383  25.828  1.00  0.00    -0.246 OA
BRANCH   6   8
ATOM      8  C   UNL A   1      41.859  20.619  26.525  1.00  0.00     0.060 A 
ATOM      9  C   UNL A   1      41.904  21.061  27.849  1.00  0.00     0.016 A 
ATOM     10  C   UNL A   1      42.499  21.419  25.556  1.00  0.00     0.016 A 
ATOM     11  C   UNL A   1      42.522  22.257  28.206  1.00  0.00     0.010 A 
ATOM     12  C   UNL A   1      43.107  22.632  25.900  1.00  0.00     0.010 A 
ATOM     13  C   UNL A   1      43.084  23.069  27.227  1.00  0.00    -0.014 A 
BRANCH  13  14
ATOM     14  C   UNL A   1      43.403  24.469  27.566  1.00  0.00     0.031 A 
ATOM     15  C   UNL A   1      44.834  24.875  27.548  1.00  0.00     0.074 A 
ATOM     16  C   UNL A   1      42.454  25.398  27.749  1.00  0.00     0.049 A 
ATOM     17  N   UNL A   1      45.355  26.037  27.820  1.00  0.00    -0.248 NA
ATOM     18  C   UNL A   1      45.794  23.853  27.103  1.00  0.00     0.031 C 
ATOM     19  C   UNL A   1      41.043  25.160  27.526  1.00  0.00     0.029 A 
ATOM     20  N   UNL A   1      42.512  26.709  28.139  1.00  0.00    -0.354 N 
ATOM     21  C   UNL A   1      46.707  25.895  27.565  1.00  0.00     0.074 A 
ATOM     22  C   UNL A   1      46.930  24.531  27.141  1.00  0.00     0.031 C 
ATOM     23  C   UNL A   1      40.354  26.268  27.841  1.00  0.00     0.029 A 
ATOM     24  C   UNL A   1      41.274  27.277  28.316  1.00  0.00     0.049 A 
ATOM     25  H   UNL A   1      43.357  27.197  28.277  1.00  0.00     0.167 HD
ATOM     26  C   UNL A   1      47.668  26.837  27.675  1.00  0.00     0.037 A 
ATOM     27  C   UNL A   1      40.903  28.462  28.829  1.00  0.00     0.037 A 
ATOM     28  C   UNL A   1      47.418  28.167  28.156  1.00  0.00     0.049 A 
ATOM     29  C   UNL A   1      41.995  29.405  29.201  1.00  0.00     0.074 A 
ATOM     30  C   UNL A   1      48.321  29.181  28.402  1.00  0.00     0.029 A 
ATOM     31  N   UNL A   1      46.159  28.658  28.493  1.00  0.00    -0.354 N 
ATOM     32  N   UNL A   1      43.286  29.246  29.040  1.00  0.00    -0.248 NA
ATOM     33  C   UNL A   1      41.605  30.685  29.798  1.00  0.00     0.031 C 
ATOM     34  C   UNL A   1      47.620  30.261  28.951  1.00  0.00     0.029 A 
ATOM     35  C   UNL A   1      46.269  29.947  28.984  1.00  0.00     0.049 A 
ATOM     36  H   UNL A   1      45.315  28.160  28.398  1.00  0.00     0.167 HD
ATOM     37  C   UNL A   1      43.865  30.428  29.456  1.00  0.00     0.074 A 
ATOM     38  C   UNL A   1      42.783  31.284  29.907  1.00  0.00     0.031 C 
ATOM     39  C   UNL A   1      45.173  30.776  29.431  1.00  0.00     0.037 A 
BRANCH  26  40
ATOM     40  C   UNL A   1      49.061  26.376  27.379  1.00  0.00     0.057 A 
ATOM     41  C   UNL A   1      49.916  25.887  28.376  1.00  0.00     0.134 A 
ATOM     42  C   UNL A   1      49.592  26.552  26.096  1.00  0.00     0.134 A 
ATOM     43  F   UNL A   1      49.480  25.742  29.637  1.00  0.00    -0.206 F 
ATOM     44  C   UNL A   1      51.265  25.634  28.117  1.00  0.00     0.040 A 
ATOM     45  C   UNL A   1      50.931  26.277  25.819  1.00  0.00     0.040 A 
ATOM     46  F   UNL A   1      48.830  27.035  25.104  1.00  0.00    -0.206 F 
ATOM     47  C   UNL A   1      51.775  25.832  26.836  1.00  0.00     0.006 A 
ENDBRANCH  26  40
BRANCH  27  48
ATOM     48  C   UNL A   1      39.469  28.793  29.025  1.00  0.00     0.057 A 
ATOM     49  C   UNL A   1      38.824  28.589  30.249  1.00  0.00     0.134 A 
ATOM     50  C   UNL A   1      38.709  29.348  27.986  1.00  0.00     0.134 A 
ATOM     51  F   UNL A   1      39.491  28.052  31.280  1.00  0.00    -0.206 F 
ATOM     52  C   UNL A   1      37.477  28.917  30.433  1.00  0.00     0.040 A 
ATOM     53  C   UNL A   1      37.367  29.690  28.163  1.00  0.00     0.040 A 
ATOM     54  F   UNL A   1      39.265  29.580  26.789  1.00  0.00    -0.206 F 
ATOM     55  C   UNL A   1      36.745  29.475  29.388  1.00  0.00     0.006 A 
ENDBRANCH  27  48
BRANCH  39  56
ATOM     56  C   UNL A   1      45.492  32.174  29.846  1.00  0.00     0.057 A 
ATOM     57  C   UNL A   1      45.451  33.245  28.948  1.00  0.00     0.134 A 
ATOM     58  C   UNL A   1      45.807  32.448  31.182  1.00  0.00     0.134 A 
ATOM     59  F   UNL A   1      45.183  33.036  27.650  1.00  0.00    -0.206 F 
ATOM     60  C   UNL A   1      45.723  34.547  29.365  1.00  0.00     0.040 A 
ATOM     61  C   UNL A   1      46.052  33.748  31.616  1.00  0.00     0.040 A 
ATOM     62  F   UNL A   1      45.867  31.457  32.085  1.00  0.00    -0.206 F 
ATOM     63  C   UNL A   1      46.012  34.802  30.706  1.00  0.00     0.006 A 
ENDBRANCH  39  56
ENDBRANCH  13  14
ENDBRANCH   6   8
ENDBRANCH   5   6
ENDBRANCH   4   5
ENDBRANCH   3   4
ENDBRANCH   2   3
ENDBRANCH   1   2
BRANCH   1  64
ATOM     64  C   UNL A   1      35.573  21.466  25.713  1.00  0.00     0.188 C 
BRANCH  64  65
ATOM     65  O   UNL A   1      35.315  20.586  24.631  1.00  0.00    -0.376 OA
BRANCH  65  66
ATOM     66  C   UNL A   1      34.331  19.586  24.879  1.00  0.00     0.202 C 
BRANCH  66  67
ATOM     67  C   UNL A   1      33.054  20.015  25.615  1.00  0.00     0.261 C 
BRANCH  67  68
ATOM     68  O   UNL A   1      31.964  20.394  24.761  1.00  0.00    -0.463 OA
BRANCH  68  69
ATOM     69  C   UNL A   1      32.184  21.156  23.655  1.00  0.00     0.310 C 
ATOM     70  O   UNL A   1      32.144  20.740  22.506  1.00  0.00    -0.252 OA
BRANCH  69  71
ATOM     71  C   UNL A   1      32.449  22.598  24.085  1.00  0.00     0.119 C 
ATOM     72  C   UNL A   1      33.494  23.178  23.127  1.00  0.00     0.019 C 
ATOM     73  C   UNL A   1      31.158  23.433  24.098  1.00  0.00     0.135 C 
ATOM     74  C   UNL A   1      33.562  24.686  23.104  1.00  0.00     0.022 C 
ATOM     75  N   UNL A   1      31.426  24.879  24.185  1.00  0.00    -0.338 N 
ATOM     76  C   UNL A   1      32.230  25.395  23.096  1.00  0.00     0.120 C 
BRANCH  75  77
ATOM     77  C   UNL A   1      31.102  25.597  25.343  1.00  0.00     0.254 C 
ATOM     78  O   UNL A   1      30.341  25.149  26.198  1.00  0.00    -0.269 OA
BRANCH  77  79
ATOM     79  C   UNL A   1      31.671  26.959  25.555  1.00  0.00     0.049 A 
ATOM     80  C   UNL A   1      32.829  27.138  26.337  1.00  0.00     0.014 A 
ATOM     81  C   UNL A   1      31.121  28.083  24.889  1.00  0.00     0.012 A 
ATOM     82  C   UNL A   1      33.391  28.404  26.510  1.00  0.00     0.003 A 
ATOM     83  C   UNL A   1      31.704  29.339  25.099  1.00  0.00     0.046 A 
ATOM     84  C   UNL A   1      30.045  28.289  23.975  1.00  0.00     0.029 A 
ATOM     85  C   UNL A   1      32.823  29.533  25.917  1.00  0.00     0.027 A 
ATOM     86  N   UNL A   1      30.991  30.257  24.359  1.00  0.00    -0.361 N 
ATOM     87  C   UNL A   1      30.001  29.628  23.656  1.00  0.00     0.083 A 
ATOM     88  H   UNL A   1      31.168  31.225  24.340  1.00  0.00     0.166 HD
ENDBRANCH  77  79
ENDBRANCH  75  77
ENDBRANCH  69  71
ENDBRANCH  68  69
ENDBRANCH  67  68
ENDBRANCH  66  67
ENDBRANCH  65  66
ENDBRANCH  64  65
ENDBRANCH   1  64
TORSDOF 19
ENDMDL
MODEL 3
REMARK VINA RESULT:     -10.8      2.849      8.476
REMARK SMILES O=C(OCCOCCOCCOC(=O)[C@H]1CCCN(C(=O)c2cccc3[nH]ccc23)C1)c1ccc(-c2c3nc(c(-c4c(F)cccc4F)c4ccc([nH]4)c(-c4c(F)cccc4F)c4nc(c(-c5c(F)cccc5F)c5ccc2[nH]5)C=C4)C=C3)cc1
REMARK SMILES IDX 7 1 6 2 5 3 4 4 3 5 2 6 1 7 32 8 33 9 85 10 34 11 84 12
REMARK SMILES IDX 35 13 36 14 37 15 78 16 38 17 83 18 77 19 79 20 39 21 82 22
REMARK SMILES IDX 76 23 75 24 40 26 66 27 49 28 65 29 50 30 53 31 64 32 80 33
REMARK SMILES IDX 51 34 52 35 63 37 81 38 54 39 41 40 42 41 47 42 43 43 44 44
REMARK SMILES IDX 46 45 48 46 45 47 67 48 68 49 73 50 69 51 70 52 72 53 74 54
REMARK SMILES IDX 71 55 55 56 56 57 61 58 57 59 58 60 60 61 62 62 59 63 8 64
REMARK SMILES IDX 9 65 10 66 11 67 12 68 13 69 14 70 15 71 16 72 31 73 17 74
REMARK SMILES IDX 19 75 18 76 20 77 21 78 22 79 23 80 30 81 24 82 26 83 29 84
REMARK SMILES IDX 25 85 27 86 28 87
REMARK H PARENT 79 25 53 36 27 88
REMARK Flexibility Score: inf
ROOT
ATOM      1  C   UNL A   1      33.660  29.823  26.506  1.00  0.00     0.188 C 
ENDROOT
BRANCH   1   2
ATOM      2  O   UNL A   1      33.034  30.821  27.319  1.00  0.00    -0.376 OA
BRANCH   2   3
ATOM      3  C   UNL A   1      31.779  31.321  26.857  1.00  0.00     0.202 C 
BRANCH   3   4
ATOM      4  C   UNL A   1      31.581  32.845  26.872  1.00  0.00     0.261 C 
BRANCH   4   5
ATOM      5  O   UNL A   1      32.764  33.617  27.118  1.00  0.00    -0.460 OA
BRANCH   5   6
ATOM      6  C   UNL A   1      33.207  34.171  28.272  1.00  0.00     0.338 C 
ATOM      7  O   UNL A   1      32.616  35.167  28.689  1.00  0.00    -0.246 OA
BRANCH   6   8
ATOM      8  C   UNL A   1      34.421  33.716  29.034  1.00  0.00     0.060 A 
ATOM      9  C   UNL A   1      35.749  34.048  28.756  1.00  0.00     0.016 A 
ATOM     10  C   UNL A   1      34.186  32.868  30.136  1.00  0.00     0.016 A 
ATOM     11  C   UNL A   1      36.808  33.543  29.507  1.00  0.00     0.010 A 
ATOM     12  C   UNL A   1      35.243  32.340  30.886  1.00  0.00     0.010 A 
ATOM     13  C   UNL A   1      36.562  32.650  30.545  1.00  0.00    -0.014 A 
BRANCH  13  14
ATOM     14  C   UNL A   1      37.687  31.861  31.081  1.00  0.00     0.031 A 
ATOM     15  C   UNL A   1      38.156  32.175  32.457  1.00  0.00     0.074 A 
ATOM     16  C   UNL A   1      38.195  30.803  30.434  1.00  0.00     0.049 A 
ATOM     17  N   UNL A   1      39.128  31.630  33.131  1.00  0.00    -0.248 NA
ATOM     18  C   UNL A   1      37.387  33.193  33.190  1.00  0.00     0.031 C 
ATOM     19  C   UNL A   1      37.631  30.259  29.216  1.00  0.00     0.029 A 
ATOM     20  N   UNL A   1      39.264  29.989  30.697  1.00  0.00    -0.354 N 
ATOM     21  C   UNL A   1      39.081  32.226  34.378  1.00  0.00     0.074 A 
ATOM     22  C   UNL A   1      38.004  33.191  34.360  1.00  0.00     0.031 C 
ATOM     23  C   UNL A   1      38.392  29.237  28.795  1.00  0.00     0.029 A 
ATOM     24  C   UNL A   1      39.510  29.079  29.699  1.00  0.00     0.049 A 
ATOM     25  H   UNL A   1      39.802  30.049  31.520  1.00  0.00     0.167 HD
ATOM     26  C   UNL A   1      39.876  31.974  35.441  1.00  0.00     0.037 A 
ATOM     27  C   UNL A   1      40.531  28.227  29.502  1.00  0.00     0.037 A 
ATOM     28  C   UNL A   1      40.974  31.050  35.403  1.00  0.00     0.049 A 
ATOM     29  C   UNL A   1      41.559  28.150  30.578  1.00  0.00     0.074 A 
ATOM     30  C   UNL A   1      41.908  30.777  36.382  1.00  0.00     0.029 A 
ATOM     31  N   UNL A   1      41.302  30.262  34.302  1.00  0.00    -0.354 N 
ATOM     32  N   UNL A   1      41.567  28.775  31.729  1.00  0.00    -0.248 NA
ATOM     33  C   UNL A   1      42.697  27.255  30.357  1.00  0.00     0.031 C 
ATOM     34  C   UNL A   1      42.839  29.877  35.852  1.00  0.00     0.029 A 
ATOM     35  C   UNL A   1      42.449  29.534  34.565  1.00  0.00     0.049 A 
ATOM     36  H   UNL A   1      40.793  30.229  33.460  1.00  0.00     0.167 HD
ATOM     37  C   UNL A   1      42.676  28.305  32.404  1.00  0.00     0.074 A 
ATOM     38  C   UNL A   1      43.334  27.364  31.515  1.00  0.00     0.031 C 
ATOM     39  C   UNL A   1      43.086  28.606  33.659  1.00  0.00     0.037 A 
BRANCH  26  40
ATOM     40  C   UNL A   1      39.621  32.817  36.651  1.00  0.00     0.057 A 
ATOM     41  C   UNL A   1      38.593  32.531  37.560  1.00  0.00     0.134 A 
ATOM     42  C   UNL A   1      40.336  34.007  36.831  1.00  0.00     0.134 A 
ATOM     43  F   UNL A   1      37.840  31.429  37.413  1.00  0.00    -0.206 F 
ATOM     44  C   UNL A   1      38.254  33.424  38.578  1.00  0.00     0.040 A 
ATOM     45  C   UNL A   1      40.023  34.894  37.861  1.00  0.00     0.040 A 
ATOM     46  F   UNL A   1      41.318  34.347  35.983  1.00  0.00    -0.206 F 
ATOM     47  C   UNL A   1      38.969  34.610  38.728  1.00  0.00     0.006 A 
ENDBRANCH  26  40
BRANCH  27  48
ATOM     48  C   UNL A   1      40.623  27.422  28.258  1.00  0.00     0.057 A 
ATOM     49  C   UNL A   1      39.985  26.184  28.129  1.00  0.00     0.134 A 
ATOM     50  C   UNL A   1      41.342  27.889  27.149  1.00  0.00     0.134 A 
ATOM     51  F   UNL A   1      39.290  25.675  29.156  1.00  0.00    -0.206 F 
ATOM     52  C   UNL A   1      40.062  25.436  26.950  1.00  0.00     0.040 A 
ATOM     53  C   UNL A   1      41.416  27.156  25.963  1.00  0.00     0.040 A 
ATOM     54  F   UNL A   1      41.971  29.072  27.198  1.00  0.00    -0.206 F 
ATOM     55  C   UNL A   1      40.776  25.926  25.859  1.00  0.00     0.006 A 
ENDBRANCH  27  48
BRANCH  39  56
ATOM     56  C   UNL A   1      44.271  27.852  34.165  1.00  0.00     0.057 A 
ATOM     57  C   UNL A   1      45.570  28.362  34.080  1.00  0.00     0.134 A 
ATOM     58  C   UNL A   1      44.091  26.609  34.783  1.00  0.00     0.134 A 
ATOM     59  F   UNL A   1      45.803  29.535  33.473  1.00  0.00    -0.206 F 
ATOM     60  C   UNL A   1      46.657  27.653  34.589  1.00  0.00     0.040 A 
ATOM     61  C   UNL A   1      45.165  25.905  35.320  1.00  0.00     0.040 A 
ATOM     62  F   UNL A   1      42.867  26.069  34.886  1.00  0.00    -0.206 F 
ATOM     63  C   UNL A   1      46.454  26.427  35.221  1.00  0.00     0.006 A 
ENDBRANCH  39  56
ENDBRANCH  13  14
ENDBRANCH   6   8
ENDBRANCH   5   6
ENDBRANCH   4   5
ENDBRANCH   3   4
ENDBRANCH   2   3
ENDBRANCH   1   2
BRANCH   1  64
ATOM     64  C   UNL A   1      32.831  28.580  26.158  1.00  0.00     0.188 C 
BRANCH  64  65
ATOM     65  O   UNL A   1      32.278  28.643  24.854  1.00  0.00    -0.376 OA
BRANCH  65  66
ATOM     66  C   UNL A   1      33.155  29.125  23.840  1.00  0.00     0.202 C 
BRANCH  66  67
ATOM     67  C   UNL A   1      34.015  28.092  23.098  1.00  0.00     0.261 C 
BRANCH  67  68
ATOM     68  O   UNL A   1      33.487  27.664  21.834  1.00  0.00    -0.463 OA
BRANCH  68  69
ATOM     69  C   UNL A   1      33.181  26.355  21.619  1.00  0.00     0.310 C 
ATOM     70  O   UNL A   1      33.210  25.806  20.527  1.00  0.00    -0.252 OA
BRANCH  69  71
ATOM     71  C   UNL A   1      32.836  25.695  22.953  1.00  0.00     0.119 C 
ATOM     72  C   UNL A   1      31.318  25.485  22.982  1.00  0.00     0.019 C 
ATOM     73  C   UNL A   1      33.600  24.376  23.148  1.00  0.00     0.135 C 
ATOM     74  C   UNL A   1      30.841  24.470  23.993  1.00  0.00     0.022 C 
ATOM     75  N   UNL A   1      33.052  23.568  24.251  1.00  0.00    -0.338 N 
ATOM     76  C   UNL A   1      31.660  23.206  24.079  1.00  0.00     0.120 C 
BRANCH  75  77
ATOM     77  C   UNL A   1      33.780  23.382  25.432  1.00  0.00     0.254 C 
ATOM     78  O   UNL A   1      33.358  23.754  26.525  1.00  0.00    -0.269 OA
BRANCH  77  79
ATOM     79  C   UNL A   1      35.123  22.735  25.382  1.00  0.00     0.049 A 
ATOM     80  C   UNL A   1      36.288  23.479  25.651  1.00  0.00     0.014 A 
ATOM     81  C   UNL A   1      35.244  21.339  25.165  1.00  0.00     0.012 A 
ATOM     82  C   UNL A   1      37.546  22.874  25.644  1.00  0.00     0.003 A 
ATOM     83  C   UNL A   1      36.524  20.771  25.150  1.00  0.00     0.046 A 
ATOM     84  C   UNL A   1      34.327  20.267  24.951  1.00  0.00     0.029 A 
ATOM     85  C   UNL A   1      37.690  21.514  25.365  1.00  0.00     0.027 A 
ATOM     86  N   UNL A   1      36.376  19.422  24.914  1.00  0.00    -0.361 N 
ATOM     87  C   UNL A   1      35.050  19.103  24.818  1.00  0.00     0.083 A 
ATOM     88  H   UNL A   1      37.118  18.780  24.827  1.00  0.00     0.166 HD
ENDBRANCH  77  79
ENDBRANCH  75  77
ENDBRANCH  69  71
ENDBRANCH  68  69
ENDBRANCH  67  68
ENDBRANCH  66  67
ENDBRANCH  65  66
ENDBRANCH  64  65
ENDBRANCH   1  64
TORSDOF 19
ENDMDL
