MODEL 1
REMARK VINA RESULT:      -9.5      0.000      0.000
REMARK SMILES C[C@@H](Oc1ccc(N)cc1)C(=O)OCCOCCOCCOC(=O)c1ccc(-c2c3nc(c(-c4c(F)cccc4F)c4ccc([nH]4)c(-c4c(F)cccc4F)c4nc(c(-c5c(F)cccc5F)c5ccc2[nH]5)C=C4)C=C3)cc1
REMARK SMILES IDX 17 1 16 2 15 3 14 4 13 5 11 6 12 7 2 8 1 9 3 10 4 11 5 12
REMARK SMILES IDX 10 13 6 14 9 15 7 16 8 17 18 20 19 21 20 22 21 23 22 24
REMARK SMILES IDX 23 25 24 26 25 27 26 28 78 29 27 30 77 31 28 32 29 33 30 34
REMARK SMILES IDX 71 35 31 36 76 37 70 38 72 39 32 40 75 41 69 42 68 43 33 45
REMARK SMILES IDX 59 46 42 47 58 48 43 49 46 50 57 51 73 52 44 53 45 54 56 56
REMARK SMILES IDX 74 57 47 58 34 59 35 60 40 61 36 62 37 63 39 64 41 65 38 66
REMARK SMILES IDX 60 67 61 68 66 69 62 70 63 71 65 72 67 73 64 74 48 75 49 76
REMARK SMILES IDX 54 77 50 78 51 79 53 80 55 81 52 82
REMARK H PARENT 8 18 8 19 72 44 46 55
REMARK Flexibility Score: inf
ROOT
ATOM      1  C   UNL A   1      38.800  22.654  26.184  1.00  0.00     0.188 C 
ENDROOT
BRANCH   1   2
ATOM      2  O   UNL A   1      37.499  22.602  25.614  1.00  0.00    -0.376 OA
BRANCH   2   3
ATOM      3  C   UNL A   1      36.912  21.308  25.489  1.00  0.00     0.202 C 
BRANCH   3   4
ATOM      4  C   UNL A   1      35.488  21.253  24.916  1.00  0.00     0.261 C 
BRANCH   4   5
ATOM      5  O   UNL A   1      34.438  21.305  25.903  1.00  0.00    -0.461 OA
BRANCH   5   6
ATOM      6  C   UNL A   1      34.143  22.536  26.414  1.00  0.00     0.347 C 
ATOM      7  O   UNL A   1      34.666  23.014  27.417  1.00  0.00    -0.248 OA
BRANCH   6   8
ATOM      8  C   UNL A   1      33.098  23.299  25.592  1.00  0.00     0.279 C 
ATOM      9  C   UNL A   1      31.973  22.434  25.029  1.00  0.00     0.066 C 
BRANCH   8  10
ATOM     10  O   UNL A   1      32.565  24.305  26.465  1.00  0.00    -0.479 OA
BRANCH  10  11
ATOM     11  C   UNL A   1      32.571  25.546  25.893  1.00  0.00     0.120 A 
ATOM     12  C   UNL A   1      31.526  26.424  26.158  1.00  0.00     0.048 A 
ATOM     13  C   UNL A   1      33.669  25.962  25.148  1.00  0.00     0.048 A 
ATOM     14  C   UNL A   1      31.568  27.725  25.655  1.00  0.00     0.029 A 
ATOM     15  C   UNL A   1      33.713  27.274  24.663  1.00  0.00     0.029 A 
ATOM     16  C   UNL A   1      32.682  28.176  24.944  1.00  0.00     0.032 A 
BRANCH  16  17
ATOM     17  N   UNL A   1      32.706  29.463  24.431  1.00  0.00    -0.399 N 
ATOM     18  H   UNL A   1      33.406  30.094  24.715  1.00  0.00     0.156 HD
ATOM     19  H   UNL A   1      32.023  29.749  23.783  1.00  0.00     0.156 HD
ENDBRANCH  16  17
ENDBRANCH  10  11
ENDBRANCH   8  10
ENDBRANCH   6   8
ENDBRANCH   5   6
ENDBRANCH   4   5
ENDBRANCH   3   4
ENDBRANCH   2   3
ENDBRANCH   1   2
BRANCH   1  20
ATOM     20  C   UNL A   1      39.628  21.371  26.092  1.00  0.00     0.188 C 
BRANCH  20  21
ATOM     21  O   UNL A   1      40.325  21.004  27.273  1.00  0.00    -0.376 OA
BRANCH  21  22
ATOM     22  C   UNL A   1      41.590  20.357  27.102  1.00  0.00     0.202 C 
BRANCH  22  23
ATOM     23  C   UNL A   1      42.604  20.972  26.115  1.00  0.00     0.261 C 
BRANCH  23  24
ATOM     24  O   UNL A   1      43.359  22.105  26.595  1.00  0.00    -0.460 OA
BRANCH  24  25
ATOM     25  C   UNL A   1      43.390  23.230  25.843  1.00  0.00     0.338 C 
ATOM     26  O   UNL A   1      43.613  23.298  24.647  1.00  0.00    -0.246 OA
BRANCH  25  27
ATOM     27  C   UNL A   1      42.827  24.344  26.661  1.00  0.00     0.060 A 
ATOM     28  C   UNL A   1      43.411  25.617  26.553  1.00  0.00     0.016 A 
ATOM     29  C   UNL A   1      41.685  24.174  27.450  1.00  0.00     0.016 A 
ATOM     30  C   UNL A   1      42.886  26.704  27.263  1.00  0.00     0.010 A 
ATOM     31  C   UNL A   1      41.171  25.256  28.174  1.00  0.00     0.010 A 
ATOM     32  C   UNL A   1      41.791  26.518  28.114  1.00  0.00    -0.014 A 
BRANCH  32  33
ATOM     33  C   UNL A   1      41.442  27.539  29.136  1.00  0.00     0.031 A 
ATOM     34  C   UNL A   1      42.212  27.520  30.429  1.00  0.00     0.074 A 
ATOM     35  C   UNL A   1      40.464  28.446  28.961  1.00  0.00     0.049 A 
ATOM     36  N   UNL A   1      42.009  28.185  31.536  1.00  0.00    -0.248 NA
ATOM     37  C   UNL A   1      43.366  26.607  30.475  1.00  0.00     0.031 C 
ATOM     38  C   UNL A   1      39.678  28.625  27.744  1.00  0.00     0.029 A 
ATOM     39  N   UNL A   1      39.954  29.376  29.834  1.00  0.00    -0.354 N 
ATOM     40  C   UNL A   1      42.993  27.753  32.417  1.00  0.00     0.074 A 
ATOM     41  C   UNL A   1      43.776  26.754  31.723  1.00  0.00     0.031 C 
ATOM     42  C   UNL A   1      38.763  29.589  27.957  1.00  0.00     0.029 A 
ATOM     43  C   UNL A   1      38.870  30.061  29.339  1.00  0.00     0.049 A 
ATOM     44  H   UNL A   1      40.329  29.537  30.731  1.00  0.00     0.167 HD
ATOM     45  C   UNL A   1      43.224  28.148  33.691  1.00  0.00     0.037 A 
ATOM     46  C   UNL A   1      38.039  30.935  29.943  1.00  0.00     0.037 A 
ATOM     47  C   UNL A   1      42.445  29.137  34.384  1.00  0.00     0.049 A 
ATOM     48  C   UNL A   1      38.258  31.305  31.389  1.00  0.00     0.074 A 
ATOM     49  C   UNL A   1      42.610  29.615  35.673  1.00  0.00     0.029 A 
ATOM     50  N   UNL A   1      41.345  29.792  33.851  1.00  0.00    -0.354 N 
ATOM     51  N   UNL A   1      39.190  30.897  32.217  1.00  0.00    -0.248 NA
ATOM     52  C   UNL A   1      37.308  32.255  31.987  1.00  0.00     0.031 C 
ATOM     53  C   UNL A   1      41.573  30.514  35.940  1.00  0.00     0.029 A 
ATOM     54  C   UNL A   1      40.805  30.649  34.794  1.00  0.00     0.049 A 
ATOM     55  H   UNL A   1      41.001  29.666  32.937  1.00  0.00     0.167 HD
ATOM     56  C   UNL A   1      38.961  31.566  33.416  1.00  0.00     0.074 A 
ATOM     57  C   UNL A   1      37.800  32.405  33.210  1.00  0.00     0.031 C 
ATOM     58  C   UNL A   1      39.658  31.497  34.577  1.00  0.00     0.037 A 
BRANCH  45  59
ATOM     59  C   UNL A   1      44.340  27.463  34.427  1.00  0.00     0.057 A 
ATOM     60  C   UNL A   1      45.644  27.975  34.454  1.00  0.00     0.134 A 
ATOM     61  C   UNL A   1      44.103  26.264  35.110  1.00  0.00     0.134 A 
ATOM     62  F   UNL A   1      45.943  29.110  33.804  1.00  0.00    -0.206 F 
ATOM     63  C   UNL A   1      46.680  27.300  35.102  1.00  0.00     0.040 A 
ATOM     64  C   UNL A   1      45.123  25.597  35.790  1.00  0.00     0.040 A 
ATOM     65  F   UNL A   1      42.876  25.718  35.128  1.00  0.00    -0.206 F 
ATOM     66  C   UNL A   1      46.419  26.109  35.777  1.00  0.00     0.006 A 
ENDBRANCH  45  59
BRANCH  46  67
ATOM     67  C   UNL A   1      36.895  31.509  29.186  1.00  0.00     0.057 A 
ATOM     68  C   UNL A   1      35.733  30.765  28.948  1.00  0.00     0.134 A 
ATOM     69  C   UNL A   1      36.940  32.813  28.675  1.00  0.00     0.134 A 
ATOM     70  F   UNL A   1      35.642  29.500  29.381  1.00  0.00    -0.206 F 
ATOM     71  C   UNL A   1      34.661  31.294  28.226  1.00  0.00     0.040 A 
ATOM     72  C   UNL A   1      35.866  33.363  27.975  1.00  0.00     0.040 A 
ATOM     73  F   UNL A   1      38.028  33.575  28.862  1.00  0.00    -0.206 F 
ATOM     74  C   UNL A   1      34.722  32.601  27.745  1.00  0.00     0.006 A 
ENDBRANCH  46  67
BRANCH  58  75
ATOM     75  C   UNL A   1      39.237  32.392  35.708  1.00  0.00     0.057 A 
ATOM     76  C   UNL A   1      38.389  31.957  36.732  1.00  0.00     0.134 A 
ATOM     77  C   UNL A   1      39.757  33.691  35.810  1.00  0.00     0.134 A 
ATOM     78  F   UNL A   1      37.849  30.730  36.694  1.00  0.00    -0.206 F 
ATOM     79  C   UNL A   1      38.064  32.783  37.811  1.00  0.00     0.040 A 
ATOM     80  C   UNL A   1      39.462  34.515  36.896  1.00  0.00     0.040 A 
ATOM     81  F   UNL A   1      40.586  34.168  34.868  1.00  0.00    -0.206 F 
ATOM     82  C   UNL A   1      38.610  34.063  37.900  1.00  0.00     0.006 A 
ENDBRANCH  58  75
ENDBRANCH  32  33
ENDBRANCH  25  27
ENDBRANCH  24  25
ENDBRANCH  23  24
ENDBRANCH  22  23
ENDBRANCH  21  22
ENDBRANCH  20  21
ENDBRANCH   1  20
TORSDOF 20
ENDMDL
MODEL 2
REMARK VINA RESULT:      -9.4      4.284      6.732
REMARK SMILES C[C@@H](Oc1ccc(N)cc1)C(=O)OCCOCCOCCOC(=O)c1ccc(-c2c3nc(c(-c4c(F)cccc4F)c4ccc([nH]4)c(-c4c(F)cccc4F)c4nc(c(-c5c(F)cccc5F)c5ccc2[nH]5)C=C4)C=C3)cc1
REMARK SMILES IDX 17 1 16 2 15 3 14 4 13 5 11 6 12 7 2 8 1 9 3 10 4 11 5 12
REMARK SMILES IDX 10 13 6 14 9 15 7 16 8 17 18 20 19 21 20 22 21 23 22 24
REMARK SMILES IDX 23 25 24 26 25 27 26 28 78 29 27 30 77 31 28 32 29 33 30 34
REMARK SMILES IDX 71 35 31 36 76 37 70 38 72 39 32 40 75 41 69 42 68 43 33 45
REMARK SMILES IDX 59 46 42 47 58 48 43 49 46 50 57 51 73 52 44 53 45 54 56 56
REMARK SMILES IDX 74 57 47 58 34 59 35 60 40 61 36 62 37 63 39 64 41 65 38 66
REMARK SMILES IDX 60 67 61 68 66 69 62 70 63 71 65 72 67 73 64 74 48 75 49 76
REMARK SMILES IDX 54 77 50 78 51 79 53 80 55 81 52 82
REMARK H PARENT 8 18 8 19 72 44 46 55
REMARK Flexibility Score: inf
ROOT
ATOM      1  C   UNL A   1      35.981  21.571  25.759  1.00  0.00     0.188 C 
ENDROOT
BRANCH   1   2
ATOM      2  O   UNL A   1      36.935  22.622  25.677  1.00  0.00    -0.376 OA
BRANCH   2   3
ATOM      3  C   UNL A   1      36.682  23.633  24.703  1.00  0.00     0.202 C 
BRANCH   3   4
ATOM      4  C   UNL A   1      35.232  23.767  24.214  1.00  0.00     0.261 C 
BRANCH   4   5
ATOM      5  O   UNL A   1      34.828  22.778  23.246  1.00  0.00    -0.461 OA
BRANCH   5   6
ATOM      6  C   UNL A   1      33.631  22.990  22.624  1.00  0.00     0.347 C 
ATOM      7  O   UNL A   1      33.504  23.532  21.530  1.00  0.00    -0.248 OA
BRANCH   6   8
ATOM      8  C   UNL A   1      32.432  22.455  23.417  1.00  0.00     0.279 C 
ATOM      9  C   UNL A   1      31.234  23.399  23.475  1.00  0.00     0.066 C 
BRANCH   8  10
ATOM     10  O   UNL A   1      32.064  21.218  22.792  1.00  0.00    -0.479 OA
BRANCH  10  11
ATOM     11  C   UNL A   1      32.286  20.139  23.601  1.00  0.00     0.120 A 
ATOM     12  C   UNL A   1      32.399  18.874  23.037  1.00  0.00     0.048 A 
ATOM     13  C   UNL A   1      32.511  20.327  24.961  1.00  0.00     0.048 A 
ATOM     14  C   UNL A   1      32.719  17.780  23.842  1.00  0.00     0.029 A 
ATOM     15  C   UNL A   1      32.850  19.229  25.759  1.00  0.00     0.029 A 
ATOM     16  C   UNL A   1      32.993  17.954  25.201  1.00  0.00     0.032 A 
BRANCH  16  17
ATOM     17  N   UNL A   1      33.289  16.860  25.997  1.00  0.00    -0.399 N 
ATOM     18  H   UNL A   1      32.834  16.000  25.844  1.00  0.00     0.156 HD
ATOM     19  H   UNL A   1      33.954  16.941  26.719  1.00  0.00     0.156 HD
ENDBRANCH  16  17
ENDBRANCH  10  11
ENDBRANCH   8  10
ENDBRANCH   6   8
ENDBRANCH   5   6
ENDBRANCH   4   5
ENDBRANCH   3   4
ENDBRANCH   2   3
ENDBRANCH   1   2
BRANCH   1  20
ATOM     20  C   UNL A   1      36.355  20.266  25.056  1.00  0.00     0.188 C 
BRANCH  20  21
ATOM     21  O   UNL A   1      37.710  20.158  24.643  1.00  0.00    -0.376 OA
BRANCH  21  22
ATOM     22  C   UNL A   1      38.525  19.210  25.342  1.00  0.00     0.202 C 
BRANCH  22  23
ATOM     23  C   UNL A   1      39.778  19.722  26.083  1.00  0.00     0.261 C 
BRANCH  23  24
ATOM     24  O   UNL A   1      41.029  19.092  25.736  1.00  0.00    -0.460 OA
BRANCH  24  25
ATOM     25  C   UNL A   1      42.133  19.400  26.455  1.00  0.00     0.338 C 
ATOM     26  O   UNL A   1      43.097  18.680  26.650  1.00  0.00    -0.246 OA
BRANCH  25  27
ATOM     27  C   UNL A   1      42.107  20.866  26.731  1.00  0.00     0.060 A 
ATOM     28  C   UNL A   1      41.775  21.740  25.682  1.00  0.00     0.016 A 
ATOM     29  C   UNL A   1      42.312  21.378  28.016  1.00  0.00     0.016 A 
ATOM     30  C   UNL A   1      41.690  23.120  25.905  1.00  0.00     0.010 A 
ATOM     31  C   UNL A   1      42.245  22.758  28.235  1.00  0.00     0.010 A 
ATOM     32  C   UNL A   1      41.970  23.640  27.173  1.00  0.00    -0.014 A 
BRANCH  32  33
ATOM     33  C   UNL A   1      42.241  25.090  27.356  1.00  0.00     0.031 A 
ATOM     34  C   UNL A   1      43.573  25.613  26.889  1.00  0.00     0.074 A 
ATOM     35  C   UNL A   1      41.365  25.931  27.936  1.00  0.00     0.049 A 
ATOM     36  N   UNL A   1      44.123  26.786  27.067  1.00  0.00    -0.248 NA
ATOM     37  C   UNL A   1      44.401  24.668  26.123  1.00  0.00     0.031 C 
ATOM     38  C   UNL A   1      40.019  25.584  28.380  1.00  0.00     0.029 A 
ATOM     39  N   UNL A   1      41.501  27.257  28.270  1.00  0.00    -0.354 N 
ATOM     40  C   UNL A   1      45.370  26.710  26.459  1.00  0.00     0.074 A 
ATOM     41  C   UNL A   1      45.503  25.371  25.928  1.00  0.00     0.031 C 
ATOM     42  C   UNL A   1      39.460  26.665  28.955  1.00  0.00     0.029 A 
ATOM     43  C   UNL A   1      40.427  27.765  28.960  1.00  0.00     0.049 A 
ATOM     44  H   UNL A   1      42.293  27.793  28.037  1.00  0.00     0.167 HD
ATOM     45  C   UNL A   1      46.322  27.667  26.354  1.00  0.00     0.037 A 
ATOM     46  C   UNL A   1      40.260  28.961  29.559  1.00  0.00     0.037 A 
ATOM     47  C   UNL A   1      46.194  28.996  26.884  1.00  0.00     0.049 A 
ATOM     48  C   UNL A   1      41.362  29.990  29.506  1.00  0.00     0.074 A 
ATOM     49  C   UNL A   1      47.099  30.041  26.817  1.00  0.00     0.029 A 
ATOM     50  N   UNL A   1      45.096  29.462  27.592  1.00  0.00    -0.354 N 
ATOM     51  N   UNL A   1      42.538  29.915  28.928  1.00  0.00    -0.248 NA
ATOM     52  C   UNL A   1      41.117  31.269  30.190  1.00  0.00     0.031 C 
ATOM     53  C   UNL A   1      46.575  31.119  27.536  1.00  0.00     0.029 A 
ATOM     54  C   UNL A   1      45.313  30.770  27.991  1.00  0.00     0.049 A 
ATOM     55  H   UNL A   1      44.284  28.940  27.782  1.00  0.00     0.167 HD
ATOM     56  C   UNL A   1      43.153  31.144  29.146  1.00  0.00     0.074 A 
ATOM     57  C   UNL A   1      42.224  31.946  29.912  1.00  0.00     0.031 C 
ATOM     58  C   UNL A   1      44.374  31.570  28.739  1.00  0.00     0.037 A 
BRANCH  45  59
ATOM     59  C   UNL A   1      47.606  27.280  25.679  1.00  0.00     0.057 A 
ATOM     60  C   UNL A   1      48.698  26.761  26.388  1.00  0.00     0.134 A 
ATOM     61  C   UNL A   1      47.754  27.441  24.295  1.00  0.00     0.134 A 
ATOM     62  F   UNL A   1      48.629  26.599  27.719  1.00  0.00    -0.206 F 
ATOM     63  C   UNL A   1      49.902  26.453  25.753  1.00  0.00     0.040 A 
ATOM     64  C   UNL A   1      48.941  27.105  23.643  1.00  0.00     0.040 A 
ATOM     65  F   UNL A   1      46.748  27.930  23.554  1.00  0.00    -0.206 F 
ATOM     66  C   UNL A   1      50.024  26.620  24.375  1.00  0.00     0.006 A 
ENDBRANCH  45  59
BRANCH  46  67
ATOM     67  C   UNL A   1      38.999  29.250  30.293  1.00  0.00     0.057 A 
ATOM     68  C   UNL A   1      38.839  28.888  31.636  1.00  0.00     0.134 A 
ATOM     69  C   UNL A   1      37.921  29.887  29.665  1.00  0.00     0.134 A 
ATOM     70  F   UNL A   1      39.822  28.246  32.283  1.00  0.00    -0.206 F 
ATOM     71  C   UNL A   1      37.652  29.144  32.326  1.00  0.00     0.040 A 
ATOM     72  C   UNL A   1      36.739  30.173  30.350  1.00  0.00     0.040 A 
ATOM     73  F   UNL A   1      38.007  30.252  28.377  1.00  0.00    -0.206 F 
ATOM     74  C   UNL A   1      36.601  29.797  31.685  1.00  0.00     0.006 A 
ENDBRANCH  46  67
BRANCH  58  75
ATOM     75  C   UNL A   1      44.769  32.986  29.049  1.00  0.00     0.057 A 
ATOM     76  C   UNL A   1      44.436  34.057  28.211  1.00  0.00     0.134 A 
ATOM     77  C   UNL A   1      45.425  33.289  30.251  1.00  0.00     0.134 A 
ATOM     78  F   UNL A   1      43.815  33.839  27.042  1.00  0.00    -0.206 F 
ATOM     79  C   UNL A   1      44.752  35.375  28.550  1.00  0.00     0.040 A 
ATOM     80  C   UNL A   1      45.721  34.603  30.613  1.00  0.00     0.040 A 
ATOM     81  F   UNL A   1      45.763  32.312  31.106  1.00  0.00    -0.206 F 
ATOM     82  C   UNL A   1      45.387  35.652  29.760  1.00  0.00     0.006 A 
ENDBRANCH  58  75
ENDBRANCH  32  33
ENDBRANCH  25  27
ENDBRANCH  24  25
ENDBRANCH  23  24
ENDBRANCH  22  23
ENDBRANCH  21  22
ENDBRANCH  20  21
ENDBRANCH   1  20
TORSDOF 20
ENDMDL
MODEL 3
REMARK VINA RESULT:      -9.4      1.083      2.011
REMARK SMILES C[C@@H](Oc1ccc(N)cc1)C(=O)OCCOCCOCCOC(=O)c1ccc(-c2c3nc(c(-c4c(F)cccc4F)c4ccc([nH]4)c(-c4c(F)cccc4F)c4nc(c(-c5c(F)cccc5F)c5ccc2[nH]5)C=C4)C=C3)cc1
REMARK SMILES IDX 17 1 16 2 15 3 14 4 13 5 11 6 12 7 2 8 1 9 3 10 4 11 5 12
REMARK SMILES IDX 10 13 6 14 9 15 7 16 8 17 18 20 19 21 20 22 21 23 22 24
REMARK SMILES IDX 23 25 24 26 25 27 26 28 78 29 27 30 77 31 28 32 29 33 30 34
REMARK SMILES IDX 71 35 31 36 76 37 70 38 72 39 32 40 75 41 69 42 68 43 33 45
REMARK SMILES IDX 59 46 42 47 58 48 43 49 46 50 57 51 73 52 44 53 45 54 56 56
REMARK SMILES IDX 74 57 47 58 34 59 35 60 40 61 36 62 37 63 39 64 41 65 38 66
REMARK SMILES IDX 60 67 61 68 66 69 62 70 63 71 65 72 67 73 64 74 48 75 49 76
REMARK SMILES IDX 54 77 50 78 51 79 53 80 55 81 52 82
REMARK H PARENT 8 18 8 19 72 44 46 55
REMARK Flexibility Score: inf
ROOT
ATOM      1  C   UNL A   1      37.965  22.429  25.730  1.00  0.00     0.188 C 
ENDROOT
BRANCH   1   2
ATOM      2  O   UNL A   1      36.646  21.898  25.768  1.00  0.00    -0.376 OA
BRANCH   2   3
ATOM      3  C   UNL A   1      35.969  21.790  24.518  1.00  0.00     0.202 C 
BRANCH   3   4
ATOM      4  C   UNL A   1      36.226  22.911  23.499  1.00  0.00     0.261 C 
BRANCH   4   5
ATOM      5  O   UNL A   1      35.056  23.668  23.128  1.00  0.00    -0.461 OA
BRANCH   5   6
ATOM      6  C   UNL A   1      34.452  24.382  24.123  1.00  0.00     0.347 C 
ATOM      7  O   UNL A   1      35.053  24.956  25.027  1.00  0.00    -0.248 OA
BRANCH   6   8
ATOM      8  C   UNL A   1      32.925  24.426  23.997  1.00  0.00     0.279 C 
ATOM      9  C   UNL A   1      32.210  23.161  24.468  1.00  0.00     0.066 C 
BRANCH   8  10
ATOM     10  O   UNL A   1      32.497  25.558  24.768  1.00  0.00    -0.479 OA
BRANCH  10  11
ATOM     11  C   UNL A   1      32.176  26.629  23.983  1.00  0.00     0.120 A 
ATOM     12  C   UNL A   1      31.163  26.504  23.038  1.00  0.00     0.048 A 
ATOM     13  C   UNL A   1      32.780  27.862  24.210  1.00  0.00     0.048 A 
ATOM     14  C   UNL A   1      30.764  27.617  22.297  1.00  0.00     0.029 A 
ATOM     15  C   UNL A   1      32.361  28.977  23.476  1.00  0.00     0.029 A 
ATOM     16  C   UNL A   1      31.326  28.872  22.542  1.00  0.00     0.032 A 
BRANCH  16  17
ATOM     17  N   UNL A   1      30.937  29.968  21.787  1.00  0.00    -0.399 N 
ATOM     18  H   UNL A   1      30.642  29.846  20.856  1.00  0.00     0.156 HD
ATOM     19  H   UNL A   1      30.959  30.870  22.181  1.00  0.00     0.156 HD
ENDBRANCH  16  17
ENDBRANCH  10  11
ENDBRANCH   8  10
ENDBRANCH   6   8
ENDBRANCH   5   6
ENDBRANCH   4   5
ENDBRANCH   3   4
ENDBRANCH   2   3
ENDBRANCH   1   2
BRANCH   1  20
ATOM     20  C   UNL A   1      39.103  21.410  25.792  1.00  0.00     0.188 C 
BRANCH  20  21
ATOM     21  O   UNL A   1      39.887  21.438  26.976  1.00  0.00    -0.376 OA
BRANCH  21  22
ATOM     22  C   UNL A   1      41.179  20.826  26.910  1.00  0.00     0.202 C 
BRANCH  22  23
ATOM     23  C   UNL A   1      42.204  21.380  25.898  1.00  0.00     0.261 C 
BRANCH  23  24
ATOM     24  O   UNL A   1      43.280  22.172  26.444  1.00  0.00    -0.460 OA
BRANCH  24  25
ATOM     25  C   UNL A   1      43.587  23.349  25.850  1.00  0.00     0.338 C 
ATOM     26  O   UNL A   1      44.046  23.499  24.731  1.00  0.00    -0.246 OA
BRANCH  25  27
ATOM     27  C   UNL A   1      43.005  24.446  26.677  1.00  0.00     0.060 A 
ATOM     28  C   UNL A   1      43.559  25.732  26.570  1.00  0.00     0.016 A 
ATOM     29  C   UNL A   1      41.875  24.246  27.476  1.00  0.00     0.016 A 
ATOM     30  C   UNL A   1      43.016  26.804  27.289  1.00  0.00     0.010 A 
ATOM     31  C   UNL A   1      41.343  25.313  28.208  1.00  0.00     0.010 A 
ATOM     32  C   UNL A   1      41.933  26.589  28.148  1.00  0.00    -0.014 A 
BRANCH  32  33
ATOM     33  C   UNL A   1      41.570  27.598  29.178  1.00  0.00     0.031 A 
ATOM     34  C   UNL A   1      42.337  27.577  30.472  1.00  0.00     0.074 A 
ATOM     35  C   UNL A   1      40.581  28.494  29.008  1.00  0.00     0.049 A 
ATOM     36  N   UNL A   1      42.124  28.232  31.584  1.00  0.00    -0.248 NA
ATOM     37  C   UNL A   1      43.503  26.679  30.513  1.00  0.00     0.031 C 
ATOM     38  C   UNL A   1      39.795  28.673  27.791  1.00  0.00     0.029 A 
ATOM     39  N   UNL A   1      40.058  29.412  29.888  1.00  0.00    -0.354 N 
ATOM     40  C   UNL A   1      43.111  27.804  32.464  1.00  0.00     0.074 A 
ATOM     41  C   UNL A   1      43.908  26.820  31.764  1.00  0.00     0.031 C 
ATOM     42  C   UNL A   1      38.868  29.625  28.010  1.00  0.00     0.029 A 
ATOM     43  C   UNL A   1      38.967  30.087  29.396  1.00  0.00     0.049 A 
ATOM     44  H   UNL A   1      40.429  29.569  30.786  1.00  0.00     0.167 HD
ATOM     45  C   UNL A   1      43.336  28.192  33.741  1.00  0.00     0.037 A 
ATOM     46  C   UNL A   1      38.124  30.946  30.004  1.00  0.00     0.037 A 
ATOM     47  C   UNL A   1      42.543  29.166  34.441  1.00  0.00     0.049 A 
ATOM     48  C   UNL A   1      38.336  31.307  31.454  1.00  0.00     0.074 A 
ATOM     49  C   UNL A   1      42.699  29.636  35.733  1.00  0.00     0.029 A 
ATOM     50  N   UNL A   1      41.437  29.812  33.910  1.00  0.00    -0.354 N 
ATOM     51  N   UNL A   1      39.271  30.904  32.281  1.00  0.00    -0.248 NA
ATOM     52  C   UNL A   1      37.373  32.241  32.058  1.00  0.00     0.031 C 
ATOM     53  C   UNL A   1      41.651  30.520  36.006  1.00  0.00     0.029 A 
ATOM     54  C   UNL A   1      40.884  30.655  34.859  1.00  0.00     0.049 A 
ATOM     55  H   UNL A   1      41.095  29.689  32.995  1.00  0.00     0.167 HD
ATOM     56  C   UNL A   1      39.032  31.560  33.484  1.00  0.00     0.074 A 
ATOM     57  C   UNL A   1      37.862  32.387  33.282  1.00  0.00     0.031 C 
ATOM     58  C   UNL A   1      39.727  31.490  34.646  1.00  0.00     0.037 A 
BRANCH  45  59
ATOM     59  C   UNL A   1      44.457  27.515  34.474  1.00  0.00     0.057 A 
ATOM     60  C   UNL A   1      44.280  26.309  35.164  1.00  0.00     0.134 A 
ATOM     61  C   UNL A   1      45.735  28.089  34.496  1.00  0.00     0.134 A 
ATOM     62  F   UNL A   1      43.076  25.716  35.200  1.00  0.00    -0.206 F 
ATOM     63  C   UNL A   1      45.321  25.717  35.881  1.00  0.00     0.040 A 
ATOM     64  C   UNL A   1      46.793  27.490  35.181  1.00  0.00     0.040 A 
ATOM     65  F   UNL A   1      45.977  29.242  33.853  1.00  0.00    -0.206 F 
ATOM     66  C   UNL A   1      46.584  26.306  35.887  1.00  0.00     0.006 A 
ENDBRANCH  45  59
BRANCH  46  67
ATOM     67  C   UNL A   1      36.975  31.513  29.250  1.00  0.00     0.057 A 
ATOM     68  C   UNL A   1      37.011  32.816  28.740  1.00  0.00     0.134 A 
ATOM     69  C   UNL A   1      35.811  30.766  29.028  1.00  0.00     0.134 A 
ATOM     70  F   UNL A   1      38.083  33.593  28.947  1.00  0.00    -0.206 F 
ATOM     71  C   UNL A   1      35.929  33.358  28.043  1.00  0.00     0.040 A 
ATOM     72  C   UNL A   1      34.733  31.286  28.310  1.00  0.00     0.040 A 
ATOM     73  F   UNL A   1      35.710  29.514  29.498  1.00  0.00    -0.206 F 
ATOM     74  C   UNL A   1      34.788  32.589  27.818  1.00  0.00     0.006 A 
ENDBRANCH  46  67
BRANCH  58  75
ATOM     75  C   UNL A   1      39.294  32.372  35.783  1.00  0.00     0.057 A 
ATOM     76  C   UNL A   1      39.766  33.681  35.939  1.00  0.00     0.134 A 
ATOM     77  C   UNL A   1      38.325  31.925  36.693  1.00  0.00     0.134 A 
ATOM     78  F   UNL A   1      40.699  34.171  35.109  1.00  0.00    -0.206 F 
ATOM     79  C   UNL A   1      39.299  34.508  36.963  1.00  0.00     0.040 A 
ATOM     80  C   UNL A   1      37.831  32.750  37.703  1.00  0.00     0.040 A 
ATOM     81  F   UNL A   1      37.821  30.684  36.595  1.00  0.00    -0.206 F 
ATOM     82  C   UNL A   1      38.320  34.046  37.843  1.00  0.00     0.006 A 
ENDBRANCH  58  75
ENDBRANCH  32  33
ENDBRANCH  25  27
ENDBRANCH  24  25
ENDBRANCH  23  24
ENDBRANCH  22  23
ENDBRANCH  21  22
ENDBRANCH  20  21
ENDBRANCH   1  20
TORSDOF 20
ENDMDL
