MODEL 1
REMARK VINA RESULT:      -9.8      0.000      0.000
REMARK SMILES O=C(CSC(=S)NC(=O)c1ccc([N+](=O)[O-])cc1)OCCOCCOCCOC(=O)c1ccc(-c2c3nc(c(-c4c(F)cccc4F)c4ccc([nH]4)c(-c4c(F)cccc4F)c4nc(c(-c5c(F)cccc5F)c5ccc2[nH]5)C=C4)C=C3)cc1
REMARK SMILES IDX 22 1 21 2 20 3 19 4 2 5 1 6 3 7 4 8 5 9 6 10 7 11 8 12 9 14
REMARK SMILES IDX 10 15 11 16 18 17 12 18 17 19 13 20 14 21 15 22 16 23 23 24
REMARK SMILES IDX 24 25 25 26 26 27 27 28 28 29 29 30 30 31 31 32 32 33 84 34
REMARK SMILES IDX 33 35 83 36 34 37 35 38 36 39 77 40 37 41 82 42 76 43 78 44
REMARK SMILES IDX 38 45 81 46 75 47 74 48 39 50 65 51 48 52 64 53 49 54 52 55
REMARK SMILES IDX 63 56 79 57 50 58 51 59 62 61 80 62 53 63 40 64 41 65 46 66
REMARK SMILES IDX 42 67 43 68 45 69 47 70 44 71 66 72 67 73 72 74 68 75 69 76
REMARK SMILES IDX 71 77 73 78 70 79 54 80 55 81 60 82 56 83 57 84 59 85 61 86
REMARK SMILES IDX 58 87
REMARK H PARENT 7 13 78 49 52 60
REMARK Flexibility Score: inf
ROOT
ATOM      1  O   UNL A   1      41.379  21.763  26.992  1.00  0.00    -0.376 OA
ENDROOT
BRANCH   1   2
ATOM      2  C   UNL A   1      40.039  22.124  26.720  1.00  0.00     0.202 C 
BRANCH   2   3
ATOM      3  C   UNL A   1      39.267  21.122  25.870  1.00  0.00     0.261 C 
BRANCH   3   4
ATOM      4  O   UNL A   1      37.888  21.452  25.577  1.00  0.00    -0.463 OA
BRANCH   4   5
ATOM      5  C   UNL A   1      36.881  20.690  25.108  1.00  0.00     0.316 C 
ATOM      6  O   UNL A   1      37.108  19.513  24.825  1.00  0.00    -0.251 OA
BRANCH   5   7
ATOM      7  C   UNL A   1      35.530  21.286  24.807  1.00  0.00     0.199 C 
BRANCH   7   8
ATOM      8  S   UNL A   1      35.596  23.074  24.582  1.00  0.00    -0.085 SA
BRANCH   8   9
ATOM      9  C   UNL A   1      34.188  23.400  23.610  1.00  0.00     0.141 C 
ATOM     10  S   UNL A   1      32.698  22.669  23.815  1.00  0.00    -0.052 S 
BRANCH   9  11
ATOM     11  N   UNL A   1      34.262  24.469  22.727  1.00  0.00    -0.307 N 
ATOM     12  C   UNL A   1      33.527  25.630  22.513  1.00  0.00     0.256 C 
ATOM     13  H   UNL A   1      35.017  24.385  22.101  1.00  0.00     0.171 HD
ATOM     14  O   UNL A   1      33.296  26.020  21.373  1.00  0.00    -0.269 OA
BRANCH  12  15
ATOM     15  C   UNL A   1      33.037  26.423  23.662  1.00  0.00     0.040 A 
ATOM     16  C   UNL A   1      33.892  26.621  24.755  1.00  0.00     0.021 A 
ATOM     17  C   UNL A   1      31.710  26.871  23.710  1.00  0.00     0.021 A 
ATOM     18  C   UNL A   1      33.437  27.305  25.885  1.00  0.00     0.086 A 
ATOM     19  C   UNL A   1      31.246  27.546  24.846  1.00  0.00     0.086 A 
ATOM     20  C   UNL A   1      32.114  27.766  25.927  1.00  0.00     0.269 A 
BRANCH  20  21
ATOM     21  N   UNL A   1      31.634  28.490  27.113  1.00  0.00     0.062 N 
ATOM     22  O   UNL A   1      31.798  29.717  27.143  1.00  0.00    -0.258 OA
ATOM     23  O   UNL A   1      31.083  27.829  28.005  1.00  0.00    -0.258 OA
ENDBRANCH  20  21
ENDBRANCH  12  15
ENDBRANCH   9  11
ENDBRANCH   8   9
ENDBRANCH   7   8
ENDBRANCH   5   7
ENDBRANCH   4   5
ENDBRANCH   3   4
ENDBRANCH   2   3
ENDBRANCH   1   2
BRANCH   1  24
ATOM     24  C   UNL A   1      41.783  20.448  26.657  1.00  0.00     0.188 C 
BRANCH  24  25
ATOM     25  C   UNL A   1      43.035  20.363  25.764  1.00  0.00     0.188 C 
BRANCH  25  26
ATOM     26  O   UNL A   1      44.037  21.368  25.840  1.00  0.00    -0.376 OA
BRANCH  26  27
ATOM     27  C   UNL A   1      44.825  21.670  24.699  1.00  0.00     0.202 C 
BRANCH  27  28
ATOM     28  C   UNL A   1      44.494  22.938  23.898  1.00  0.00     0.261 C 
BRANCH  28  29
ATOM     29  O   UNL A   1      43.772  23.950  24.628  1.00  0.00    -0.460 OA
BRANCH  29  30
ATOM     30  C   UNL A   1      44.510  24.985  25.102  1.00  0.00     0.338 C 
ATOM     31  O   UNL A   1      45.572  25.396  24.671  1.00  0.00    -0.246 OA
BRANCH  30  32
ATOM     32  C   UNL A   1      43.768  25.684  26.177  1.00  0.00     0.060 A 
ATOM     33  C   UNL A   1      44.138  26.994  26.516  1.00  0.00     0.016 A 
ATOM     34  C   UNL A   1      42.762  25.035  26.893  1.00  0.00     0.016 A 
ATOM     35  C   UNL A   1      43.505  27.658  27.572  1.00  0.00     0.010 A 
ATOM     36  C   UNL A   1      42.148  25.692  27.969  1.00  0.00     0.010 A 
ATOM     37  C   UNL A   1      42.524  27.002  28.326  1.00  0.00    -0.014 A 
BRANCH  37  38
ATOM     38  C   UNL A   1      41.956  27.624  29.552  1.00  0.00     0.031 A 
ATOM     39  C   UNL A   1      40.735  28.496  29.436  1.00  0.00     0.074 A 
ATOM     40  C   UNL A   1      42.540  27.454  30.752  1.00  0.00     0.049 A 
ATOM     41  N   UNL A   1      40.168  29.255  30.341  1.00  0.00    -0.248 NA
ATOM     42  C   UNL A   1      40.065  28.517  28.126  1.00  0.00     0.031 C 
ATOM     43  C   UNL A   1      43.696  26.601  31.018  1.00  0.00     0.029 A 
ATOM     44  N   UNL A   1      42.254  28.021  31.973  1.00  0.00    -0.354 N 
ATOM     45  C   UNL A   1      39.090  29.859  29.707  1.00  0.00     0.074 A 
ATOM     46  C   UNL A   1      39.082  29.382  28.340  1.00  0.00     0.031 C 
ATOM     47  C   UNL A   1      44.046  26.730  32.311  1.00  0.00     0.029 A 
ATOM     48  C   UNL A   1      43.166  27.706  32.953  1.00  0.00     0.049 A 
ATOM     49  H   UNL A   1      41.470  28.596  32.130  1.00  0.00     0.167 HD
ATOM     50  C   UNL A   1      38.190  30.732  30.218  1.00  0.00     0.037 A 
ATOM     51  C   UNL A   1      43.306  28.186  34.205  1.00  0.00     0.037 A 
ATOM     52  C   UNL A   1      38.187  31.202  31.579  1.00  0.00     0.049 A 
ATOM     53  C   UNL A   1      42.342  29.229  34.719  1.00  0.00     0.074 A 
ATOM     54  C   UNL A   1      37.280  32.049  32.194  1.00  0.00     0.029 A 
ATOM     55  N   UNL A   1      39.140  30.879  32.529  1.00  0.00    -0.354 N 
ATOM     56  N   UNL A   1      41.301  29.759  34.125  1.00  0.00    -0.248 NA
ATOM     57  C   UNL A   1      42.583  29.748  36.076  1.00  0.00     0.031 C 
ATOM     58  C   UNL A   1      37.720  32.288  33.498  1.00  0.00     0.029 A 
ATOM     59  C   UNL A   1      38.869  31.547  33.712  1.00  0.00     0.049 A 
ATOM     60  H   UNL A   1      39.898  30.267  32.386  1.00  0.00     0.167 HD
ATOM     61  C   UNL A   1      40.753  30.651  35.041  1.00  0.00     0.074 A 
ATOM     62  C   UNL A   1      41.562  30.577  36.238  1.00  0.00     0.031 C 
ATOM     63  C   UNL A   1      39.677  31.463  34.901  1.00  0.00     0.037 A 
BRANCH  50  64
ATOM     64  C   UNL A   1      37.137  31.277  29.298  1.00  0.00     0.057 A 
ATOM     65  C   UNL A   1      35.966  30.568  29.010  1.00  0.00     0.134 A 
ATOM     66  C   UNL A   1      37.260  32.571  28.771  1.00  0.00     0.134 A 
ATOM     67  F   UNL A   1      35.792  29.323  29.478  1.00  0.00    -0.206 F 
ATOM     68  C   UNL A   1      34.953  31.125  28.226  1.00  0.00     0.040 A 
ATOM     69  C   UNL A   1      36.246  33.146  28.006  1.00  0.00     0.040 A 
ATOM     70  F   UNL A   1      38.354  33.305  29.019  1.00  0.00    -0.206 F 
ATOM     71  C   UNL A   1      35.088  32.421  27.731  1.00  0.00     0.006 A 
ENDBRANCH  50  64
BRANCH  51  72
ATOM     72  C   UNL A   1      44.441  27.747  35.059  1.00  0.00     0.057 A 
ATOM     73  C   UNL A   1      45.661  28.435  35.061  1.00  0.00     0.134 A 
ATOM     74  C   UNL A   1      44.358  26.586  35.837  1.00  0.00     0.134 A 
ATOM     75  F   UNL A   1      45.815  29.537  34.312  1.00  0.00    -0.206 F 
ATOM     76  C   UNL A   1      46.763  27.968  35.779  1.00  0.00     0.040 A 
ATOM     77  C   UNL A   1      45.444  26.123  36.584  1.00  0.00     0.040 A 
ATOM     78  F   UNL A   1      43.219  25.878  35.882  1.00  0.00    -0.206 F 
ATOM     79  C   UNL A   1      46.655  26.809  36.546  1.00  0.00     0.006 A 
ENDBRANCH  51  72
BRANCH  63  80
ATOM     80  C   UNL A   1      39.293  32.322  36.072  1.00  0.00     0.057 A 
ATOM     81  C   UNL A   1      39.829  33.604  36.253  1.00  0.00     0.134 A 
ATOM     82  C   UNL A   1      38.339  31.886  37.000  1.00  0.00     0.134 A 
ATOM     83  F   UNL A   1      40.757  34.078  35.409  1.00  0.00    -0.206 F 
ATOM     84  C   UNL A   1      39.441  34.413  37.323  1.00  0.00     0.040 A 
ATOM     85  C   UNL A   1      37.923  32.695  38.059  1.00  0.00     0.040 A 
ATOM     86  F   UNL A   1      37.779  30.672  36.881  1.00  0.00    -0.206 F 
ATOM     87  C   UNL A   1      38.478  33.962  38.225  1.00  0.00     0.006 A 
ENDBRANCH  63  80
ENDBRANCH  37  38
ENDBRANCH  30  32
ENDBRANCH  29  30
ENDBRANCH  28  29
ENDBRANCH  27  28
ENDBRANCH  26  27
ENDBRANCH  25  26
ENDBRANCH  24  25
ENDBRANCH   1  24
TORSDOF 22
ENDMDL
MODEL 2
REMARK VINA RESULT:      -9.6      2.281      3.925
REMARK SMILES O=C(CSC(=S)NC(=O)c1ccc([N+](=O)[O-])cc1)OCCOCCOCCOC(=O)c1ccc(-c2c3nc(c(-c4c(F)cccc4F)c4ccc([nH]4)c(-c4c(F)cccc4F)c4nc(c(-c5c(F)cccc5F)c5ccc2[nH]5)C=C4)C=C3)cc1
REMARK SMILES IDX 22 1 21 2 20 3 19 4 2 5 1 6 3 7 4 8 5 9 6 10 7 11 8 12 9 14
REMARK SMILES IDX 10 15 11 16 18 17 12 18 17 19 13 20 14 21 15 22 16 23 23 24
REMARK SMILES IDX 24 25 25 26 26 27 27 28 28 29 29 30 30 31 31 32 32 33 84 34
REMARK SMILES IDX 33 35 83 36 34 37 35 38 36 39 77 40 37 41 82 42 76 43 78 44
REMARK SMILES IDX 38 45 81 46 75 47 74 48 39 50 65 51 48 52 64 53 49 54 52 55
REMARK SMILES IDX 63 56 79 57 50 58 51 59 62 61 80 62 53 63 40 64 41 65 46 66
REMARK SMILES IDX 42 67 43 68 45 69 47 70 44 71 66 72 67 73 72 74 68 75 69 76
REMARK SMILES IDX 71 77 73 78 70 79 54 80 55 81 60 82 56 83 57 84 59 85 61 86
REMARK SMILES IDX 58 87
REMARK H PARENT 7 13 78 49 52 60
REMARK Flexibility Score: inf
ROOT
ATOM      1  O   UNL A   1      41.071  21.536  26.860  1.00  0.00    -0.376 OA
ENDROOT
BRANCH   1   2
ATOM      2  C   UNL A   1      40.092  22.168  26.059  1.00  0.00     0.202 C 
BRANCH   2   3
ATOM      3  C   UNL A   1      38.709  21.530  26.118  1.00  0.00     0.261 C 
BRANCH   3   4
ATOM      4  O   UNL A   1      38.039  21.324  24.851  1.00  0.00    -0.463 OA
BRANCH   4   5
ATOM      5  C   UNL A   1      36.934  21.896  24.335  1.00  0.00     0.316 C 
ATOM      6  O   UNL A   1      37.038  22.574  23.312  1.00  0.00    -0.251 OA
BRANCH   5   7
ATOM      7  C   UNL A   1      35.613  21.827  25.056  1.00  0.00     0.199 C 
BRANCH   7   8
ATOM      8  S   UNL A   1      34.483  23.143  24.560  1.00  0.00    -0.085 SA
BRANCH   8   9
ATOM      9  C   UNL A   1      32.927  22.530  25.048  1.00  0.00     0.141 C 
ATOM     10  S   UNL A   1      32.270  22.705  26.575  1.00  0.00    -0.052 S 
BRANCH   9  11
ATOM     11  N   UNL A   1      32.106  22.022  24.049  1.00  0.00    -0.307 N 
ATOM     12  C   UNL A   1      32.150  20.930  23.190  1.00  0.00     0.256 C 
ATOM     13  H   UNL A   1      31.297  22.567  23.919  1.00  0.00     0.171 HD
ATOM     14  O   UNL A   1      31.788  21.040  22.023  1.00  0.00    -0.269 OA
BRANCH  12  15
ATOM     15  C   UNL A   1      32.612  19.614  23.683  1.00  0.00     0.040 A 
ATOM     16  C   UNL A   1      32.581  18.520  22.807  1.00  0.00     0.021 A 
ATOM     17  C   UNL A   1      32.967  19.435  25.027  1.00  0.00     0.021 A 
ATOM     18  C   UNL A   1      32.945  17.249  23.260  1.00  0.00     0.086 A 
ATOM     19  C   UNL A   1      33.319  18.161  25.489  1.00  0.00     0.086 A 
ATOM     20  C   UNL A   1      33.313  17.073  24.602  1.00  0.00     0.269 A 
BRANCH  20  21
ATOM     21  N   UNL A   1      33.700  15.738  25.081  1.00  0.00     0.062 N 
ATOM     22  O   UNL A   1      34.840  15.603  25.545  1.00  0.00    -0.258 OA
ATOM     23  O   UNL A   1      32.857  14.834  25.001  1.00  0.00    -0.258 OA
ENDBRANCH  20  21
ENDBRANCH  12  15
ENDBRANCH   9  11
ENDBRANCH   8   9
ENDBRANCH   7   8
ENDBRANCH   5   7
ENDBRANCH   4   5
ENDBRANCH   3   4
ENDBRANCH   2   3
ENDBRANCH   1   2
BRANCH   1  24
ATOM     24  C   UNL A   1      41.431  20.208  26.526  1.00  0.00     0.188 C 
BRANCH  24  25
ATOM     25  C   UNL A   1      42.712  20.078  25.681  1.00  0.00     0.188 C 
BRANCH  25  26
ATOM     26  O   UNL A   1      43.808  20.954  25.906  1.00  0.00    -0.376 OA
BRANCH  26  27
ATOM     27  C   UNL A   1      44.599  21.394  24.811  1.00  0.00     0.202 C 
BRANCH  27  28
ATOM     28  C   UNL A   1      44.192  22.686  24.088  1.00  0.00     0.261 C 
BRANCH  28  29
ATOM     29  O   UNL A   1      43.493  23.647  24.903  1.00  0.00    -0.460 OA
BRANCH  29  30
ATOM     30  C   UNL A   1      44.171  24.785  25.200  1.00  0.00     0.338 C 
ATOM     31  O   UNL A   1      45.157  25.226  24.639  1.00  0.00    -0.246 OA
BRANCH  30  32
ATOM     32  C   UNL A   1      43.454  25.541  26.252  1.00  0.00     0.060 A 
ATOM     33  C   UNL A   1      43.928  26.809  26.620  1.00  0.00     0.016 A 
ATOM     34  C   UNL A   1      42.364  24.983  26.921  1.00  0.00     0.016 A 
ATOM     35  C   UNL A   1      43.317  27.521  27.657  1.00  0.00     0.010 A 
ATOM     36  C   UNL A   1      41.771  25.685  27.979  1.00  0.00     0.010 A 
ATOM     37  C   UNL A   1      42.250  26.951  28.365  1.00  0.00    -0.014 A 
BRANCH  37  38
ATOM     38  C   UNL A   1      41.693  27.615  29.575  1.00  0.00     0.031 A 
ATOM     39  C   UNL A   1      40.484  28.500  29.438  1.00  0.00     0.074 A 
ATOM     40  C   UNL A   1      42.277  27.468  30.779  1.00  0.00     0.049 A 
ATOM     41  N   UNL A   1      39.929  29.291  30.322  1.00  0.00    -0.248 NA
ATOM     42  C   UNL A   1      39.812  28.495  28.128  1.00  0.00     0.031 C 
ATOM     43  C   UNL A   1      43.422  26.607  31.065  1.00  0.00     0.029 A 
ATOM     44  N   UNL A   1      42.000  28.072  31.984  1.00  0.00    -0.354 N 
ATOM     45  C   UNL A   1      38.858  29.892  29.674  1.00  0.00     0.074 A 
ATOM     46  C   UNL A   1      38.841  29.379  28.320  1.00  0.00     0.031 C 
ATOM     47  C   UNL A   1      43.775  26.766  32.354  1.00  0.00     0.029 A 
ATOM     48  C   UNL A   1      42.910  27.772  32.970  1.00  0.00     0.049 A 
ATOM     49  H   UNL A   1      41.225  28.662  32.127  1.00  0.00     0.167 HD
ATOM     50  C   UNL A   1      37.971  30.791  30.162  1.00  0.00     0.037 A 
ATOM     51  C   UNL A   1      43.059  28.283  34.209  1.00  0.00     0.037 A 
ATOM     52  C   UNL A   1      37.977  31.298  31.510  1.00  0.00     0.049 A 
ATOM     53  C   UNL A   1      42.111  29.353  34.697  1.00  0.00     0.074 A 
ATOM     54  C   UNL A   1      37.083  32.172  32.103  1.00  0.00     0.029 A 
ATOM     55  N   UNL A   1      38.928  30.987  32.467  1.00  0.00    -0.354 N 
ATOM     56  N   UNL A   1      41.075  29.880  34.090  1.00  0.00    -0.248 NA
ATOM     57  C   UNL A   1      42.361  29.905  36.038  1.00  0.00     0.031 C 
ATOM     58  C   UNL A   1      37.528  32.441  33.400  1.00  0.00     0.029 A 
ATOM     59  C   UNL A   1      38.668  31.690  33.632  1.00  0.00     0.049 A 
ATOM     60  H   UNL A   1      39.677  30.360  32.340  1.00  0.00     0.167 HD
ATOM     61  C   UNL A   1      40.541  30.804  34.982  1.00  0.00     0.074 A 
ATOM     62  C   UNL A   1      41.351  30.752  36.179  1.00  0.00     0.031 C 
ATOM     63  C   UNL A   1      39.477  31.627  34.822  1.00  0.00     0.037 A 
BRANCH  50  64
ATOM     64  C   UNL A   1      36.924  31.325  29.230  1.00  0.00     0.057 A 
ATOM     65  C   UNL A   1      35.786  30.586  28.892  1.00  0.00     0.134 A 
ATOM     66  C   UNL A   1      37.016  32.636  28.741  1.00  0.00     0.134 A 
ATOM     67  F   UNL A   1      35.642  29.323  29.322  1.00  0.00    -0.206 F 
ATOM     68  C   UNL A   1      34.775  31.129  28.097  1.00  0.00     0.040 A 
ATOM     69  C   UNL A   1      36.003  33.198  27.964  1.00  0.00     0.040 A 
ATOM     70  F   UNL A   1      38.078  33.400  29.036  1.00  0.00    -0.206 F 
ATOM     71  C   UNL A   1      34.878  32.443  27.639  1.00  0.00     0.006 A 
ENDBRANCH  50  64
BRANCH  51  72
ATOM     72  C   UNL A   1      44.190  27.852  35.073  1.00  0.00     0.057 A 
ATOM     73  C   UNL A   1      44.055  26.790  35.975  1.00  0.00     0.134 A 
ATOM     74  C   UNL A   1      45.410  28.540  35.069  1.00  0.00     0.134 A 
ATOM     75  F   UNL A   1      42.901  26.110  36.048  1.00  0.00    -0.206 F 
ATOM     76  C   UNL A   1      45.077  26.447  36.861  1.00  0.00     0.040 A 
ATOM     77  C   UNL A   1      46.453  28.189  35.930  1.00  0.00     0.040 A 
ATOM     78  F   UNL A   1      45.608  29.567  34.230  1.00  0.00    -0.206 F 
ATOM     79  C   UNL A   1      46.282  27.147  36.839  1.00  0.00     0.006 A 
ENDBRANCH  51  72
BRANCH  63  80
ATOM     80  C   UNL A   1      39.107  32.523  35.970  1.00  0.00     0.057 A 
ATOM     81  C   UNL A   1      38.310  32.070  37.030  1.00  0.00     0.134 A 
ATOM     82  C   UNL A   1      39.594  33.834  36.044  1.00  0.00     0.134 A 
ATOM     83  F   UNL A   1      37.799  30.830  37.016  1.00  0.00    -0.206 F 
ATOM     84  C   UNL A   1      37.999  32.895  38.113  1.00  0.00     0.040 A 
ATOM     85  C   UNL A   1      39.313  34.659  37.134  1.00  0.00     0.040 A 
ATOM     86  F   UNL A   1      40.370  34.328  35.067  1.00  0.00    -0.206 F 
ATOM     87  C   UNL A   1      38.509  34.192  38.171  1.00  0.00     0.006 A 
ENDBRANCH  63  80
ENDBRANCH  37  38
ENDBRANCH  30  32
ENDBRANCH  29  30
ENDBRANCH  28  29
ENDBRANCH  27  28
ENDBRANCH  26  27
ENDBRANCH  25  26
ENDBRANCH  24  25
ENDBRANCH   1  24
TORSDOF 22
ENDMDL
MODEL 3
REMARK VINA RESULT:      -9.5      4.285      6.345
REMARK SMILES O=C(CSC(=S)NC(=O)c1ccc([N+](=O)[O-])cc1)OCCOCCOCCOC(=O)c1ccc(-c2c3nc(c(-c4c(F)cccc4F)c4ccc([nH]4)c(-c4c(F)cccc4F)c4nc(c(-c5c(F)cccc5F)c5ccc2[nH]5)C=C4)C=C3)cc1
REMARK SMILES IDX 22 1 21 2 20 3 19 4 2 5 1 6 3 7 4 8 5 9 6 10 7 11 8 12 9 14
REMARK SMILES IDX 10 15 11 16 18 17 12 18 17 19 13 20 14 21 15 22 16 23 23 24
REMARK SMILES IDX 24 25 25 26 26 27 27 28 28 29 29 30 30 31 31 32 32 33 84 34
REMARK SMILES IDX 33 35 83 36 34 37 35 38 36 39 77 40 37 41 82 42 76 43 78 44
REMARK SMILES IDX 38 45 81 46 75 47 74 48 39 50 65 51 48 52 64 53 49 54 52 55
REMARK SMILES IDX 63 56 79 57 50 58 51 59 62 61 80 62 53 63 40 64 41 65 46 66
REMARK SMILES IDX 42 67 43 68 45 69 47 70 44 71 66 72 67 73 72 74 68 75 69 76
REMARK SMILES IDX 71 77 73 78 70 79 54 80 55 81 60 82 56 83 57 84 59 85 61 86
REMARK SMILES IDX 58 87
REMARK H PARENT 7 13 78 49 52 60
REMARK Flexibility Score: inf
ROOT
ATOM      1  O   UNL A   1      35.034  22.236  25.747  1.00  0.00    -0.376 OA
ENDROOT
BRANCH   1   2
ATOM      2  C   UNL A   1      34.280  21.594  26.756  1.00  0.00     0.202 C 
BRANCH   2   3
ATOM      3  C   UNL A   1      33.219  22.468  27.415  1.00  0.00     0.261 C 
BRANCH   3   4
ATOM      4  O   UNL A   1      32.249  23.082  26.533  1.00  0.00    -0.463 OA
BRANCH   4   5
ATOM      5  C   UNL A   1      31.426  22.539  25.615  1.00  0.00     0.316 C 
ATOM      6  O   UNL A   1      30.554  21.753  25.989  1.00  0.00    -0.251 OA
BRANCH   5   7
ATOM      7  C   UNL A   1      31.638  22.776  24.142  1.00  0.00     0.199 C 
BRANCH   7   8
ATOM      8  S   UNL A   1      32.813  24.106  23.817  1.00  0.00    -0.085 SA
BRANCH   8   9
ATOM      9  C   UNL A   1      31.859  25.269  22.940  1.00  0.00     0.141 C 
ATOM     10  S   UNL A   1      32.196  25.808  21.394  1.00  0.00    -0.052 S 
BRANCH   9  11
ATOM     11  N   UNL A   1      30.637  25.631  23.494  1.00  0.00    -0.307 N 
ATOM     12  C   UNL A   1      30.225  26.209  24.689  1.00  0.00     0.256 C 
ATOM     13  H   UNL A   1      29.882  25.431  22.895  1.00  0.00     0.171 HD
ATOM     14  O   UNL A   1      29.211  25.811  25.256  1.00  0.00    -0.269 OA
BRANCH  12  15
ATOM     15  C   UNL A   1      30.991  27.328  25.279  1.00  0.00     0.040 A 
ATOM     16  C   UNL A   1      31.364  27.251  26.627  1.00  0.00     0.021 A 
ATOM     17  C   UNL A   1      31.242  28.492  24.540  1.00  0.00     0.021 A 
ATOM     18  C   UNL A   1      32.028  28.321  27.233  1.00  0.00     0.086 A 
ATOM     19  C   UNL A   1      31.895  29.573  25.147  1.00  0.00     0.086 A 
ATOM     20  C   UNL A   1      32.292  29.480  26.490  1.00  0.00     0.269 A 
BRANCH  20  21
ATOM     21  N   UNL A   1      32.993  30.606  27.124  1.00  0.00     0.062 N 
ATOM     22  O   UNL A   1      32.401  31.692  27.181  1.00  0.00    -0.258 OA
ATOM     23  O   UNL A   1      34.129  30.395  27.571  1.00  0.00    -0.258 OA
ENDBRANCH  20  21
ENDBRANCH  12  15
ENDBRANCH   9  11
ENDBRANCH   8   9
ENDBRANCH   7   8
ENDBRANCH   5   7
ENDBRANCH   4   5
ENDBRANCH   3   4
ENDBRANCH   2   3
ENDBRANCH   1   2
BRANCH   1  24
ATOM     24  C   UNL A   1      35.766  23.391  26.113  1.00  0.00     0.188 C 
BRANCH  24  25
ATOM     25  C   UNL A   1      37.235  23.400  25.650  1.00  0.00     0.188 C 
BRANCH  25  26
ATOM     26  O   UNL A   1      37.849  22.201  25.198  1.00  0.00    -0.376 OA
BRANCH  26  27
ATOM     27  C   UNL A   1      38.929  21.639  25.929  1.00  0.00     0.202 C 
BRANCH  27  28
ATOM     28  C   UNL A   1      39.449  20.255  25.514  1.00  0.00     0.261 C 
BRANCH  28  29
ATOM     29  O   UNL A   1      40.438  19.686  26.395  1.00  0.00    -0.460 OA
BRANCH  29  30
ATOM     30  C   UNL A   1      41.728  19.777  25.984  1.00  0.00     0.338 C 
ATOM     31  O   UNL A   1      42.317  19.029  25.226  1.00  0.00    -0.246 OA
BRANCH  30  32
ATOM     32  C   UNL A   1      42.330  21.035  26.482  1.00  0.00     0.060 A 
ATOM     33  C   UNL A   1      42.353  21.277  27.863  1.00  0.00     0.016 A 
ATOM     34  C   UNL A   1      42.808  22.001  25.596  1.00  0.00     0.016 A 
ATOM     35  C   UNL A   1      42.851  22.485  28.363  1.00  0.00     0.010 A 
ATOM     36  C   UNL A   1      43.281  23.222  26.097  1.00  0.00     0.010 A 
ATOM     37  C   UNL A   1      43.293  23.480  27.481  1.00  0.00    -0.014 A 
BRANCH  37  38
ATOM     38  C   UNL A   1      43.671  24.830  27.978  1.00  0.00     0.031 A 
ATOM     39  C   UNL A   1      42.588  25.805  28.355  1.00  0.00     0.074 A 
ATOM     40  C   UNL A   1      44.960  25.206  28.055  1.00  0.00     0.049 A 
ATOM     41  N   UNL A   1      42.685  27.075  28.662  1.00  0.00    -0.248 NA
ATOM     42  C   UNL A   1      41.214  25.280  28.389  1.00  0.00     0.031 C 
ATOM     43  C   UNL A   1      46.110  24.352  27.767  1.00  0.00     0.029 A 
ATOM     44  N   UNL A   1      45.518  26.424  28.371  1.00  0.00    -0.354 N 
ATOM     45  C   UNL A   1      41.387  27.505  28.905  1.00  0.00     0.074 A 
ATOM     46  C   UNL A   1      40.519  26.364  28.707  1.00  0.00     0.031 C 
ATOM     47  C   UNL A   1      47.235  25.081  27.882  1.00  0.00     0.029 A 
ATOM     48  C   UNL A   1      46.883  26.463  28.208  1.00  0.00     0.049 A 
ATOM     49  H   UNL A   1      44.990  27.194  28.684  1.00  0.00     0.167 HD
ATOM     50  C   UNL A   1      40.958  28.740  29.259  1.00  0.00     0.037 A 
ATOM     51  C   UNL A   1      47.742  27.500  28.266  1.00  0.00     0.037 A 
ATOM     52  C   UNL A   1      41.817  29.876  29.466  1.00  0.00     0.049 A 
ATOM     53  C   UNL A   1      47.225  28.885  28.572  1.00  0.00     0.074 A 
ATOM     54  C   UNL A   1      41.471  31.152  29.877  1.00  0.00     0.029 A 
ATOM     55  N   UNL A   1      43.187  29.879  29.268  1.00  0.00    -0.354 N 
ATOM     56  N   UNL A   1      46.002  29.271  28.844  1.00  0.00    -0.248 NA
ATOM     57  C   UNL A   1      48.208  29.981  28.569  1.00  0.00     0.031 C 
ATOM     58  C   UNL A   1      42.622  31.944  29.866  1.00  0.00     0.029 A 
ATOM     59  C   UNL A   1      43.694  31.147  29.502  1.00  0.00     0.049 A 
ATOM     60  H   UNL A   1      43.722  29.097  29.000  1.00  0.00     0.167 HD
ATOM     61  C   UNL A   1      46.075  30.642  29.065  1.00  0.00     0.074 A 
ATOM     62  C   UNL A   1      47.463  31.020  28.917  1.00  0.00     0.031 C 
ATOM     63  C   UNL A   1      45.079  31.513  29.359  1.00  0.00     0.037 A 
BRANCH  50  64
ATOM     64  C   UNL A   1      39.481  28.954  29.417  1.00  0.00     0.057 A 
ATOM     65  C   UNL A   1      38.849  28.862  30.661  1.00  0.00     0.134 A 
ATOM     66  C   UNL A   1      38.704  29.351  28.320  1.00  0.00     0.134 A 
ATOM     67  F   UNL A   1      39.536  28.480  31.748  1.00  0.00    -0.206 F 
ATOM     68  C   UNL A   1      37.491  29.153  30.810  1.00  0.00     0.040 A 
ATOM     69  C   UNL A   1      37.352  29.667  28.460  1.00  0.00     0.040 A 
ATOM     70  F   UNL A   1      39.253  29.467  27.102  1.00  0.00    -0.206 F 
ATOM     71  C   UNL A   1      36.742  29.567  29.709  1.00  0.00     0.006 A 
ENDBRANCH  50  64
BRANCH  51  72
ATOM     72  C   UNL A   1      49.185  27.303  27.963  1.00  0.00     0.057 A 
ATOM     73  C   UNL A   1      49.669  27.361  26.651  1.00  0.00     0.134 A 
ATOM     74  C   UNL A   1      50.101  26.977  28.971  1.00  0.00     0.134 A 
ATOM     75  F   UNL A   1      48.837  27.638  25.636  1.00  0.00    -0.206 F 
ATOM     76  C   UNL A   1      51.001  27.074  26.348  1.00  0.00     0.040 A 
ATOM     77  C   UNL A   1      51.443  26.716  28.687  1.00  0.00     0.040 A 
ATOM     78  F   UNL A   1      49.704  26.905  30.251  1.00  0.00    -0.206 F 
ATOM     79  C   UNL A   1      51.893  26.752  27.370  1.00  0.00     0.006 A 
ENDBRANCH  51  72
BRANCH  63  80
ATOM     80  C   UNL A   1      45.449  32.954  29.565  1.00  0.00     0.057 A 
ATOM     81  C   UNL A   1      45.835  33.444  30.820  1.00  0.00     0.134 A 
ATOM     82  C   UNL A   1      45.471  33.851  28.488  1.00  0.00     0.134 A 
ATOM     83  F   UNL A   1      45.823  32.642  31.895  1.00  0.00    -0.206 F 
ATOM     84  C   UNL A   1      46.213  34.776  30.998  1.00  0.00     0.040 A 
ATOM     85  C   UNL A   1      45.872  35.177  28.649  1.00  0.00     0.040 A 
ATOM     86  F   UNL A   1      45.121  33.445  27.258  1.00  0.00    -0.206 F 
ATOM     87  C   UNL A   1      46.241  35.644  29.908  1.00  0.00     0.006 A 
ENDBRANCH  63  80
ENDBRANCH  37  38
ENDBRANCH  30  32
ENDBRANCH  29  30
ENDBRANCH  28  29
ENDBRANCH  27  28
ENDBRANCH  26  27
ENDBRANCH  25  26
ENDBRANCH  24  25
ENDBRANCH   1  24
TORSDOF 22
ENDMDL
