MODEL 1
REMARK VINA RESULT:     -10.8      0.000      0.000
REMARK SMILES CCOC(=O)c1c(S(=O)(=O)N2CCC[C@@H](C(=O)OCCOCCOCCOC(=O)c3ccc(-c4c5nc(c(-c6c(F)cccc6F)c6ccc([nH]6)c(-c6c(F)cccc6F)c6nc(c(-c7c(F)cccc7F)c7ccc4[nH]7)C=C6)C=C5)cc3)C2)c(C)n(C)c1C
REMARK SMILES IDX 21 1 20 2 19 3 18 4 16 5 17 6 15 7 11 8 12 9 84 10 13 11
REMARK SMILES IDX 14 12 8 13 9 14 10 15 7 16 6 17 89 18 85 19 87 20 90 21
REMARK SMILES IDX 86 22 88 23 4 24 5 25 3 26 2 27 1 28 22 29 23 30 24 31 25 32
REMARK SMILES IDX 26 33 27 34 28 35 29 36 30 37 31 38 83 39 32 40 82 41 33 42
REMARK SMILES IDX 34 43 35 44 76 45 36 46 81 47 75 48 77 49 37 50 80 51 74 52
REMARK SMILES IDX 73 53 38 55 64 56 47 57 63 58 48 59 51 60 62 61 78 62 49 63
REMARK SMILES IDX 50 64 61 66 79 67 52 68 39 69 40 70 45 71 41 72 42 73 44 74
REMARK SMILES IDX 46 75 43 76 65 77 66 78 71 79 67 80 68 81 70 82 72 83 69 84
REMARK SMILES IDX 53 85 54 86 59 87 55 88 56 89 58 90 60 91 57 92
REMARK H PARENT 77 54 51 65
REMARK Flexibility Score: inf
ROOT
ATOM      1  O   UNL A   1      37.827  21.805  25.434  1.00  0.00    -0.376 OA
ENDROOT
BRANCH   1   2
ATOM      2  C   UNL A   1      37.456  23.161  25.244  1.00  0.00     0.202 C 
BRANCH   2   3
ATOM      3  C   UNL A   1      36.103  23.610  24.654  1.00  0.00     0.261 C 
BRANCH   3   4
ATOM      4  O   UNL A   1      34.951  22.791  24.915  1.00  0.00    -0.463 OA
BRANCH   4   5
ATOM      5  C   UNL A   1      34.095  23.208  25.885  1.00  0.00     0.310 C 
ATOM      6  O   UNL A   1      34.384  23.242  27.075  1.00  0.00    -0.252 OA
BRANCH   5   7
ATOM      7  C   UNL A   1      32.786  23.763  25.322  1.00  0.00     0.114 C 
ATOM      8  N   UNL A   1      31.878  25.481  23.688  1.00  0.00    -0.197 NA
ATOM      9  C   UNL A   1      31.095  24.454  22.984  1.00  0.00     0.102 C 
ATOM     10  C   UNL A   1      32.966  25.105  24.614  1.00  0.00     0.117 C 
ATOM     11  C   UNL A   1      30.845  23.230  23.845  1.00  0.00     0.018 C 
ATOM     12  C   UNL A   1      32.131  22.702  24.444  1.00  0.00     0.018 C 
BRANCH   8  13
ATOM     13  S   UNL A   1      32.074  26.949  22.872  1.00  0.00     0.245 S 
ATOM     14  O   UNL A   1      31.164  26.940  21.745  1.00  0.00    -0.207 OA
ATOM     15  O   UNL A   1      33.492  27.172  22.679  1.00  0.00    -0.207 OA
BRANCH  13  16
ATOM     16  C   UNL A   1      31.557  28.366  23.756  1.00  0.00     0.118 A 
ATOM     17  C   UNL A   1      30.450  29.251  23.539  1.00  0.00     0.101 A 
ATOM     18  C   UNL A   1      30.587  30.289  24.466  1.00  0.00     0.030 A 
ATOM     19  C   UNL A   1      32.288  28.862  24.837  1.00  0.00     0.035 A 
ATOM     20  N   UNL A   1      31.684  30.024  25.254  1.00  0.00    -0.350 N 
ATOM     21  C   UNL A   1      29.722  31.488  24.689  1.00  0.00     0.065 C 
ATOM     22  C   UNL A   1      33.515  28.292  25.477  1.00  0.00     0.066 C 
ATOM     23  C   UNL A   1      32.130  30.822  26.380  1.00  0.00     0.149 C 
BRANCH  17  24
ATOM     24  C   UNL A   1      29.307  29.179  22.636  1.00  0.00     0.341 C 
ATOM     25  O   UNL A   1      28.275  28.580  22.900  1.00  0.00    -0.246 OA
BRANCH  24  26
ATOM     26  O   UNL A   1      29.471  29.952  21.519  1.00  0.00    -0.462 OA
BRANCH  26  27
ATOM     27  C   UNL A   1      28.287  30.608  21.035  1.00  0.00     0.230 C 
ATOM     28  C   UNL A   1      28.221  32.054  21.455  1.00  0.00     0.049 C 
ENDBRANCH  26  27
ENDBRANCH  24  26
ENDBRANCH  17  24
ENDBRANCH  13  16
ENDBRANCH   8  13
ENDBRANCH   5   7
ENDBRANCH   4   5
ENDBRANCH   3   4
ENDBRANCH   2   3
ENDBRANCH   1   2
BRANCH   1  29
ATOM     29  C   UNL A   1      39.148  21.484  25.809  1.00  0.00     0.188 C 
BRANCH  29  30
ATOM     30  C   UNL A   1      39.771  22.130  27.067  1.00  0.00     0.188 C 
BRANCH  30  31
ATOM     31  O   UNL A   1      40.723  21.395  27.803  1.00  0.00    -0.376 OA
BRANCH  31  32
ATOM     32  C   UNL A   1      41.162  20.084  27.479  1.00  0.00     0.202 C 
BRANCH  32  33
ATOM     33  C   UNL A   1      42.309  19.720  26.534  1.00  0.00     0.261 C 
BRANCH  33  34
ATOM     34  O   UNL A   1      43.057  20.819  26.081  1.00  0.00    -0.460 OA
BRANCH  34  35
ATOM     35  C   UNL A   1      43.908  20.515  25.088  1.00  0.00     0.338 C 
ATOM     36  O   UNL A   1      44.036  19.441  24.510  1.00  0.00    -0.246 OA
BRANCH  35  37
ATOM     37  C   UNL A   1      44.641  21.735  24.739  1.00  0.00     0.060 A 
ATOM     38  C   UNL A   1      45.829  21.940  25.443  1.00  0.00     0.016 A 
ATOM     39  C   UNL A   1      43.874  22.773  24.211  1.00  0.00     0.016 A 
ATOM     40  C   UNL A   1      45.955  23.147  26.067  1.00  0.00     0.010 A 
ATOM     41  C   UNL A   1      43.974  23.960  24.857  1.00  0.00     0.010 A 
ATOM     42  C   UNL A   1      44.914  24.056  25.883  1.00  0.00    -0.014 A 
BRANCH  42  43
ATOM     43  C   UNL A   1      44.743  25.116  26.839  1.00  0.00     0.031 A 
ATOM     44  C   UNL A   1      45.878  26.049  26.803  1.00  0.00     0.074 A 
ATOM     45  C   UNL A   1      43.582  25.241  27.510  1.00  0.00     0.049 A 
ATOM     46  N   UNL A   1      46.831  26.164  27.667  1.00  0.00    -0.248 NA
ATOM     47  C   UNL A   1      46.142  26.726  25.521  1.00  0.00     0.031 C 
ATOM     48  C   UNL A   1      42.340  24.467  27.368  1.00  0.00     0.029 A 
ATOM     49  N   UNL A   1      43.241  26.195  28.415  1.00  0.00    -0.354 N 
ATOM     50  C   UNL A   1      47.677  27.114  27.112  1.00  0.00     0.074 A 
ATOM     51  C   UNL A   1      47.392  27.142  25.709  1.00  0.00     0.031 C 
ATOM     52  C   UNL A   1      41.329  25.125  27.983  1.00  0.00     0.029 A 
ATOM     53  C   UNL A   1      41.871  26.290  28.654  1.00  0.00     0.049 A 
ATOM     54  H   UNL A   1      43.904  26.769  28.864  1.00  0.00     0.167 HD
ATOM     55  C   UNL A   1      48.253  28.074  27.882  1.00  0.00     0.037 A 
ATOM     56  C   UNL A   1      41.277  27.343  29.272  1.00  0.00     0.037 A 
ATOM     57  C   UNL A   1      48.237  27.693  29.272  1.00  0.00     0.049 A 
ATOM     58  C   UNL A   1      42.356  28.074  30.000  1.00  0.00     0.074 A 
ATOM     59  C   UNL A   1      48.774  26.643  29.990  1.00  0.00     0.029 A 
ATOM     60  N   UNL A   1      47.243  28.221  30.061  1.00  0.00    -0.354 N 
ATOM     61  N   UNL A   1      43.005  27.569  31.014  1.00  0.00    -0.248 NA
ATOM     62  C   UNL A   1      43.061  29.119  29.266  1.00  0.00     0.031 C 
ATOM     63  C   UNL A   1      47.785  26.308  30.959  1.00  0.00     0.029 A 
ATOM     64  C   UNL A   1      46.728  27.211  30.834  1.00  0.00     0.049 A 
ATOM     65  H   UNL A   1      46.949  29.161  30.069  1.00  0.00     0.167 HD
ATOM     66  C   UNL A   1      44.333  27.921  30.802  1.00  0.00     0.074 A 
ATOM     67  C   UNL A   1      44.297  28.917  29.732  1.00  0.00     0.031 C 
ATOM     68  C   UNL A   1      45.358  27.162  31.295  1.00  0.00     0.037 A 
BRANCH  55  69
ATOM     69  C   UNL A   1      48.447  29.498  27.419  1.00  0.00     0.057 A 
ATOM     70  C   UNL A   1      49.741  30.035  27.441  1.00  0.00     0.134 A 
ATOM     71  C   UNL A   1      47.416  30.441  27.195  1.00  0.00     0.134 A 
ATOM     72  F   UNL A   1      50.808  29.250  27.653  1.00  0.00    -0.206 F 
ATOM     73  C   UNL A   1      49.985  31.409  27.319  1.00  0.00     0.040 A 
ATOM     74  C   UNL A   1      47.653  31.804  27.014  1.00  0.00     0.040 A 
ATOM     75  F   UNL A   1      46.115  30.135  27.230  1.00  0.00    -0.206 F 
ATOM     76  C   UNL A   1      48.938  32.299  27.112  1.00  0.00     0.006 A 
ENDBRANCH  55  69
BRANCH  56  77
ATOM     77  C   UNL A   1      39.965  27.959  28.959  1.00  0.00     0.057 A 
ATOM     78  C   UNL A   1      38.928  28.005  29.901  1.00  0.00     0.134 A 
ATOM     79  C   UNL A   1      39.786  28.753  27.811  1.00  0.00     0.134 A 
ATOM     80  F   UNL A   1      39.027  27.327  31.054  1.00  0.00    -0.206 F 
ATOM     81  C   UNL A   1      37.781  28.793  29.714  1.00  0.00     0.040 A 
ATOM     82  C   UNL A   1      38.648  29.540  27.609  1.00  0.00     0.040 A 
ATOM     83  F   UNL A   1      40.752  28.861  26.888  1.00  0.00    -0.206 F 
ATOM     84  C   UNL A   1      37.642  29.570  28.566  1.00  0.00     0.006 A 
ENDBRANCH  56  77
BRANCH  68  85
ATOM     85  C   UNL A   1      45.003  26.028  32.224  1.00  0.00     0.057 A 
ATOM     86  C   UNL A   1      44.698  26.199  33.584  1.00  0.00     0.134 A 
ATOM     87  C   UNL A   1      44.786  24.757  31.688  1.00  0.00     0.134 A 
ATOM     88  F   UNL A   1      44.782  27.403  34.163  1.00  0.00    -0.206 F 
ATOM     89  C   UNL A   1      44.230  25.148  34.379  1.00  0.00     0.040 A 
ATOM     90  C   UNL A   1      44.287  23.705  32.461  1.00  0.00     0.040 A 
ATOM     91  F   UNL A   1      44.996  24.532  30.381  1.00  0.00    -0.206 F 
ATOM     92  C   UNL A   1      44.014  23.896  33.813  1.00  0.00     0.006 A 
ENDBRANCH  68  85
ENDBRANCH  42  43
ENDBRANCH  35  37
ENDBRANCH  34  35
ENDBRANCH  33  34
ENDBRANCH  32  33
ENDBRANCH  31  32
ENDBRANCH  30  31
ENDBRANCH  29  30
ENDBRANCH   1  29
TORSDOF 22
ENDMDL
MODEL 2
REMARK VINA RESULT:     -10.6      3.234      5.677
REMARK SMILES CCOC(=O)c1c(S(=O)(=O)N2CCC[C@@H](C(=O)OCCOCCOCCOC(=O)c3ccc(-c4c5nc(c(-c6c(F)cccc6F)c6ccc([nH]6)c(-c6c(F)cccc6F)c6nc(c(-c7c(F)cccc7F)c7ccc4[nH]7)C=C6)C=C5)cc3)C2)c(C)n(C)c1C
REMARK SMILES IDX 21 1 20 2 19 3 18 4 16 5 17 6 15 7 11 8 12 9 84 10 13 11
REMARK SMILES IDX 14 12 8 13 9 14 10 15 7 16 6 17 89 18 85 19 87 20 90 21
REMARK SMILES IDX 86 22 88 23 4 24 5 25 3 26 2 27 1 28 22 29 23 30 24 31 25 32
REMARK SMILES IDX 26 33 27 34 28 35 29 36 30 37 31 38 83 39 32 40 82 41 33 42
REMARK SMILES IDX 34 43 35 44 76 45 36 46 81 47 75 48 77 49 37 50 80 51 74 52
REMARK SMILES IDX 73 53 38 55 64 56 47 57 63 58 48 59 51 60 62 61 78 62 49 63
REMARK SMILES IDX 50 64 61 66 79 67 52 68 39 69 40 70 45 71 41 72 42 73 44 74
REMARK SMILES IDX 46 75 43 76 65 77 66 78 71 79 67 80 68 81 70 82 72 83 69 84
REMARK SMILES IDX 53 85 54 86 59 87 55 88 56 89 58 90 60 91 57 92
REMARK H PARENT 77 54 51 65
REMARK Flexibility Score: inf
ROOT
ATOM      1  O   UNL A   1      43.926  18.289  24.918  1.00  0.00    -0.376 OA
ENDROOT
BRANCH   1   2
ATOM      2  C   UNL A   1      43.533  18.285  26.281  1.00  0.00     0.202 C 
BRANCH   2   3
ATOM      3  C   UNL A   1      42.261  18.977  26.814  1.00  0.00     0.261 C 
BRANCH   3   4
ATOM      4  O   UNL A   1      41.321  19.486  25.854  1.00  0.00    -0.463 OA
BRANCH   4   5
ATOM      5  C   UNL A   1      40.718  20.670  26.138  1.00  0.00     0.310 C 
ATOM      6  O   UNL A   1      41.328  21.721  26.299  1.00  0.00    -0.252 OA
BRANCH   5   7
ATOM      7  C   UNL A   1      39.192  20.584  26.093  1.00  0.00     0.114 C 
ATOM      8  N   UNL A   1      37.141  21.813  25.240  1.00  0.00    -0.197 NA
ATOM      9  C   UNL A   1      36.671  20.615  24.528  1.00  0.00     0.102 C 
ATOM     10  C   UNL A   1      38.532  21.913  25.726  1.00  0.00     0.117 C 
ATOM     11  C   UNL A   1      37.275  19.341  25.086  1.00  0.00     0.018 C 
ATOM     12  C   UNL A   1      38.783  19.435  25.177  1.00  0.00     0.018 C 
BRANCH   8  13
ATOM     13  S   UNL A   1      36.404  23.270  24.800  1.00  0.00     0.245 S 
ATOM     14  O   UNL A   1      36.617  23.449  23.378  1.00  0.00    -0.207 OA
ATOM     15  O   UNL A   1      36.816  24.288  25.745  1.00  0.00    -0.207 OA
BRANCH  13  16
ATOM     16  C   UNL A   1      34.660  23.287  24.919  1.00  0.00     0.118 A 
ATOM     17  C   UNL A   1      33.667  23.821  24.033  1.00  0.00     0.101 A 
ATOM     18  C   UNL A   1      32.438  23.674  24.683  1.00  0.00     0.030 A 
ATOM     19  C   UNL A   1      33.998  22.787  26.042  1.00  0.00     0.035 A 
ATOM     20  N   UNL A   1      32.655  23.027  25.879  1.00  0.00    -0.350 N 
ATOM     21  C   UNL A   1      31.067  24.059  24.228  1.00  0.00     0.065 C 
ATOM     22  C   UNL A   1      34.576  22.104  27.242  1.00  0.00     0.066 C 
ATOM     23  C   UNL A   1      31.629  22.623  26.820  1.00  0.00     0.149 C 
BRANCH  17  24
ATOM     24  C   UNL A   1      33.757  24.364  22.683  1.00  0.00     0.341 C 
ATOM     25  O   UNL A   1      33.450  23.735  21.680  1.00  0.00    -0.246 OA
BRANCH  24  26
ATOM     26  O   UNL A   1      34.107  25.686  22.671  1.00  0.00    -0.462 OA
BRANCH  26  27
ATOM     27  C   UNL A   1      33.294  26.540  21.848  1.00  0.00     0.230 C 
ATOM     28  C   UNL A   1      33.507  28.001  22.155  1.00  0.00     0.049 C 
ENDBRANCH  26  27
ENDBRANCH  24  26
ENDBRANCH  17  24
ENDBRANCH  13  16
ENDBRANCH   8  13
ENDBRANCH   5   7
ENDBRANCH   4   5
ENDBRANCH   3   4
ENDBRANCH   2   3
ENDBRANCH   1   2
BRANCH   1  29
ATOM     29  C   UNL A   1      44.706  19.350  24.414  1.00  0.00     0.188 C 
BRANCH  29  30
ATOM     30  C   UNL A   1      45.996  19.776  25.150  1.00  0.00     0.188 C 
BRANCH  30  31
ATOM     31  O   UNL A   1      46.272  21.152  25.288  1.00  0.00    -0.376 OA
BRANCH  31  32
ATOM     32  C   UNL A   1      45.294  22.157  25.511  1.00  0.00     0.202 C 
BRANCH  32  33
ATOM     33  C   UNL A   1      44.827  23.207  24.501  1.00  0.00     0.261 C 
BRANCH  33  34
ATOM     34  O   UNL A   1      43.542  23.717  24.747  1.00  0.00    -0.460 OA
BRANCH  34  35
ATOM     35  C   UNL A   1      43.549  24.915  25.353  1.00  0.00     0.338 C 
ATOM     36  O   UNL A   1      44.331  25.843  25.175  1.00  0.00    -0.246 OA
BRANCH  35  37
ATOM     37  C   UNL A   1      42.386  24.971  26.244  1.00  0.00     0.060 A 
ATOM     38  C   UNL A   1      41.337  25.779  25.805  1.00  0.00     0.016 A 
ATOM     39  C   UNL A   1      42.641  24.708  27.589  1.00  0.00     0.016 A 
ATOM     40  C   UNL A   1      40.899  26.724  26.687  1.00  0.00     0.010 A 
ATOM     41  C   UNL A   1      42.238  25.667  28.457  1.00  0.00     0.010 A 
ATOM     42  C   UNL A   1      41.508  26.737  27.940  1.00  0.00    -0.014 A 
BRANCH  42  43
ATOM     43  C   UNL A   1      41.451  27.939  28.727  1.00  0.00     0.031 A 
ATOM     44  C   UNL A   1      42.605  28.807  28.451  1.00  0.00     0.074 A 
ATOM     45  C   UNL A   1      40.357  28.215  29.463  1.00  0.00     0.049 A 
ATOM     46  N   UNL A   1      43.633  29.014  29.205  1.00  0.00    -0.248 NA
ATOM     47  C   UNL A   1      42.775  29.265  27.061  1.00  0.00     0.031 C 
ATOM     48  C   UNL A   1      39.086  27.481  29.547  1.00  0.00     0.029 A 
ATOM     49  N   UNL A   1      40.124  29.311  30.232  1.00  0.00    -0.354 N 
ATOM     50  C   UNL A   1      44.453  29.831  28.440  1.00  0.00     0.074 A 
ATOM     51  C   UNL A   1      44.047  29.653  27.078  1.00  0.00     0.031 C 
ATOM     52  C   UNL A   1      38.152  28.267  30.132  1.00  0.00     0.029 A 
ATOM     53  C   UNL A   1      38.783  29.499  30.564  1.00  0.00     0.049 A 
ATOM     54  H   UNL A   1      40.839  29.920  30.527  1.00  0.00     0.167 HD
ATOM     55  C   UNL A   1      45.122  30.874  28.998  1.00  0.00     0.037 A 
ATOM     56  C   UNL A   1      38.276  30.659  31.054  1.00  0.00     0.037 A 
ATOM     57  C   UNL A   1      45.216  30.713  30.428  1.00  0.00     0.049 A 
ATOM     58  C   UNL A   1      39.435  31.448  31.566  1.00  0.00     0.074 A 
ATOM     59  C   UNL A   1      45.785  29.766  31.256  1.00  0.00     0.029 A 
ATOM     60  N   UNL A   1      44.310  31.399  31.202  1.00  0.00    -0.354 N 
ATOM     61  N   UNL A   1      40.156  31.079  32.591  1.00  0.00    -0.248 NA
ATOM     62  C   UNL A   1      40.102  32.336  30.622  1.00  0.00     0.031 C 
ATOM     63  C   UNL A   1      44.875  29.627  32.344  1.00  0.00     0.029 A 
ATOM     64  C   UNL A   1      43.837  30.543  32.165  1.00  0.00     0.049 A 
ATOM     65  H   UNL A   1      44.046  32.340  31.086  1.00  0.00     0.167 HD
ATOM     66  C   UNL A   1      41.470  31.339  32.218  1.00  0.00     0.074 A 
ATOM     67  C   UNL A   1      41.369  32.157  31.011  1.00  0.00     0.031 C 
ATOM     68  C   UNL A   1      42.512  30.623  32.738  1.00  0.00     0.037 A 
BRANCH  55  69
ATOM     69  C   UNL A   1      45.314  32.200  28.302  1.00  0.00     0.057 A 
ATOM     70  C   UNL A   1      44.187  33.000  28.068  1.00  0.00     0.134 A 
ATOM     71  C   UNL A   1      46.489  32.617  27.632  1.00  0.00     0.134 A 
ATOM     72  F   UNL A   1      43.008  32.708  28.636  1.00  0.00    -0.206 F 
ATOM     73  C   UNL A   1      44.210  34.085  27.185  1.00  0.00     0.040 A 
ATOM     74  C   UNL A   1      46.535  33.732  26.795  1.00  0.00     0.040 A 
ATOM     75  F   UNL A   1      47.637  31.933  27.658  1.00  0.00    -0.206 F 
ATOM     76  C   UNL A   1      45.384  34.451  26.540  1.00  0.00     0.006 A 
ENDBRANCH  55  69
BRANCH  56  77
ATOM     77  C   UNL A   1      36.960  31.273  30.757  1.00  0.00     0.057 A 
ATOM     78  C   UNL A   1      36.057  31.613  31.775  1.00  0.00     0.134 A 
ATOM     79  C   UNL A   1      36.663  31.783  29.479  1.00  0.00     0.134 A 
ATOM     80  F   UNL A   1      36.280  31.222  33.038  1.00  0.00    -0.206 F 
ATOM     81  C   UNL A   1      34.928  32.412  31.536  1.00  0.00     0.040 A 
ATOM     82  C   UNL A   1      35.540  32.577  29.227  1.00  0.00     0.040 A 
ATOM     83  F   UNL A   1      37.504  31.601  28.450  1.00  0.00    -0.206 F 
ATOM     84  C   UNL A   1      34.670  32.903  30.259  1.00  0.00     0.006 A 
ENDBRANCH  56  77
BRANCH  68  85
ATOM     85  C   UNL A   1      42.208  29.663  33.861  1.00  0.00     0.057 A 
ATOM     86  C   UNL A   1      41.888  28.309  33.666  1.00  0.00     0.134 A 
ATOM     87  C   UNL A   1      42.425  30.072  35.179  1.00  0.00     0.134 A 
ATOM     88  F   UNL A   1      41.758  27.802  32.434  1.00  0.00    -0.206 F 
ATOM     89  C   UNL A   1      41.760  27.414  34.733  1.00  0.00     0.040 A 
ATOM     90  C   UNL A   1      42.332  29.182  36.253  1.00  0.00     0.040 A 
ATOM     91  F   UNL A   1      42.793  31.336  35.439  1.00  0.00    -0.206 F 
ATOM     92  C   UNL A   1      41.991  27.850  36.033  1.00  0.00     0.006 A 
ENDBRANCH  68  85
ENDBRANCH  42  43
ENDBRANCH  35  37
ENDBRANCH  34  35
ENDBRANCH  33  34
ENDBRANCH  32  33
ENDBRANCH  31  32
ENDBRANCH  30  31
ENDBRANCH  29  30
ENDBRANCH   1  29
TORSDOF 22
ENDMDL
MODEL 3
REMARK VINA RESULT:     -10.4      1.338      2.256
REMARK SMILES CCOC(=O)c1c(S(=O)(=O)N2CCC[C@@H](C(=O)OCCOCCOCCOC(=O)c3ccc(-c4c5nc(c(-c6c(F)cccc6F)c6ccc([nH]6)c(-c6c(F)cccc6F)c6nc(c(-c7c(F)cccc7F)c7ccc4[nH]7)C=C6)C=C5)cc3)C2)c(C)n(C)c1C
REMARK SMILES IDX 21 1 20 2 19 3 18 4 16 5 17 6 15 7 11 8 12 9 84 10 13 11
REMARK SMILES IDX 14 12 8 13 9 14 10 15 7 16 6 17 89 18 85 19 87 20 90 21
REMARK SMILES IDX 86 22 88 23 4 24 5 25 3 26 2 27 1 28 22 29 23 30 24 31 25 32
REMARK SMILES IDX 26 33 27 34 28 35 29 36 30 37 31 38 83 39 32 40 82 41 33 42
REMARK SMILES IDX 34 43 35 44 76 45 36 46 81 47 75 48 77 49 37 50 80 51 74 52
REMARK SMILES IDX 73 53 38 55 64 56 47 57 63 58 48 59 51 60 62 61 78 62 49 63
REMARK SMILES IDX 50 64 61 66 79 67 52 68 39 69 40 70 45 71 41 72 42 73 44 74
REMARK SMILES IDX 46 75 43 76 65 77 66 78 71 79 67 80 68 81 70 82 72 83 69 84
REMARK SMILES IDX 53 85 54 86 59 87 55 88 56 89 58 90 60 91 57 92
REMARK H PARENT 77 54 51 65
REMARK Flexibility Score: inf
ROOT
ATOM      1  O   UNL A   1      37.925  21.814  25.625  1.00  0.00    -0.376 OA
ENDROOT
BRANCH   1   2
ATOM      2  C   UNL A   1      37.560  23.183  25.703  1.00  0.00     0.202 C 
BRANCH   2   3
ATOM      3  C   UNL A   1      36.127  23.707  25.467  1.00  0.00     0.261 C 
BRANCH   3   4
ATOM      4  O   UNL A   1      35.208  22.856  24.763  1.00  0.00    -0.463 OA
BRANCH   4   5
ATOM      5  C   UNL A   1      34.354  22.107  25.509  1.00  0.00     0.310 C 
ATOM      6  O   UNL A   1      34.714  21.396  26.440  1.00  0.00    -0.252 OA
BRANCH   5   7
ATOM      7  C   UNL A   1      32.887  22.353  25.157  1.00  0.00     0.114 C 
ATOM      8  N   UNL A   1      31.122  24.177  25.093  1.00  0.00    -0.197 NA
ATOM      9  C   UNL A   1      30.835  23.902  23.677  1.00  0.00     0.102 C 
ATOM     10  C   UNL A   1      32.350  23.662  25.734  1.00  0.00     0.117 C 
ATOM     11  C   UNL A   1      31.271  22.510  23.261  1.00  0.00     0.018 C 
ATOM     12  C   UNL A   1      32.709  22.241  23.647  1.00  0.00     0.018 C 
BRANCH   8  13
ATOM     13  S   UNL A   1      30.529  25.641  25.696  1.00  0.00     0.245 S 
ATOM     14  O   UNL A   1      31.586  26.242  26.485  1.00  0.00    -0.207 OA
ATOM     15  O   UNL A   1      29.222  25.396  26.271  1.00  0.00    -0.207 OA
BRANCH  13  16
ATOM     16  C   UNL A   1      30.220  26.870  24.492  1.00  0.00     0.118 A 
ATOM     17  C   UNL A   1      31.094  27.840  23.900  1.00  0.00     0.101 A 
ATOM     18  C   UNL A   1      30.292  28.654  23.095  1.00  0.00     0.030 A 
ATOM     19  C   UNL A   1      28.938  27.092  23.985  1.00  0.00     0.035 A 
ATOM     20  N   UNL A   1      29.003  28.173  23.139  1.00  0.00    -0.350 N 
ATOM     21  C   UNL A   1      30.671  29.826  22.247  1.00  0.00     0.065 C 
ATOM     22  C   UNL A   1      27.677  26.336  24.266  1.00  0.00     0.066 C 
ATOM     23  C   UNL A   1      27.878  28.695  22.388  1.00  0.00     0.149 C 
BRANCH  17  24
ATOM     24  C   UNL A   1      32.540  28.018  23.966  1.00  0.00     0.341 C 
ATOM     25  O   UNL A   1      33.079  28.960  24.527  1.00  0.00    -0.246 OA
BRANCH  24  26
ATOM     26  O   UNL A   1      33.224  26.958  23.435  1.00  0.00    -0.462 OA
BRANCH  26  27
ATOM     27  C   UNL A   1      33.395  26.977  22.008  1.00  0.00     0.230 C 
ATOM     28  C   UNL A   1      32.531  25.954  21.315  1.00  0.00     0.049 C 
ENDBRANCH  26  27
ENDBRANCH  24  26
ENDBRANCH  17  24
ENDBRANCH  13  16
ENDBRANCH   8  13
ENDBRANCH   5   7
ENDBRANCH   4   5
ENDBRANCH   3   4
ENDBRANCH   2   3
ENDBRANCH   1   2
BRANCH   1  29
ATOM     29  C   UNL A   1      39.274  21.436  25.784  1.00  0.00     0.188 C 
BRANCH  29  30
ATOM     30  C   UNL A   1      40.049  21.860  27.052  1.00  0.00     0.188 C 
BRANCH  30  31
ATOM     31  O   UNL A   1      40.872  20.909  27.690  1.00  0.00    -0.376 OA
BRANCH  31  32
ATOM     32  C   UNL A   1      41.316  19.696  27.101  1.00  0.00     0.202 C 
BRANCH  32  33
ATOM     33  C   UNL A   1      42.681  19.450  26.454  1.00  0.00     0.261 C 
BRANCH  33  34
ATOM     34  O   UNL A   1      43.281  20.598  25.912  1.00  0.00    -0.460 OA
BRANCH  34  35
ATOM     35  C   UNL A   1      44.042  20.346  24.835  1.00  0.00     0.338 C 
ATOM     36  O   UNL A   1      44.073  19.323  24.158  1.00  0.00    -0.246 OA
BRANCH  35  37
ATOM     37  C   UNL A   1      44.811  21.558  24.538  1.00  0.00     0.060 A 
ATOM     38  C   UNL A   1      45.970  21.730  25.297  1.00  0.00     0.016 A 
ATOM     39  C   UNL A   1      44.086  22.617  23.994  1.00  0.00     0.016 A 
ATOM     40  C   UNL A   1      46.089  22.925  25.946  1.00  0.00     0.010 A 
ATOM     41  C   UNL A   1      44.178  23.792  24.664  1.00  0.00     0.010 A 
ATOM     42  C   UNL A   1      45.074  23.855  25.732  1.00  0.00    -0.014 A 
BRANCH  42  43
ATOM     43  C   UNL A   1      44.879  24.903  26.697  1.00  0.00     0.031 A 
ATOM     44  C   UNL A   1      46.045  25.796  26.750  1.00  0.00     0.074 A 
ATOM     45  C   UNL A   1      43.683  25.056  27.297  1.00  0.00     0.049 A 
ATOM     46  N   UNL A   1      46.945  25.862  27.673  1.00  0.00    -0.248 NA
ATOM     47  C   UNL A   1      46.411  26.487  25.500  1.00  0.00     0.031 C 
ATOM     48  C   UNL A   1      42.427  24.329  27.062  1.00  0.00     0.029 A 
ATOM     49  N   UNL A   1      43.318  26.005  28.199  1.00  0.00    -0.354 N 
ATOM     50  C   UNL A   1      47.856  26.792  27.191  1.00  0.00     0.074 A 
ATOM     51  C   UNL A   1      47.660  26.855  25.774  1.00  0.00     0.031 C 
ATOM     52  C   UNL A   1      41.402  25.010  27.627  1.00  0.00     0.029 A 
ATOM     53  C   UNL A   1      41.940  26.143  28.354  1.00  0.00     0.049 A 
ATOM     54  H   UNL A   1      43.971  26.547  28.699  1.00  0.00     0.167 HD
ATOM     55  C   UNL A   1      48.415  27.717  28.014  1.00  0.00     0.037 A 
ATOM     56  C   UNL A   1      41.345  27.205  28.955  1.00  0.00     0.037 A 
ATOM     57  C   UNL A   1      48.298  27.311  29.393  1.00  0.00     0.049 A 
ATOM     58  C   UNL A   1      42.400  27.884  29.763  1.00  0.00     0.074 A 
ATOM     59  C   UNL A   1      48.755  26.230  30.121  1.00  0.00     0.029 A 
ATOM     60  N   UNL A   1      47.276  27.860  30.129  1.00  0.00    -0.354 N 
ATOM     61  N   UNL A   1      42.967  27.338  30.805  1.00  0.00    -0.248 NA
ATOM     62  C   UNL A   1      43.184  28.917  29.096  1.00  0.00     0.031 C 
ATOM     63  C   UNL A   1      47.696  25.913  31.020  1.00  0.00     0.029 A 
ATOM     64  C   UNL A   1      46.680  26.854  30.849  1.00  0.00     0.049 A 
ATOM     65  H   UNL A   1      47.014  28.809  30.138  1.00  0.00     0.167 HD
ATOM     66  C   UNL A   1      44.317  27.648  30.683  1.00  0.00     0.074 A 
ATOM     67  C   UNL A   1      44.382  28.663  29.634  1.00  0.00     0.031 C 
ATOM     68  C   UNL A   1      45.283  26.844  31.222  1.00  0.00     0.037 A 
BRANCH  55  69
ATOM     69  C   UNL A   1      48.685  29.142  27.593  1.00  0.00     0.057 A 
ATOM     70  C   UNL A   1      49.991  29.636  27.717  1.00  0.00     0.134 A 
ATOM     71  C   UNL A   1      47.702  30.121  27.315  1.00  0.00     0.134 A 
ATOM     72  F   UNL A   1      51.014  28.814  27.989  1.00  0.00    -0.206 F 
ATOM     73  C   UNL A   1      50.284  31.003  27.639  1.00  0.00     0.040 A 
ATOM     74  C   UNL A   1      47.993  31.478  27.178  1.00  0.00     0.040 A 
ATOM     75  F   UNL A   1      46.393  29.857  27.252  1.00  0.00    -0.206 F 
ATOM     76  C   UNL A   1      49.284  31.930  27.375  1.00  0.00     0.006 A 
ENDBRANCH  55  69
BRANCH  56  77
ATOM     77  C   UNL A   1      40.076  27.872  28.574  1.00  0.00     0.057 A 
ATOM     78  C   UNL A   1      39.004  27.985  29.471  1.00  0.00     0.134 A 
ATOM     79  C   UNL A   1      39.981  28.647  27.404  1.00  0.00     0.134 A 
ATOM     80  F   UNL A   1      39.025  27.331  30.641  1.00  0.00    -0.206 F 
ATOM     81  C   UNL A   1      37.904  28.820  29.219  1.00  0.00     0.040 A 
ATOM     82  C   UNL A   1      38.890  29.479  27.138  1.00  0.00     0.040 A 
ATOM     83  F   UNL A   1      40.988  28.690  26.520  1.00  0.00    -0.206 F 
ATOM     84  C   UNL A   1      37.848  29.576  28.051  1.00  0.00     0.006 A 
ENDBRANCH  56  77
BRANCH  68  85
ATOM     85  C   UNL A   1      44.833  25.707  32.105  1.00  0.00     0.057 A 
ATOM     86  C   UNL A   1      44.527  24.422  31.627  1.00  0.00     0.134 A 
ATOM     87  C   UNL A   1      44.888  25.863  33.491  1.00  0.00     0.134 A 
ATOM     88  F   UNL A   1      44.546  24.151  30.317  1.00  0.00    -0.206 F 
ATOM     89  C   UNL A   1      44.258  23.353  32.489  1.00  0.00     0.040 A 
ATOM     90  C   UNL A   1      44.655  24.798  34.365  1.00  0.00     0.040 A 
ATOM     91  F   UNL A   1      45.234  27.047  34.022  1.00  0.00    -0.206 F 
ATOM     92  C   UNL A   1      44.331  23.539  33.865  1.00  0.00     0.006 A 
ENDBRANCH  68  85
ENDBRANCH  42  43
ENDBRANCH  35  37
ENDBRANCH  34  35
ENDBRANCH  33  34
ENDBRANCH  32  33
ENDBRANCH  31  32
ENDBRANCH  30  31
ENDBRANCH  29  30
ENDBRANCH   1  29
TORSDOF 22
ENDMDL
