MODEL 1
REMARK VINA RESULT:     -10.7      0.000      0.000
REMARK SMILES Cc1cc2n(n1)CC[N@@H+](Cc1ncccc1C(=O)OCCOCCOCCOC(=O)c1ccc(-c3c4nc(c(-c5c(F)cccc5F)c5ccc([nH]5)c(-c5c(F)cccc5F)c5nc(c(-c6c(F)cccc6F)c6ccc3[nH]6)C=C5)C=C4)cc1)C2
REMARK SMILES IDX 23 1 22 2 21 3 20 4 19 5 17 6 18 7 16 8 11 9 12 10 13 11
REMARK SMILES IDX 15 12 14 13 10 14 9 15 1 16 2 17 3 18 6 19 4 20 5 21 85 22
REMARK SMILES IDX 7 23 8 24 24 26 25 27 26 28 27 29 28 30 29 31 30 32 31 33
REMARK SMILES IDX 32 34 84 35 33 36 83 37 34 38 35 39 36 40 77 41 37 42 82 43
REMARK SMILES IDX 76 44 78 45 38 46 81 47 75 48 74 49 39 51 65 52 48 53 64 54
REMARK SMILES IDX 49 55 52 56 63 57 79 58 50 59 51 60 62 62 80 63 53 64 40 65
REMARK SMILES IDX 41 66 46 67 42 68 43 69 45 70 47 71 44 72 66 73 67 74 72 75
REMARK SMILES IDX 68 76 69 77 71 78 73 79 70 80 54 81 55 82 60 83 56 84 57 85
REMARK SMILES IDX 59 86 61 87 58 88
REMARK H PARENT 9 25 78 50 52 61
REMARK Flexibility Score: inf
ROOT
ATOM      1  C   UNL A   1      34.721  30.898  27.393  1.00  0.00     0.188 C 
ENDROOT
BRANCH   1   2
ATOM      2  O   UNL A   1      34.114  29.617  27.559  1.00  0.00    -0.376 OA
BRANCH   2   3
ATOM      3  C   UNL A   1      33.831  28.893  26.364  1.00  0.00     0.202 C 
BRANCH   3   4
ATOM      4  C   UNL A   1      33.222  27.492  26.534  1.00  0.00     0.261 C 
BRANCH   4   5
ATOM      5  O   UNL A   1      33.907  26.460  25.785  1.00  0.00    -0.460 OA
BRANCH   5   6
ATOM      6  C   UNL A   1      33.441  25.185  25.946  1.00  0.00     0.340 C 
ATOM      7  O   UNL A   1      32.456  24.873  26.590  1.00  0.00    -0.246 OA
BRANCH   6   8
ATOM      8  C   UNL A   1      34.305  24.196  25.240  1.00  0.00     0.087 A 
ATOM      9  C   UNL A   1      33.798  23.107  24.510  1.00  0.00     0.109 A 
ATOM     10  N   UNL A   1      34.616  22.113  24.044  1.00  0.00    -0.254 NA
ATOM     11  C   UNL A   1      35.945  22.226  24.237  1.00  0.00     0.111 A 
ATOM     12  C   UNL A   1      35.698  24.285  25.400  1.00  0.00     0.019 A 
ATOM     13  C   UNL A   1      36.528  23.294  24.886  1.00  0.00     0.021 A 
BRANCH   9  14
ATOM     14  C   UNL A   1      32.339  22.912  24.142  1.00  0.00     0.320 C 
BRANCH  14  15
ATOM     15  N   UNL A   1      31.844  23.609  22.941  1.00  0.00    -0.323 N 
ATOM     16  C   UNL A   1      30.601  29.459  23.961  1.00  0.00     0.069 C 
ATOM     17  C   UNL A   1      31.025  28.065  23.673  1.00  0.00     0.060 A 
ATOM     18  C   UNL A   1      30.284  26.895  23.931  1.00  0.00     0.054 A 
ATOM     19  N   UNL A   1      32.167  27.776  23.034  1.00  0.00    -0.178 NA
ATOM     20  C   UNL A   1      30.981  25.861  23.366  1.00  0.00     0.093 A 
ATOM     21  N   UNL A   1      32.114  26.434  22.880  1.00  0.00    -0.258 N 
ATOM     22  C   UNL A   1      30.663  24.434  23.145  1.00  0.00     0.319 C 
ATOM     23  C   UNL A   1      33.169  25.713  22.209  1.00  0.00     0.206 C 
ATOM     24  C   UNL A   1      32.846  24.215  22.054  1.00  0.00     0.286 C 
ATOM     25  H   UNL A   1      31.519  22.814  22.389  1.00  0.00     0.348 HD
ENDBRANCH  14  15
ENDBRANCH   9  14
ENDBRANCH   6   8
ENDBRANCH   5   6
ENDBRANCH   4   5
ENDBRANCH   3   4
ENDBRANCH   2   3
ENDBRANCH   1   2
BRANCH   1  26
ATOM     26  C   UNL A   1      34.016  32.067  28.113  1.00  0.00     0.188 C 
BRANCH  26  27
ATOM     27  O   UNL A   1      34.337  33.339  27.548  1.00  0.00    -0.376 OA
BRANCH  27  28
ATOM     28  C   UNL A   1      34.669  34.340  28.508  1.00  0.00     0.202 C 
BRANCH  28  29
ATOM     29  C   UNL A   1      33.448  35.204  28.795  1.00  0.00     0.261 C 
BRANCH  29  30
ATOM     30  O   UNL A   1      32.788  34.763  29.991  1.00  0.00    -0.460 OA
BRANCH  30  31
ATOM     31  C   UNL A   1      32.914  35.627  31.023  1.00  0.00     0.338 C 
ATOM     32  O   UNL A   1      32.528  36.784  31.063  1.00  0.00    -0.246 OA
BRANCH  31  33
ATOM     33  C   UNL A   1      33.715  35.048  32.114  1.00  0.00     0.060 A 
ATOM     34  C   UNL A   1      34.738  35.863  32.616  1.00  0.00     0.016 A 
ATOM     35  C   UNL A   1      33.729  33.660  32.287  1.00  0.00     0.016 A 
ATOM     36  C   UNL A   1      35.908  35.284  33.034  1.00  0.00     0.010 A 
ATOM     37  C   UNL A   1      34.917  33.074  32.673  1.00  0.00     0.010 A 
ATOM     38  C   UNL A   1      36.020  33.905  32.897  1.00  0.00    -0.014 A 
BRANCH  38  39
ATOM     39  C   UNL A   1      37.375  33.406  32.735  1.00  0.00     0.031 A 
ATOM     40  C   UNL A   1      38.270  33.667  33.874  1.00  0.00     0.074 A 
ATOM     41  C   UNL A   1      37.705  32.738  31.609  1.00  0.00     0.049 A 
ATOM     42  N   UNL A   1      39.410  34.272  33.873  1.00  0.00    -0.248 NA
ATOM     43  C   UNL A   1      37.782  33.284  35.209  1.00  0.00     0.031 C 
ATOM     44  C   UNL A   1      36.765  32.266  30.579  1.00  0.00     0.029 A 
ATOM     45  N   UNL A   1      38.897  32.215  31.194  1.00  0.00    -0.354 N 
ATOM     46  C   UNL A   1      39.888  34.136  35.170  1.00  0.00     0.074 A 
ATOM     47  C   UNL A   1      38.788  33.688  35.984  1.00  0.00     0.031 C 
ATOM     48  C   UNL A   1      37.365  31.322  29.827  1.00  0.00     0.029 A 
ATOM     49  C   UNL A   1      38.756  31.224  30.232  1.00  0.00     0.049 A 
ATOM     50  H   UNL A   1      39.769  32.512  31.543  1.00  0.00     0.167 HD
ATOM     51  C   UNL A   1      41.220  34.067  35.415  1.00  0.00     0.037 A 
ATOM     52  C   UNL A   1      39.680  30.310  29.860  1.00  0.00     0.037 A 
ATOM     53  C   UNL A   1      42.012  34.583  34.335  1.00  0.00     0.049 A 
ATOM     54  C   UNL A   1      41.020  30.793  30.252  1.00  0.00     0.074 A 
ATOM     55  C   UNL A   1      42.470  35.814  33.924  1.00  0.00     0.029 A 
ATOM     56  N   UNL A   1      42.196  33.709  33.300  1.00  0.00    -0.354 N 
ATOM     57  N   UNL A   1      41.597  31.837  29.727  1.00  0.00    -0.248 NA
ATOM     58  C   UNL A   1      41.634  30.296  31.482  1.00  0.00     0.031 C 
ATOM     59  C   UNL A   1      42.869  35.666  32.563  1.00  0.00     0.029 A 
ATOM     60  C   UNL A   1      42.639  34.351  32.174  1.00  0.00     0.049 A 
ATOM     61  H   UNL A   1      42.031  32.740  33.357  1.00  0.00     0.167 HD
ATOM     62  C   UNL A   1      42.360  32.359  30.752  1.00  0.00     0.074 A 
ATOM     63  C   UNL A   1      42.487  31.292  31.733  1.00  0.00     0.031 C 
ATOM     64  C   UNL A   1      42.529  33.702  30.889  1.00  0.00     0.037 A 
BRANCH  51  65
ATOM     65  C   UNL A   1      41.804  33.089  36.399  1.00  0.00     0.057 A 
ATOM     66  C   UNL A   1      42.604  33.557  37.452  1.00  0.00     0.134 A 
ATOM     67  C   UNL A   1      41.855  31.696  36.171  1.00  0.00     0.134 A 
ATOM     68  F   UNL A   1      42.672  34.869  37.729  1.00  0.00    -0.206 F 
ATOM     69  C   UNL A   1      43.413  32.702  38.208  1.00  0.00     0.040 A 
ATOM     70  C   UNL A   1      42.613  30.827  36.955  1.00  0.00     0.040 A 
ATOM     71  F   UNL A   1      41.259  31.125  35.115  1.00  0.00    -0.206 F 
ATOM     72  C   UNL A   1      43.416  31.332  37.964  1.00  0.00     0.006 A 
ENDBRANCH  51  65
BRANCH  52  73
ATOM     73  C   UNL A   1      39.415  28.912  29.455  1.00  0.00     0.057 A 
ATOM     74  C   UNL A   1      39.746  28.445  28.179  1.00  0.00     0.134 A 
ATOM     75  C   UNL A   1      39.043  27.934  30.398  1.00  0.00     0.134 A 
ATOM     76  F   UNL A   1      40.157  29.296  27.229  1.00  0.00    -0.206 F 
ATOM     77  C   UNL A   1      39.715  27.081  27.857  1.00  0.00     0.040 A 
ATOM     78  C   UNL A   1      38.995  26.573  30.087  1.00  0.00     0.040 A 
ATOM     79  F   UNL A   1      38.792  28.260  31.674  1.00  0.00    -0.206 F 
ATOM     80  C   UNL A   1      39.344  26.140  28.816  1.00  0.00     0.006 A 
ENDBRANCH  52  73
BRANCH  64  81
ATOM     81  C   UNL A   1      42.363  34.547  29.671  1.00  0.00     0.057 A 
ATOM     82  C   UNL A   1      41.139  35.094  29.265  1.00  0.00     0.134 A 
ATOM     83  C   UNL A   1      43.495  34.871  28.916  1.00  0.00     0.134 A 
ATOM     84  F   UNL A   1      40.023  34.889  29.977  1.00  0.00    -0.206 F 
ATOM     85  C   UNL A   1      41.042  35.900  28.128  1.00  0.00     0.040 A 
ATOM     86  C   UNL A   1      43.417  35.698  27.794  1.00  0.00     0.040 A 
ATOM     87  F   UNL A   1      44.703  34.412  29.277  1.00  0.00    -0.206 F 
ATOM     88  C   UNL A   1      42.184  36.206  27.391  1.00  0.00     0.006 A 
ENDBRANCH  64  81
ENDBRANCH  38  39
ENDBRANCH  31  33
ENDBRANCH  30  31
ENDBRANCH  29  30
ENDBRANCH  28  29
ENDBRANCH  27  28
ENDBRANCH  26  27
ENDBRANCH   1  26
TORSDOF 19
ENDMDL
MODEL 2
REMARK VINA RESULT:     -10.6      5.490     10.533
REMARK SMILES Cc1cc2n(n1)CC[N@@H+](Cc1ncccc1C(=O)OCCOCCOCCOC(=O)c1ccc(-c3c4nc(c(-c5c(F)cccc5F)c5ccc([nH]5)c(-c5c(F)cccc5F)c5nc(c(-c6c(F)cccc6F)c6ccc3[nH]6)C=C5)C=C4)cc1)C2
REMARK SMILES IDX 23 1 22 2 21 3 20 4 19 5 17 6 18 7 16 8 11 9 12 10 13 11
REMARK SMILES IDX 15 12 14 13 10 14 9 15 1 16 2 17 3 18 6 19 4 20 5 21 85 22
REMARK SMILES IDX 7 23 8 24 24 26 25 27 26 28 27 29 28 30 29 31 30 32 31 33
REMARK SMILES IDX 32 34 84 35 33 36 83 37 34 38 35 39 36 40 77 41 37 42 82 43
REMARK SMILES IDX 76 44 78 45 38 46 81 47 75 48 74 49 39 51 65 52 48 53 64 54
REMARK SMILES IDX 49 55 52 56 63 57 79 58 50 59 51 60 62 62 80 63 53 64 40 65
REMARK SMILES IDX 41 66 46 67 42 68 43 69 45 70 47 71 44 72 66 73 67 74 72 75
REMARK SMILES IDX 68 76 69 77 71 78 73 79 70 80 54 81 55 82 60 83 56 84 57 85
REMARK SMILES IDX 59 86 61 87 58 88
REMARK H PARENT 9 25 78 50 52 61
REMARK Flexibility Score: inf
ROOT
ATOM      1  C   UNL A   1      40.019  21.616  26.113  1.00  0.00     0.188 C 
ENDROOT
BRANCH   1   2
ATOM      2  O   UNL A   1      38.613  21.606  26.360  1.00  0.00    -0.376 OA
BRANCH   2   3
ATOM      3  C   UNL A   1      37.790  22.179  25.347  1.00  0.00     0.202 C 
BRANCH   3   4
ATOM      4  C   UNL A   1      37.288  23.611  25.595  1.00  0.00     0.261 C 
BRANCH   4   5
ATOM      5  O   UNL A   1      36.287  24.053  24.647  1.00  0.00    -0.460 OA
BRANCH   5   6
ATOM      6  C   UNL A   1      35.015  24.189  25.129  1.00  0.00     0.340 C 
ATOM      7  O   UNL A   1      34.588  23.663  26.141  1.00  0.00    -0.246 OA
BRANCH   6   8
ATOM      8  C   UNL A   1      34.188  25.058  24.245  1.00  0.00     0.087 A 
ATOM      9  C   UNL A   1      33.563  24.599  23.072  1.00  0.00     0.109 A 
ATOM     10  N   UNL A   1      32.979  25.463  22.186  1.00  0.00    -0.254 NA
ATOM     11  C   UNL A   1      32.950  26.776  22.487  1.00  0.00     0.111 A 
ATOM     12  C   UNL A   1      34.116  26.432  24.529  1.00  0.00     0.019 A 
ATOM     13  C   UNL A   1      33.483  27.300  23.645  1.00  0.00     0.021 A 
BRANCH   9  14
ATOM     14  C   UNL A   1      33.441  23.142  22.667  1.00  0.00     0.320 C 
BRANCH  14  15
ATOM     15  N   UNL A   1      32.155  22.470  22.928  1.00  0.00    -0.323 N 
ATOM     16  C   UNL A   1      32.835  16.831  25.057  1.00  0.00     0.069 C 
ATOM     17  C   UNL A   1      32.663  18.252  24.660  1.00  0.00     0.060 A 
ATOM     18  C   UNL A   1      32.717  18.768  23.351  1.00  0.00     0.054 A 
ATOM     19  N   UNL A   1      32.340  19.211  25.539  1.00  0.00    -0.178 NA
ATOM     20  C   UNL A   1      32.349  20.083  23.435  1.00  0.00     0.093 A 
ATOM     21  N   UNL A   1      32.174  20.307  24.765  1.00  0.00    -0.258 N 
ATOM     22  C   UNL A   1      32.049  21.113  22.418  1.00  0.00     0.319 C 
ATOM     23  C   UNL A   1      31.797  21.578  25.334  1.00  0.00     0.206 C 
ATOM     24  C   UNL A   1      31.559  22.654  24.258  1.00  0.00     0.286 C 
ATOM     25  H   UNL A   1      31.536  23.025  22.336  1.00  0.00     0.348 HD
ENDBRANCH  14  15
ENDBRANCH   9  14
ENDBRANCH   6   8
ENDBRANCH   5   6
ENDBRANCH   4   5
ENDBRANCH   3   4
ENDBRANCH   2   3
ENDBRANCH   1   2
BRANCH   1  26
ATOM     26  C   UNL A   1      40.760  20.301  26.433  1.00  0.00     0.188 C 
BRANCH  26  27
ATOM     27  O   UNL A   1      42.038  20.218  25.800  1.00  0.00    -0.376 OA
BRANCH  27  28
ATOM     28  C   UNL A   1      42.713  18.978  26.000  1.00  0.00     0.202 C 
BRANCH  28  29
ATOM     29  C   UNL A   1      43.942  18.910  25.102  1.00  0.00     0.261 C 
BRANCH  29  30
ATOM     30  O   UNL A   1      44.049  20.097  24.303  1.00  0.00    -0.460 OA
BRANCH  30  31
ATOM     31  C   UNL A   1      45.226  20.744  24.459  1.00  0.00     0.338 C 
ATOM     32  O   UNL A   1      46.284  20.264  24.831  1.00  0.00    -0.246 OA
BRANCH  31  33
ATOM     33  C   UNL A   1      45.075  22.192  24.244  1.00  0.00     0.060 A 
ATOM     34  C   UNL A   1      46.216  22.967  24.493  1.00  0.00     0.016 A 
ATOM     35  C   UNL A   1      43.793  22.752  24.242  1.00  0.00     0.016 A 
ATOM     36  C   UNL A   1      46.067  24.223  25.019  1.00  0.00     0.010 A 
ATOM     37  C   UNL A   1      43.638  24.002  24.805  1.00  0.00     0.010 A 
ATOM     38  C   UNL A   1      44.774  24.642  25.312  1.00  0.00    -0.014 A 
BRANCH  38  39
ATOM     39  C   UNL A   1      44.665  25.617  26.383  1.00  0.00     0.031 A 
ATOM     40  C   UNL A   1      45.830  26.505  26.531  1.00  0.00     0.074 A 
ATOM     41  C   UNL A   1      43.539  25.663  27.126  1.00  0.00     0.049 A 
ATOM     42  N   UNL A   1      46.554  26.707  27.581  1.00  0.00    -0.248 NA
ATOM     43  C   UNL A   1      46.309  27.188  25.318  1.00  0.00     0.031 C 
ATOM     44  C   UNL A   1      42.284  24.949  26.836  1.00  0.00     0.029 A 
ATOM     45  N   UNL A   1      43.205  26.437  28.200  1.00  0.00    -0.354 N 
ATOM     46  C   UNL A   1      47.432  27.720  27.220  1.00  0.00     0.074 A 
ATOM     47  C   UNL A   1      47.364  27.852  25.788  1.00  0.00     0.031 C 
ATOM     48  C   UNL A   1      41.278  25.517  27.529  1.00  0.00     0.029 A 
ATOM     49  C   UNL A   1      41.834  26.533  28.402  1.00  0.00     0.049 A 
ATOM     50  H   UNL A   1      43.869  26.883  28.774  1.00  0.00     0.167 HD
ATOM     51  C   UNL A   1      47.889  28.604  28.142  1.00  0.00     0.037 A 
ATOM     52  C   UNL A   1      41.181  27.449  29.153  1.00  0.00     0.037 A 
ATOM     53  C   UNL A   1      47.751  28.125  29.488  1.00  0.00     0.049 A 
ATOM     54  C   UNL A   1      42.128  28.042  30.121  1.00  0.00     0.074 A 
ATOM     55  C   UNL A   1      48.471  27.332  30.351  1.00  0.00     0.029 A 
ATOM     56  N   UNL A   1      46.500  28.278  30.018  1.00  0.00    -0.354 N 
ATOM     57  N   UNL A   1      42.673  27.379  31.102  1.00  0.00    -0.248 NA
ATOM     58  C   UNL A   1      42.743  29.335  29.827  1.00  0.00     0.031 C 
ATOM     59  C   UNL A   1      47.577  26.944  31.392  1.00  0.00     0.029 A 
ATOM     60  C   UNL A   1      46.331  27.505  31.136  1.00  0.00     0.049 A 
ATOM     61  H   UNL A   1      45.808  28.870  29.642  1.00  0.00     0.167 HD
ATOM     62  C   UNL A   1      43.913  27.963  31.263  1.00  0.00     0.074 A 
ATOM     63  C   UNL A   1      43.834  29.251  30.592  1.00  0.00     0.031 C 
ATOM     64  C   UNL A   1      44.999  27.222  31.616  1.00  0.00     0.037 A 
BRANCH  51  65
ATOM     65  C   UNL A   1      47.994  30.078  27.856  1.00  0.00     0.057 A 
ATOM     66  C   UNL A   1      46.837  30.812  27.559  1.00  0.00     0.134 A 
ATOM     67  C   UNL A   1      49.215  30.725  27.566  1.00  0.00     0.134 A 
ATOM     68  F   UNL A   1      45.620  30.278  27.749  1.00  0.00    -0.206 F 
ATOM     69  C   UNL A   1      46.892  32.091  26.994  1.00  0.00     0.040 A 
ATOM     70  C   UNL A   1      49.283  32.022  27.056  1.00  0.00     0.040 A 
ATOM     71  F   UNL A   1      50.395  30.098  27.661  1.00  0.00    -0.206 F 
ATOM     72  C   UNL A   1      48.117  32.702  26.746  1.00  0.00     0.006 A 
ENDBRANCH  51  65
BRANCH  52  73
ATOM     73  C   UNL A   1      39.856  28.038  28.860  1.00  0.00     0.057 A 
ATOM     74  C   UNL A   1      38.825  28.024  29.804  1.00  0.00     0.134 A 
ATOM     75  C   UNL A   1      39.647  28.841  27.722  1.00  0.00     0.134 A 
ATOM     76  F   UNL A   1      38.953  27.326  30.941  1.00  0.00    -0.206 F 
ATOM     77  C   UNL A   1      37.652  28.773  29.631  1.00  0.00     0.040 A 
ATOM     78  C   UNL A   1      38.478  29.581  27.531  1.00  0.00     0.040 A 
ATOM     79  F   UNL A   1      40.605  28.997  26.797  1.00  0.00    -0.206 F 
ATOM     80  C   UNL A   1      37.480  29.558  28.494  1.00  0.00     0.006 A 
ENDBRANCH  52  73
BRANCH  64  81
ATOM     81  C   UNL A   1      44.755  25.939  32.338  1.00  0.00     0.057 A 
ATOM     82  C   UNL A   1      44.534  25.855  33.718  1.00  0.00     0.134 A 
ATOM     83  C   UNL A   1      44.677  24.754  31.600  1.00  0.00     0.134 A 
ATOM     84  F   UNL A   1      44.520  26.954  34.483  1.00  0.00    -0.206 F 
ATOM     85  C   UNL A   1      44.285  24.630  34.343  1.00  0.00     0.040 A 
ATOM     86  C   UNL A   1      44.401  23.528  32.207  1.00  0.00     0.040 A 
ATOM     87  F   UNL A   1      44.838  24.776  30.267  1.00  0.00    -0.206 F 
ATOM     88  C   UNL A   1      44.215  23.462  33.586  1.00  0.00     0.006 A 
ENDBRANCH  64  81
ENDBRANCH  38  39
ENDBRANCH  31  33
ENDBRANCH  30  31
ENDBRANCH  29  30
ENDBRANCH  28  29
ENDBRANCH  27  28
ENDBRANCH  26  27
ENDBRANCH   1  26
TORSDOF 19
ENDMDL
MODEL 3
REMARK VINA RESULT:     -10.6      3.266      7.665
REMARK SMILES Cc1cc2n(n1)CC[N@@H+](Cc1ncccc1C(=O)OCCOCCOCCOC(=O)c1ccc(-c3c4nc(c(-c5c(F)cccc5F)c5ccc([nH]5)c(-c5c(F)cccc5F)c5nc(c(-c6c(F)cccc6F)c6ccc3[nH]6)C=C5)C=C4)cc1)C2
REMARK SMILES IDX 23 1 22 2 21 3 20 4 19 5 17 6 18 7 16 8 11 9 12 10 13 11
REMARK SMILES IDX 15 12 14 13 10 14 9 15 1 16 2 17 3 18 6 19 4 20 5 21 85 22
REMARK SMILES IDX 7 23 8 24 24 26 25 27 26 28 27 29 28 30 29 31 30 32 31 33
REMARK SMILES IDX 32 34 84 35 33 36 83 37 34 38 35 39 36 40 77 41 37 42 82 43
REMARK SMILES IDX 76 44 78 45 38 46 81 47 75 48 74 49 39 51 65 52 48 53 64 54
REMARK SMILES IDX 49 55 52 56 63 57 79 58 50 59 51 60 62 62 80 63 53 64 40 65
REMARK SMILES IDX 41 66 46 67 42 68 43 69 45 70 47 71 44 72 66 73 67 74 72 75
REMARK SMILES IDX 68 76 69 77 71 78 73 79 70 80 54 81 55 82 60 83 56 84 57 85
REMARK SMILES IDX 59 86 61 87 58 88
REMARK H PARENT 9 25 78 50 52 61
REMARK Flexibility Score: inf
ROOT
ATOM      1  C   UNL A   1      39.254  21.349  25.801  1.00  0.00     0.188 C 
ENDROOT
BRANCH   1   2
ATOM      2  O   UNL A   1      37.875  21.718  25.770  1.00  0.00    -0.376 OA
BRANCH   2   3
ATOM      3  C   UNL A   1      37.593  23.114  25.826  1.00  0.00     0.202 C 
BRANCH   3   4
ATOM      4  C   UNL A   1      36.455  23.625  24.927  1.00  0.00     0.261 C 
BRANCH   4   5
ATOM      5  O   UNL A   1      35.793  24.807  25.436  1.00  0.00    -0.460 OA
BRANCH   5   6
ATOM      6  C   UNL A   1      34.426  24.792  25.414  1.00  0.00     0.340 C 
ATOM      7  O   UNL A   1      33.715  24.318  26.282  1.00  0.00    -0.246 OA
BRANCH   6   8
ATOM      8  C   UNL A   1      33.894  25.419  24.171  1.00  0.00     0.087 A 
ATOM      9  C   UNL A   1      33.600  24.694  23.003  1.00  0.00     0.109 A 
ATOM     10  N   UNL A   1      33.303  25.324  21.824  1.00  0.00    -0.254 NA
ATOM     11  C   UNL A   1      33.228  26.669  21.811  1.00  0.00     0.111 A 
ATOM     12  C   UNL A   1      33.784  26.818  24.117  1.00  0.00     0.019 A 
ATOM     13  C   UNL A   1      33.439  27.450  22.927  1.00  0.00     0.021 A 
BRANCH   9  14
ATOM     14  C   UNL A   1      33.554  23.181  22.908  1.00  0.00     0.320 C 
BRANCH  14  15
ATOM     15  N   UNL A   1      32.244  22.529  23.088  1.00  0.00    -0.323 N 
ATOM     16  C   UNL A   1      32.715  16.757  24.895  1.00  0.00     0.069 C 
ATOM     17  C   UNL A   1      32.591  18.203  24.579  1.00  0.00     0.060 A 
ATOM     18  C   UNL A   1      32.701  18.794  23.306  1.00  0.00     0.054 A 
ATOM     19  N   UNL A   1      32.262  19.117  25.503  1.00  0.00    -0.178 NA
ATOM     20  C   UNL A   1      32.363  20.112  23.457  1.00  0.00     0.093 A 
ATOM     21  N   UNL A   1      32.149  20.261  24.792  1.00  0.00    -0.258 N 
ATOM     22  C   UNL A   1      32.122  21.207  22.494  1.00  0.00     0.319 C 
ATOM     23  C   UNL A   1      31.784  21.506  25.424  1.00  0.00     0.206 C 
ATOM     24  C   UNL A   1      31.609  22.649  24.407  1.00  0.00     0.286 C 
ATOM     25  H   UNL A   1      31.659  23.134  22.510  1.00  0.00     0.348 HD
ENDBRANCH  14  15
ENDBRANCH   9  14
ENDBRANCH   6   8
ENDBRANCH   5   6
ENDBRANCH   4   5
ENDBRANCH   3   4
ENDBRANCH   2   3
ENDBRANCH   1   2
BRANCH   1  26
ATOM     26  C   UNL A   1      40.074  21.939  26.967  1.00  0.00     0.188 C 
BRANCH  26  27
ATOM     27  O   UNL A   1      41.442  21.526  26.945  1.00  0.00    -0.376 OA
BRANCH  27  28
ATOM     28  C   UNL A   1      42.196  22.054  25.855  1.00  0.00     0.202 C 
BRANCH  28  29
ATOM     29  C   UNL A   1      43.164  23.113  26.364  1.00  0.00     0.261 C 
BRANCH  29  30
ATOM     30  O   UNL A   1      42.449  24.255  26.860  1.00  0.00    -0.460 OA
BRANCH  30  31
ATOM     31  C   UNL A   1      42.175  25.172  25.905  1.00  0.00     0.338 C 
ATOM     32  O   UNL A   1      42.807  25.377  24.882  1.00  0.00    -0.246 OA
BRANCH  31  33
ATOM     33  C   UNL A   1      41.048  26.034  26.297  1.00  0.00     0.060 A 
ATOM     34  C   UNL A   1      41.155  27.381  25.926  1.00  0.00     0.016 A 
ATOM     35  C   UNL A   1      40.199  25.621  27.329  1.00  0.00     0.016 A 
ATOM     36  C   UNL A   1      40.647  28.344  26.759  1.00  0.00     0.010 A 
ATOM     37  C   UNL A   1      39.717  26.586  28.188  1.00  0.00     0.010 A 
ATOM     38  C   UNL A   1      40.080  27.917  27.955  1.00  0.00    -0.014 A 
BRANCH  38  39
ATOM     39  C   UNL A   1      40.130  28.878  29.043  1.00  0.00     0.031 A 
ATOM     40  C   UNL A   1      39.000  29.820  29.088  1.00  0.00     0.074 A 
ATOM     41  C   UNL A   1      41.153  28.830  29.923  1.00  0.00     0.049 A 
ATOM     42  N   UNL A   1      39.034  31.111  29.089  1.00  0.00    -0.248 NA
ATOM     43  C   UNL A   1      37.647  29.245  29.028  1.00  0.00     0.031 C 
ATOM     44  C   UNL A   1      42.151  27.753  30.028  1.00  0.00     0.029 A 
ATOM     45  N   UNL A   1      41.457  29.630  30.988  1.00  0.00    -0.354 N 
ATOM     46  C   UNL A   1      37.714  31.503  29.267  1.00  0.00     0.074 A 
ATOM     47  C   UNL A   1      36.892  30.342  29.045  1.00  0.00     0.031 C 
ATOM     48  C   UNL A   1      42.758  27.824  31.229  1.00  0.00     0.029 A 
ATOM     49  C   UNL A   1      42.294  29.018  31.911  1.00  0.00     0.049 A 
ATOM     50  H   UNL A   1      41.116  30.548  31.091  1.00  0.00     0.167 HD
ATOM     51  C   UNL A   1      37.415  32.655  29.918  1.00  0.00     0.037 A 
ATOM     52  C   UNL A   1      42.518  29.399  33.189  1.00  0.00     0.037 A 
ATOM     53  C   UNL A   1      38.520  33.568  29.969  1.00  0.00     0.049 A 
ATOM     54  C   UNL A   1      42.140  30.820  33.341  1.00  0.00     0.074 A 
ATOM     55  C   UNL A   1      39.063  34.537  29.157  1.00  0.00     0.029 A 
ATOM     56  N   UNL A   1      39.433  33.298  30.951  1.00  0.00    -0.354 N 
ATOM     57  N   UNL A   1      42.768  31.804  32.761  1.00  0.00    -0.248 NA
ATOM     58  C   UNL A   1      40.836  31.162  33.907  1.00  0.00     0.031 C 
ATOM     59  C   UNL A   1      40.380  34.786  29.642  1.00  0.00     0.029 A 
ATOM     60  C   UNL A   1      40.612  33.960  30.736  1.00  0.00     0.049 A 
ATOM     61  H   UNL A   1      39.263  32.701  31.715  1.00  0.00     0.167 HD
ATOM     62  C   UNL A   1      41.788  32.747  32.530  1.00  0.00     0.074 A 
ATOM     63  C   UNL A   1      40.679  32.388  33.401  1.00  0.00     0.031 C 
ATOM     64  C   UNL A   1      41.810  33.527  31.415  1.00  0.00     0.037 A 
BRANCH  51  65
ATOM     65  C   UNL A   1      36.297  32.741  30.922  1.00  0.00     0.057 A 
ATOM     66  C   UNL A   1      35.247  33.648  30.717  1.00  0.00     0.134 A 
ATOM     67  C   UNL A   1      36.376  32.185  32.218  1.00  0.00     0.134 A 
ATOM     68  F   UNL A   1      35.103  34.274  29.539  1.00  0.00    -0.206 F 
ATOM     69  C   UNL A   1      34.353  33.993  31.737  1.00  0.00     0.040 A 
ATOM     70  C   UNL A   1      35.456  32.478  33.226  1.00  0.00     0.040 A 
ATOM     71  F   UNL A   1      37.404  31.417  32.603  1.00  0.00    -0.206 F 
ATOM     72  C   UNL A   1      34.453  33.405  32.994  1.00  0.00     0.006 A 
ENDBRANCH  51  65
BRANCH  52  73
ATOM     73  C   UNL A   1      42.757  28.503  34.342  1.00  0.00     0.057 A 
ATOM     74  C   UNL A   1      43.815  28.720  35.230  1.00  0.00     0.134 A 
ATOM     75  C   UNL A   1      41.804  27.542  34.733  1.00  0.00     0.134 A 
ATOM     76  F   UNL A   1      44.745  29.649  34.965  1.00  0.00    -0.206 F 
ATOM     77  C   UNL A   1      43.919  28.027  36.443  1.00  0.00     0.040 A 
ATOM     78  C   UNL A   1      41.903  26.833  35.932  1.00  0.00     0.040 A 
ATOM     79  F   UNL A   1      40.704  27.318  34.000  1.00  0.00    -0.206 F 
ATOM     80  C   UNL A   1      42.957  27.083  36.799  1.00  0.00     0.006 A 
ENDBRANCH  52  73
BRANCH  64  81
ATOM     81  C   UNL A   1      43.129  33.743  30.750  1.00  0.00     0.057 A 
ATOM     82  C   UNL A   1      43.607  32.953  29.698  1.00  0.00     0.134 A 
ATOM     83  C   UNL A   1      43.914  34.829  31.148  1.00  0.00     0.134 A 
ATOM     84  F   UNL A   1      42.880  31.938  29.212  1.00  0.00    -0.206 F 
ATOM     85  C   UNL A   1      44.840  33.212  29.093  1.00  0.00     0.040 A 
ATOM     86  C   UNL A   1      45.134  35.117  30.534  1.00  0.00     0.040 A 
ATOM     87  F   UNL A   1      43.491  35.649  32.123  1.00  0.00    -0.206 F 
ATOM     88  C   UNL A   1      45.605  34.300  29.509  1.00  0.00     0.006 A 
ENDBRANCH  64  81
ENDBRANCH  38  39
ENDBRANCH  31  33
ENDBRANCH  30  31
ENDBRANCH  29  30
ENDBRANCH  28  29
ENDBRANCH  27  28
ENDBRANCH  26  27
ENDBRANCH   1  26
TORSDOF 19
ENDMDL
