MODEL 1
REMARK VINA RESULT:     -11.0      0.000      0.000
REMARK SMILES Cc1cccc(C(=O)Nc2cc(C(=O)OCCOCCOCCOC(=O)c3ccc(-c4c5nc(c(-c6c(F)cccc6F)c6ccc([nH]6)c(-c6c(F)cccc6F)c6nc(c(-c7c(F)cccc7F)c7ccc4[nH]7)C=C6)C=C5)cc3)ccc2N2CC[NH+](CC(=O)NC(C)(C)C)CC2)c1
REMARK SMILES IDX 19 1 18 2 17 3 16 4 15 5 13 6 14 7 12 8 10 9 11 10 83 11
REMARK SMILES IDX 82 12 81 13 9 14 7 15 8 16 6 18 1 19 2 20 3 21 98 22 4 23
REMARK SMILES IDX 5 24 84 25 85 26 97 27 86 28 96 29 87 30 88 32 89 33 90 34
REMARK SMILES IDX 91 35 92 37 93 38 94 39 95 40 20 41 21 42 22 43 23 44 24 45
REMARK SMILES IDX 25 46 26 47 27 48 28 49 80 50 29 51 79 52 30 53 31 54 32 55
REMARK SMILES IDX 73 56 33 57 78 58 72 59 74 60 34 61 77 62 71 63 70 64 35 66
REMARK SMILES IDX 61 67 44 68 60 69 45 70 48 71 59 72 75 73 46 74 47 75 58 77
REMARK SMILES IDX 76 78 49 79 36 80 37 81 42 82 38 83 39 84 41 85 43 86 40 87
REMARK SMILES IDX 62 88 63 89 68 90 64 91 65 92 67 93 69 94 66 95 50 96 51 97
REMARK SMILES IDX 56 98 52 99 53 100 55 101 57 102 54 103
REMARK H PARENT 9 17 87 31 91 36 74 65 48 76
REMARK Flexibility Score: inf
ROOT
ATOM      1  C   UNL A   1      35.549  22.033  24.287  1.00  0.00     0.188 C 
ENDROOT
BRANCH   1   2
ATOM      2  O   UNL A   1      34.943  21.290  25.367  1.00  0.00    -0.376 OA
BRANCH   2   3
ATOM      3  C   UNL A   1      33.975  20.242  25.263  1.00  0.00     0.202 C 
BRANCH   3   4
ATOM      4  C   UNL A   1      32.307  20.413  24.946  1.00  0.00     0.261 C 
BRANCH   4   5
ATOM      5  O   UNL A   1      31.309  21.689  24.880  1.00  0.00    -0.460 OA
BRANCH   5   6
ATOM      6  C   UNL A   1      31.268  23.006  24.399  1.00  0.00     0.338 C 
ATOM      7  O   UNL A   1      30.681  23.550  23.464  1.00  0.00    -0.246 OA
BRANCH   6   8
ATOM      8  C   UNL A   1      32.029  24.011  25.099  1.00  0.00     0.062 A 
ATOM      9  C   UNL A   1      33.245  25.933  24.652  1.00  0.00     0.065 A 
ATOM     10  C   UNL A   1      32.946  24.635  24.315  1.00  0.00     0.044 A 
ATOM     11  C   UNL A   1      32.864  26.542  25.897  1.00  0.00     0.061 A 
ATOM     12  C   UNL A   1      31.969  25.847  26.703  1.00  0.00     0.029 A 
ATOM     13  C   UNL A   1      31.485  24.629  26.254  1.00  0.00     0.018 A 
BRANCH   9  14
ATOM     14  N   UNL A   1      33.803  26.688  23.619  1.00  0.00    -0.320 N 
ATOM     15  C   UNL A   1      33.125  27.433  22.663  1.00  0.00     0.255 C 
ATOM     16  O   UNL A   1      33.795  27.939  21.759  1.00  0.00    -0.269 OA
ATOM     17  H   UNL A   1      34.786  26.692  23.563  1.00  0.00     0.170 HD
BRANCH  15  18
ATOM     18  C   UNL A   1      31.644  27.767  22.714  1.00  0.00     0.040 A 
ATOM     19  C   UNL A   1      28.168  26.586  23.898  1.00  0.00     0.044 C 
ATOM     20  C   UNL A   1      29.290  27.446  23.378  1.00  0.00    -0.050 A 
ATOM     21  C   UNL A   1      28.994  28.744  22.953  1.00  0.00     0.003 A 
ATOM     22  C   UNL A   1      30.619  26.969  23.265  1.00  0.00     0.017 A 
ATOM     23  C   UNL A   1      30.000  29.552  22.434  1.00  0.00     0.001 A 
ATOM     24  C   UNL A   1      31.303  29.065  22.303  1.00  0.00     0.014 A 
ENDBRANCH  15  18
ENDBRANCH   9  14
BRANCH  11  25
ATOM     25  N   UNL A   1      33.184  27.856  26.183  1.00  0.00    -0.359 N 
ATOM     26  C   UNL A   1      34.320  28.316  27.005  1.00  0.00     0.178 C 
ATOM     27  C   UNL A   1      32.033  28.715  26.378  1.00  0.00     0.178 C 
ATOM     28  C   UNL A   1      34.574  29.850  26.752  1.00  0.00     0.284 C 
ATOM     29  C   UNL A   1      32.377  30.053  25.737  1.00  0.00     0.284 C 
ATOM     30  N   UNL A   1      33.420  30.755  26.483  1.00  0.00    -0.324 N 
ATOM     31  H   UNL A   1      33.817  31.495  25.905  1.00  0.00     0.348 HD
BRANCH  30  32
ATOM     32  C   UNL A   1      32.884  31.528  27.620  1.00  0.00     0.363 C 
BRANCH  32  33
ATOM     33  C   UNL A   1      32.404  32.944  27.315  1.00  0.00     0.275 C 
ATOM     34  O   UNL A   1      31.397  33.106  26.611  1.00  0.00    -0.268 OA
ATOM     35  N   UNL A   1      33.001  34.083  27.764  1.00  0.00    -0.347 N 
ATOM     36  H   UNL A   1      32.409  34.854  27.605  1.00  0.00     0.164 HD
BRANCH  35  37
ATOM     37  C   UNL A   1      34.261  34.543  28.422  1.00  0.00     0.032 C 
ATOM     38  C   UNL A   1      34.442  36.067  28.281  1.00  0.00     0.034 C 
ATOM     39  C   UNL A   1      34.086  34.276  29.933  1.00  0.00     0.034 C 
ATOM     40  C   UNL A   1      35.541  33.828  27.982  1.00  0.00     0.034 C 
ENDBRANCH  35  37
ENDBRANCH  32  33
ENDBRANCH  30  32
ENDBRANCH  11  25
ENDBRANCH   6   8
ENDBRANCH   5   6
ENDBRANCH   4   5
ENDBRANCH   3   4
ENDBRANCH   2   3
ENDBRANCH   1   2
BRANCH   1  41
ATOM     41  C   UNL A   1      37.062  22.222  24.066  1.00  0.00     0.188 C 
BRANCH  41  42
ATOM     42  O   UNL A   1      37.846  21.297  24.795  1.00  0.00    -0.376 OA
BRANCH  42  43
ATOM     43  C   UNL A   1      38.633  21.835  25.851  1.00  0.00     0.202 C 
BRANCH  43  44
ATOM     44  C   UNL A   1      39.981  21.120  26.110  1.00  0.00     0.261 C 
BRANCH  44  45
ATOM     45  O   UNL A   1      41.093  21.795  25.472  1.00  0.00    -0.460 OA
BRANCH  45  46
ATOM     46  C   UNL A   1      42.070  22.307  26.288  1.00  0.00     0.338 C 
ATOM     47  O   UNL A   1      43.182  21.819  26.435  1.00  0.00    -0.246 OA
BRANCH  46  48
ATOM     48  C   UNL A   1      41.503  23.396  27.146  1.00  0.00     0.060 A 
ATOM     49  C   UNL A   1      40.976  24.619  26.717  1.00  0.00     0.016 A 
ATOM     50  C   UNL A   1      41.876  23.354  28.439  1.00  0.00     0.016 A 
ATOM     51  C   UNL A   1      41.003  25.810  27.570  1.00  0.00     0.010 A 
ATOM     52  C   UNL A   1      42.182  24.585  29.014  1.00  0.00     0.010 A 
ATOM     53  C   UNL A   1      41.700  25.880  28.783  1.00  0.00    -0.014 A 
BRANCH  53  54
ATOM     54  C   UNL A   1      42.051  27.231  29.719  1.00  0.00     0.031 A 
ATOM     55  C   UNL A   1      41.150  28.565  30.293  1.00  0.00     0.074 A 
ATOM     56  C   UNL A   1      43.325  27.242  30.178  1.00  0.00     0.049 A 
ATOM     57  N   UNL A   1      41.442  29.270  31.384  1.00  0.00    -0.248 NA
ATOM     58  C   UNL A   1      39.858  29.177  29.804  1.00  0.00     0.031 C 
ATOM     59  C   UNL A   1      43.992  28.196  31.064  1.00  0.00     0.029 A 
ATOM     60  N   UNL A   1      44.378  26.431  29.735  1.00  0.00    -0.354 N 
ATOM     61  C   UNL A   1      40.464  30.260  31.557  1.00  0.00     0.074 A 
ATOM     62  C   UNL A   1      39.337  29.767  30.874  1.00  0.00     0.031 C 
ATOM     63  C   UNL A   1      45.308  28.171  30.811  1.00  0.00     0.029 A 
ATOM     64  C   UNL A   1      45.515  27.250  29.712  1.00  0.00     0.049 A 
ATOM     65  H   UNL A   1      44.329  25.479  29.489  1.00  0.00     0.167 HD
ATOM     66  C   UNL A   1      40.643  31.620  31.591  1.00  0.00     0.037 A 
ATOM     67  C   UNL A   1      46.087  27.563  28.520  1.00  0.00     0.037 A 
ATOM     68  C   UNL A   1      42.005  31.959  31.282  1.00  0.00     0.049 A 
ATOM     69  C   UNL A   1      45.955  29.035  28.224  1.00  0.00     0.074 A 
ATOM     70  C   UNL A   1      43.156  31.952  32.038  1.00  0.00     0.029 A 
ATOM     71  N   UNL A   1      42.384  32.033  29.946  1.00  0.00    -0.354 N 
ATOM     72  N   UNL A   1      44.986  29.809  28.643  1.00  0.00    -0.248 NA
ATOM     73  C   UNL A   1      46.978  29.749  27.473  1.00  0.00     0.031 C 
ATOM     74  C   UNL A   1      44.248  31.964  31.138  1.00  0.00     0.029 A 
ATOM     75  C   UNL A   1      43.761  32.033  29.840  1.00  0.00     0.049 A 
ATOM     76  H   UNL A   1      41.761  32.081  29.185  1.00  0.00     0.167 HD
ATOM     77  C   UNL A   1      45.249  31.097  28.244  1.00  0.00     0.074 A 
ATOM     78  C   UNL A   1      46.509  31.004  27.528  1.00  0.00     0.031 C 
ATOM     79  C   UNL A   1      44.462  32.169  28.567  1.00  0.00     0.037 A 
BRANCH  66  80
ATOM     80  C   UNL A   1      39.526  32.650  31.827  1.00  0.00     0.057 A 
ATOM     81  C   UNL A   1      39.224  33.042  33.142  1.00  0.00     0.134 A 
ATOM     82  C   UNL A   1      38.676  33.243  30.863  1.00  0.00     0.134 A 
ATOM     83  F   UNL A   1      39.983  32.632  34.167  1.00  0.00    -0.206 F 
ATOM     84  C   UNL A   1      38.120  33.856  33.469  1.00  0.00     0.040 A 
ATOM     85  C   UNL A   1      37.530  33.996  31.175  1.00  0.00     0.040 A 
ATOM     86  F   UNL A   1      38.937  33.190  29.555  1.00  0.00    -0.206 F 
ATOM     87  C   UNL A   1      37.240  34.299  32.490  1.00  0.00     0.006 A 
ENDBRANCH  66  80
BRANCH  67  88
ATOM     88  C   UNL A   1      46.101  26.455  27.517  1.00  0.00     0.057 A 
ATOM     89  C   UNL A   1      47.133  25.494  27.601  1.00  0.00     0.134 A 
ATOM     90  C   UNL A   1      45.033  26.148  26.669  1.00  0.00     0.134 A 
ATOM     91  F   UNL A   1      48.208  25.721  28.374  1.00  0.00    -0.206 F 
ATOM     92  C   UNL A   1      47.048  24.242  26.988  1.00  0.00     0.040 A 
ATOM     93  C   UNL A   1      44.948  24.899  26.026  1.00  0.00     0.040 A 
ATOM     94  F   UNL A   1      43.991  26.981  26.547  1.00  0.00    -0.206 F 
ATOM     95  C   UNL A   1      45.941  23.935  26.209  1.00  0.00     0.006 A 
ENDBRANCH  67  88
BRANCH  79  96
ATOM     96  C   UNL A   1      44.517  33.516  27.867  1.00  0.00     0.057 A 
ATOM     97  C   UNL A   1      44.981  34.701  28.464  1.00  0.00     0.134 A 
ATOM     98  C   UNL A   1      44.180  33.654  26.502  1.00  0.00     0.134 A 
ATOM     99  F   UNL A   1      45.549  34.706  29.678  1.00  0.00    -0.206 F 
ATOM    100  C   UNL A   1      44.945  35.946  27.823  1.00  0.00     0.040 A 
ATOM    101  C   UNL A   1      44.199  34.883  25.829  1.00  0.00     0.040 A 
ATOM    102  F   UNL A   1      43.857  32.600  25.739  1.00  0.00    -0.206 F 
ATOM    103  C   UNL A   1      44.543  36.044  26.502  1.00  0.00     0.006 A 
ENDBRANCH  79  96
ENDBRANCH  53  54
ENDBRANCH  46  48
ENDBRANCH  45  46
ENDBRANCH  44  45
ENDBRANCH  43  44
ENDBRANCH  42  43
ENDBRANCH  41  42
ENDBRANCH   1  41
TORSDOF 23
ENDMDL
MODEL 2
REMARK VINA RESULT:     -10.4      6.723     11.923
REMARK SMILES Cc1cccc(C(=O)Nc2cc(C(=O)OCCOCCOCCOC(=O)c3ccc(-c4c5nc(c(-c6c(F)cccc6F)c6ccc([nH]6)c(-c6c(F)cccc6F)c6nc(c(-c7c(F)cccc7F)c7ccc4[nH]7)C=C6)C=C5)cc3)ccc2N2CC[NH+](CC(=O)NC(C)(C)C)CC2)c1
REMARK SMILES IDX 19 1 18 2 17 3 16 4 15 5 13 6 14 7 12 8 10 9 11 10 83 11
REMARK SMILES IDX 82 12 81 13 9 14 7 15 8 16 6 18 1 19 2 20 3 21 98 22 4 23
REMARK SMILES IDX 5 24 84 25 85 26 97 27 86 28 96 29 87 30 88 32 89 33 90 34
REMARK SMILES IDX 91 35 92 37 93 38 94 39 95 40 20 41 21 42 22 43 23 44 24 45
REMARK SMILES IDX 25 46 26 47 27 48 28 49 80 50 29 51 79 52 30 53 31 54 32 55
REMARK SMILES IDX 73 56 33 57 78 58 72 59 74 60 34 61 77 62 71 63 70 64 35 66
REMARK SMILES IDX 61 67 44 68 60 69 45 70 48 71 59 72 75 73 46 74 47 75 58 77
REMARK SMILES IDX 76 78 49 79 36 80 37 81 42 82 38 83 39 84 41 85 43 86 40 87
REMARK SMILES IDX 62 88 63 89 68 90 64 91 65 92 67 93 69 94 66 95 50 96 51 97
REMARK SMILES IDX 56 98 52 99 53 100 55 101 57 102 54 103
REMARK H PARENT 9 17 87 31 91 36 74 65 48 76
REMARK Flexibility Score: inf
ROOT
ATOM      1  C   UNL A   1      37.695  29.408  28.905  1.00  0.00     0.188 C 
ENDROOT
BRANCH   1   2
ATOM      2  O   UNL A   1      36.775  30.458  29.273  1.00  0.00    -0.376 OA
BRANCH   2   3
ATOM      3  C   UNL A   1      36.008  31.288  28.396  1.00  0.00     0.202 C 
BRANCH   3   4
ATOM      4  C   UNL A   1      34.774  30.788  27.328  1.00  0.00     0.261 C 
BRANCH   4   5
ATOM      5  O   UNL A   1      33.160  30.937  27.342  1.00  0.00    -0.460 OA
BRANCH   5   6
ATOM      6  C   UNL A   1      32.037  30.614  26.566  1.00  0.00     0.338 C 
ATOM      7  O   UNL A   1      31.253  31.279  25.890  1.00  0.00    -0.246 OA
BRANCH   6   8
ATOM      8  C   UNL A   1      31.657  29.227  26.465  1.00  0.00     0.062 A 
ATOM      9  C   UNL A   1      31.613  27.519  24.897  1.00  0.00     0.065 A 
ATOM     10  C   UNL A   1      31.369  28.838  25.195  1.00  0.00     0.044 A 
ATOM     11  C   UNL A   1      31.878  26.514  25.890  1.00  0.00     0.061 A 
ATOM     12  C   UNL A   1      32.108  26.943  27.192  1.00  0.00     0.029 A 
ATOM     13  C   UNL A   1      32.089  28.304  27.451  1.00  0.00     0.018 A 
BRANCH   9  14
ATOM     14  N   UNL A   1      31.757  27.247  23.537  1.00  0.00    -0.320 N 
ATOM     15  C   UNL A   1      30.896  27.617  22.511  1.00  0.00     0.255 C 
ATOM     16  O   UNL A   1      31.138  27.180  21.383  1.00  0.00    -0.269 OA
ATOM     17  H   UNL A   1      32.556  26.736  23.275  1.00  0.00     0.170 HD
BRANCH  15  18
ATOM     18  C   UNL A   1      29.755  28.609  22.652  1.00  0.00     0.040 A 
ATOM     19  C   UNL A   1      28.591  32.220  21.956  1.00  0.00     0.044 C 
ATOM     20  C   UNL A   1      28.589  30.757  22.312  1.00  0.00    -0.050 A 
ATOM     21  C   UNL A   1      27.397  30.178  22.755  1.00  0.00     0.003 A 
ATOM     22  C   UNL A   1      29.761  29.963  22.253  1.00  0.00     0.017 A 
ATOM     23  C   UNL A   1      27.369  28.838  23.125  1.00  0.00     0.001 A 
ATOM     24  C   UNL A   1      28.535  28.069  23.088  1.00  0.00     0.014 A 
ENDBRANCH  15  18
ENDBRANCH   9  14
BRANCH  11  25
ATOM     25  N   UNL A   1      32.123  25.201  25.536  1.00  0.00    -0.359 N 
ATOM     26  C   UNL A   1      31.117  24.128  25.418  1.00  0.00     0.178 C 
ATOM     27  C   UNL A   1      33.372  24.674  26.050  1.00  0.00     0.178 C 
ATOM     28  C   UNL A   1      31.721  22.916  24.611  1.00  0.00     0.284 C 
ATOM     29  C   UNL A   1      33.959  23.797  24.952  1.00  0.00     0.284 C 
ATOM     30  N   UNL A   1      33.167  22.584  24.751  1.00  0.00    -0.324 N 
ATOM     31  H   UNL A   1      33.410  22.159  23.856  1.00  0.00     0.348 HD
BRANCH  30  32
ATOM     32  C   UNL A   1      33.528  21.506  25.693  1.00  0.00     0.363 C 
BRANCH  32  33
ATOM     33  C   UNL A   1      34.678  20.594  25.276  1.00  0.00     0.275 C 
ATOM     34  O   UNL A   1      35.842  21.010  25.352  1.00  0.00    -0.268 OA
ATOM     35  N   UNL A   1      34.533  19.320  24.815  1.00  0.00    -0.347 N 
ATOM     36  H   UNL A   1      35.410  18.872  24.798  1.00  0.00     0.164 HD
BRANCH  35  37
ATOM     37  C   UNL A   1      33.477  18.382  24.329  1.00  0.00     0.032 C 
ATOM     38  C   UNL A   1      34.097  17.167  23.610  1.00  0.00     0.034 C 
ATOM     39  C   UNL A   1      32.782  17.819  25.587  1.00  0.00     0.034 C 
ATOM     40  C   UNL A   1      32.389  19.003  23.449  1.00  0.00     0.034 C 
ENDBRANCH  35  37
ENDBRANCH  32  33
ENDBRANCH  30  32
ENDBRANCH  11  25
ENDBRANCH   6   8
ENDBRANCH   5   6
ENDBRANCH   4   5
ENDBRANCH   3   4
ENDBRANCH   2   3
ENDBRANCH   1   2
BRANCH   1  41
ATOM     41  C   UNL A   1      38.490  28.525  29.886  1.00  0.00     0.188 C 
BRANCH  41  42
ATOM     42  O   UNL A   1      37.968  28.554  31.201  1.00  0.00    -0.376 OA
BRANCH  42  43
ATOM     43  C   UNL A   1      38.568  27.665  32.135  1.00  0.00     0.202 C 
BRANCH  43  44
ATOM     44  C   UNL A   1      40.061  27.928  32.444  1.00  0.00     0.261 C 
BRANCH  44  45
ATOM     45  O   UNL A   1      40.268  29.196  33.113  1.00  0.00    -0.460 OA
BRANCH  45  46
ATOM     46  C   UNL A   1      41.199  30.048  32.574  1.00  0.00     0.338 C 
ATOM     47  O   UNL A   1      41.538  30.056  31.399  1.00  0.00    -0.246 OA
BRANCH  46  48
ATOM     48  C   UNL A   1      41.906  30.793  33.664  1.00  0.00     0.060 A 
ATOM     49  C   UNL A   1      42.525  30.247  34.794  1.00  0.00     0.016 A 
ATOM     50  C   UNL A   1      41.591  32.099  33.757  1.00  0.00     0.016 A 
ATOM     51  C   UNL A   1      42.650  31.001  36.043  1.00  0.00     0.010 A 
ATOM     52  C   UNL A   1      41.430  32.584  35.052  1.00  0.00     0.010 A 
ATOM     53  C   UNL A   1      42.020  32.231  36.273  1.00  0.00    -0.014 A 
BRANCH  53  54
ATOM     54  C   UNL A   1      41.842  33.069  37.719  1.00  0.00     0.031 A 
ATOM     55  C   UNL A   1      42.692  33.106  39.202  1.00  0.00     0.074 A 
ATOM     56  C   UNL A   1      40.829  33.968  37.691  1.00  0.00     0.049 A 
ATOM     57  N   UNL A   1      42.715  34.138  40.042  1.00  0.00    -0.248 NA
ATOM     58  C   UNL A   1      43.623  32.102  39.839  1.00  0.00     0.031 C 
ATOM     59  C   UNL A   1      40.398  34.923  38.710  1.00  0.00     0.029 A 
ATOM     60  N   UNL A   1      39.813  34.048  36.730  1.00  0.00    -0.354 N 
ATOM     61  C   UNL A   1      43.541  33.817  41.130  1.00  0.00     0.074 A 
ATOM     62  C   UNL A   1      44.405  32.823  40.635  1.00  0.00     0.031 C 
ATOM     63  C   UNL A   1      39.096  35.187  38.530  1.00  0.00     0.029 A 
ATOM     64  C   UNL A   1      38.640  34.359  37.432  1.00  0.00     0.049 A 
ATOM     65  H   UNL A   1      39.904  33.913  35.759  1.00  0.00     0.167 HD
ATOM     66  C   UNL A   1      43.196  33.759  42.457  1.00  0.00     0.037 A 
ATOM     67  C   UNL A   1      37.641  33.441  37.501  1.00  0.00     0.037 A 
ATOM     68  C   UNL A   1      41.781  33.946  42.621  1.00  0.00     0.049 A 
ATOM     69  C   UNL A   1      37.450  32.951  38.913  1.00  0.00     0.074 A 
ATOM     70  C   UNL A   1      40.990  35.074  42.632  1.00  0.00     0.029 A 
ATOM     71  N   UNL A   1      40.941  32.851  42.448  1.00  0.00    -0.354 N 
ATOM     72  N   UNL A   1      38.385  32.883  39.825  1.00  0.00    -0.248 NA
ATOM     73  C   UNL A   1      36.136  32.561  39.405  1.00  0.00     0.031 C 
ATOM     74  C   UNL A   1      39.659  34.655  42.405  1.00  0.00     0.029 A 
ATOM     75  C   UNL A   1      39.633  33.270  42.310  1.00  0.00     0.049 A 
ATOM     76  H   UNL A   1      41.237  31.912  42.429  1.00  0.00     0.167 HD
ATOM     77  C   UNL A   1      37.818  32.467  41.005  1.00  0.00     0.074 A 
ATOM     78  C   UNL A   1      36.413  32.292  40.689  1.00  0.00     0.031 C 
ATOM     79  C   UNL A   1      38.510  32.346  42.180  1.00  0.00     0.037 A 
BRANCH  66  80
ATOM     80  C   UNL A   1      44.167  33.439  43.606  1.00  0.00     0.057 A 
ATOM     81  C   UNL A   1      45.151  34.380  43.950  1.00  0.00     0.134 A 
ATOM     82  C   UNL A   1      44.252  32.246  44.361  1.00  0.00     0.134 A 
ATOM     83  F   UNL A   1      45.163  35.594  43.383  1.00  0.00    -0.206 F 
ATOM     84  C   UNL A   1      46.180  34.114  44.878  1.00  0.00     0.040 A 
ATOM     85  C   UNL A   1      45.310  31.936  45.235  1.00  0.00     0.040 A 
ATOM     86  F   UNL A   1      43.281  31.329  44.356  1.00  0.00    -0.206 F 
ATOM     87  C   UNL A   1      46.291  32.872  45.490  1.00  0.00     0.006 A 
ENDBRANCH  66  80
BRANCH  67  88
ATOM     88  C   UNL A   1      37.425  32.651  36.251  1.00  0.00     0.057 A 
ATOM     89  C   UNL A   1      36.665  33.240  35.214  1.00  0.00     0.134 A 
ATOM     90  C   UNL A   1      38.127  31.488  35.923  1.00  0.00     0.134 A 
ATOM     91  F   UNL A   1      35.940  34.346  35.450  1.00  0.00    -0.206 F 
ATOM     92  C   UNL A   1      36.708  32.781  33.895  1.00  0.00     0.040 A 
ATOM     93  C   UNL A   1      38.159  31.001  34.603  1.00  0.00     0.040 A 
ATOM     94  F   UNL A   1      38.901  30.875  36.828  1.00  0.00    -0.206 F 
ATOM     95  C   UNL A   1      37.474  31.666  33.583  1.00  0.00     0.006 A 
ENDBRANCH  67  88
BRANCH  79  96
ATOM     96  C   UNL A   1      38.019  31.568  43.389  1.00  0.00     0.057 A 
ATOM     97  C   UNL A   1      37.463  32.157  44.538  1.00  0.00     0.134 A 
ATOM     98  C   UNL A   1      38.006  30.155  43.403  1.00  0.00     0.134 A 
ATOM     99  F   UNL A   1      37.194  33.468  44.601  1.00  0.00    -0.206 F 
ATOM    100  C   UNL A   1      37.094  31.422  45.672  1.00  0.00     0.040 A 
ATOM    101  C   UNL A   1      37.580  29.405  44.506  1.00  0.00     0.040 A 
ATOM    102  F   UNL A   1      38.362  29.430  42.334  1.00  0.00    -0.206 F 
ATOM    103  C   UNL A   1      37.160  30.040  45.664  1.00  0.00     0.006 A 
ENDBRANCH  79  96
ENDBRANCH  53  54
ENDBRANCH  46  48
ENDBRANCH  45  46
ENDBRANCH  44  45
ENDBRANCH  43  44
ENDBRANCH  42  43
ENDBRANCH  41  42
ENDBRANCH   1  41
TORSDOF 23
ENDMDL
MODEL 3
REMARK VINA RESULT:      -9.7      1.620      2.251
REMARK SMILES Cc1cccc(C(=O)Nc2cc(C(=O)OCCOCCOCCOC(=O)c3ccc(-c4c5nc(c(-c6c(F)cccc6F)c6ccc([nH]6)c(-c6c(F)cccc6F)c6nc(c(-c7c(F)cccc7F)c7ccc4[nH]7)C=C6)C=C5)cc3)ccc2N2CC[NH+](CC(=O)NC(C)(C)C)CC2)c1
REMARK SMILES IDX 19 1 18 2 17 3 16 4 15 5 13 6 14 7 12 8 10 9 11 10 83 11
REMARK SMILES IDX 82 12 81 13 9 14 7 15 8 16 6 18 1 19 2 20 3 21 98 22 4 23
REMARK SMILES IDX 5 24 84 25 85 26 97 27 86 28 96 29 87 30 88 32 89 33 90 34
REMARK SMILES IDX 91 35 92 37 93 38 94 39 95 40 20 41 21 42 22 43 23 44 24 45
REMARK SMILES IDX 25 46 26 47 27 48 28 49 80 50 29 51 79 52 30 53 31 54 32 55
REMARK SMILES IDX 73 56 33 57 78 58 72 59 74 60 34 61 77 62 71 63 70 64 35 66
REMARK SMILES IDX 61 67 44 68 60 69 45 70 48 71 59 72 75 73 46 74 47 75 58 77
REMARK SMILES IDX 76 78 49 79 36 80 37 81 42 82 38 83 39 84 41 85 43 86 40 87
REMARK SMILES IDX 62 88 63 89 68 90 64 91 65 92 67 93 69 94 66 95 50 96 51 97
REMARK SMILES IDX 56 98 52 99 53 100 55 101 57 102 54 103
REMARK H PARENT 9 17 87 31 91 36 74 65 48 76
REMARK Flexibility Score: inf
ROOT
ATOM      1  C   UNL A   1      35.637  22.546  24.406  1.00  0.00     0.188 C 
ENDROOT
BRANCH   1   2
ATOM      2  O   UNL A   1      35.129  21.775  25.516  1.00  0.00    -0.376 OA
BRANCH   2   3
ATOM      3  C   UNL A   1      34.255  20.644  25.458  1.00  0.00     0.202 C 
BRANCH   3   4
ATOM      4  C   UNL A   1      32.652  20.613  24.876  1.00  0.00     0.261 C 
BRANCH   4   5
ATOM      5  O   UNL A   1      31.483  21.732  24.768  1.00  0.00    -0.460 OA
BRANCH   5   6
ATOM      6  C   UNL A   1      31.300  23.073  24.400  1.00  0.00     0.338 C 
ATOM      7  O   UNL A   1      30.590  23.635  23.567  1.00  0.00    -0.246 OA
BRANCH   6   8
ATOM      8  C   UNL A   1      32.049  24.081  25.109  1.00  0.00     0.062 A 
ATOM      9  C   UNL A   1      33.258  26.011  24.675  1.00  0.00     0.065 A 
ATOM     10  C   UNL A   1      32.970  24.712  24.334  1.00  0.00     0.044 A 
ATOM     11  C   UNL A   1      32.861  26.615  25.918  1.00  0.00     0.061 A 
ATOM     12  C   UNL A   1      31.964  25.914  26.715  1.00  0.00     0.029 A 
ATOM     13  C   UNL A   1      31.491  24.694  26.259  1.00  0.00     0.018 A 
BRANCH   9  14
ATOM     14  N   UNL A   1      33.820  26.771  23.649  1.00  0.00    -0.320 N 
ATOM     15  C   UNL A   1      33.147  27.511  22.686  1.00  0.00     0.255 C 
ATOM     16  O   UNL A   1      33.822  28.023  21.789  1.00  0.00    -0.269 OA
ATOM     17  H   UNL A   1      34.804  26.783  23.603  1.00  0.00     0.170 HD
BRANCH  15  18
ATOM     18  C   UNL A   1      31.662  27.833  22.721  1.00  0.00     0.040 A 
ATOM     19  C   UNL A   1      28.184  26.624  23.869  1.00  0.00     0.044 C 
ATOM     20  C   UNL A   1      29.304  27.493  23.360  1.00  0.00    -0.050 A 
ATOM     21  C   UNL A   1      29.003  28.788  22.932  1.00  0.00     0.003 A 
ATOM     22  C   UNL A   1      30.638  27.026  23.262  1.00  0.00     0.017 A 
ATOM     23  C   UNL A   1      30.007  29.604  22.422  1.00  0.00     0.001 A 
ATOM     24  C   UNL A   1      31.315  29.128  22.306  1.00  0.00     0.014 A 
ENDBRANCH  15  18
ENDBRANCH   9  14
BRANCH  11  25
ATOM     25  N   UNL A   1      33.171  27.931  26.209  1.00  0.00    -0.359 N 
ATOM     26  C   UNL A   1      34.282  28.396  27.062  1.00  0.00     0.178 C 
ATOM     27  C   UNL A   1      32.013  28.789  26.368  1.00  0.00     0.178 C 
ATOM     28  C   UNL A   1      34.541  29.930  26.811  1.00  0.00     0.284 C 
ATOM     29  C   UNL A   1      32.373  30.126  25.733  1.00  0.00     0.284 C 
ATOM     30  N   UNL A   1      33.394  30.832  26.506  1.00  0.00    -0.324 N 
ATOM     31  H   UNL A   1      33.806  31.571  25.938  1.00  0.00     0.348 HD
BRANCH  30  32
ATOM     32  C   UNL A   1      32.824  31.608  27.625  1.00  0.00     0.363 C 
BRANCH  32  33
ATOM     33  C   UNL A   1      32.244  32.976  27.279  1.00  0.00     0.275 C 
ATOM     34  O   UNL A   1      31.328  33.056  26.449  1.00  0.00    -0.268 OA
ATOM     35  N   UNL A   1      32.656  34.156  27.821  1.00  0.00    -0.347 N 
ATOM     36  H   UNL A   1      32.014  34.868  27.595  1.00  0.00     0.164 HD
BRANCH  35  37
ATOM     37  C   UNL A   1      33.765  34.721  28.649  1.00  0.00     0.032 C 
ATOM     38  C   UNL A   1      35.070  34.828  27.836  1.00  0.00     0.034 C 
ATOM     39  C   UNL A   1      33.359  36.172  28.988  1.00  0.00     0.034 C 
ATOM     40  C   UNL A   1      34.038  34.005  29.974  1.00  0.00     0.034 C 
ENDBRANCH  35  37
ENDBRANCH  32  33
ENDBRANCH  30  32
ENDBRANCH  11  25
ENDBRANCH   6   8
ENDBRANCH   5   6
ENDBRANCH   4   5
ENDBRANCH   3   4
ENDBRANCH   2   3
ENDBRANCH   1   2
BRANCH   1  41
ATOM     41  C   UNL A   1      37.093  23.021  24.235  1.00  0.00     0.188 C 
BRANCH  41  42
ATOM     42  O   UNL A   1      37.961  22.509  25.228  1.00  0.00    -0.376 OA
BRANCH  42  43
ATOM     43  C   UNL A   1      38.066  23.270  26.425  1.00  0.00     0.202 C 
BRANCH  43  44
ATOM     44  C   UNL A   1      39.457  23.258  27.103  1.00  0.00     0.261 C 
BRANCH  44  45
ATOM     45  O   UNL A   1      40.470  23.903  26.292  1.00  0.00    -0.460 OA
BRANCH  45  46
ATOM     46  C   UNL A   1      41.658  24.220  26.903  1.00  0.00     0.338 C 
ATOM     47  O   UNL A   1      42.711  23.623  26.728  1.00  0.00    -0.246 OA
BRANCH  46  48
ATOM     48  C   UNL A   1      41.426  25.232  27.981  1.00  0.00     0.060 A 
ATOM     49  C   UNL A   1      40.769  26.462  27.857  1.00  0.00     0.016 A 
ATOM     50  C   UNL A   1      42.239  25.122  29.049  1.00  0.00     0.016 A 
ATOM     51  C   UNL A   1      41.088  27.597  28.725  1.00  0.00     0.010 A 
ATOM     52  C   UNL A   1      42.719  26.325  29.562  1.00  0.00     0.010 A 
ATOM     53  C   UNL A   1      42.174  27.615  29.611  1.00  0.00    -0.014 A 
BRANCH  53  54
ATOM     54  C   UNL A   1      42.825  28.916  30.452  1.00  0.00     0.031 A 
ATOM     55  C   UNL A   1      42.214  30.054  31.571  1.00  0.00     0.074 A 
ATOM     56  C   UNL A   1      44.156  29.067  30.249  1.00  0.00     0.049 A 
ATOM     57  N   UNL A   1      42.941  30.695  32.482  1.00  0.00    -0.248 NA
ATOM     58  C   UNL A   1      40.802  30.515  31.847  1.00  0.00     0.031 C 
ATOM     59  C   UNL A   1      45.089  30.025  30.839  1.00  0.00     0.029 A 
ATOM     60  N   UNL A   1      44.921  28.455  29.247  1.00  0.00    -0.354 N 
ATOM     61  C   UNL A   1      42.095  31.518  33.240  1.00  0.00     0.074 A 
ATOM     62  C   UNL A   1      40.823  30.931  33.109  1.00  0.00     0.031 C 
ATOM     63  C   UNL A   1      46.111  30.210  29.992  1.00  0.00     0.029 A 
ATOM     64  C   UNL A   1      45.830  29.426  28.807  1.00  0.00     0.049 A 
ATOM     65  H   UNL A   1      44.836  27.531  28.920  1.00  0.00     0.167 HD
ATOM     66  C   UNL A   1      42.156  32.882  33.381  1.00  0.00     0.037 A 
ATOM     67  C   UNL A   1      45.720  29.920  27.546  1.00  0.00     0.037 A 
ATOM     68  C   UNL A   1      43.160  33.435  32.515  1.00  0.00     0.049 A 
ATOM     69  C   UNL A   1      45.340  31.378  27.564  1.00  0.00     0.074 A 
ATOM     70  C   UNL A   1      44.530  33.527  32.625  1.00  0.00     0.029 A 
ATOM     71  N   UNL A   1      42.831  33.678  31.186  1.00  0.00    -0.354 N 
ATOM     72  N   UNL A   1      44.638  31.967  28.499  1.00  0.00    -0.248 NA
ATOM     73  C   UNL A   1      45.804  32.292  26.530  1.00  0.00     0.031 C 
ATOM     74  C   UNL A   1      45.038  33.771  31.327  1.00  0.00     0.029 A 
ATOM     75  C   UNL A   1      43.976  33.882  30.441  1.00  0.00     0.049 A 
ATOM     76  H   UNL A   1      41.914  33.703  30.827  1.00  0.00     0.167 HD
ATOM     77  C   UNL A   1      44.567  33.309  28.213  1.00  0.00     0.074 A 
ATOM     78  C   UNL A   1      45.320  33.458  26.981  1.00  0.00     0.031 C 
ATOM     79  C   UNL A   1      43.953  34.226  29.022  1.00  0.00     0.037 A 
BRANCH  66  80
ATOM     80  C   UNL A   1      41.215  33.718  34.264  1.00  0.00     0.057 A 
ATOM     81  C   UNL A   1      41.438  33.761  35.650  1.00  0.00     0.134 A 
ATOM     82  C   UNL A   1      40.064  34.438  33.866  1.00  0.00     0.134 A 
ATOM     83  F   UNL A   1      42.530  33.195  36.183  1.00  0.00    -0.206 F 
ATOM     84  C   UNL A   1      40.544  34.369  36.557  1.00  0.00     0.040 A 
ATOM     85  C   UNL A   1      39.125  34.986  34.758  1.00  0.00     0.040 A 
ATOM     86  F   UNL A   1      39.806  34.718  32.586  1.00  0.00    -0.206 F 
ATOM     87  C   UNL A   1      39.359  34.944  36.117  1.00  0.00     0.006 A 
ENDBRANCH  66  80
BRANCH  67  88
ATOM     88  C   UNL A   1      45.333  28.916  26.508  1.00  0.00     0.057 A 
ATOM     89  C   UNL A   1      46.351  28.110  25.949  1.00  0.00     0.134 A 
ATOM     90  C   UNL A   1      44.017  28.531  26.236  1.00  0.00     0.134 A 
ATOM     91  F   UNL A   1      47.643  28.424  26.140  1.00  0.00    -0.206 F 
ATOM     92  C   UNL A   1      46.082  26.917  25.275  1.00  0.00     0.040 A 
ATOM     93  C   UNL A   1      43.733  27.344  25.537  1.00  0.00     0.040 A 
ATOM     94  F   UNL A   1      42.983  29.212  26.748  1.00  0.00    -0.206 F 
ATOM     95  C   UNL A   1      44.766  26.521  25.083  1.00  0.00     0.006 A 
ENDBRANCH  67  88
BRANCH  79  96
ATOM     96  C   UNL A   1      43.548  35.623  28.583  1.00  0.00     0.057 A 
ATOM     97  C   UNL A   1      42.289  35.953  28.050  1.00  0.00     0.134 A 
ATOM     98  C   UNL A   1      44.404  36.733  28.768  1.00  0.00     0.134 A 
ATOM     99  F   UNL A   1      41.283  35.069  28.014  1.00  0.00    -0.206 F 
ATOM    100  C   UNL A   1      41.971  37.233  27.576  1.00  0.00     0.040 A 
ATOM    101  C   UNL A   1      44.073  38.031  28.356  1.00  0.00     0.040 A 
ATOM    102  F   UNL A   1      45.582  36.625  29.396  1.00  0.00    -0.206 F 
ATOM    103  C   UNL A   1      42.868  38.277  27.719  1.00  0.00     0.006 A 
ENDBRANCH  79  96
ENDBRANCH  53  54
ENDBRANCH  46  48
ENDBRANCH  45  46
ENDBRANCH  44  45
ENDBRANCH  43  44
ENDBRANCH  42  43
ENDBRANCH  41  42
ENDBRANCH   1  41
TORSDOF 23
ENDMDL
