MODEL 1
REMARK VINA RESULT:     -10.3      0.000      0.000
REMARK SMILES O=C(OCCOCCOCCOC(=O)[C@H]1CS[C@H](c2nc3ccccc3s2)[NH2+]1)c1ccc(-c2c3nc(c(-c4c(F)cccc4F)c4ccc([nH]4)c(-c4c(F)cccc4F)c4nc(c(-c5c(F)cccc5F)c5ccc2[nH]5)C=C4)C=C3)cc1
REMARK SMILES IDX 7 1 6 2 5 3 4 4 3 5 2 6 1 7 29 8 30 9 82 10 31 11 81 12
REMARK SMILES IDX 32 13 33 14 34 15 75 16 35 17 80 18 74 19 76 20 36 21 79 22
REMARK SMILES IDX 73 23 72 24 37 26 63 27 46 28 62 29 47 30 50 31 61 32 77 33
REMARK SMILES IDX 48 34 49 35 60 37 78 38 51 39 38 40 39 41 44 42 40 43 41 44
REMARK SMILES IDX 43 45 45 46 42 47 64 48 65 49 70 50 66 51 67 52 69 53 71 54
REMARK SMILES IDX 68 55 52 56 53 57 58 58 54 59 55 60 57 61 59 62 56 63 8 64
REMARK SMILES IDX 9 65 10 66 11 67 12 68 13 69 14 70 15 71 16 72 28 73 17 74
REMARK SMILES IDX 18 75 19 78 20 79 27 80 21 81 26 82 22 83 25 84 23 85 24 86
REMARK H PARENT 76 25 50 36 28 76 28 77
REMARK Flexibility Score: inf
ROOT
ATOM      1  C   UNL A   1      41.870  21.286  26.477  1.00  0.00     0.188 C 
ENDROOT
BRANCH   1   2
ATOM      2  O   UNL A   1      42.736  20.857  25.422  1.00  0.00    -0.376 OA
BRANCH   2   3
ATOM      3  C   UNL A   1      44.018  21.499  25.424  1.00  0.00     0.202 C 
BRANCH   3   4
ATOM      4  C   UNL A   1      44.245  22.588  24.355  1.00  0.00     0.261 C 
BRANCH   4   5
ATOM      5  O   UNL A   1      43.615  23.850  24.646  1.00  0.00    -0.460 OA
BRANCH   5   6
ATOM      6  C   UNL A   1      44.172  24.985  25.141  1.00  0.00     0.338 C 
ATOM      7  O   UNL A   1      45.251  25.358  24.684  1.00  0.00    -0.246 OA
BRANCH   6   8
ATOM      8  C   UNL A   1      43.558  25.797  26.235  1.00  0.00     0.060 A 
ATOM      9  C   UNL A   1      43.915  27.108  26.540  1.00  0.00     0.016 A 
ATOM     10  C   UNL A   1      42.503  25.222  26.966  1.00  0.00     0.016 A 
ATOM     11  C   UNL A   1      43.336  27.803  27.584  1.00  0.00     0.010 A 
ATOM     12  C   UNL A   1      41.872  25.933  27.994  1.00  0.00     0.010 A 
ATOM     13  C   UNL A   1      42.316  27.220  28.322  1.00  0.00    -0.014 A 
BRANCH  13  14
ATOM     14  C   UNL A   1      41.860  27.939  29.521  1.00  0.00     0.031 A 
ATOM     15  C   UNL A   1      40.631  28.781  29.401  1.00  0.00     0.074 A 
ATOM     16  C   UNL A   1      42.439  27.697  30.710  1.00  0.00     0.049 A 
ATOM     17  N   UNL A   1      40.057  29.536  30.296  1.00  0.00    -0.248 NA
ATOM     18  C   UNL A   1      39.935  28.745  28.102  1.00  0.00     0.031 C 
ATOM     19  C   UNL A   1      43.524  26.741  30.935  1.00  0.00     0.029 A 
ATOM     20  N   UNL A   1      42.191  28.210  31.952  1.00  0.00    -0.354 N 
ATOM     21  C   UNL A   1      38.946  30.078  29.665  1.00  0.00     0.074 A 
ATOM     22  C   UNL A   1      38.931  29.582  28.309  1.00  0.00     0.031 C 
ATOM     23  C   UNL A   1      43.873  26.761  32.230  1.00  0.00     0.029 A 
ATOM     24  C   UNL A   1      43.062  27.757  32.913  1.00  0.00     0.049 A 
ATOM     25  H   UNL A   1      41.460  28.843  32.139  1.00  0.00     0.167 HD
ATOM     26  C   UNL A   1      38.026  30.918  30.186  1.00  0.00     0.037 A 
ATOM     27  C   UNL A   1      43.207  28.144  34.193  1.00  0.00     0.037 A 
ATOM     28  C   UNL A   1      38.083  31.392  31.541  1.00  0.00     0.049 A 
ATOM     29  C   UNL A   1      42.268  29.198  34.705  1.00  0.00     0.074 A 
ATOM     30  C   UNL A   1      37.258  32.296  32.180  1.00  0.00     0.029 A 
ATOM     31  N   UNL A   1      39.038  30.989  32.468  1.00  0.00    -0.354 N 
ATOM     32  N   UNL A   1      41.261  29.770  34.087  1.00  0.00    -0.248 NA
ATOM     33  C   UNL A   1      42.482  29.667  36.077  1.00  0.00     0.031 C 
ATOM     34  C   UNL A   1      37.749  32.485  33.476  1.00  0.00     0.029 A 
ATOM     35  C   UNL A   1      38.842  31.650  33.666  1.00  0.00     0.049 A 
ATOM     36  H   UNL A   1      39.750  30.331  32.297  1.00  0.00     0.167 HD
ATOM     37  C   UNL A   1      40.699  30.646  35.003  1.00  0.00     0.074 A 
ATOM     38  C   UNL A   1      41.476  30.519  36.222  1.00  0.00     0.031 C 
ATOM     39  C   UNL A   1      39.640  31.481  34.857  1.00  0.00     0.037 A 
BRANCH  26  40
ATOM     40  C   UNL A   1      36.960  31.421  29.259  1.00  0.00     0.057 A 
ATOM     41  C   UNL A   1      36.951  32.732  28.764  1.00  0.00     0.134 A 
ATOM     42  C   UNL A   1      35.892  30.589  28.898  1.00  0.00     0.134 A 
ATOM     43  F   UNL A   1      37.925  33.593  29.099  1.00  0.00    -0.206 F 
ATOM     44  C   UNL A   1      35.904  33.205  27.969  1.00  0.00     0.040 A 
ATOM     45  C   UNL A   1      34.854  31.042  28.084  1.00  0.00     0.040 A 
ATOM     46  F   UNL A   1      35.832  29.326  29.348  1.00  0.00    -0.206 F 
ATOM     47  C   UNL A   1      34.853  32.358  27.625  1.00  0.00     0.006 A 
ENDBRANCH  26  40
BRANCH  27  48
ATOM     48  C   UNL A   1      44.298  27.585  35.034  1.00  0.00     0.057 A 
ATOM     49  C   UNL A   1      44.118  26.439  35.814  1.00  0.00     0.134 A 
ATOM     50  C   UNL A   1      45.557  28.200  35.086  1.00  0.00     0.134 A 
ATOM     51  F   UNL A   1      42.935  25.807  35.823  1.00  0.00    -0.206 F 
ATOM     52  C   UNL A   1      45.139  25.938  36.628  1.00  0.00     0.040 A 
ATOM     53  C   UNL A   1      46.596  27.694  35.868  1.00  0.00     0.040 A 
ATOM     54  F   UNL A   1      45.797  29.300  34.362  1.00  0.00    -0.206 F 
ATOM     55  C   UNL A   1      46.384  26.564  36.652  1.00  0.00     0.006 A 
ENDBRANCH  27  48
BRANCH  39  56
ATOM     56  C   UNL A   1      39.245  32.280  36.060  1.00  0.00     0.057 A 
ATOM     57  C   UNL A   1      39.758  33.561  36.296  1.00  0.00     0.134 A 
ATOM     58  C   UNL A   1      38.298  31.777  36.959  1.00  0.00     0.134 A 
ATOM     59  F   UNL A   1      40.680  34.087  35.477  1.00  0.00    -0.206 F 
ATOM     60  C   UNL A   1      39.353  34.310  37.401  1.00  0.00     0.040 A 
ATOM     61  C   UNL A   1      37.862  32.529  38.049  1.00  0.00     0.040 A 
ATOM     62  F   UNL A   1      37.766  30.559  36.779  1.00  0.00    -0.206 F 
ATOM     63  C   UNL A   1      38.394  33.796  38.274  1.00  0.00     0.006 A 
ENDBRANCH  39  56
ENDBRANCH  13  14
ENDBRANCH   6   8
ENDBRANCH   5   6
ENDBRANCH   4   5
ENDBRANCH   3   4
ENDBRANCH   2   3
ENDBRANCH   1   2
BRANCH   1  64
ATOM     64  C   UNL A   1      40.551  20.520  26.528  1.00  0.00     0.188 C 
BRANCH  64  65
ATOM     65  O   UNL A   1      39.497  20.988  25.694  1.00  0.00    -0.376 OA
BRANCH  65  66
ATOM     66  C   UNL A   1      38.778  22.136  26.126  1.00  0.00     0.202 C 
BRANCH  66  67
ATOM     67  C   UNL A   1      37.449  22.465  25.428  1.00  0.00     0.261 C 
BRANCH  67  68
ATOM     68  O   UNL A   1      36.806  21.381  24.734  1.00  0.00    -0.459 OA
BRANCH  68  69
ATOM     69  C   UNL A   1      35.440  21.419  24.732  1.00  0.00     0.365 C 
ATOM     70  O   UNL A   1      34.716  20.442  24.850  1.00  0.00    -0.245 OA
BRANCH  69  71
ATOM     71  C   UNL A   1      34.910  22.862  24.616  1.00  0.00     0.304 C 
ATOM     72  C   UNL A   1      34.633  23.142  23.140  1.00  0.00     0.153 C 
ATOM     73  N   UNL A   1      33.685  23.045  25.468  1.00  0.00    -0.317 N 
ATOM     74  S   UNL A   1      32.863  22.867  22.976  1.00  0.00    -0.085 SA
ATOM     75  C   UNL A   1      32.562  23.538  24.638  1.00  0.00     0.303 C 
ATOM     76  H   UNL A   1      33.885  23.721  26.205  1.00  0.00     0.348 HD
ATOM     77  H   UNL A   1      33.428  22.149  25.882  1.00  0.00     0.348 HD
BRANCH  75  78
ATOM     78  C   UNL A   1      32.385  25.052  24.563  1.00  0.00     0.163 A 
ATOM     79  N   UNL A   1      33.200  25.904  25.159  1.00  0.00    -0.234 NA
ATOM     80  S   UNL A   1      31.116  25.799  23.671  1.00  0.00    -0.112 S 
ATOM     81  C   UNL A   1      32.702  27.191  25.082  1.00  0.00     0.082 A 
ATOM     82  C   UNL A   1      31.521  27.329  24.354  1.00  0.00     0.055 A 
ATOM     83  C   UNL A   1      33.268  28.329  25.691  1.00  0.00     0.030 A 
ATOM     84  C   UNL A   1      30.856  28.562  24.256  1.00  0.00     0.021 A 
ATOM     85  C   UNL A   1      32.618  29.562  25.596  1.00  0.00     0.002 A 
ATOM     86  C   UNL A   1      31.420  29.672  24.897  1.00  0.00     0.002 A 
ENDBRANCH  75  78
ENDBRANCH  69  71
ENDBRANCH  68  69
ENDBRANCH  67  68
ENDBRANCH  66  67
ENDBRANCH  65  66
ENDBRANCH  64  65
ENDBRANCH   1  64
TORSDOF 18
ENDMDL
MODEL 2
REMARK VINA RESULT:     -10.3      3.385      8.520
REMARK SMILES O=C(OCCOCCOCCOC(=O)[C@H]1CS[C@H](c2nc3ccccc3s2)[NH2+]1)c1ccc(-c2c3nc(c(-c4c(F)cccc4F)c4ccc([nH]4)c(-c4c(F)cccc4F)c4nc(c(-c5c(F)cccc5F)c5ccc2[nH]5)C=C4)C=C3)cc1
REMARK SMILES IDX 7 1 6 2 5 3 4 4 3 5 2 6 1 7 29 8 30 9 82 10 31 11 81 12
REMARK SMILES IDX 32 13 33 14 34 15 75 16 35 17 80 18 74 19 76 20 36 21 79 22
REMARK SMILES IDX 73 23 72 24 37 26 63 27 46 28 62 29 47 30 50 31 61 32 77 33
REMARK SMILES IDX 48 34 49 35 60 37 78 38 51 39 38 40 39 41 44 42 40 43 41 44
REMARK SMILES IDX 43 45 45 46 42 47 64 48 65 49 70 50 66 51 67 52 69 53 71 54
REMARK SMILES IDX 68 55 52 56 53 57 58 58 54 59 55 60 57 61 59 62 56 63 8 64
REMARK SMILES IDX 9 65 10 66 11 67 12 68 13 69 14 70 15 71 16 72 28 73 17 74
REMARK SMILES IDX 18 75 19 78 20 79 27 80 21 81 26 82 22 83 25 84 23 85 24 86
REMARK H PARENT 76 25 50 36 28 76 28 77
REMARK Flexibility Score: inf
ROOT
ATOM      1  C   UNL A   1      30.657  30.098  24.620  1.00  0.00     0.188 C 
ENDROOT
BRANCH   1   2
ATOM      2  O   UNL A   1      31.933  29.871  25.226  1.00  0.00    -0.376 OA
BRANCH   2   3
ATOM      3  C   UNL A   1      32.122  30.571  26.463  1.00  0.00     0.202 C 
BRANCH   3   4
ATOM      4  C   UNL A   1      31.386  31.918  26.612  1.00  0.00     0.261 C 
BRANCH   4   5
ATOM      5  O   UNL A   1      32.253  33.065  26.699  1.00  0.00    -0.460 OA
BRANCH   5   6
ATOM      6  C   UNL A   1      32.908  33.555  27.783  1.00  0.00     0.338 C 
ATOM      7  O   UNL A   1      32.489  34.585  28.308  1.00  0.00    -0.246 OA
BRANCH   6   8
ATOM      8  C   UNL A   1      34.133  32.925  28.363  1.00  0.00     0.060 A 
ATOM      9  C   UNL A   1      34.224  31.592  28.757  1.00  0.00     0.016 A 
ATOM     10  C   UNL A   1      35.294  33.712  28.458  1.00  0.00     0.016 A 
ATOM     11  C   UNL A   1      35.373  31.068  29.317  1.00  0.00     0.010 A 
ATOM     12  C   UNL A   1      36.481  33.181  28.975  1.00  0.00     0.010 A 
ATOM     13  C   UNL A   1      36.507  31.859  29.436  1.00  0.00    -0.014 A 
BRANCH  13  14
ATOM     14  C   UNL A   1      37.638  31.300  30.190  1.00  0.00     0.031 A 
ATOM     15  C   UNL A   1      38.561  30.369  29.472  1.00  0.00     0.074 A 
ATOM     16  C   UNL A   1      37.913  31.756  31.425  1.00  0.00     0.049 A 
ATOM     17  N   UNL A   1      39.597  29.720  29.926  1.00  0.00    -0.248 NA
ATOM     18  C   UNL A   1      38.298  30.162  28.037  1.00  0.00     0.031 C 
ATOM     19  C   UNL A   1      37.163  32.806  32.117  1.00  0.00     0.029 A 
ATOM     20  N   UNL A   1      38.899  31.420  32.309  1.00  0.00    -0.354 N 
ATOM     21  C   UNL A   1      40.098  29.017  28.840  1.00  0.00     0.074 A 
ATOM     22  C   UNL A   1      39.247  29.301  27.709  1.00  0.00     0.031 C 
ATOM     23  C   UNL A   1      37.695  33.004  33.332  1.00  0.00     0.029 A 
ATOM     24  C   UNL A   1      38.796  32.070  33.515  1.00  0.00     0.049 A 
ATOM     25  H   UNL A   1      39.614  30.775  32.102  1.00  0.00     0.167 HD
ATOM     26  C   UNL A   1      41.177  28.205  28.806  1.00  0.00     0.037 A 
ATOM     27  C   UNL A   1      39.492  31.891  34.651  1.00  0.00     0.037 A 
ATOM     28  C   UNL A   1      41.993  27.945  29.959  1.00  0.00     0.049 A 
ATOM     29  C   UNL A   1      40.589  30.865  34.632  1.00  0.00     0.074 A 
ATOM     30  C   UNL A   1      43.073  27.095  30.084  1.00  0.00     0.029 A 
ATOM     31  N   UNL A   1      41.804  28.546  31.199  1.00  0.00    -0.354 N 
ATOM     32  N   UNL A   1      41.018  30.141  33.625  1.00  0.00    -0.248 NA
ATOM     33  C   UNL A   1      41.293  30.624  35.895  1.00  0.00     0.031 C 
ATOM     34  C   UNL A   1      43.501  27.136  31.415  1.00  0.00     0.029 A 
ATOM     35  C   UNL A   1      42.728  28.062  32.105  1.00  0.00     0.049 A 
ATOM     36  H   UNL A   1      41.113  29.217  31.402  1.00  0.00     0.167 HD
ATOM     37  C   UNL A   1      42.063  29.377  34.122  1.00  0.00     0.074 A 
ATOM     38  C   UNL A   1      42.206  29.738  35.520  1.00  0.00     0.031 C 
ATOM     39  C   UNL A   1      42.836  28.461  33.488  1.00  0.00     0.037 A 
BRANCH  26  40
ATOM     40  C   UNL A   1      41.457  27.498  27.513  1.00  0.00     0.057 A 
ATOM     41  C   UNL A   1      40.939  26.229  27.222  1.00  0.00     0.134 A 
ATOM     42  C   UNL A   1      42.306  28.080  26.563  1.00  0.00     0.134 A 
ATOM     43  F   UNL A   1      40.148  25.598  28.104  1.00  0.00    -0.206 F 
ATOM     44  C   UNL A   1      41.280  25.552  26.048  1.00  0.00     0.040 A 
ATOM     45  C   UNL A   1      42.633  27.426  25.375  1.00  0.00     0.040 A 
ATOM     46  F   UNL A   1      42.846  29.289  26.783  1.00  0.00    -0.206 F 
ATOM     47  C   UNL A   1      42.127  26.153  25.120  1.00  0.00     0.006 A 
ENDBRANCH  26  40
BRANCH  27  48
ATOM     48  C   UNL A   1      39.137  32.642  35.884  1.00  0.00     0.057 A 
ATOM     49  C   UNL A   1      39.630  33.925  36.137  1.00  0.00     0.134 A 
ATOM     50  C   UNL A   1      38.296  32.080  36.855  1.00  0.00     0.134 A 
ATOM     51  F   UNL A   1      40.450  34.519  35.257  1.00  0.00    -0.206 F 
ATOM     52  C   UNL A   1      39.317  34.612  37.314  1.00  0.00     0.040 A 
ATOM     53  C   UNL A   1      37.949  32.765  38.020  1.00  0.00     0.040 A 
ATOM     54  F   UNL A   1      37.788  30.854  36.674  1.00  0.00    -0.206 F 
ATOM     55  C   UNL A   1      38.470  34.033  38.257  1.00  0.00     0.006 A 
ENDBRANCH  27  48
BRANCH  39  56
ATOM     56  C   UNL A   1      43.925  27.828  34.296  1.00  0.00     0.057 A 
ATOM     57  C   UNL A   1      45.186  28.420  34.429  1.00  0.00     0.134 A 
ATOM     58  C   UNL A   1      43.684  26.637  34.992  1.00  0.00     0.134 A 
ATOM     59  F   UNL A   1      45.479  29.552  33.773  1.00  0.00    -0.206 F 
ATOM     60  C   UNL A   1      46.179  27.837  35.217  1.00  0.00     0.040 A 
ATOM     61  C   UNL A   1      44.657  26.063  35.807  1.00  0.00     0.040 A 
ATOM     62  F   UNL A   1      42.491  26.029  34.909  1.00  0.00    -0.206 F 
ATOM     63  C   UNL A   1      45.911  26.661  35.916  1.00  0.00     0.006 A 
ENDBRANCH  39  56
ENDBRANCH  13  14
ENDBRANCH   6   8
ENDBRANCH   5   6
ENDBRANCH   4   5
ENDBRANCH   3   4
ENDBRANCH   2   3
ENDBRANCH   1   2
BRANCH   1  64
ATOM     64  C   UNL A   1      30.237  28.989  23.657  1.00  0.00     0.188 C 
BRANCH  64  65
ATOM     65  O   UNL A   1      31.106  28.717  22.564  1.00  0.00    -0.376 OA
BRANCH  65  66
ATOM     66  C   UNL A   1      31.474  27.363  22.340  1.00  0.00     0.202 C 
BRANCH  66  67
ATOM     67  C   UNL A   1      32.901  26.927  22.712  1.00  0.00     0.261 C 
BRANCH  67  68
ATOM     68  O   UNL A   1      33.261  27.036  24.100  1.00  0.00    -0.459 OA
BRANCH  68  69
ATOM     69  C   UNL A   1      32.654  26.137  24.931  1.00  0.00     0.365 C 
ATOM     70  O   UNL A   1      31.848  26.428  25.803  1.00  0.00    -0.245 OA
BRANCH  69  71
ATOM     71  C   UNL A   1      33.069  24.689  24.604  1.00  0.00     0.304 C 
ATOM     72  C   UNL A   1      34.024  24.216  25.698  1.00  0.00     0.153 C 
ATOM     73  N   UNL A   1      31.857  23.806  24.488  1.00  0.00    -0.317 N 
ATOM     74  S   UNL A   1      32.970  23.276  26.812  1.00  0.00    -0.085 SA
ATOM     75  C   UNL A   1      31.976  22.661  25.420  1.00  0.00     0.303 C 
ATOM     76  H   UNL A   1      31.783  23.459  23.532  1.00  0.00     0.348 HD
ATOM     77  H   UNL A   1      31.025  24.347  24.725  1.00  0.00     0.348 HD
BRANCH  75  78
ATOM     78  C   UNL A   1      32.602  21.388  24.857  1.00  0.00     0.163 A 
ATOM     79  N   UNL A   1      32.086  20.719  23.842  1.00  0.00    -0.234 NA
ATOM     80  S   UNL A   1      34.060  20.713  25.476  1.00  0.00    -0.112 S 
ATOM     81  C   UNL A   1      32.745  19.517  23.664  1.00  0.00     0.082 A 
ATOM     82  C   UNL A   1      33.827  19.301  24.515  1.00  0.00     0.055 A 
ATOM     83  C   UNL A   1      32.394  18.518  22.735  1.00  0.00     0.030 A 
ATOM     84  C   UNL A   1      34.543  18.093  24.504  1.00  0.00     0.021 A 
ATOM     85  C   UNL A   1      33.103  17.313  22.710  1.00  0.00     0.002 A 
ATOM     86  C   UNL A   1      34.156  17.101  23.595  1.00  0.00     0.002 A 
ENDBRANCH  75  78
ENDBRANCH  69  71
ENDBRANCH  68  69
ENDBRANCH  67  68
ENDBRANCH  66  67
ENDBRANCH  65  66
ENDBRANCH  64  65
ENDBRANCH   1  64
TORSDOF 18
ENDMDL
MODEL 3
REMARK VINA RESULT:     -10.3      2.244      3.451
REMARK SMILES O=C(OCCOCCOCCOC(=O)[C@H]1CS[C@H](c2nc3ccccc3s2)[NH2+]1)c1ccc(-c2c3nc(c(-c4c(F)cccc4F)c4ccc([nH]4)c(-c4c(F)cccc4F)c4nc(c(-c5c(F)cccc5F)c5ccc2[nH]5)C=C4)C=C3)cc1
REMARK SMILES IDX 7 1 6 2 5 3 4 4 3 5 2 6 1 7 29 8 30 9 82 10 31 11 81 12
REMARK SMILES IDX 32 13 33 14 34 15 75 16 35 17 80 18 74 19 76 20 36 21 79 22
REMARK SMILES IDX 73 23 72 24 37 26 63 27 46 28 62 29 47 30 50 31 61 32 77 33
REMARK SMILES IDX 48 34 49 35 60 37 78 38 51 39 38 40 39 41 44 42 40 43 41 44
REMARK SMILES IDX 43 45 45 46 42 47 64 48 65 49 70 50 66 51 67 52 69 53 71 54
REMARK SMILES IDX 68 55 52 56 53 57 58 58 54 59 55 60 57 61 59 62 56 63 8 64
REMARK SMILES IDX 9 65 10 66 11 67 12 68 13 69 14 70 15 71 16 72 28 73 17 74
REMARK SMILES IDX 18 75 19 78 20 79 27 80 21 81 26 82 22 83 25 84 23 85 24 86
REMARK H PARENT 76 25 50 36 28 76 28 77
REMARK Flexibility Score: inf
ROOT
ATOM      1  C   UNL A   1      36.251  22.157  25.674  1.00  0.00     0.188 C 
ENDROOT
BRANCH   1   2
ATOM      2  O   UNL A   1      37.507  22.404  25.034  1.00  0.00    -0.376 OA
BRANCH   2   3
ATOM      3  C   UNL A   1      38.628  21.818  25.709  1.00  0.00     0.202 C 
BRANCH   3   4
ATOM      4  C   UNL A   1      39.588  22.792  26.424  1.00  0.00     0.261 C 
BRANCH   4   5
ATOM      5  O   UNL A   1      39.302  24.185  26.199  1.00  0.00    -0.460 OA
BRANCH   5   6
ATOM      6  C   UNL A   1      40.131  25.253  26.316  1.00  0.00     0.338 C 
ATOM      7  O   UNL A   1      40.890  25.513  25.384  1.00  0.00    -0.246 OA
BRANCH   6   8
ATOM      8  C   UNL A   1      40.194  26.121  27.531  1.00  0.00     0.060 A 
ATOM      9  C   UNL A   1      39.390  25.963  28.657  1.00  0.00     0.016 A 
ATOM     10  C   UNL A   1      41.176  27.127  27.569  1.00  0.00     0.016 A 
ATOM     11  C   UNL A   1      39.468  26.815  29.742  1.00  0.00     0.010 A 
ATOM     12  C   UNL A   1      41.303  27.965  28.683  1.00  0.00     0.010 A 
ATOM     13  C   UNL A   1      40.420  27.825  29.761  1.00  0.00    -0.014 A 
BRANCH  13  14
ATOM     14  C   UNL A   1      40.342  28.798  30.859  1.00  0.00     0.031 A 
ATOM     15  C   UNL A   1      39.316  29.881  30.758  1.00  0.00     0.074 A 
ATOM     16  C   UNL A   1      41.057  28.604  31.982  1.00  0.00     0.049 A 
ATOM     17  N   UNL A   1      39.079  30.873  31.571  1.00  0.00    -0.248 NA
ATOM     18  C   UNL A   1      38.411  29.820  29.596  1.00  0.00     0.031 C 
ATOM     19  C   UNL A   1      41.940  27.462  32.225  1.00  0.00     0.029 A 
ATOM     20  N   UNL A   1      41.144  29.338  33.131  1.00  0.00    -0.354 N 
ATOM     21  C   UNL A   1      38.014  31.563  31.011  1.00  0.00     0.074 A 
ATOM     22  C   UNL A   1      37.658  30.891  29.783  1.00  0.00     0.031 C 
ATOM     23  C   UNL A   1      42.507  27.589  33.435  1.00  0.00     0.029 A 
ATOM     24  C   UNL A   1      42.056  28.838  34.030  1.00  0.00     0.049 A 
ATOM     25  H   UNL A   1      40.607  30.146  33.298  1.00  0.00     0.167 HD
ATOM     26  C   UNL A   1      37.396  32.664  31.492  1.00  0.00     0.037 A 
ATOM     27  C   UNL A   1      42.501  29.363  35.184  1.00  0.00     0.037 A 
ATOM     28  C   UNL A   1      37.789  33.305  32.716  1.00  0.00     0.049 A 
ATOM     29  C   UNL A   1      41.909  30.672  35.620  1.00  0.00     0.074 A 
ATOM     30  C   UNL A   1      37.297  34.462  33.287  1.00  0.00     0.029 A 
ATOM     31  N   UNL A   1      38.786  32.828  33.561  1.00  0.00    -0.354 N 
ATOM     32  N   UNL A   1      40.952  31.369  35.053  1.00  0.00    -0.248 NA
ATOM     33  C   UNL A   1      42.454  31.273  36.841  1.00  0.00     0.031 C 
ATOM     34  C   UNL A   1      38.036  34.717  34.446  1.00  0.00     0.029 A 
ATOM     35  C   UNL A   1      38.946  33.685  34.633  1.00  0.00     0.049 A 
ATOM     36  H   UNL A   1      39.302  32.002  33.416  1.00  0.00     0.167 HD
ATOM     37  C   UNL A   1      40.756  32.477  35.862  1.00  0.00     0.074 A 
ATOM     38  C   UNL A   1      41.690  32.351  36.965  1.00  0.00     0.031 C 
ATOM     39  C   UNL A   1      39.887  33.508  35.714  1.00  0.00     0.037 A 
BRANCH  26  40
ATOM     40  C   UNL A   1      36.314  33.263  30.644  1.00  0.00     0.057 A 
ATOM     41  C   UNL A   1      36.588  34.001  29.485  1.00  0.00     0.134 A 
ATOM     42  C   UNL A   1      34.972  33.141  31.027  1.00  0.00     0.134 A 
ATOM     43  F   UNL A   1      37.854  34.187  29.080  1.00  0.00    -0.206 F 
ATOM     44  C   UNL A   1      35.570  34.622  28.756  1.00  0.00     0.040 A 
ATOM     45  C   UNL A   1      33.945  33.734  30.294  1.00  0.00     0.040 A 
ATOM     46  F   UNL A   1      34.640  32.458  32.134  1.00  0.00    -0.206 F 
ATOM     47  C   UNL A   1      34.243  34.486  29.159  1.00  0.00     0.006 A 
ENDBRANCH  26  40
BRANCH  27  48
ATOM     48  C   UNL A   1      43.581  28.691  35.955  1.00  0.00     0.057 A 
ATOM     49  C   UNL A   1      44.918  29.084  35.853  1.00  0.00     0.134 A 
ATOM     50  C   UNL A   1      43.295  27.620  36.814  1.00  0.00     0.134 A 
ATOM     51  F   UNL A   1      45.265  30.093  35.040  1.00  0.00    -0.206 F 
ATOM     52  C   UNL A   1      45.932  28.427  36.557  1.00  0.00     0.040 A 
ATOM     53  C   UNL A   1      44.291  26.974  37.548  1.00  0.00     0.040 A 
ATOM     54  F   UNL A   1      42.035  27.195  36.960  1.00  0.00    -0.206 F 
ATOM     55  C   UNL A   1      45.618  27.371  37.411  1.00  0.00     0.006 A 
ENDBRANCH  27  48
BRANCH  39  56
ATOM     56  C   UNL A   1      39.886  34.545  36.793  1.00  0.00     0.057 A 
ATOM     57  C   UNL A   1      40.628  35.727  36.682  1.00  0.00     0.134 A 
ATOM     58  C   UNL A   1      39.086  34.378  37.929  1.00  0.00     0.134 A 
ATOM     59  F   UNL A   1      41.424  35.934  35.623  1.00  0.00    -0.206 F 
ATOM     60  C   UNL A   1      40.589  36.702  37.679  1.00  0.00     0.040 A 
ATOM     61  C   UNL A   1      39.013  35.360  38.916  1.00  0.00     0.040 A 
ATOM     62  F   UNL A   1      38.346  33.270  38.086  1.00  0.00    -0.206 F 
ATOM     63  C   UNL A   1      39.771  36.522  38.794  1.00  0.00     0.006 A 
ENDBRANCH  39  56
ENDBRANCH  13  14
ENDBRANCH   6   8
ENDBRANCH   5   6
ENDBRANCH   4   5
ENDBRANCH   3   4
ENDBRANCH   2   3
ENDBRANCH   1   2
BRANCH   1  64
ATOM     64  C   UNL A   1      35.685  20.769  25.384  1.00  0.00     0.188 C 
BRANCH  64  65
ATOM     65  O   UNL A   1      34.547  20.698  24.533  1.00  0.00    -0.376 OA
BRANCH  65  66
ATOM     66  C   UNL A   1      33.498  21.629  24.762  1.00  0.00     0.202 C 
BRANCH  66  67
ATOM     67  C   UNL A   1      32.307  21.184  25.627  1.00  0.00     0.261 C 
BRANCH  67  68
ATOM     68  O   UNL A   1      31.212  22.110  25.733  1.00  0.00    -0.459 OA
BRANCH  68  69
ATOM     69  C   UNL A   1      31.404  23.140  26.611  1.00  0.00     0.365 C 
ATOM     70  O   UNL A   1      31.887  23.023  27.727  1.00  0.00    -0.245 OA
BRANCH  69  71
ATOM     71  C   UNL A   1      30.983  24.493  26.002  1.00  0.00     0.304 C 
ATOM     72  C   UNL A   1      32.228  25.374  25.914  1.00  0.00     0.153 C 
ATOM     73  N   UNL A   1      30.336  24.289  24.661  1.00  0.00    -0.317 N 
ATOM     74  S   UNL A   1      32.766  25.188  24.208  1.00  0.00    -0.085 SA
ATOM     75  C   UNL A   1      31.045  25.085  23.633  1.00  0.00     0.303 C 
ATOM     76  H   UNL A   1      29.362  24.588  24.708  1.00  0.00     0.348 HD
ATOM     77  H   UNL A   1      30.383  23.301  24.413  1.00  0.00     0.348 HD
BRANCH  75  78
ATOM     78  C   UNL A   1      30.502  26.485  23.361  1.00  0.00     0.163 A 
ATOM     79  N   UNL A   1      29.259  26.842  23.631  1.00  0.00    -0.234 NA
ATOM     80  S   UNL A   1      31.469  27.747  22.699  1.00  0.00    -0.112 S 
ATOM     81  C   UNL A   1      28.989  28.096  23.117  1.00  0.00     0.082 A 
ATOM     82  C   UNL A   1      30.068  28.732  22.506  1.00  0.00     0.055 A 
ATOM     83  C   UNL A   1      27.736  28.741  23.140  1.00  0.00     0.030 A 
ATOM     84  C   UNL A   1      29.924  29.977  21.869  1.00  0.00     0.021 A 
ATOM     85  C   UNL A   1      27.583  29.981  22.515  1.00  0.00     0.002 A 
ATOM     86  C   UNL A   1      28.662  30.583  21.876  1.00  0.00     0.002 A 
ENDBRANCH  75  78
ENDBRANCH  69  71
ENDBRANCH  68  69
ENDBRANCH  67  68
ENDBRANCH  66  67
ENDBRANCH  65  66
ENDBRANCH  64  65
ENDBRANCH   1  64
TORSDOF 18
ENDMDL
