MODEL 1
REMARK VINA RESULT:      -9.4      0.000      0.000
REMARK SMILES Cc1ccc(-c2cnnc(-n3nc(C)c4c3NC(=O)C[C@@H]4c3ccc(C(=O)OCCOCCOCCOC(=O)c4ccc(-c5c6nc(c(-c7c(F)cccc7F)c7ccc([nH]7)c(-c7c(F)cccc7F)c7nc(c(-c8c(F)cccc8F)c8ccc5[nH]8)C=C7)C=C6)cc4)cc3)n2)cc1
REMARK SMILES IDX 32 1 31 2 30 3 29 4 28 5 26 6 27 7 25 8 22 9 23 10 95 11
REMARK SMILES IDX 24 12 94 13 21 14 11 15 12 16 16 17 13 18 15 19 17 20 14 21
REMARK SMILES IDX 18 22 20 24 19 25 10 26 6 27 7 28 96 29 8 30 9 31 5 32 1 33
REMARK SMILES IDX 2 34 3 35 98 36 4 37 97 38 33 39 34 40 35 41 36 42 37 43
REMARK SMILES IDX 38 44 39 45 40 46 41 47 93 48 42 49 92 50 43 51 44 52 45 53
REMARK SMILES IDX 86 54 46 55 91 56 85 57 87 58 47 59 90 60 84 61 83 62 48 64
REMARK SMILES IDX 74 65 57 66 73 67 58 68 61 69 72 70 88 71 59 72 60 73 71 75
REMARK SMILES IDX 89 76 62 77 49 78 50 79 55 80 51 81 52 82 54 83 56 84 53 85
REMARK SMILES IDX 75 86 76 87 81 88 77 89 78 90 80 91 82 92 79 93 63 94 64 95
REMARK SMILES IDX 69 96 65 97 66 98 68 99 70 100 67 101
REMARK H PARENT 17 23 87 63 61 74
REMARK Flexibility Score: inf
ROOT
ATOM      1  C   UNL A   1      53.818  30.993  27.232  1.00  0.00     0.188 C 
ENDROOT
BRANCH   1   2
ATOM      2  O   UNL A   1      54.252  29.631  27.349  1.00  0.00    -0.376 OA
BRANCH   2   3
ATOM      3  C   UNL A   1      54.503  28.794  26.198  1.00  0.00     0.202 C 
BRANCH   3   4
ATOM      4  C   UNL A   1      53.286  28.072  25.418  1.00  0.00     0.261 C 
BRANCH   4   5
ATOM      5  O   UNL A   1      52.676  26.713  25.808  1.00  0.00    -0.460 OA
BRANCH   5   6
ATOM      6  C   UNL A   1      51.531  26.869  26.533  1.00  0.00     0.338 C 
ATOM      7  O   UNL A   1      51.824  27.330  27.625  1.00  0.00    -0.246 OA
BRANCH   6   8
ATOM      8  C   UNL A   1      49.880  26.242  26.204  1.00  0.00     0.060 A 
ATOM      9  C   UNL A   1      47.462  24.845  25.242  1.00  0.00    -0.040 A 
ATOM     10  C   UNL A   1      48.161  25.577  24.357  1.00  0.00     0.005 A 
ATOM     11  C   UNL A   1      48.013  24.718  26.569  1.00  0.00     0.005 A 
ATOM     12  C   UNL A   1      49.266  26.224  24.855  1.00  0.00     0.016 A 
ATOM     13  C   UNL A   1      49.175  25.426  27.057  1.00  0.00     0.016 A 
BRANCH   9  14
ATOM     14  C   UNL A   1      46.085  24.505  24.712  1.00  0.00     0.064 C 
ATOM     15  N   UNL A   1      43.822  25.056  27.407  1.00  0.00    -0.180 N 
ATOM     16  N   UNL A   1      44.490  26.247  27.494  1.00  0.00    -0.168 NA
ATOM     17  C   UNL A   1      44.567  24.171  26.644  1.00  0.00     0.143 A 
ATOM     18  C   UNL A   1      45.139  26.311  26.331  1.00  0.00     0.066 A 
ATOM     19  C   UNL A   1      45.221  25.005  25.772  1.00  0.00     0.026 A 
ATOM     20  N   UNL A   1      44.807  22.802  26.624  1.00  0.00    -0.310 N 
ATOM     21  C   UNL A   1      45.850  27.560  25.950  1.00  0.00     0.069 C 
ATOM     22  C   UNL A   1      45.645  22.252  25.587  1.00  0.00     0.226 C 
ATOM     23  H   UNL A   1      44.410  22.216  27.309  1.00  0.00     0.171 HD
ATOM     24  C   UNL A   1      45.823  23.059  24.339  1.00  0.00     0.113 C 
ATOM     25  O   UNL A   1      46.073  21.111  25.749  1.00  0.00    -0.275 OA
BRANCH  15  26
ATOM     26  C   UNL A   1      42.410  25.075  27.484  1.00  0.00     0.272 A 
ATOM     27  C   UNL A   1      40.435  26.032  27.998  1.00  0.00     0.095 A 
ATOM     28  C   UNL A   1      39.817  24.799  27.871  1.00  0.00     0.164 A 
ATOM     29  N   UNL A   1      41.775  26.189  27.873  1.00  0.00    -0.208 NA
ATOM     30  N   UNL A   1      40.513  23.704  27.545  1.00  0.00    -0.153 NA
ATOM     31  N   UNL A   1      41.819  23.860  27.304  1.00  0.00    -0.109 NA
BRANCH  27  32
ATOM     32  C   UNL A   1      39.655  27.258  28.133  1.00  0.00     0.002 A 
ATOM     33  C   UNL A   1      37.490  30.934  28.753  1.00  0.00     0.044 C 
ATOM     34  C   UNL A   1      38.243  29.656  28.549  1.00  0.00    -0.051 A 
ATOM     35  C   UNL A   1      39.161  29.548  27.499  1.00  0.00     0.004 A 
ATOM     36  C   UNL A   1      38.030  28.562  29.390  1.00  0.00     0.004 A 
ATOM     37  C   UNL A   1      39.861  28.359  27.292  1.00  0.00     0.011 A 
ATOM     38  C   UNL A   1      38.726  27.375  29.181  1.00  0.00     0.011 A 
ENDBRANCH  27  32
ENDBRANCH  15  26
ENDBRANCH   9  14
ENDBRANCH   6   8
ENDBRANCH   5   6
ENDBRANCH   4   5
ENDBRANCH   3   4
ENDBRANCH   2   3
ENDBRANCH   1   2
BRANCH   1  39
ATOM     39  C   UNL A   1      52.387  31.393  26.878  1.00  0.00     0.188 C 
BRANCH  39  40
ATOM     40  O   UNL A   1      51.442  30.583  27.560  1.00  0.00    -0.376 OA
BRANCH  40  41
ATOM     41  C   UNL A   1      50.163  30.526  26.954  1.00  0.00     0.202 C 
BRANCH  41  42
ATOM     42  C   UNL A   1      49.180  31.566  27.522  1.00  0.00     0.261 C 
BRANCH  42  43
ATOM     43  O   UNL A   1      47.854  31.360  26.971  1.00  0.00    -0.460 OA
BRANCH  43  44
ATOM     44  C   UNL A   1      46.820  30.970  27.795  1.00  0.00     0.338 C 
ATOM     45  O   UNL A   1      46.610  29.833  28.176  1.00  0.00    -0.246 OA
BRANCH  44  46
ATOM     46  C   UNL A   1      45.831  32.112  27.938  1.00  0.00     0.060 A 
ATOM     47  C   UNL A   1      45.616  32.829  29.131  1.00  0.00     0.016 A 
ATOM     48  C   UNL A   1      44.751  32.000  27.151  1.00  0.00     0.016 A 
ATOM     49  C   UNL A   1      44.280  33.015  29.703  1.00  0.00     0.010 A 
ATOM     50  C   UNL A   1      43.588  31.873  27.904  1.00  0.00     0.010 A 
ATOM     51  C   UNL A   1      43.162  32.357  29.201  1.00  0.00    -0.014 A 
BRANCH  51  52
ATOM     52  C   UNL A   1      41.685  32.008  30.116  1.00  0.00     0.031 A 
ATOM     53  C   UNL A   1      40.155  32.874  30.513  1.00  0.00     0.074 A 
ATOM     54  C   UNL A   1      41.612  30.779  30.668  1.00  0.00     0.049 A 
ATOM     55  N   UNL A   1      39.498  32.729  31.658  1.00  0.00    -0.248 NA
ATOM     56  C   UNL A   1      39.458  34.112  29.902  1.00  0.00     0.031 C 
ATOM     57  C   UNL A   1      40.404  30.101  31.123  1.00  0.00     0.029 A 
ATOM     58  N   UNL A   1      42.636  29.886  30.970  1.00  0.00    -0.354 N 
ATOM     59  C   UNL A   1      38.395  33.610  31.600  1.00  0.00     0.074 A 
ATOM     60  C   UNL A   1      38.819  34.722  30.884  1.00  0.00     0.031 C 
ATOM     61  C   UNL A   1      40.752  29.046  31.869  1.00  0.00     0.029 A 
ATOM     62  C   UNL A   1      42.183  29.113  32.058  1.00  0.00     0.049 A 
ATOM     63  H   UNL A   1      43.505  29.810  30.515  1.00  0.00     0.167 HD
ATOM     64  C   UNL A   1      37.089  33.245  31.761  1.00  0.00     0.037 A 
ATOM     65  C   UNL A   1      42.841  29.180  33.250  1.00  0.00     0.037 A 
ATOM     66  C   UNL A   1      37.084  32.066  32.570  1.00  0.00     0.049 A 
ATOM     67  C   UNL A   1      41.985  29.760  34.368  1.00  0.00     0.074 A 
ATOM     68  C   UNL A   1      36.908  30.714  32.410  1.00  0.00     0.029 A 
ATOM     69  N   UNL A   1      37.697  32.241  33.778  1.00  0.00    -0.354 N 
ATOM     70  N   UNL A   1      40.705  30.012  34.265  1.00  0.00    -0.248 NA
ATOM     71  C   UNL A   1      42.509  30.165  35.672  1.00  0.00     0.031 C 
ATOM     72  C   UNL A   1      37.599  30.087  33.510  1.00  0.00     0.029 A 
ATOM     73  C   UNL A   1      38.123  31.073  34.336  1.00  0.00     0.049 A 
ATOM     74  H   UNL A   1      37.819  33.120  34.203  1.00  0.00     0.167 HD
ATOM     75  C   UNL A   1      40.269  30.697  35.370  1.00  0.00     0.074 A 
ATOM     76  C   UNL A   1      41.435  30.746  36.235  1.00  0.00     0.031 C 
ATOM     77  C   UNL A   1      39.014  31.232  35.479  1.00  0.00     0.037 A 
BRANCH  64  78
ATOM     78  C   UNL A   1      35.839  33.933  31.176  1.00  0.00     0.057 A 
ATOM     79  C   UNL A   1      34.950  34.574  32.061  1.00  0.00     0.134 A 
ATOM     80  C   UNL A   1      35.374  33.941  29.830  1.00  0.00     0.134 A 
ATOM     81  F   UNL A   1      35.227  34.664  33.369  1.00  0.00    -0.206 F 
ATOM     82  C   UNL A   1      33.726  35.143  31.662  1.00  0.00     0.040 A 
ATOM     83  C   UNL A   1      34.177  34.555  29.412  1.00  0.00     0.040 A 
ATOM     84  F   UNL A   1      36.000  33.315  28.827  1.00  0.00    -0.206 F 
ATOM     85  C   UNL A   1      33.335  35.144  30.333  1.00  0.00     0.006 A 
ENDBRANCH  64  78
BRANCH  65  86
ATOM     86  C   UNL A   1      44.319  29.290  33.015  1.00  0.00     0.057 A 
ATOM     87  C   UNL A   1      44.964  28.116  32.552  1.00  0.00     0.134 A 
ATOM     88  C   UNL A   1      44.959  30.501  32.735  1.00  0.00     0.134 A 
ATOM     89  F   UNL A   1      44.410  26.913  32.779  1.00  0.00    -0.206 F 
ATOM     90  C   UNL A   1      46.059  28.158  31.686  1.00  0.00     0.040 A 
ATOM     91  C   UNL A   1      46.111  30.547  31.927  1.00  0.00     0.040 A 
ATOM     92  F   UNL A   1      44.401  31.669  33.084  1.00  0.00    -0.206 F 
ATOM     93  C   UNL A   1      46.621  29.381  31.349  1.00  0.00     0.006 A 
ENDBRANCH  65  86
BRANCH  77  94
ATOM     94  C   UNL A   1      38.566  32.076  36.664  1.00  0.00     0.057 A 
ATOM     95  C   UNL A   1      39.015  33.388  36.820  1.00  0.00     0.134 A 
ATOM     96  C   UNL A   1      37.778  31.590  37.741  1.00  0.00     0.134 A 
ATOM     97  F   UNL A   1      39.810  33.953  35.900  1.00  0.00    -0.206 F 
ATOM     98  C   UNL A   1      38.675  34.170  37.934  1.00  0.00     0.040 A 
ATOM     99  C   UNL A   1      37.499  32.329  38.891  1.00  0.00     0.040 A 
ATOM    100  F   UNL A   1      37.190  30.385  37.724  1.00  0.00    -0.206 F 
ATOM    101  C   UNL A   1      37.931  33.637  38.982  1.00  0.00     0.006 A 
ENDBRANCH  77  94
ENDBRANCH  51  52
ENDBRANCH  44  46
ENDBRANCH  43  44
ENDBRANCH  42  43
ENDBRANCH  41  42
ENDBRANCH  40  41
ENDBRANCH  39  40
ENDBRANCH   1  39
TORSDOF 20
ENDMDL
MODEL 2
REMARK VINA RESULT:      -9.1      3.988      9.211
REMARK SMILES Cc1ccc(-c2cnnc(-n3nc(C)c4c3NC(=O)C[C@@H]4c3ccc(C(=O)OCCOCCOCCOC(=O)c4ccc(-c5c6nc(c(-c7c(F)cccc7F)c7ccc([nH]7)c(-c7c(F)cccc7F)c7nc(c(-c8c(F)cccc8F)c8ccc5[nH]8)C=C7)C=C6)cc4)cc3)n2)cc1
REMARK SMILES IDX 32 1 31 2 30 3 29 4 28 5 26 6 27 7 25 8 22 9 23 10 95 11
REMARK SMILES IDX 24 12 94 13 21 14 11 15 12 16 16 17 13 18 15 19 17 20 14 21
REMARK SMILES IDX 18 22 20 24 19 25 10 26 6 27 7 28 96 29 8 30 9 31 5 32 1 33
REMARK SMILES IDX 2 34 3 35 98 36 4 37 97 38 33 39 34 40 35 41 36 42 37 43
REMARK SMILES IDX 38 44 39 45 40 46 41 47 93 48 42 49 92 50 43 51 44 52 45 53
REMARK SMILES IDX 86 54 46 55 91 56 85 57 87 58 47 59 90 60 84 61 83 62 48 64
REMARK SMILES IDX 74 65 57 66 73 67 58 68 61 69 72 70 88 71 59 72 60 73 71 75
REMARK SMILES IDX 89 76 62 77 49 78 50 79 55 80 51 81 52 82 54 83 56 84 53 85
REMARK SMILES IDX 75 86 76 87 81 88 77 89 78 90 80 91 82 92 79 93 63 94 64 95
REMARK SMILES IDX 69 96 65 97 66 98 68 99 70 100 67 101
REMARK H PARENT 17 23 87 63 61 74
REMARK Flexibility Score: inf
ROOT
ATOM      1  C   UNL A   1      38.435  30.677  35.916  1.00  0.00     0.188 C 
ENDROOT
BRANCH   1   2
ATOM      2  O   UNL A   1      39.584  29.892  36.262  1.00  0.00    -0.376 OA
BRANCH   2   3
ATOM      3  C   UNL A   1      40.526  29.415  35.277  1.00  0.00     0.202 C 
BRANCH   3   4
ATOM      4  C   UNL A   1      41.546  28.210  35.622  1.00  0.00     0.261 C 
BRANCH   4   5
ATOM      5  O   UNL A   1      43.070  28.368  35.777  1.00  0.00    -0.460 OA
BRANCH   5   6
ATOM      6  C   UNL A   1      43.723  27.199  35.514  1.00  0.00     0.338 C 
ATOM      7  O   UNL A   1      44.268  26.821  36.538  1.00  0.00    -0.246 OA
BRANCH   6   8
ATOM      8  C   UNL A   1      44.082  26.427  33.932  1.00  0.00     0.060 A 
ATOM      9  C   UNL A   1      44.151  24.820  31.455  1.00  0.00    -0.040 A 
ATOM     10  C   UNL A   1      44.251  24.172  32.629  1.00  0.00     0.005 A 
ATOM     11  C   UNL A   1      43.913  26.241  31.508  1.00  0.00     0.005 A 
ATOM     12  C   UNL A   1      44.234  24.963  33.753  1.00  0.00     0.016 A 
ATOM     13  C   UNL A   1      43.912  27.039  32.713  1.00  0.00     0.016 A 
BRANCH   9  14
ATOM     14  C   UNL A   1      44.567  23.934  30.300  1.00  0.00     0.064 C 
ATOM     15  N   UNL A   1      46.106  26.082  27.911  1.00  0.00    -0.180 N 
ATOM     16  N   UNL A   1      46.794  26.521  29.008  1.00  0.00    -0.168 NA
ATOM     17  C   UNL A   1      44.989  25.376  28.326  1.00  0.00     0.143 A 
ATOM     18  C   UNL A   1      46.556  25.569  29.911  1.00  0.00     0.066 A 
ATOM     19  C   UNL A   1      45.404  24.833  29.516  1.00  0.00     0.026 A 
ATOM     20  N   UNL A   1      43.687  25.182  27.880  1.00  0.00    -0.310 N 
ATOM     21  C   UNL A   1      47.287  25.580  31.205  1.00  0.00     0.069 C 
ATOM     22  C   UNL A   1      42.820  24.291  28.611  1.00  0.00     0.226 C 
ATOM     23  H   UNL A   1      43.362  25.647  27.075  1.00  0.00     0.171 HD
ATOM     24  C   UNL A   1      43.463  23.273  29.499  1.00  0.00     0.113 C 
ATOM     25  O   UNL A   1      41.615  24.354  28.377  1.00  0.00    -0.275 OA
BRANCH  15  26
ATOM     26  C   UNL A   1      46.832  25.830  26.723  1.00  0.00     0.272 A 
ATOM     27  C   UNL A   1      48.670  25.956  25.422  1.00  0.00     0.095 A 
ATOM     28  C   UNL A   1      47.908  25.580  24.329  1.00  0.00     0.164 A 
ATOM     29  N   UNL A   1      48.130  26.160  26.648  1.00  0.00    -0.208 NA
ATOM     30  N   UNL A   1      46.599  25.327  24.449  1.00  0.00    -0.153 NA
ATOM     31  N   UNL A   1      46.071  25.410  25.674  1.00  0.00    -0.109 NA
BRANCH  27  32
ATOM     32  C   UNL A   1      50.125  26.016  25.344  1.00  0.00     0.002 A 
ATOM     33  C   UNL A   1      54.423  25.942  25.017  1.00  0.00     0.044 C 
ATOM     34  C   UNL A   1      52.930  25.956  25.133  1.00  0.00    -0.051 A 
ATOM     35  C   UNL A   1      52.170  26.740  24.257  1.00  0.00     0.004 A 
ATOM     36  C   UNL A   1      52.285  25.204  26.115  1.00  0.00     0.004 A 
ATOM     37  C   UNL A   1      50.780  26.770  24.362  1.00  0.00     0.011 A 
ATOM     38  C   UNL A   1      50.897  25.237  26.222  1.00  0.00     0.011 A 
ENDBRANCH  27  32
ENDBRANCH  15  26
ENDBRANCH   9  14
ENDBRANCH   6   8
ENDBRANCH   5   6
ENDBRANCH   4   5
ENDBRANCH   3   4
ENDBRANCH   2   3
ENDBRANCH   1   2
BRANCH   1  39
ATOM     39  C   UNL A   1      37.814  31.717  36.848  1.00  0.00     0.188 C 
BRANCH  39  40
ATOM     40  O   UNL A   1      37.489  31.150  38.107  1.00  0.00    -0.376 OA
BRANCH  40  41
ATOM     41  C   UNL A   1      36.897  32.050  39.027  1.00  0.00     0.202 C 
BRANCH  41  42
ATOM     42  C   UNL A   1      37.381  31.840  40.473  1.00  0.00     0.261 C 
BRANCH  42  43
ATOM     43  O   UNL A   1      38.555  32.651  40.736  1.00  0.00    -0.460 OA
BRANCH  43  44
ATOM     44  C   UNL A   1      38.415  33.997  40.998  1.00  0.00     0.338 C 
ATOM     45  O   UNL A   1      37.532  34.499  41.668  1.00  0.00    -0.246 OA
BRANCH  44  46
ATOM     46  C   UNL A   1      39.362  34.785  40.111  1.00  0.00     0.060 A 
ATOM     47  C   UNL A   1      38.971  35.869  39.302  1.00  0.00     0.016 A 
ATOM     48  C   UNL A   1      40.380  34.062  39.623  1.00  0.00     0.016 A 
ATOM     49  C   UNL A   1      39.285  35.932  37.872  1.00  0.00     0.010 A 
ATOM     50  C   UNL A   1      40.324  33.980  38.235  1.00  0.00     0.010 A 
ATOM     51  C   UNL A   1      39.839  34.855  37.187  1.00  0.00    -0.014 A 
BRANCH  51  52
ATOM     52  C   UNL A   1      39.700  34.572  35.443  1.00  0.00     0.031 A 
ATOM     53  C   UNL A   1      38.389  34.123  34.290  1.00  0.00     0.074 A 
ATOM     54  C   UNL A   1      40.831  34.742  34.728  1.00  0.00     0.049 A 
ATOM     55  N   UNL A   1      38.579  33.372  33.211  1.00  0.00    -0.248 NA
ATOM     56  C   UNL A   1      36.846  34.158  34.386  1.00  0.00     0.031 C 
ATOM     57  C   UNL A   1      40.924  34.953  33.289  1.00  0.00     0.029 A 
ATOM     58  N   UNL A   1      42.155  34.724  35.155  1.00  0.00    -0.354 N 
ATOM     59  C   UNL A   1      37.309  33.209  32.612  1.00  0.00     0.074 A 
ATOM     60  C   UNL A   1      36.389  33.161  33.651  1.00  0.00     0.031 C 
ATOM     61  C   UNL A   1      42.196  34.786  32.906  1.00  0.00     0.029 A 
ATOM     62  C   UNL A   1      42.923  34.295  34.054  1.00  0.00     0.049 A 
ATOM     63  H   UNL A   1      42.489  34.963  36.050  1.00  0.00     0.167 HD
ATOM     64  C   UNL A   1      37.003  33.530  31.320  1.00  0.00     0.037 A 
ATOM     65  C   UNL A   1      43.617  33.124  34.134  1.00  0.00     0.037 A 
ATOM     66  C   UNL A   1      38.219  33.444  30.572  1.00  0.00     0.049 A 
ATOM     67  C   UNL A   1      43.123  32.074  33.149  1.00  0.00     0.074 A 
ATOM     68  C   UNL A   1      39.146  34.296  30.024  1.00  0.00     0.029 A 
ATOM     69  N   UNL A   1      38.810  32.216  30.645  1.00  0.00    -0.354 N 
ATOM     70  N   UNL A   1      42.248  32.300  32.202  1.00  0.00    -0.248 NA
ATOM     71  C   UNL A   1      43.521  30.667  33.187  1.00  0.00     0.031 C 
ATOM     72  C   UNL A   1      40.373  33.545  29.931  1.00  0.00     0.029 A 
ATOM     73  C   UNL A   1      40.143  32.246  30.367  1.00  0.00     0.049 A 
ATOM     74  H   UNL A   1      38.324  31.392  30.875  1.00  0.00     0.167 HD
ATOM     75  C   UNL A   1      41.875  31.120  31.612  1.00  0.00     0.074 A 
ATOM     76  C   UNL A   1      42.722  30.127  32.249  1.00  0.00     0.031 C 
ATOM     77  C   UNL A   1      40.863  31.022  30.696  1.00  0.00     0.037 A 
BRANCH  64  78
ATOM     78  C   UNL A   1      35.629  33.934  30.750  1.00  0.00     0.057 A 
ATOM     79  C   UNL A   1      35.189  33.322  29.561  1.00  0.00     0.134 A 
ATOM     80  C   UNL A   1      34.737  34.945  31.210  1.00  0.00     0.134 A 
ATOM     81  F   UNL A   1      35.903  32.345  28.985  1.00  0.00    -0.206 F 
ATOM     82  C   UNL A   1      34.006  33.683  28.888  1.00  0.00     0.040 A 
ATOM     83  C   UNL A   1      33.524  35.277  30.573  1.00  0.00     0.040 A 
ATOM     84  F   UNL A   1      34.985  35.728  32.266  1.00  0.00    -0.206 F 
ATOM     85  C   UNL A   1      33.161  34.659  29.394  1.00  0.00     0.006 A 
ENDBRANCH  64  78
BRANCH  65  86
ATOM     86  C   UNL A   1      44.185  32.957  35.514  1.00  0.00     0.057 A 
ATOM     87  C   UNL A   1      43.464  32.101  36.383  1.00  0.00     0.134 A 
ATOM     88  C   UNL A   1      45.538  33.146  35.809  1.00  0.00     0.134 A 
ATOM     89  F   UNL A   1      42.159  31.868  36.164  1.00  0.00    -0.206 F 
ATOM     90  C   UNL A   1      44.095  31.319  37.354  1.00  0.00     0.040 A 
ATOM     91  C   UNL A   1      46.166  32.420  36.838  1.00  0.00     0.040 A 
ATOM     92  F   UNL A   1      46.316  33.894  35.014  1.00  0.00    -0.206 F 
ATOM     93  C   UNL A   1      45.459  31.459  37.566  1.00  0.00     0.006 A 
ENDBRANCH  65  86
BRANCH  77  94
ATOM     94  C   UNL A   1      40.388  29.697  30.117  1.00  0.00     0.057 A 
ATOM     95  C   UNL A   1      40.869  29.236  28.890  1.00  0.00     0.134 A 
ATOM     96  C   UNL A   1      39.364  28.894  30.689  1.00  0.00     0.134 A 
ATOM     97  F   UNL A   1      41.801  29.927  28.219  1.00  0.00    -0.206 F 
ATOM     98  C   UNL A   1      40.403  28.053  28.299  1.00  0.00     0.040 A 
ATOM     99  C   UNL A   1      38.836  27.760  30.072  1.00  0.00     0.040 A 
ATOM    100  F   UNL A   1      38.846  29.135  31.901  1.00  0.00    -0.206 F 
ATOM    101  C   UNL A   1      39.372  27.320  28.878  1.00  0.00     0.006 A 
ENDBRANCH  77  94
ENDBRANCH  51  52
ENDBRANCH  44  46
ENDBRANCH  43  44
ENDBRANCH  42  43
ENDBRANCH  41  42
ENDBRANCH  40  41
ENDBRANCH  39  40
ENDBRANCH   1  39
TORSDOF 20
ENDMDL
MODEL 3
REMARK VINA RESULT:      -9.1      4.866     10.186
REMARK SMILES Cc1ccc(-c2cnnc(-n3nc(C)c4c3NC(=O)C[C@@H]4c3ccc(C(=O)OCCOCCOCCOC(=O)c4ccc(-c5c6nc(c(-c7c(F)cccc7F)c7ccc([nH]7)c(-c7c(F)cccc7F)c7nc(c(-c8c(F)cccc8F)c8ccc5[nH]8)C=C7)C=C6)cc4)cc3)n2)cc1
REMARK SMILES IDX 32 1 31 2 30 3 29 4 28 5 26 6 27 7 25 8 22 9 23 10 95 11
REMARK SMILES IDX 24 12 94 13 21 14 11 15 12 16 16 17 13 18 15 19 17 20 14 21
REMARK SMILES IDX 18 22 20 24 19 25 10 26 6 27 7 28 96 29 8 30 9 31 5 32 1 33
REMARK SMILES IDX 2 34 3 35 98 36 4 37 97 38 33 39 34 40 35 41 36 42 37 43
REMARK SMILES IDX 38 44 39 45 40 46 41 47 93 48 42 49 92 50 43 51 44 52 45 53
REMARK SMILES IDX 86 54 46 55 91 56 85 57 87 58 47 59 90 60 84 61 83 62 48 64
REMARK SMILES IDX 74 65 57 66 73 67 58 68 61 69 72 70 88 71 59 72 60 73 71 75
REMARK SMILES IDX 89 76 62 77 49 78 50 79 55 80 51 81 52 82 54 83 56 84 53 85
REMARK SMILES IDX 75 86 76 87 81 88 77 89 78 90 80 91 82 92 79 93 63 94 64 95
REMARK SMILES IDX 69 96 65 97 66 98 68 99 70 100 67 101
REMARK H PARENT 17 23 87 63 61 74
REMARK Flexibility Score: inf
ROOT
ATOM      1  C   UNL A   1      46.227  27.127  26.745  1.00  0.00     0.188 C 
ENDROOT
BRANCH   1   2
ATOM      2  O   UNL A   1      46.632  28.503  26.755  1.00  0.00    -0.376 OA
BRANCH   2   3
ATOM      3  C   UNL A   1      45.699  29.587  26.961  1.00  0.00     0.202 C 
BRANCH   3   4
ATOM      4  C   UNL A   1      44.292  29.335  27.715  1.00  0.00     0.261 C 
BRANCH   4   5
ATOM      5  O   UNL A   1      44.019  29.660  29.196  1.00  0.00    -0.460 OA
BRANCH   5   6
ATOM      6  C   UNL A   1      44.812  30.678  29.639  1.00  0.00     0.338 C 
ATOM      7  O   UNL A   1      45.693  30.205  30.339  1.00  0.00    -0.246 OA
BRANCH   6   8
ATOM      8  C   UNL A   1      44.536  32.451  29.566  1.00  0.00     0.060 A 
ATOM      9  C   UNL A   1      44.381  35.368  30.002  1.00  0.00    -0.040 A 
ATOM     10  C   UNL A   1      43.771  34.565  30.891  1.00  0.00     0.005 A 
ATOM     11  C   UNL A   1      45.151  34.731  28.963  1.00  0.00     0.005 A 
ATOM     12  C   UNL A   1      43.854  33.217  30.636  1.00  0.00     0.016 A 
ATOM     13  C   UNL A   1      45.204  33.307  28.722  1.00  0.00     0.016 A 
BRANCH   9  14
ATOM     14  C   UNL A   1      43.914  36.801  30.142  1.00  0.00     0.064 C 
ATOM     15  N   UNL A   1      43.288  37.967  26.835  1.00  0.00    -0.180 N 
ATOM     16  N   UNL A   1      42.593  36.793  26.740  1.00  0.00    -0.168 NA
ATOM     17  C   UNL A   1      44.129  37.910  27.935  1.00  0.00     0.143 A 
ATOM     18  C   UNL A   1      42.465  36.418  28.013  1.00  0.00     0.066 A 
ATOM     19  C   UNL A   1      43.439  37.097  28.797  1.00  0.00     0.026 A 
ATOM     20  N   UNL A   1      45.388  38.390  28.274  1.00  0.00    -0.310 N 
ATOM     21  C   UNL A   1      41.595  35.262  28.358  1.00  0.00     0.069 C 
ATOM     22  C   UNL A   1      45.902  38.137  29.598  1.00  0.00     0.226 C 
ATOM     23  H   UNL A   1      45.923  38.895  27.619  1.00  0.00     0.171 HD
ATOM     24  C   UNL A   1      44.914  37.809  30.673  1.00  0.00     0.113 C 
ATOM     25  O   UNL A   1      47.105  38.311  29.783  1.00  0.00    -0.275 OA
BRANCH  15  26
ATOM     26  C   UNL A   1      42.686  39.143  26.331  1.00  0.00     0.272 A 
ATOM     27  C   UNL A   1      42.735  41.273  25.593  1.00  0.00     0.095 A 
ATOM     28  C   UNL A   1      41.359  41.341  25.733  1.00  0.00     0.164 A 
ATOM     29  N   UNL A   1      43.448  40.180  25.958  1.00  0.00    -0.208 NA
ATOM     30  N   UNL A   1      40.652  40.294  26.174  1.00  0.00    -0.153 NA
ATOM     31  N   UNL A   1      41.327  39.168  26.430  1.00  0.00    -0.109 NA
BRANCH  27  32
ATOM     32  C   UNL A   1      43.478  42.325  24.908  1.00  0.00     0.002 A 
ATOM     33  C   UNL A   1      45.470  45.601  22.937  1.00  0.00     0.044 C 
ATOM     34  C   UNL A   1      44.768  44.468  23.618  1.00  0.00    -0.051 A 
ATOM     35  C   UNL A   1      45.237  43.995  24.849  1.00  0.00     0.004 A 
ATOM     36  C   UNL A   1      43.653  43.865  23.033  1.00  0.00     0.004 A 
ATOM     37  C   UNL A   1      44.599  42.933  25.488  1.00  0.00     0.011 A 
ATOM     38  C   UNL A   1      43.018  42.802  23.670  1.00  0.00     0.011 A 
ENDBRANCH  27  32
ENDBRANCH  15  26
ENDBRANCH   9  14
ENDBRANCH   6   8
ENDBRANCH   5   6
ENDBRANCH   4   5
ENDBRANCH   3   4
ENDBRANCH   2   3
ENDBRANCH   1   2
BRANCH   1  39
ATOM     39  C   UNL A   1      46.081  26.302  25.467  1.00  0.00     0.188 C 
BRANCH  39  40
ATOM     40  O   UNL A   1      44.726  25.960  25.227  1.00  0.00    -0.376 OA
BRANCH  40  41
ATOM     41  C   UNL A   1      44.100  25.246  26.278  1.00  0.00     0.202 C 
BRANCH  41  42
ATOM     42  C   UNL A   1      42.636  24.881  25.972  1.00  0.00     0.261 C 
BRANCH  42  43
ATOM     43  O   UNL A   1      41.750  25.949  26.395  1.00  0.00    -0.460 OA
BRANCH  43  44
ATOM     44  C   UNL A   1      41.108  25.867  27.613  1.00  0.00     0.338 C 
ATOM     45  O   UNL A   1      41.145  24.914  28.368  1.00  0.00    -0.246 OA
BRANCH  44  46
ATOM     46  C   UNL A   1      40.135  27.024  27.748  1.00  0.00     0.060 A 
ATOM     47  C   UNL A   1      40.378  28.323  27.264  1.00  0.00     0.016 A 
ATOM     48  C   UNL A   1      39.377  26.972  28.853  1.00  0.00     0.016 A 
ATOM     49  C   UNL A   1      40.249  29.512  28.111  1.00  0.00     0.010 A 
ATOM     50  C   UNL A   1      39.632  28.050  29.693  1.00  0.00     0.010 A 
ATOM     51  C   UNL A   1      40.044  29.423  29.484  1.00  0.00    -0.014 A 
BRANCH  51  52
ATOM     52  C   UNL A   1      40.472  30.675  30.664  1.00  0.00     0.031 A 
ATOM     53  C   UNL A   1      41.553  30.805  32.100  1.00  0.00     0.074 A 
ATOM     54  C   UNL A   1      39.886  31.877  30.485  1.00  0.00     0.049 A 
ATOM     55  N   UNL A   1      41.278  31.545  33.169  1.00  0.00    -0.248 NA
ATOM     56  C   UNL A   1      42.746  29.957  32.599  1.00  0.00     0.031 C 
ATOM     57  C   UNL A   1      40.328  33.150  31.040  1.00  0.00     0.029 A 
ATOM     58  N   UNL A   1      38.729  32.197  29.781  1.00  0.00    -0.354 N 
ATOM     59  C   UNL A   1      42.337  31.336  34.081  1.00  0.00     0.074 A 
ATOM     60  C   UNL A   1      42.739  30.017  33.919  1.00  0.00     0.031 C 
ATOM     61  C   UNL A   1      39.350  34.052  30.893  1.00  0.00     0.029 A 
ATOM     62  C   UNL A   1      38.192  33.344  30.399  1.00  0.00     0.049 A 
ATOM     63  H   UNL A   1      38.358  31.716  29.006  1.00  0.00     0.167 HD
ATOM     64  C   UNL A   1      43.111  32.321  34.624  1.00  0.00     0.037 A 
ATOM     65  C   UNL A   1      36.968  33.276  30.995  1.00  0.00     0.037 A 
ATOM     66  C   UNL A   1      42.324  33.515  34.626  1.00  0.00     0.049 A 
ATOM     67  C   UNL A   1      37.028  33.503  32.499  1.00  0.00     0.074 A 
ATOM     68  C   UNL A   1      42.235  34.685  33.914  1.00  0.00     0.029 A 
ATOM     69  N   UNL A   1      41.149  33.383  35.309  1.00  0.00    -0.354 N 
ATOM     70  N   UNL A   1      38.097  33.892  33.148  1.00  0.00    -0.248 NA
ATOM     71  C   UNL A   1      35.912  33.247  33.410  1.00  0.00     0.031 C 
ATOM     72  C   UNL A   1      40.882  35.154  34.080  1.00  0.00     0.029 A 
ATOM     73  C   UNL A   1      40.206  34.291  34.933  1.00  0.00     0.049 A 
ATOM     74  H   UNL A   1      40.998  32.701  36.002  1.00  0.00     0.167 HD
ATOM     75  C   UNL A   1      37.880  33.822  34.499  1.00  0.00     0.074 A 
ATOM     76  C   UNL A   1      36.485  33.436  34.612  1.00  0.00     0.031 C 
ATOM     77  C   UNL A   1      38.864  34.019  35.431  1.00  0.00     0.037 A 
BRANCH  64  78
ATOM     78  C   UNL A   1      44.565  32.208  35.125  1.00  0.00     0.057 A 
ATOM     79  C   UNL A   1      44.810  32.329  36.506  1.00  0.00     0.134 A 
ATOM     80  C   UNL A   1      45.763  32.088  34.363  1.00  0.00     0.134 A 
ATOM     81  F   UNL A   1      43.799  32.449  37.377  1.00  0.00    -0.206 F 
ATOM     82  C   UNL A   1      46.100  32.350  37.072  1.00  0.00     0.040 A 
ATOM     83  C   UNL A   1      47.055  32.054  34.924  1.00  0.00     0.040 A 
ATOM     84  F   UNL A   1      45.790  32.054  33.026  1.00  0.00    -0.206 F 
ATOM     85  C   UNL A   1      47.231  32.205  36.284  1.00  0.00     0.006 A 
ENDBRANCH  64  78
BRANCH  65  86
ATOM     86  C   UNL A   1      36.053  32.400  30.190  1.00  0.00     0.057 A 
ATOM     87  C   UNL A   1      35.467  32.997  29.046  1.00  0.00     0.134 A 
ATOM     88  C   UNL A   1      36.142  31.004  30.185  1.00  0.00     0.134 A 
ATOM     89  F   UNL A   1      35.349  34.334  28.975  1.00  0.00    -0.206 F 
ATOM     90  C   UNL A   1      35.185  32.272  27.886  1.00  0.00     0.040 A 
ATOM     91  C   UNL A   1      35.785  30.257  29.047  1.00  0.00     0.040 A 
ATOM     92  F   UNL A   1      36.729  30.351  31.197  1.00  0.00    -0.206 F 
ATOM     93  C   UNL A   1      35.369  30.897  27.876  1.00  0.00     0.006 A 
ENDBRANCH  65  86
BRANCH  77  94
ATOM     94  C   UNL A   1      38.642  33.844  36.927  1.00  0.00     0.057 A 
ATOM     95  C   UNL A   1      38.949  34.870  37.822  1.00  0.00     0.134 A 
ATOM     96  C   UNL A   1      38.232  32.629  37.539  1.00  0.00     0.134 A 
ATOM     97  F   UNL A   1      39.397  36.053  37.379  1.00  0.00    -0.206 F 
ATOM     98  C   UNL A   1      38.819  34.717  39.211  1.00  0.00     0.040 A 
ATOM     99  C   UNL A   1      38.175  32.440  38.920  1.00  0.00     0.040 A 
ATOM    100  F   UNL A   1      37.816  31.567  36.835  1.00  0.00    -0.206 F 
ATOM    101  C   UNL A   1      38.449  33.496  39.765  1.00  0.00     0.006 A 
ENDBRANCH  77  94
ENDBRANCH  51  52
ENDBRANCH  44  46
ENDBRANCH  43  44
ENDBRANCH  42  43
ENDBRANCH  41  42
ENDBRANCH  40  41
ENDBRANCH  39  40
ENDBRANCH   1  39
TORSDOF 20
ENDMDL
