MODEL 1
REMARK VINA RESULT:     -10.6      0.000      0.000
REMARK SMILES Cc1cscc1C(=O)N[C@H](C(=O)OCCOCCOCCOC(=O)c1ccc(-c2c3nc(c(-c4c(F)cccc4F)c4ccc([nH]4)c(-c4c(F)cccc4F)c4nc(c(-c5c(F)cccc5F)c5ccc2[nH]5)C=C4)C=C3)cc1)c1ccccc1
REMARK SMILES IDX 17 1 16 2 15 3 14 4 13 5 11 6 12 7 10 8 9 9 7 10 8 11 6 13
REMARK SMILES IDX 1 14 2 15 3 16 4 17 5 18 79 19 80 20 84 21 81 22 83 23 82 24
REMARK SMILES IDX 18 25 19 26 20 27 21 28 22 29 23 30 24 31 25 32 26 33 78 34
REMARK SMILES IDX 27 35 77 36 28 37 29 38 30 39 71 40 31 41 76 42 70 43 72 44
REMARK SMILES IDX 32 45 75 46 69 47 68 48 33 50 59 51 42 52 58 53 43 54 46 55
REMARK SMILES IDX 57 56 73 57 44 58 45 59 56 61 74 62 47 63 34 64 35 65 40 66
REMARK SMILES IDX 36 67 37 68 39 69 41 70 38 71 60 72 61 73 66 74 62 75 63 76
REMARK SMILES IDX 65 77 67 78 64 79 48 80 49 81 54 82 50 83 51 84 53 85 55 86
REMARK SMILES IDX 52 87
REMARK H PARENT 9 12 72 49 46 60
REMARK Flexibility Score: inf
ROOT
ATOM      1  C   UNL A   1      40.185  21.071  25.824  1.00  0.00     0.188 C 
ENDROOT
BRANCH   1   2
ATOM      2  O   UNL A   1      39.305  21.887  26.564  1.00  0.00    -0.376 OA
BRANCH   2   3
ATOM      3  C   UNL A   1      38.316  22.577  25.824  1.00  0.00     0.202 C 
BRANCH   3   4
ATOM      4  C   UNL A   1      37.229  21.808  25.040  1.00  0.00     0.261 C 
BRANCH   4   5
ATOM      5  O   UNL A   1      35.889  22.362  25.013  1.00  0.00    -0.461 OA
BRANCH   5   6
ATOM      6  C   UNL A   1      35.561  23.139  23.949  1.00  0.00     0.333 C 
ATOM      7  O   UNL A   1      36.292  23.195  22.961  1.00  0.00    -0.249 OA
BRANCH   6   8
ATOM      8  C   UNL A   1      34.343  24.100  24.138  1.00  0.00     0.223 C 
BRANCH   8   9
ATOM      9  N   UNL A   1      34.000  24.657  22.830  1.00  0.00    -0.335 N 
ATOM     10  C   UNL A   1      33.493  25.860  22.417  1.00  0.00     0.253 C 
ATOM     11  O   UNL A   1      33.528  26.025  21.193  1.00  0.00    -0.269 OA
ATOM     12  H   UNL A   1      34.170  24.033  22.088  1.00  0.00     0.165 HD
BRANCH  10  13
ATOM     13  C   UNL A   1      32.835  26.873  23.275  1.00  0.00     0.053 A 
ATOM     14  C   UNL A   1      30.302  26.191  23.889  1.00  0.00     0.046 C 
ATOM     15  C   UNL A   1      31.518  27.053  23.900  1.00  0.00    -0.028 A 
ATOM     16  C   UNL A   1      31.481  28.213  24.663  1.00  0.00     0.069 A 
ATOM     17  S   UNL A   1      32.943  29.066  24.693  1.00  0.00    -0.151 S 
ATOM     18  C   UNL A   1      33.668  27.914  23.683  1.00  0.00     0.079 A 
ENDBRANCH  10  13
ENDBRANCH   8   9
BRANCH   8  19
ATOM     19  C   UNL A   1      33.037  23.836  24.922  1.00  0.00    -0.014 A 
ATOM     20  C   UNL A   1      32.107  22.856  24.529  1.00  0.00     0.006 A 
ATOM     21  C   UNL A   1      32.792  24.436  26.180  1.00  0.00     0.006 A 
ATOM     22  C   UNL A   1      30.962  22.578  25.303  1.00  0.00     0.000 A 
ATOM     23  C   UNL A   1      31.646  24.183  26.941  1.00  0.00     0.000 A 
ATOM     24  C   UNL A   1      30.724  23.252  26.498  1.00  0.00     0.000 A 
ENDBRANCH   8  19
ENDBRANCH   6   8
ENDBRANCH   5   6
ENDBRANCH   4   5
ENDBRANCH   3   4
ENDBRANCH   2   3
ENDBRANCH   1   2
BRANCH   1  25
ATOM     25  C   UNL A   1      40.895  20.034  26.702  1.00  0.00     0.188 C 
BRANCH  25  26
ATOM     26  O   UNL A   1      42.292  20.110  26.946  1.00  0.00    -0.376 OA
BRANCH  26  27
ATOM     27  C   UNL A   1      43.170  20.126  25.833  1.00  0.00     0.202 C 
BRANCH  27  28
ATOM     28  C   UNL A   1      43.881  21.435  25.455  1.00  0.00     0.261 C 
BRANCH  28  29
ATOM     29  O   UNL A   1      43.034  22.557  25.146  1.00  0.00    -0.460 OA
BRANCH  29  30
ATOM     30  C   UNL A   1      43.660  23.752  25.065  1.00  0.00     0.338 C 
ATOM     31  O   UNL A   1      44.595  24.051  24.314  1.00  0.00    -0.246 OA
BRANCH  30  32
ATOM     32  C   UNL A   1      42.967  24.760  25.888  1.00  0.00     0.060 A 
ATOM     33  C   UNL A   1      43.487  26.062  25.942  1.00  0.00     0.016 A 
ATOM     34  C   UNL A   1      41.872  24.412  26.680  1.00  0.00     0.016 A 
ATOM     35  C   UNL A   1      42.937  27.013  26.799  1.00  0.00     0.010 A 
ATOM     36  C   UNL A   1      41.343  25.357  27.567  1.00  0.00     0.010 A 
ATOM     37  C   UNL A   1      41.894  26.650  27.656  1.00  0.00    -0.014 A 
BRANCH  37  38
ATOM     38  C   UNL A   1      41.519  27.549  28.776  1.00  0.00     0.031 A 
ATOM     39  C   UNL A   1      42.327  27.492  30.045  1.00  0.00     0.074 A 
ATOM     40  C   UNL A   1      40.508  28.429  28.669  1.00  0.00     0.049 A 
ATOM     41  N   UNL A   1      42.130  28.101  31.186  1.00  0.00    -0.248 NA
ATOM     42  C   UNL A   1      43.521  26.632  30.019  1.00  0.00     0.031 C 
ATOM     43  C   UNL A   1      39.700  28.650  27.472  1.00  0.00     0.029 A 
ATOM     44  N   UNL A   1      39.986  29.298  29.595  1.00  0.00    -0.354 N 
ATOM     45  C   UNL A   1      43.161  27.684  32.019  1.00  0.00     0.074 A 
ATOM     46  C   UNL A   1      43.973  26.758  31.258  1.00  0.00     0.031 C 
ATOM     47  C   UNL A   1      38.770  29.583  27.743  1.00  0.00     0.029 A 
ATOM     48  C   UNL A   1      38.889  29.989  29.144  1.00  0.00     0.049 A 
ATOM     49  H   UNL A   1      40.363  29.414  30.498  1.00  0.00     0.167 HD
ATOM     50  C   UNL A   1      43.412  28.039  33.301  1.00  0.00     0.037 A 
ATOM     51  C   UNL A   1      38.057  30.824  29.797  1.00  0.00     0.037 A 
ATOM     52  C   UNL A   1      42.610  28.963  34.060  1.00  0.00     0.049 A 
ATOM     53  C   UNL A   1      38.295  31.125  31.255  1.00  0.00     0.074 A 
ATOM     54  C   UNL A   1      42.787  29.386  35.366  1.00  0.00     0.029 A 
ATOM     55  N   UNL A   1      41.477  29.603  33.582  1.00  0.00    -0.354 N 
ATOM     56  N   UNL A   1      39.263  30.718  32.040  1.00  0.00    -0.248 NA
ATOM     57  C   UNL A   1      37.316  32.000  31.920  1.00  0.00     0.031 C 
ATOM     58  C   UNL A   1      41.730  30.241  35.695  1.00  0.00     0.029 A 
ATOM     59  C   UNL A   1      40.928  30.396  34.576  1.00  0.00     0.049 A 
ATOM     60  H   UNL A   1      41.117  29.508  32.671  1.00  0.00     0.167 HD
ATOM     61  C   UNL A   1      39.030  31.311  33.276  1.00  0.00     0.074 A 
ATOM     62  C   UNL A   1      37.834  32.114  33.135  1.00  0.00     0.031 C 
ATOM     63  C   UNL A   1      39.744  31.202  34.424  1.00  0.00     0.037 A 
BRANCH  50  64
ATOM     64  C   UNL A   1      44.581  27.390  33.981  1.00  0.00     0.057 A 
ATOM     65  C   UNL A   1      44.466  26.172  34.662  1.00  0.00     0.134 A 
ATOM     66  C   UNL A   1      45.850  27.984  33.930  1.00  0.00     0.134 A 
ATOM     67  F   UNL A   1      43.276  25.558  34.762  1.00  0.00    -0.206 F 
ATOM     68  C   UNL A   1      45.564  25.578  35.287  1.00  0.00     0.040 A 
ATOM     69  C   UNL A   1      46.960  27.388  34.527  1.00  0.00     0.040 A 
ATOM     70  F   UNL A   1      46.031  29.149  33.291  1.00  0.00    -0.206 F 
ATOM     71  C   UNL A   1      46.818  26.184  35.215  1.00  0.00     0.006 A 
ENDBRANCH  50  64
BRANCH  51  72
ATOM     72  C   UNL A   1      36.888  31.413  29.095  1.00  0.00     0.057 A 
ATOM     73  C   UNL A   1      35.744  30.652  28.822  1.00  0.00     0.134 A 
ATOM     74  C   UNL A   1      36.901  32.738  28.643  1.00  0.00     0.134 A 
ATOM     75  F   UNL A   1      35.683  29.367  29.203  1.00  0.00    -0.206 F 
ATOM     76  C   UNL A   1      34.667  31.180  28.108  1.00  0.00     0.040 A 
ATOM     77  C   UNL A   1      35.819  33.288  27.952  1.00  0.00     0.040 A 
ATOM     78  F   UNL A   1      37.968  33.521  28.868  1.00  0.00    -0.206 F 
ATOM     79  C   UNL A   1      34.702  32.505  27.677  1.00  0.00     0.006 A 
ENDBRANCH  51  72
BRANCH  63  80
ATOM     80  C   UNL A   1      39.283  32.004  35.608  1.00  0.00     0.057 A 
ATOM     81  C   UNL A   1      38.404  31.481  36.564  1.00  0.00     0.134 A 
ATOM     82  C   UNL A   1      39.763  33.305  35.817  1.00  0.00     0.134 A 
ATOM     83  F   UNL A   1      37.898  30.247  36.421  1.00  0.00    -0.206 F 
ATOM     84  C   UNL A   1      38.001  32.230  37.673  1.00  0.00     0.040 A 
ATOM     85  C   UNL A   1      39.390  34.052  36.934  1.00  0.00     0.040 A 
ATOM     86  F   UNL A   1      40.617  33.863  34.945  1.00  0.00    -0.206 F 
ATOM     87  C   UNL A   1      38.501  33.517  37.863  1.00  0.00     0.006 A 
ENDBRANCH  63  80
ENDBRANCH  37  38
ENDBRANCH  30  32
ENDBRANCH  29  30
ENDBRANCH  28  29
ENDBRANCH  27  28
ENDBRANCH  26  27
ENDBRANCH  25  26
ENDBRANCH   1  25
TORSDOF 20
ENDMDL
MODEL 2
REMARK VINA RESULT:     -10.2      3.412      8.366
REMARK SMILES Cc1cscc1C(=O)N[C@H](C(=O)OCCOCCOCCOC(=O)c1ccc(-c2c3nc(c(-c4c(F)cccc4F)c4ccc([nH]4)c(-c4c(F)cccc4F)c4nc(c(-c5c(F)cccc5F)c5ccc2[nH]5)C=C4)C=C3)cc1)c1ccccc1
REMARK SMILES IDX 17 1 16 2 15 3 14 4 13 5 11 6 12 7 10 8 9 9 7 10 8 11 6 13
REMARK SMILES IDX 1 14 2 15 3 16 4 17 5 18 79 19 80 20 84 21 81 22 83 23 82 24
REMARK SMILES IDX 18 25 19 26 20 27 21 28 22 29 23 30 24 31 25 32 26 33 78 34
REMARK SMILES IDX 27 35 77 36 28 37 29 38 30 39 71 40 31 41 76 42 70 43 72 44
REMARK SMILES IDX 32 45 75 46 69 47 68 48 33 50 59 51 42 52 58 53 43 54 46 55
REMARK SMILES IDX 57 56 73 57 44 58 45 59 56 61 74 62 47 63 34 64 35 65 40 66
REMARK SMILES IDX 36 67 37 68 39 69 41 70 38 71 60 72 61 73 66 74 62 75 63 76
REMARK SMILES IDX 65 77 67 78 64 79 48 80 49 81 54 82 50 83 51 84 53 85 55 86
REMARK SMILES IDX 52 87
REMARK H PARENT 9 12 72 49 46 60
REMARK Flexibility Score: inf
ROOT
ATOM      1  C   UNL A   1      34.292  29.294  26.872  1.00  0.00     0.188 C 
ENDROOT
BRANCH   1   2
ATOM      2  O   UNL A   1      33.837  28.577  25.747  1.00  0.00    -0.376 OA
BRANCH   2   3
ATOM      3  C   UNL A   1      33.288  27.298  25.998  1.00  0.00     0.202 C 
BRANCH   3   4
ATOM      4  C   UNL A   1      32.614  26.486  24.869  1.00  0.00     0.261 C 
BRANCH   4   5
ATOM      5  O   UNL A   1      32.945  26.823  23.497  1.00  0.00    -0.461 OA
BRANCH   5   6
ATOM      6  C   UNL A   1      33.499  25.846  22.735  1.00  0.00     0.333 C 
ATOM      7  O   UNL A   1      33.657  26.004  21.525  1.00  0.00    -0.249 OA
BRANCH   6   8
ATOM      8  C   UNL A   1      33.721  24.463  23.430  1.00  0.00     0.223 C 
BRANCH   8   9
ATOM      9  N   UNL A   1      33.102  23.435  22.594  1.00  0.00    -0.335 N 
ATOM     10  C   UNL A   1      32.547  22.211  22.855  1.00  0.00     0.253 C 
ATOM     11  O   UNL A   1      31.944  21.717  21.896  1.00  0.00    -0.269 OA
ATOM     12  H   UNL A   1      33.081  23.674  21.639  1.00  0.00     0.165 HD
BRANCH  10  13
ATOM     13  C   UNL A   1      32.708  21.425  24.102  1.00  0.00     0.053 A 
ATOM     14  C   UNL A   1      32.101  22.868  26.295  1.00  0.00     0.046 C 
ATOM     15  C   UNL A   1      32.542  21.659  25.543  1.00  0.00    -0.028 A 
ATOM     16  C   UNL A   1      32.797  20.503  26.269  1.00  0.00     0.069 A 
ATOM     17  S   UNL A   1      33.189  19.161  25.315  1.00  0.00    -0.151 S 
ATOM     18  C   UNL A   1      33.033  20.085  23.902  1.00  0.00     0.079 A 
ENDBRANCH  10  13
ENDBRANCH   8   9
BRANCH   8  19
ATOM     19  C   UNL A   1      35.030  23.897  24.024  1.00  0.00    -0.014 A 
ATOM     20  C   UNL A   1      35.401  24.106  25.364  1.00  0.00     0.006 A 
ATOM     21  C   UNL A   1      35.838  22.984  23.306  1.00  0.00     0.006 A 
ATOM     22  C   UNL A   1      36.561  23.515  25.907  1.00  0.00     0.000 A 
ATOM     23  C   UNL A   1      37.003  22.413  23.829  1.00  0.00     0.000 A 
ATOM     24  C   UNL A   1      37.369  22.683  25.135  1.00  0.00     0.000 A 
ENDBRANCH   8  19
ENDBRANCH   6   8
ENDBRANCH   5   6
ENDBRANCH   4   5
ENDBRANCH   3   4
ENDBRANCH   2   3
ENDBRANCH   1   2
BRANCH   1  25
ATOM     25  C   UNL A   1      33.355  30.448  27.246  1.00  0.00     0.188 C 
BRANCH  25  26
ATOM     26  O   UNL A   1      32.012  30.482  26.788  1.00  0.00    -0.376 OA
BRANCH  26  27
ATOM     27  C   UNL A   1      31.401  31.746  26.585  1.00  0.00     0.202 C 
BRANCH  27  28
ATOM     28  C   UNL A   1      32.226  33.023  26.813  1.00  0.00     0.261 C 
BRANCH  28  29
ATOM     29  O   UNL A   1      31.963  33.746  28.029  1.00  0.00    -0.460 OA
BRANCH  29  30
ATOM     30  C   UNL A   1      32.955  34.563  28.445  1.00  0.00     0.338 C 
ATOM     31  O   UNL A   1      32.862  35.764  28.721  1.00  0.00    -0.246 OA
BRANCH  30  32
ATOM     32  C   UNL A   1      34.186  33.795  28.707  1.00  0.00     0.060 A 
ATOM     33  C   UNL A   1      34.197  32.880  29.772  1.00  0.00     0.016 A 
ATOM     34  C   UNL A   1      35.352  34.035  27.981  1.00  0.00     0.016 A 
ATOM     35  C   UNL A   1      35.371  32.222  30.132  1.00  0.00     0.010 A 
ATOM     36  C   UNL A   1      36.540  33.400  28.366  1.00  0.00     0.010 A 
ATOM     37  C   UNL A   1      36.563  32.519  29.463  1.00  0.00    -0.014 A 
BRANCH  37  38
ATOM     38  C   UNL A   1      37.856  32.068  30.036  1.00  0.00     0.031 A 
ATOM     39  C   UNL A   1      38.492  30.821  29.482  1.00  0.00     0.074 A 
ATOM     40  C   UNL A   1      38.482  32.762  31.002  1.00  0.00     0.049 A 
ATOM     41  N   UNL A   1      39.558  30.179  29.886  1.00  0.00    -0.248 NA
ATOM     42  C   UNL A   1      37.834  30.220  28.310  1.00  0.00     0.031 C 
ATOM     43  C   UNL A   1      38.024  34.028  31.569  1.00  0.00     0.029 A 
ATOM     44  N   UNL A   1      39.642  32.486  31.683  1.00  0.00    -0.354 N 
ATOM     45  C   UNL A   1      39.688  29.090  29.033  1.00  0.00     0.074 A 
ATOM     46  C   UNL A   1      38.584  29.148  28.099  1.00  0.00     0.031 C 
ATOM     47  C   UNL A   1      38.887  34.412  32.527  1.00  0.00     0.029 A 
ATOM     48  C   UNL A   1      39.930  33.396  32.671  1.00  0.00     0.049 A 
ATOM     49  H   UNL A   1      40.214  31.709  31.482  1.00  0.00     0.167 HD
ATOM     50  C   UNL A   1      40.641  28.128  29.026  1.00  0.00     0.037 A 
ATOM     51  C   UNL A   1      40.901  33.388  33.605  1.00  0.00     0.037 A 
ATOM     52  C   UNL A   1      41.743  28.068  29.949  1.00  0.00     0.049 A 
ATOM     53  C   UNL A   1      41.890  32.251  33.644  1.00  0.00     0.074 A 
ATOM     54  C   UNL A   1      42.760  27.133  30.018  1.00  0.00     0.029 A 
ATOM     55  N   UNL A   1      41.970  28.982  30.967  1.00  0.00    -0.354 N 
ATOM     56  N   UNL A   1      42.000  31.219  32.843  1.00  0.00    -0.248 NA
ATOM     57  C   UNL A   1      42.889  32.278  34.724  1.00  0.00     0.031 C 
ATOM     58  C   UNL A   1      43.572  27.449  31.113  1.00  0.00     0.029 A 
ATOM     59  C   UNL A   1      43.095  28.615  31.689  1.00  0.00     0.049 A 
ATOM     60  H   UNL A   1      41.415  29.773  31.150  1.00  0.00     0.167 HD
ATOM     61  C   UNL A   1      43.096  30.494  33.301  1.00  0.00     0.074 A 
ATOM     62  C   UNL A   1      43.623  31.210  34.443  1.00  0.00     0.031 C 
ATOM     63  C   UNL A   1      43.620  29.340  32.817  1.00  0.00     0.037 A 
BRANCH  50  64
ATOM     64  C   UNL A   1      40.507  27.032  28.010  1.00  0.00     0.057 A 
ATOM     65  C   UNL A   1      41.178  27.067  26.782  1.00  0.00     0.134 A 
ATOM     66  C   UNL A   1      39.711  25.910  28.280  1.00  0.00     0.134 A 
ATOM     67  F   UNL A   1      41.943  28.120  26.454  1.00  0.00    -0.206 F 
ATOM     68  C   UNL A   1      41.045  26.038  25.848  1.00  0.00     0.040 A 
ATOM     69  C   UNL A   1      39.591  24.863  27.366  1.00  0.00     0.040 A 
ATOM     70  F   UNL A   1      39.043  25.811  29.438  1.00  0.00    -0.206 F 
ATOM     71  C   UNL A   1      40.255  24.928  26.142  1.00  0.00     0.006 A 
ENDBRANCH  50  64
BRANCH  51  72
ATOM     72  C   UNL A   1      40.972  34.474  34.617  1.00  0.00     0.057 A 
ATOM     73  C   UNL A   1      40.241  34.404  35.809  1.00  0.00     0.134 A 
ATOM     74  C   UNL A   1      41.739  35.625  34.398  1.00  0.00     0.134 A 
ATOM     75  F   UNL A   1      39.464  33.341  36.063  1.00  0.00    -0.206 F 
ATOM     76  C   UNL A   1      40.254  35.448  36.736  1.00  0.00     0.040 A 
ATOM     77  C   UNL A   1      41.783  36.664  35.330  1.00  0.00     0.040 A 
ATOM     78  F   UNL A   1      42.460  35.755  33.274  1.00  0.00    -0.206 F 
ATOM     79  C   UNL A   1      41.032  36.580  36.499  1.00  0.00     0.006 A 
ENDBRANCH  51  72
BRANCH  63  80
ATOM     80  C   UNL A   1      44.852  28.801  33.487  1.00  0.00     0.057 A 
ATOM     81  C   UNL A   1      44.785  27.862  34.523  1.00  0.00     0.134 A 
ATOM     82  C   UNL A   1      46.126  29.196  33.056  1.00  0.00     0.134 A 
ATOM     83  F   UNL A   1      43.598  27.449  34.992  1.00  0.00    -0.206 F 
ATOM     84  C   UNL A   1      45.939  27.351  35.123  1.00  0.00     0.040 A 
ATOM     85  C   UNL A   1      47.287  28.673  33.627  1.00  0.00     0.040 A 
ATOM     86  F   UNL A   1      46.263  30.084  32.060  1.00  0.00    -0.206 F 
ATOM     87  C   UNL A   1      47.195  27.752  34.669  1.00  0.00     0.006 A 
ENDBRANCH  63  80
ENDBRANCH  37  38
ENDBRANCH  30  32
ENDBRANCH  29  30
ENDBRANCH  28  29
ENDBRANCH  27  28
ENDBRANCH  26  27
ENDBRANCH  25  26
ENDBRANCH   1  25
TORSDOF 20
ENDMDL
MODEL 3
REMARK VINA RESULT:     -10.2      1.171      6.219
REMARK SMILES Cc1cscc1C(=O)N[C@H](C(=O)OCCOCCOCCOC(=O)c1ccc(-c2c3nc(c(-c4c(F)cccc4F)c4ccc([nH]4)c(-c4c(F)cccc4F)c4nc(c(-c5c(F)cccc5F)c5ccc2[nH]5)C=C4)C=C3)cc1)c1ccccc1
REMARK SMILES IDX 17 1 16 2 15 3 14 4 13 5 11 6 12 7 10 8 9 9 7 10 8 11 6 13
REMARK SMILES IDX 1 14 2 15 3 16 4 17 5 18 79 19 80 20 84 21 81 22 83 23 82 24
REMARK SMILES IDX 18 25 19 26 20 27 21 28 22 29 23 30 24 31 25 32 26 33 78 34
REMARK SMILES IDX 27 35 77 36 28 37 29 38 30 39 71 40 31 41 76 42 70 43 72 44
REMARK SMILES IDX 32 45 75 46 69 47 68 48 33 50 59 51 42 52 58 53 43 54 46 55
REMARK SMILES IDX 57 56 73 57 44 58 45 59 56 61 74 62 47 63 34 64 35 65 40 66
REMARK SMILES IDX 36 67 37 68 39 69 41 70 38 71 60 72 61 73 66 74 62 75 63 76
REMARK SMILES IDX 65 77 67 78 64 79 48 80 49 81 54 82 50 83 51 84 53 85 55 86
REMARK SMILES IDX 52 87
REMARK H PARENT 9 12 72 49 46 60
REMARK Flexibility Score: inf
ROOT
ATOM      1  C   UNL A   1      40.297  21.211  26.731  1.00  0.00     0.188 C 
ENDROOT
BRANCH   1   2
ATOM      2  O   UNL A   1      39.600  21.975  25.774  1.00  0.00    -0.376 OA
BRANCH   2   3
ATOM      3  C   UNL A   1      38.201  21.775  25.708  1.00  0.00     0.202 C 
BRANCH   3   4
ATOM      4  C   UNL A   1      37.218  22.928  26.008  1.00  0.00     0.261 C 
BRANCH   4   5
ATOM      5  O   UNL A   1      36.936  23.877  24.948  1.00  0.00    -0.461 OA
BRANCH   5   6
ATOM      6  C   UNL A   1      36.335  23.395  23.830  1.00  0.00     0.333 C 
ATOM      7  O   UNL A   1      36.954  23.306  22.771  1.00  0.00    -0.249 OA
BRANCH   6   8
ATOM      8  C   UNL A   1      34.790  23.170  23.912  1.00  0.00     0.223 C 
BRANCH   8   9
ATOM      9  N   UNL A   1      34.159  23.996  22.883  1.00  0.00    -0.335 N 
ATOM     10  C   UNL A   1      33.650  25.267  22.870  1.00  0.00     0.253 C 
ATOM     11  O   UNL A   1      33.375  25.687  21.741  1.00  0.00    -0.269 OA
ATOM     12  H   UNL A   1      34.082  23.539  22.014  1.00  0.00     0.165 HD
BRANCH  10  13
ATOM     13  C   UNL A   1      33.316  26.088  24.058  1.00  0.00     0.053 A 
ATOM     14  C   UNL A   1      31.873  24.709  25.869  1.00  0.00     0.046 C 
ATOM     15  C   UNL A   1      32.579  25.900  25.315  1.00  0.00    -0.028 A 
ATOM     16  C   UNL A   1      32.634  27.042  26.103  1.00  0.00     0.069 A 
ATOM     17  S   UNL A   1      33.545  28.300  25.430  1.00  0.00    -0.151 S 
ATOM     18  C   UNL A   1      33.888  27.358  24.063  1.00  0.00     0.079 A 
ENDBRANCH  10  13
ENDBRANCH   8   9
BRANCH   8  19
ATOM     19  C   UNL A   1      34.029  21.829  24.007  1.00  0.00    -0.014 A 
ATOM     20  C   UNL A   1      34.378  20.828  24.931  1.00  0.00     0.006 A 
ATOM     21  C   UNL A   1      32.826  21.605  23.296  1.00  0.00     0.006 A 
ATOM     22  C   UNL A   1      33.621  19.645  25.054  1.00  0.00     0.000 A 
ATOM     23  C   UNL A   1      32.083  20.424  23.395  1.00  0.00     0.000 A 
ATOM     24  C   UNL A   1      32.485  19.437  24.275  1.00  0.00     0.000 A 
ENDBRANCH   8  19
ENDBRANCH   6   8
ENDBRANCH   5   6
ENDBRANCH   4   5
ENDBRANCH   3   4
ENDBRANCH   2   3
ENDBRANCH   1   2
BRANCH   1  25
ATOM     25  C   UNL A   1      41.773  21.020  26.363  1.00  0.00     0.188 C 
BRANCH  25  26
ATOM     26  O   UNL A   1      42.412  21.871  25.423  1.00  0.00    -0.376 OA
BRANCH  26  27
ATOM     27  C   UNL A   1      43.801  21.698  25.194  1.00  0.00     0.202 C 
BRANCH  27  28
ATOM     28  C   UNL A   1      44.643  22.902  24.742  1.00  0.00     0.261 C 
BRANCH  28  29
ATOM     29  O   UNL A   1      43.960  24.166  24.658  1.00  0.00    -0.460 OA
BRANCH  29  30
ATOM     30  C   UNL A   1      44.639  25.227  25.147  1.00  0.00     0.338 C 
ATOM     31  O   UNL A   1      45.742  25.638  24.774  1.00  0.00    -0.246 OA
BRANCH  30  32
ATOM     32  C   UNL A   1      43.809  25.978  26.107  1.00  0.00     0.060 A 
ATOM     33  C   UNL A   1      44.182  27.288  26.442  1.00  0.00     0.016 A 
ATOM     34  C   UNL A   1      42.728  25.374  26.749  1.00  0.00     0.016 A 
ATOM     35  C   UNL A   1      43.499  27.991  27.433  1.00  0.00     0.010 A 
ATOM     36  C   UNL A   1      42.064  26.067  27.770  1.00  0.00     0.010 A 
ATOM     37  C   UNL A   1      42.468  27.364  28.140  1.00  0.00    -0.014 A 
BRANCH  37  38
ATOM     38  C   UNL A   1      41.955  27.981  29.388  1.00  0.00     0.031 A 
ATOM     39  C   UNL A   1      40.690  28.794  29.320  1.00  0.00     0.074 A 
ATOM     40  C   UNL A   1      42.568  27.801  30.571  1.00  0.00     0.049 A 
ATOM     41  N   UNL A   1      40.108  29.509  30.249  1.00  0.00    -0.248 NA
ATOM     42  C   UNL A   1      39.985  28.796  28.027  1.00  0.00     0.031 C 
ATOM     43  C   UNL A   1      43.749  26.971  30.795  1.00  0.00     0.029 A 
ATOM     44  N   UNL A   1      42.279  28.321  31.808  1.00  0.00    -0.354 N 
ATOM     45  C   UNL A   1      38.982  30.062  29.649  1.00  0.00     0.074 A 
ATOM     46  C   UNL A   1      38.971  29.612  28.274  1.00  0.00     0.031 C 
ATOM     47  C   UNL A   1      44.095  27.051  32.093  1.00  0.00     0.029 A 
ATOM     48  C   UNL A   1      43.189  27.974  32.777  1.00  0.00     0.049 A 
ATOM     49  H   UNL A   1      41.493  28.888  31.985  1.00  0.00     0.167 HD
ATOM     50  C   UNL A   1      38.042  30.869  30.194  1.00  0.00     0.037 A 
ATOM     51  C   UNL A   1      43.298  28.384  34.056  1.00  0.00     0.037 A 
ATOM     52  C   UNL A   1      38.046  31.314  31.563  1.00  0.00     0.049 A 
ATOM     53  C   UNL A   1      42.298  29.366  34.612  1.00  0.00     0.074 A 
ATOM     54  C   UNL A   1      37.134  32.132  32.206  1.00  0.00     0.029 A 
ATOM     55  N   UNL A   1      39.014  30.981  32.498  1.00  0.00    -0.354 N 
ATOM     56  N   UNL A   1      41.244  29.894  34.037  1.00  0.00    -0.248 NA
ATOM     57  C   UNL A   1      42.507  29.814  35.998  1.00  0.00     0.031 C 
ATOM     58  C   UNL A   1      37.579  32.339  33.515  1.00  0.00     0.029 A 
ATOM     59  C   UNL A   1      38.736  31.601  33.706  1.00  0.00     0.049 A 
ATOM     60  H   UNL A   1      39.784  30.391  32.329  1.00  0.00     0.167 HD
ATOM     61  C   UNL A   1      40.650  30.706  34.998  1.00  0.00     0.074 A 
ATOM     62  C   UNL A   1      41.454  30.594  36.196  1.00  0.00     0.031 C 
ATOM     63  C   UNL A   1      39.536  31.474  34.897  1.00  0.00     0.037 A 
BRANCH  50  64
ATOM     64  C   UNL A   1      36.948  31.360  29.291  1.00  0.00     0.057 A 
ATOM     65  C   UNL A   1      35.862  30.555  28.929  1.00  0.00     0.134 A 
ATOM     66  C   UNL A   1      36.973  32.673  28.799  1.00  0.00     0.134 A 
ATOM     67  F   UNL A   1      35.786  29.284  29.354  1.00  0.00    -0.206 F 
ATOM     68  C   UNL A   1      34.851  31.028  28.091  1.00  0.00     0.040 A 
ATOM     69  C   UNL A   1      35.956  33.165  27.982  1.00  0.00     0.040 A 
ATOM     70  F   UNL A   1      37.983  33.498  29.110  1.00  0.00    -0.206 F 
ATOM     71  C   UNL A   1      34.893  32.340  27.620  1.00  0.00     0.006 A 
ENDBRANCH  50  64
BRANCH  51  72
ATOM     72  C   UNL A   1      44.420  27.902  34.902  1.00  0.00     0.057 A 
ATOM     73  C   UNL A   1      44.336  26.692  35.600  1.00  0.00     0.134 A 
ATOM     74  C   UNL A   1      45.586  28.660  35.066  1.00  0.00     0.134 A 
ATOM     75  F   UNL A   1      43.232  25.935  35.507  1.00  0.00    -0.206 F 
ATOM     76  C   UNL A   1      45.360  26.262  36.445  1.00  0.00     0.040 A 
ATOM     77  C   UNL A   1      46.630  28.230  35.886  1.00  0.00     0.040 A 
ATOM     78  F   UNL A   1      45.728  29.832  34.427  1.00  0.00    -0.206 F 
ATOM     79  C   UNL A   1      46.514  27.031  36.585  1.00  0.00     0.006 A 
ENDBRANCH  51  72
BRANCH  63  80
ATOM     80  C   UNL A   1      39.091  32.217  36.124  1.00  0.00     0.057 A 
ATOM     81  C   UNL A   1      39.500  33.531  36.388  1.00  0.00     0.134 A 
ATOM     82  C   UNL A   1      38.202  31.624  37.032  1.00  0.00     0.134 A 
ATOM     83  F   UNL A   1      40.358  34.154  35.567  1.00  0.00    -0.206 F 
ATOM     84  C   UNL A   1      39.060  34.218  37.522  1.00  0.00     0.040 A 
ATOM     85  C   UNL A   1      37.734  32.310  38.153  1.00  0.00     0.040 A 
ATOM     86  F   UNL A   1      37.761  30.373  36.833  1.00  0.00    -0.206 F 
ATOM     87  C   UNL A   1      38.169  33.610  38.404  1.00  0.00     0.006 A 
ENDBRANCH  63  80
ENDBRANCH  37  38
ENDBRANCH  30  32
ENDBRANCH  29  30
ENDBRANCH  28  29
ENDBRANCH  27  28
ENDBRANCH  26  27
ENDBRANCH  25  26
ENDBRANCH   1  25
TORSDOF 20
ENDMDL
