MODEL 1
REMARK VINA RESULT:     -11.4      0.000      0.000
REMARK SMILES O=C(OCCOCCOCCOC(=O)[C@@H]1c2[nH]cnc2CCN1C(=O)CCCc1c[nH]c2ccccc12)c1ccc(-c2c3nc(c(-c4c(F)cccc4F)c4ccc([nH]4)c(-c4c(F)cccc4F)c4nc(c(-c5c(F)cccc5F)c5ccc2[nH]5)C=C4)C=C3)cc1
REMARK SMILES IDX 9 1 8 2 7 3 6 4 5 5 4 6 3 7 2 8 1 9 38 10 39 11 91 12 40 13
REMARK SMILES IDX 90 14 41 15 42 16 43 17 84 18 44 19 89 20 83 21 85 22 45 23
REMARK SMILES IDX 88 24 82 25 81 26 46 28 72 29 55 30 71 31 56 32 59 33 70 34
REMARK SMILES IDX 86 35 57 36 58 37 69 39 87 40 60 41 47 42 48 43 53 44 49 45
REMARK SMILES IDX 50 46 52 47 54 48 51 49 73 50 74 51 79 52 75 53 76 54 78 55
REMARK SMILES IDX 80 56 77 57 61 58 62 59 67 60 63 61 64 62 66 63 68 64 65 65
REMARK SMILES IDX 10 66 11 67 12 68 13 69 14 70 15 71 16 72 23 73 17 74 20 75
REMARK SMILES IDX 22 76 18 77 19 79 21 80 24 81 25 82 26 83 27 84 28 85 29 86
REMARK SMILES IDX 30 87 37 88 31 89 32 90 36 91 33 93 35 94 34 95
REMARK H PARENT 85 27 59 38 17 78 31 92
REMARK Flexibility Score: inf
ROOT
ATOM      1  O   UNL A   1      39.088  21.740  26.434  1.00  0.00    -0.376 OA
ENDROOT
BRANCH   1   2
ATOM      2  C   UNL A   1      40.378  21.327  26.030  1.00  0.00     0.188 C 
BRANCH   2   3
ATOM      3  C   UNL A   1      41.069  20.038  26.530  1.00  0.00     0.188 C 
BRANCH   3   4
ATOM      4  O   UNL A   1      41.788  19.184  25.678  1.00  0.00    -0.376 OA
BRANCH   4   5
ATOM      5  C   UNL A   1      43.065  18.667  25.976  1.00  0.00     0.202 C 
BRANCH   5   6
ATOM      6  C   UNL A   1      44.304  18.799  25.081  1.00  0.00     0.261 C 
BRANCH   6   7
ATOM      7  O   UNL A   1      44.963  20.064  25.079  1.00  0.00    -0.460 OA
BRANCH   7   8
ATOM      8  C   UNL A   1      44.624  21.260  24.561  1.00  0.00     0.338 C 
ATOM      9  O   UNL A   1      44.851  21.462  23.367  1.00  0.00    -0.246 OA
BRANCH   8  10
ATOM     10  C   UNL A   1      44.049  22.388  25.335  1.00  0.00     0.060 A 
ATOM     11  C   UNL A   1      43.046  23.259  24.908  1.00  0.00     0.016 A 
ATOM     12  C   UNL A   1      44.623  22.582  26.606  1.00  0.00     0.016 A 
ATOM     13  C   UNL A   1      42.836  24.442  25.589  1.00  0.00     0.010 A 
ATOM     14  C   UNL A   1      44.371  23.730  27.325  1.00  0.00     0.010 A 
ATOM     15  C   UNL A   1      43.564  24.698  26.749  1.00  0.00    -0.014 A 
BRANCH  15  16
ATOM     16  C   UNL A   1      43.391  25.983  27.394  1.00  0.00     0.031 A 
ATOM     17  C   UNL A   1      44.442  26.965  27.043  1.00  0.00     0.074 A 
ATOM     18  C   UNL A   1      42.304  26.238  28.151  1.00  0.00     0.049 A 
ATOM     19  N   UNL A   1      45.298  27.521  27.835  1.00  0.00    -0.248 NA
ATOM     20  C   UNL A   1      44.680  27.234  25.616  1.00  0.00     0.031 C 
ATOM     21  C   UNL A   1      41.120  25.390  28.322  1.00  0.00     0.029 A 
ATOM     22  N   UNL A   1      41.971  27.362  28.841  1.00  0.00    -0.354 N 
ATOM     23  C   UNL A   1      46.018  28.405  27.035  1.00  0.00     0.074 A 
ATOM     24  C   UNL A   1      45.744  28.037  25.673  1.00  0.00     0.031 C 
ATOM     25  C   UNL A   1      40.117  26.126  28.849  1.00  0.00     0.029 A 
ATOM     26  C   UNL A   1      40.621  27.449  29.166  1.00  0.00     0.049 A 
ATOM     27  H   UNL A   1      42.628  28.052  29.089  1.00  0.00     0.167 HD
ATOM     28  C   UNL A   1      46.506  29.559  27.566  1.00  0.00     0.037 A 
ATOM     29  C   UNL A   1      39.962  28.558  29.584  1.00  0.00     0.037 A 
ATOM     30  C   UNL A   1      46.662  29.438  28.997  1.00  0.00     0.049 A 
ATOM     31  C   UNL A   1      40.979  29.530  30.059  1.00  0.00     0.074 A 
ATOM     32  C   UNL A   1      47.336  28.568  29.835  1.00  0.00     0.029 A 
ATOM     33  N   UNL A   1      45.762  30.095  29.800  1.00  0.00    -0.354 N 
ATOM     34  N   UNL A   1      41.685  29.371  31.144  1.00  0.00    -0.248 NA
ATOM     35  C   UNL A   1      41.536  30.455  29.083  1.00  0.00     0.031 C 
ATOM     36  C   UNL A   1      46.485  28.408  30.969  1.00  0.00     0.029 A 
ATOM     37  C   UNL A   1      45.378  29.238  30.793  1.00  0.00     0.049 A 
ATOM     38  H   UNL A   1      45.448  31.021  29.680  1.00  0.00     0.167 HD
ATOM     39  C   UNL A   1      42.959  29.797  30.796  1.00  0.00     0.074 A 
ATOM     40  C   UNL A   1      42.784  30.543  29.551  1.00  0.00     0.031 C 
ATOM     41  C   UNL A   1      44.063  29.251  31.385  1.00  0.00     0.037 A 
BRANCH  28  42
ATOM     42  C   UNL A   1      46.347  30.906  26.882  1.00  0.00     0.057 A 
ATOM     43  C   UNL A   1      47.460  31.767  26.841  1.00  0.00     0.134 A 
ATOM     44  C   UNL A   1      45.113  31.523  26.585  1.00  0.00     0.134 A 
ATOM     45  F   UNL A   1      48.697  31.306  27.082  1.00  0.00    -0.206 F 
ATOM     46  C   UNL A   1      47.333  33.151  26.669  1.00  0.00     0.040 A 
ATOM     47  C   UNL A   1      44.982  32.896  26.366  1.00  0.00     0.040 A 
ATOM     48  F   UNL A   1      43.949  30.867  26.578  1.00  0.00    -0.206 F 
ATOM     49  C   UNL A   1      46.088  33.723  26.453  1.00  0.00     0.006 A 
ENDBRANCH  28  42
BRANCH  29  50
ATOM     50  C   UNL A   1      38.558  28.956  29.320  1.00  0.00     0.057 A 
ATOM     51  C   UNL A   1      37.626  29.057  30.364  1.00  0.00     0.134 A 
ATOM     52  C   UNL A   1      38.158  29.507  28.089  1.00  0.00     0.134 A 
ATOM     53  F   UNL A   1      37.924  28.600  31.589  1.00  0.00    -0.206 F 
ATOM     54  C   UNL A   1      36.386  29.690  30.201  1.00  0.00     0.040 A 
ATOM     55  C   UNL A   1      36.919  30.131  27.909  1.00  0.00     0.040 A 
ATOM     56  F   UNL A   1      38.991  29.541  27.038  1.00  0.00    -0.206 F 
ATOM     57  C   UNL A   1      36.034  30.238  28.973  1.00  0.00     0.006 A 
ENDBRANCH  29  50
BRANCH  41  58
ATOM     58  C   UNL A   1      43.859  28.412  32.615  1.00  0.00     0.057 A 
ATOM     59  C   UNL A   1      43.717  28.927  33.913  1.00  0.00     0.134 A 
ATOM     60  C   UNL A   1      43.677  27.034  32.458  1.00  0.00     0.134 A 
ATOM     61  F   UNL A   1      43.767  30.244  34.148  1.00  0.00    -0.206 F 
ATOM     62  C   UNL A   1      43.463  28.097  35.010  1.00  0.00     0.040 A 
ATOM     63  C   UNL A   1      43.386  26.200  33.539  1.00  0.00     0.040 A 
ATOM     64  F   UNL A   1      43.740  26.479  31.238  1.00  0.00    -0.206 F 
ATOM     65  C   UNL A   1      43.292  26.729  34.823  1.00  0.00     0.006 A 
ENDBRANCH  41  58
ENDBRANCH  15  16
ENDBRANCH   8  10
ENDBRANCH   7   8
ENDBRANCH   6   7
ENDBRANCH   5   6
ENDBRANCH   4   5
ENDBRANCH   3   4
ENDBRANCH   2   3
ENDBRANCH   1   2
BRANCH   1  66
ATOM     66  C   UNL A   1      38.071  21.954  25.486  1.00  0.00     0.202 C 
BRANCH  66  67
ATOM     67  C   UNL A   1      37.072  23.068  25.797  1.00  0.00     0.261 C 
BRANCH  67  68
ATOM     68  O   UNL A   1      36.670  23.843  24.662  1.00  0.00    -0.461 OA
BRANCH  68  69
ATOM     69  C   UNL A   1      35.545  23.438  23.970  1.00  0.00     0.335 C 
ATOM     70  O   UNL A   1      35.462  23.340  22.766  1.00  0.00    -0.249 OA
BRANCH  69  71
ATOM     71  C   UNL A   1      34.475  23.064  25.012  1.00  0.00     0.244 C 
ATOM     72  C   UNL A   1      33.508  21.959  24.730  1.00  0.00     0.072 A 
ATOM     73  N   UNL A   1      33.749  24.109  25.723  1.00  0.00    -0.323 N 
ATOM     74  N   UNL A   1      33.489  20.985  23.775  1.00  0.00    -0.346 N 
ATOM     75  C   UNL A   1      32.443  21.665  25.557  1.00  0.00     0.066 A 
ATOM     76  C   UNL A   1      33.118  23.611  26.960  1.00  0.00     0.127 C 
ATOM     77  C   UNL A   1      32.512  20.090  24.142  1.00  0.00     0.197 A 
ATOM     78  H   UNL A   1      34.065  20.932  22.978  1.00  0.00     0.167 HD
ATOM     79  N   UNL A   1      31.851  20.486  25.209  1.00  0.00    -0.242 NA
ATOM     80  C   UNL A   1      32.020  22.548  26.677  1.00  0.00     0.080 C 
BRANCH  73  81
ATOM     81  C   UNL A   1      33.382  25.259  25.047  1.00  0.00     0.223 C 
ATOM     82  O   UNL A   1      33.694  26.384  25.431  1.00  0.00    -0.275 OA
BRANCH  81  83
ATOM     83  C   UNL A   1      32.366  25.114  23.932  1.00  0.00     0.100 C 
BRANCH  83  84
ATOM     84  C   UNL A   1      32.521  25.969  22.685  1.00  0.00     0.015 C 
BRANCH  84  85
ATOM     85  C   UNL A   1      31.386  26.884  22.264  1.00  0.00     0.038 C 
BRANCH  85  86
ATOM     86  C   UNL A   1      30.898  28.078  23.062  1.00  0.00    -0.023 A 
ATOM     87  C   UNL A   1      31.827  28.820  23.780  1.00  0.00     0.087 A 
ATOM     88  C   UNL A   1      29.645  28.807  23.190  1.00  0.00     0.003 A 
ATOM     89  N   UNL A   1      31.267  29.999  24.159  1.00  0.00    -0.361 N 
ATOM     90  C   UNL A   1      29.963  30.056  23.741  1.00  0.00     0.046 A 
ATOM     91  C   UNL A   1      28.284  28.617  22.842  1.00  0.00     0.010 A 
ATOM     92  H   UNL A   1      31.730  30.709  24.660  1.00  0.00     0.166 HD
ATOM     93  C   UNL A   1      29.060  31.125  23.837  1.00  0.00     0.026 A 
ATOM     94  C   UNL A   1      27.353  29.663  22.968  1.00  0.00     0.001 A 
ATOM     95  C   UNL A   1      27.744  30.910  23.438  1.00  0.00     0.002 A 
ENDBRANCH  85  86
ENDBRANCH  84  85
ENDBRANCH  83  84
ENDBRANCH  81  83
ENDBRANCH  73  81
ENDBRANCH  69  71
ENDBRANCH  68  69
ENDBRANCH  67  68
ENDBRANCH  66  67
ENDBRANCH   1  66
TORSDOF 22
ENDMDL
MODEL 2
REMARK VINA RESULT:     -11.4      3.911      9.342
REMARK SMILES O=C(OCCOCCOCCOC(=O)[C@@H]1c2[nH]cnc2CCN1C(=O)CCCc1c[nH]c2ccccc12)c1ccc(-c2c3nc(c(-c4c(F)cccc4F)c4ccc([nH]4)c(-c4c(F)cccc4F)c4nc(c(-c5c(F)cccc5F)c5ccc2[nH]5)C=C4)C=C3)cc1
REMARK SMILES IDX 9 1 8 2 7 3 6 4 5 5 4 6 3 7 2 8 1 9 38 10 39 11 91 12 40 13
REMARK SMILES IDX 90 14 41 15 42 16 43 17 84 18 44 19 89 20 83 21 85 22 45 23
REMARK SMILES IDX 88 24 82 25 81 26 46 28 72 29 55 30 71 31 56 32 59 33 70 34
REMARK SMILES IDX 86 35 57 36 58 37 69 39 87 40 60 41 47 42 48 43 53 44 49 45
REMARK SMILES IDX 50 46 52 47 54 48 51 49 73 50 74 51 79 52 75 53 76 54 78 55
REMARK SMILES IDX 80 56 77 57 61 58 62 59 67 60 63 61 64 62 66 63 68 64 65 65
REMARK SMILES IDX 10 66 11 67 12 68 13 69 14 70 15 71 16 72 23 73 17 74 20 75
REMARK SMILES IDX 22 76 18 77 19 79 21 80 24 81 25 82 26 83 27 84 28 85 29 86
REMARK SMILES IDX 30 87 37 88 31 89 32 90 36 91 33 93 35 94 34 95
REMARK H PARENT 85 27 59 38 17 78 31 92
REMARK Flexibility Score: inf
ROOT
ATOM      1  O   UNL A   1      33.074  31.567  27.232  1.00  0.00    -0.376 OA
ENDROOT
BRANCH   1   2
ATOM      2  C   UNL A   1      34.277  31.577  27.974  1.00  0.00     0.188 C 
BRANCH   2   3
ATOM      3  C   UNL A   1      35.231  32.791  28.056  1.00  0.00     0.188 C 
BRANCH   3   4
ATOM      4  O   UNL A   1      34.882  34.064  27.576  1.00  0.00    -0.376 OA
BRANCH   4   5
ATOM      5  C   UNL A   1      34.517  35.145  28.404  1.00  0.00     0.202 C 
BRANCH   5   6
ATOM      6  C   UNL A   1      33.232  35.225  29.237  1.00  0.00     0.261 C 
BRANCH   6   7
ATOM      7  O   UNL A   1      33.237  34.548  30.493  1.00  0.00    -0.460 OA
BRANCH   7   8
ATOM      8  C   UNL A   1      33.986  34.703  31.602  1.00  0.00     0.338 C 
ATOM      9  O   UNL A   1      33.657  35.575  32.408  1.00  0.00    -0.246 OA
BRANCH   8  10
ATOM     10  C   UNL A   1      35.222  33.941  31.906  1.00  0.00     0.060 A 
ATOM     11  C   UNL A   1      36.463  34.477  32.248  1.00  0.00     0.016 A 
ATOM     12  C   UNL A   1      35.092  32.543  31.795  1.00  0.00     0.016 A 
ATOM     13  C   UNL A   1      37.590  33.681  32.189  1.00  0.00     0.010 A 
ATOM     14  C   UNL A   1      36.204  31.730  31.799  1.00  0.00     0.010 A 
ATOM     15  C   UNL A   1      37.452  32.329  31.884  1.00  0.00    -0.014 A 
BRANCH  15  16
ATOM     16  C   UNL A   1      38.654  31.535  31.740  1.00  0.00     0.031 A 
ATOM     17  C   UNL A   1      39.339  31.264  33.025  1.00  0.00     0.074 A 
ATOM     18  C   UNL A   1      39.014  31.033  30.542  1.00  0.00     0.049 A 
ATOM     19  N   UNL A   1      40.523  31.637  33.382  1.00  0.00    -0.248 NA
ATOM     20  C   UNL A   1      38.551  30.650  34.106  1.00  0.00     0.031 C 
ATOM     21  C   UNL A   1      38.240  31.061  29.296  1.00  0.00     0.029 A 
ATOM     22  N   UNL A   1      40.099  30.285  30.204  1.00  0.00    -0.354 N 
ATOM     23  C   UNL A   1      40.719  31.081  34.643  1.00  0.00     0.074 A 
ATOM     24  C   UNL A   1      39.423  30.675  35.115  1.00  0.00     0.031 C 
ATOM     25  C   UNL A   1      38.757  30.163  28.429  1.00  0.00     0.029 A 
ATOM     26  C   UNL A   1      39.961  29.593  29.005  1.00  0.00     0.049 A 
ATOM     27  H   UNL A   1      40.911  30.239  30.759  1.00  0.00     0.167 HD
ATOM     28  C   UNL A   1      41.967  30.709  35.036  1.00  0.00     0.037 A 
ATOM     29  C   UNL A   1      40.738  28.571  28.569  1.00  0.00     0.037 A 
ATOM     30  C   UNL A   1      42.974  31.435  34.297  1.00  0.00     0.049 A 
ATOM     31  C   UNL A   1      42.001  28.606  29.349  1.00  0.00     0.074 A 
ATOM     32  C   UNL A   1      43.255  32.773  34.087  1.00  0.00     0.029 A 
ATOM     33  N   UNL A   1      43.674  30.759  33.329  1.00  0.00    -0.354 N 
ATOM     34  N   UNL A   1      42.908  29.533  29.221  1.00  0.00    -0.248 NA
ATOM     35  C   UNL A   1      42.044  27.861  30.599  1.00  0.00     0.031 C 
ATOM     36  C   UNL A   1      43.704  32.853  32.736  1.00  0.00     0.029 A 
ATOM     37  C   UNL A   1      43.740  31.557  32.220  1.00  0.00     0.049 A 
ATOM     38  H   UNL A   1      44.059  29.856  33.417  1.00  0.00     0.167 HD
ATOM     39  C   UNL A   1      43.323  29.797  30.519  1.00  0.00     0.074 A 
ATOM     40  C   UNL A   1      42.830  28.672  31.312  1.00  0.00     0.031 C 
ATOM     41  C   UNL A   1      43.760  31.041  30.873  1.00  0.00     0.037 A 
BRANCH  28  42
ATOM     42  C   UNL A   1      42.255  29.367  35.687  1.00  0.00     0.057 A 
ATOM     43  C   UNL A   1      43.215  29.317  36.715  1.00  0.00     0.134 A 
ATOM     44  C   UNL A   1      41.910  28.112  35.140  1.00  0.00     0.134 A 
ATOM     45  F   UNL A   1      43.616  30.436  37.336  1.00  0.00    -0.206 F 
ATOM     46  C   UNL A   1      43.884  28.137  37.062  1.00  0.00     0.040 A 
ATOM     47  C   UNL A   1      42.539  26.922  35.513  1.00  0.00     0.040 A 
ATOM     48  F   UNL A   1      41.021  27.961  34.155  1.00  0.00    -0.206 F 
ATOM     49  C   UNL A   1      43.563  26.937  36.444  1.00  0.00     0.006 A 
ENDBRANCH  28  42
BRANCH  29  50
ATOM     50  C   UNL A   1      40.350  27.393  27.755  1.00  0.00     0.057 A 
ATOM     51  C   UNL A   1      40.965  27.131  26.522  1.00  0.00     0.134 A 
ATOM     52  C   UNL A   1      39.566  26.350  28.281  1.00  0.00     0.134 A 
ATOM     53  F   UNL A   1      41.767  28.044  25.954  1.00  0.00    -0.206 F 
ATOM     54  C   UNL A   1      40.831  25.900  25.865  1.00  0.00     0.040 A 
ATOM     55  C   UNL A   1      39.414  25.121  27.631  1.00  0.00     0.040 A 
ATOM     56  F   UNL A   1      38.991  26.451  29.489  1.00  0.00    -0.206 F 
ATOM     57  C   UNL A   1      40.061  24.886  26.426  1.00  0.00     0.006 A 
ENDBRANCH  29  50
BRANCH  41  58
ATOM     58  C   UNL A   1      44.065  32.018  29.773  1.00  0.00     0.057 A 
ATOM     59  C   UNL A   1      45.259  32.034  29.034  1.00  0.00     0.134 A 
ATOM     60  C   UNL A   1      43.057  32.896  29.364  1.00  0.00     0.134 A 
ATOM     61  F   UNL A   1      46.241  31.158  29.280  1.00  0.00    -0.206 F 
ATOM     62  C   UNL A   1      45.456  32.927  27.976  1.00  0.00     0.040 A 
ATOM     63  C   UNL A   1      43.228  33.766  28.285  1.00  0.00     0.040 A 
ATOM     64  F   UNL A   1      41.867  32.896  29.986  1.00  0.00    -0.206 F 
ATOM     65  C   UNL A   1      44.436  33.794  27.597  1.00  0.00     0.006 A 
ENDBRANCH  41  58
ENDBRANCH  15  16
ENDBRANCH   8  10
ENDBRANCH   7   8
ENDBRANCH   6   7
ENDBRANCH   5   6
ENDBRANCH   4   5
ENDBRANCH   3   4
ENDBRANCH   2   3
ENDBRANCH   1   2
BRANCH   1  66
ATOM     66  C   UNL A   1      32.298  30.398  27.135  1.00  0.00     0.202 C 
BRANCH  66  67
ATOM     67  C   UNL A   1      32.351  29.651  25.802  1.00  0.00     0.261 C 
BRANCH  67  68
ATOM     68  O   UNL A   1      31.311  28.685  25.618  1.00  0.00    -0.461 OA
BRANCH  68  69
ATOM     69  C   UNL A   1      31.412  27.491  26.304  1.00  0.00     0.335 C 
ATOM     70  O   UNL A   1      31.562  27.382  27.501  1.00  0.00    -0.249 OA
BRANCH  69  71
ATOM     71  C   UNL A   1      31.217  26.356  25.282  1.00  0.00     0.244 C 
ATOM     72  C   UNL A   1      31.008  24.952  25.752  1.00  0.00     0.072 A 
ATOM     73  N   UNL A   1      32.047  26.298  24.085  1.00  0.00    -0.323 N 
ATOM     74  N   UNL A   1      30.714  24.435  26.980  1.00  0.00    -0.346 N 
ATOM     75  C   UNL A   1      30.964  23.872  24.893  1.00  0.00     0.066 A 
ATOM     76  C   UNL A   1      31.452  25.454  23.031  1.00  0.00     0.127 C 
ATOM     77  C   UNL A   1      30.382  23.115  26.784  1.00  0.00     0.197 A 
ATOM     78  H   UNL A   1      30.735  24.914  27.839  1.00  0.00     0.167 HD
ATOM     79  N   UNL A   1      30.541  22.743  25.532  1.00  0.00    -0.242 NA
ATOM     80  C   UNL A   1      31.341  23.964  23.457  1.00  0.00     0.080 C 
BRANCH  73  81
ATOM     81  C   UNL A   1      33.384  26.643  24.170  1.00  0.00     0.223 C 
ATOM     82  O   UNL A   1      33.926  27.402  23.369  1.00  0.00    -0.275 OA
BRANCH  81  83
ATOM     83  C   UNL A   1      34.241  25.867  25.149  1.00  0.00     0.100 C 
BRANCH  83  84
ATOM     84  C   UNL A   1      34.800  24.519  24.723  1.00  0.00     0.015 C 
BRANCH  84  85
ATOM     85  C   UNL A   1      34.436  23.278  25.516  1.00  0.00     0.038 C 
BRANCH  85  86
ATOM     86  C   UNL A   1      34.729  21.856  25.077  1.00  0.00    -0.023 A 
ATOM     87  C   UNL A   1      35.945  21.290  25.435  1.00  0.00     0.087 A 
ATOM     88  C   UNL A   1      33.976  20.780  24.451  1.00  0.00     0.003 A 
ATOM     89  N   UNL A   1      35.894  19.946  25.234  1.00  0.00    -0.361 N 
ATOM     90  C   UNL A   1      34.677  19.594  24.715  1.00  0.00     0.046 A 
ATOM     91  C   UNL A   1      32.748  20.627  23.760  1.00  0.00     0.010 A 
ATOM     92  H   UNL A   1      36.626  19.317  25.434  1.00  0.00     0.166 HD
ATOM     93  C   UNL A   1      34.176  18.311  24.452  1.00  0.00     0.026 A 
ATOM     94  C   UNL A   1      32.247  19.350  23.450  1.00  0.00     0.001 A 
ATOM     95  C   UNL A   1      32.943  18.206  23.814  1.00  0.00     0.002 A 
ENDBRANCH  85  86
ENDBRANCH  84  85
ENDBRANCH  83  84
ENDBRANCH  81  83
ENDBRANCH  73  81
ENDBRANCH  69  71
ENDBRANCH  68  69
ENDBRANCH  67  68
ENDBRANCH  66  67
ENDBRANCH   1  66
TORSDOF 22
ENDMDL
MODEL 3
REMARK VINA RESULT:     -11.1      3.558      9.573
REMARK SMILES O=C(OCCOCCOCCOC(=O)[C@@H]1c2[nH]cnc2CCN1C(=O)CCCc1c[nH]c2ccccc12)c1ccc(-c2c3nc(c(-c4c(F)cccc4F)c4ccc([nH]4)c(-c4c(F)cccc4F)c4nc(c(-c5c(F)cccc5F)c5ccc2[nH]5)C=C4)C=C3)cc1
REMARK SMILES IDX 9 1 8 2 7 3 6 4 5 5 4 6 3 7 2 8 1 9 38 10 39 11 91 12 40 13
REMARK SMILES IDX 90 14 41 15 42 16 43 17 84 18 44 19 89 20 83 21 85 22 45 23
REMARK SMILES IDX 88 24 82 25 81 26 46 28 72 29 55 30 71 31 56 32 59 33 70 34
REMARK SMILES IDX 86 35 57 36 58 37 69 39 87 40 60 41 47 42 48 43 53 44 49 45
REMARK SMILES IDX 50 46 52 47 54 48 51 49 73 50 74 51 79 52 75 53 76 54 78 55
REMARK SMILES IDX 80 56 77 57 61 58 62 59 67 60 63 61 64 62 66 63 68 64 65 65
REMARK SMILES IDX 10 66 11 67 12 68 13 69 14 70 15 71 16 72 23 73 17 74 20 75
REMARK SMILES IDX 22 76 18 77 19 79 21 80 24 81 25 82 26 83 27 84 28 85 29 86
REMARK SMILES IDX 30 87 37 88 31 89 32 90 36 91 33 93 35 94 34 95
REMARK H PARENT 85 27 59 38 17 78 31 92
REMARK Flexibility Score: inf
ROOT
ATOM      1  O   UNL A   1      35.131  32.118  27.779  1.00  0.00    -0.376 OA
ENDROOT
BRANCH   1   2
ATOM      2  C   UNL A   1      34.422  33.076  28.538  1.00  0.00     0.188 C 
BRANCH   2   3
ATOM      3  C   UNL A   1      33.199  33.863  28.012  1.00  0.00     0.188 C 
BRANCH   3   4
ATOM      4  O   UNL A   1      32.541  34.840  28.775  1.00  0.00    -0.376 OA
BRANCH   4   5
ATOM      5  C   UNL A   1      33.193  35.711  29.672  1.00  0.00     0.202 C 
BRANCH   5   6
ATOM      6  C   UNL A   1      32.765  35.969  31.122  1.00  0.00     0.261 C 
BRANCH   6   7
ATOM      7  O   UNL A   1      33.091  34.960  32.077  1.00  0.00    -0.460 OA
BRANCH   7   8
ATOM      8  C   UNL A   1      34.238  34.650  32.712  1.00  0.00     0.338 C 
ATOM      9  O   UNL A   1      34.465  35.189  33.797  1.00  0.00    -0.246 OA
BRANCH   8  10
ATOM     10  C   UNL A   1      35.289  33.751  32.177  1.00  0.00     0.060 A 
ATOM     11  C   UNL A   1      35.178  32.374  31.976  1.00  0.00     0.016 A 
ATOM     12  C   UNL A   1      36.512  34.385  31.886  1.00  0.00     0.016 A 
ATOM     13  C   UNL A   1      36.319  31.620  31.781  1.00  0.00     0.010 A 
ATOM     14  C   UNL A   1      37.644  33.644  31.626  1.00  0.00     0.010 A 
ATOM     15  C   UNL A   1      37.552  32.262  31.689  1.00  0.00    -0.014 A 
BRANCH  15  16
ATOM     16  C   UNL A   1      38.740  31.444  31.575  1.00  0.00     0.031 A 
ATOM     17  C   UNL A   1      39.418  31.204  32.870  1.00  0.00     0.074 A 
ATOM     18  C   UNL A   1      39.095  30.897  30.395  1.00  0.00     0.049 A 
ATOM     19  N   UNL A   1      40.607  31.567  33.218  1.00  0.00    -0.248 NA
ATOM     20  C   UNL A   1      38.617  30.639  33.968  1.00  0.00     0.031 C 
ATOM     21  C   UNL A   1      38.324  30.898  29.147  1.00  0.00     0.029 A 
ATOM     22  N   UNL A   1      40.167  30.120  30.084  1.00  0.00    -0.354 N 
ATOM     23  C   UNL A   1      40.791  31.050  34.497  1.00  0.00     0.074 A 
ATOM     24  C   UNL A   1      39.487  30.682  34.978  1.00  0.00     0.031 C 
ATOM     25  C   UNL A   1      38.828  29.963  28.311  1.00  0.00     0.029 A 
ATOM     26  C   UNL A   1      40.020  29.391  28.909  1.00  0.00     0.049 A 
ATOM     27  H   UNL A   1      40.977  30.079  30.643  1.00  0.00     0.167 HD
ATOM     28  C   UNL A   1      42.032  30.669  34.905  1.00  0.00     0.037 A 
ATOM     29  C   UNL A   1      40.780  28.342  28.509  1.00  0.00     0.037 A 
ATOM     30  C   UNL A   1      43.053  31.354  34.146  1.00  0.00     0.049 A 
ATOM     31  C   UNL A   1      42.042  28.381  29.290  1.00  0.00     0.074 A 
ATOM     32  C   UNL A   1      43.357  32.679  33.893  1.00  0.00     0.029 A 
ATOM     33  N   UNL A   1      43.742  30.634  33.202  1.00  0.00    -0.354 N 
ATOM     34  N   UNL A   1      42.965  29.288  29.135  1.00  0.00    -0.248 NA
ATOM     35  C   UNL A   1      42.069  27.677  30.564  1.00  0.00     0.031 C 
ATOM     36  C   UNL A   1      43.811  32.707  32.541  1.00  0.00     0.029 A 
ATOM     37  C   UNL A   1      43.825  31.395  32.069  1.00  0.00     0.049 A 
ATOM     38  H   UNL A   1      44.112  29.728  33.321  1.00  0.00     0.167 HD
ATOM     39  C   UNL A   1      43.381  29.587  30.424  1.00  0.00     0.074 A 
ATOM     40  C   UNL A   1      42.867  28.498  31.252  1.00  0.00     0.031 C 
ATOM     41  C   UNL A   1      43.839  30.834  30.739  1.00  0.00     0.037 A 
BRANCH  28  42
ATOM     42  C   UNL A   1      42.295  29.344  35.600  1.00  0.00     0.057 A 
ATOM     43  C   UNL A   1      43.239  29.316  36.644  1.00  0.00     0.134 A 
ATOM     44  C   UNL A   1      41.944  28.077  35.086  1.00  0.00     0.134 A 
ATOM     45  F   UNL A   1      43.643  30.449  37.238  1.00  0.00    -0.206 F 
ATOM     46  C   UNL A   1      43.890  28.139  37.036  1.00  0.00     0.040 A 
ATOM     47  C   UNL A   1      42.554  26.893  35.504  1.00  0.00     0.040 A 
ATOM     48  F   UNL A   1      41.068  27.906  34.093  1.00  0.00    -0.206 F 
ATOM     49  C   UNL A   1      43.564  26.925  36.450  1.00  0.00     0.006 A 
ENDBRANCH  28  42
BRANCH  29  50
ATOM     50  C   UNL A   1      40.374  27.146  27.733  1.00  0.00     0.057 A 
ATOM     51  C   UNL A   1      40.968  26.848  26.497  1.00  0.00     0.134 A 
ATOM     52  C   UNL A   1      39.594  26.120  28.298  1.00  0.00     0.134 A 
ATOM     53  F   UNL A   1      41.764  27.742  25.892  1.00  0.00    -0.206 F 
ATOM     54  C   UNL A   1      40.817  25.601  25.875  1.00  0.00     0.040 A 
ATOM     55  C   UNL A   1      39.426  24.875  27.684  1.00  0.00     0.040 A 
ATOM     56  F   UNL A   1      39.039  26.256  29.512  1.00  0.00    -0.206 F 
ATOM     57  C   UNL A   1      40.052  24.606  26.474  1.00  0.00     0.006 A 
ENDBRANCH  29  50
BRANCH  41  58
ATOM     58  C   UNL A   1      44.164  31.769  29.608  1.00  0.00     0.057 A 
ATOM     59  C   UNL A   1      43.288  32.744  29.108  1.00  0.00     0.134 A 
ATOM     60  C   UNL A   1      45.463  31.761  29.091  1.00  0.00     0.134 A 
ATOM     61  F   UNL A   1      42.059  32.902  29.615  1.00  0.00    -0.206 F 
ATOM     62  C   UNL A   1      43.674  33.630  28.096  1.00  0.00     0.040 A 
ATOM     63  C   UNL A   1      45.872  32.664  28.108  1.00  0.00     0.040 A 
ATOM     64  F   UNL A   1      46.374  30.895  29.563  1.00  0.00    -0.206 F 
ATOM     65  C   UNL A   1      44.972  33.593  27.597  1.00  0.00     0.006 A 
ENDBRANCH  41  58
ENDBRANCH  15  16
ENDBRANCH   8  10
ENDBRANCH   7   8
ENDBRANCH   6   7
ENDBRANCH   5   6
ENDBRANCH   4   5
ENDBRANCH   3   4
ENDBRANCH   2   3
ENDBRANCH   1   2
BRANCH   1  66
ATOM     66  C   UNL A   1      34.935  30.741  27.994  1.00  0.00     0.202 C 
BRANCH  66  67
ATOM     67  C   UNL A   1      34.620  29.896  26.760  1.00  0.00     0.261 C 
BRANCH  67  68
ATOM     68  O   UNL A   1      33.970  28.651  27.040  1.00  0.00    -0.461 OA
BRANCH  68  69
ATOM     69  C   UNL A   1      32.667  28.494  26.611  1.00  0.00     0.335 C 
ATOM     70  O   UNL A   1      31.681  28.814  27.237  1.00  0.00    -0.249 OA
BRANCH  69  71
ATOM     71  C   UNL A   1      32.720  27.924  25.181  1.00  0.00     0.244 C 
ATOM     72  C   UNL A   1      31.613  28.213  24.218  1.00  0.00     0.072 A 
ATOM     73  N   UNL A   1      33.148  26.549  24.957  1.00  0.00    -0.323 N 
ATOM     74  N   UNL A   1      30.588  29.113  24.248  1.00  0.00    -0.346 N 
ATOM     75  C   UNL A   1      31.530  27.624  22.973  1.00  0.00     0.066 A 
ATOM     76  C   UNL A   1      33.566  26.313  23.562  1.00  0.00     0.127 C 
ATOM     77  C   UNL A   1      30.029  29.119  22.993  1.00  0.00     0.197 A 
ATOM     78  H   UNL A   1      30.305  29.655  25.020  1.00  0.00     0.167 HD
ATOM     79  N   UNL A   1      30.569  28.214  22.204  1.00  0.00    -0.242 NA
ATOM     80  C   UNL A   1      32.395  26.488  22.555  1.00  0.00     0.080 C 
BRANCH  73  81
ATOM     81  C   UNL A   1      32.766  25.565  25.853  1.00  0.00     0.223 C 
ATOM     82  O   UNL A   1      33.575  24.928  26.523  1.00  0.00    -0.275 OA
BRANCH  81  83
ATOM     83  C   UNL A   1      31.319  25.117  25.817  1.00  0.00     0.100 C 
BRANCH  83  84
ATOM     84  C   UNL A   1      30.967  23.841  25.071  1.00  0.00     0.015 C 
BRANCH  84  85
ATOM     85  C   UNL A   1      32.067  23.055  24.381  1.00  0.00     0.038 C 
BRANCH  85  86
ATOM     86  C   UNL A   1      32.603  21.719  24.858  1.00  0.00    -0.023 A 
ATOM     87  C   UNL A   1      33.076  21.622  26.160  1.00  0.00     0.087 A 
ATOM     88  C   UNL A   1      32.640  20.361  24.336  1.00  0.00     0.003 A 
ATOM     89  N   UNL A   1      33.213  20.311  26.495  1.00  0.00    -0.361 N 
ATOM     90  C   UNL A   1      32.873  19.517  25.431  1.00  0.00     0.046 A 
ATOM     91  C   UNL A   1      32.427  19.712  23.094  1.00  0.00     0.010 A 
ATOM     92  H   UNL A   1      33.512  19.981  27.373  1.00  0.00     0.166 HD
ATOM     93  C   UNL A   1      32.781  18.119  25.379  1.00  0.00     0.026 A 
ATOM     94  C   UNL A   1      32.371  18.309  23.013  1.00  0.00     0.001 A 
ATOM     95  C   UNL A   1      32.523  17.524  24.147  1.00  0.00     0.002 A 
ENDBRANCH  85  86
ENDBRANCH  84  85
ENDBRANCH  83  84
ENDBRANCH  81  83
ENDBRANCH  73  81
ENDBRANCH  69  71
ENDBRANCH  68  69
ENDBRANCH  67  68
ENDBRANCH  66  67
ENDBRANCH   1  66
TORSDOF 22
ENDMDL
