MODEL 1
REMARK VINA RESULT:     -12.1      0.000      0.000
REMARK SMILES COc1cccc([C@H]2CC(c3ccc(S(C)(=O)=O)cc3)=NN2c2ccc(C(=O)OCCOCCOCCOC(=O)c3ccc(-c4c5nc(c(-c6c(F)cccc6F)c6ccc([nH]6)c(-c6c(F)cccc6F)c6nc(c(-c7c(F)cccc7F)c7ccc4[nH]7)C=C6)C=C5)cc3)cc2)c1
REMARK SMILES IDX 33 1 32 2 31 3 30 4 29 5 27 6 28 7 26 8 23 9 24 10 96 11
REMARK SMILES IDX 25 12 95 13 22 14 8 15 9 16 10 17 21 18 7 19 3 20 4 21 97 22
REMARK SMILES IDX 5 23 6 24 2 25 1 26 11 27 12 28 20 29 13 30 19 31 14 32
REMARK SMILES IDX 15 33 16 34 17 35 18 36 34 37 35 38 36 39 37 40 38 41 39 42
REMARK SMILES IDX 40 43 41 44 42 45 94 46 43 47 93 48 44 49 45 50 46 51 87 52
REMARK SMILES IDX 47 53 92 54 86 55 88 56 48 57 91 58 85 59 84 60 49 62 75 63
REMARK SMILES IDX 58 64 74 65 59 66 62 67 73 68 89 69 60 70 61 71 72 73 90 74
REMARK SMILES IDX 63 75 50 76 51 77 56 78 52 79 53 80 55 81 57 82 54 83 76 84
REMARK SMILES IDX 77 85 82 86 78 87 79 88 81 89 83 90 80 91 64 92 65 93 70 94
REMARK SMILES IDX 66 95 67 96 69 97 71 98 68 99
REMARK H PARENT 88 61 62 72
REMARK Flexibility Score: inf
ROOT
ATOM      1  C   UNL A   1      34.040  35.029  28.287  1.00  0.00     0.188 C 
ENDROOT
BRANCH   1   2
ATOM      2  O   UNL A   1      35.324  34.449  28.435  1.00  0.00    -0.376 OA
BRANCH   2   3
ATOM      3  C   UNL A   1      35.537  33.098  28.062  1.00  0.00     0.202 C 
BRANCH   3   4
ATOM      4  C   UNL A   1      34.758  31.973  28.750  1.00  0.00     0.261 C 
BRANCH   4   5
ATOM      5  O   UNL A   1      34.549  30.819  27.923  1.00  0.00    -0.460 OA
BRANCH   5   6
ATOM      6  C   UNL A   1      33.304  30.710  27.397  1.00  0.00     0.338 C 
ATOM      7  O   UNL A   1      32.581  31.622  27.030  1.00  0.00    -0.246 OA
BRANCH   6   8
ATOM      8  C   UNL A   1      32.974  29.289  27.160  1.00  0.00     0.060 A 
ATOM      9  C   UNL A   1      32.392  26.622  26.489  1.00  0.00     0.060 A 
ATOM     10  C   UNL A   1      33.676  27.140  26.290  1.00  0.00     0.029 A 
ATOM     11  C   UNL A   1      31.431  27.440  27.110  1.00  0.00     0.029 A 
ATOM     12  C   UNL A   1      33.960  28.474  26.591  1.00  0.00     0.018 A 
ATOM     13  C   UNL A   1      31.719  28.762  27.463  1.00  0.00     0.018 A 
BRANCH   9  14
ATOM     14  N   UNL A   1      32.046  25.373  25.985  1.00  0.00    -0.257 N 
ATOM     15  C   UNL A   1      30.864  25.174  25.140  1.00  0.00     0.144 C 
ATOM     16  C   UNL A   1      31.016  23.725  24.679  1.00  0.00     0.091 C 
ATOM     17  C   UNL A   1      32.301  23.358  25.369  1.00  0.00     0.071 C 
ATOM     18  N   UNL A   1      32.876  24.297  26.057  1.00  0.00    -0.176 NA
BRANCH  15  19
ATOM     19  C   UNL A   1      30.799  26.168  23.987  1.00  0.00    -0.019 A 
ATOM     20  C   UNL A   1      29.751  28.049  22.836  1.00  0.00     0.119 A 
ATOM     21  C   UNL A   1      30.646  27.889  21.777  1.00  0.00     0.046 A 
ATOM     22  C   UNL A   1      29.818  27.180  23.929  1.00  0.00     0.052 A 
ATOM     23  C   UNL A   1      31.619  26.893  21.816  1.00  0.00     0.004 A 
ATOM     24  C   UNL A   1      31.697  26.039  22.915  1.00  0.00     0.006 A 
BRANCH  20  25
ATOM     25  O   UNL A   1      28.835  29.051  22.667  1.00  0.00    -0.497 OA
ATOM     26  C   UNL A   1      27.498  28.750  23.047  1.00  0.00     0.278 C 
ENDBRANCH  20  25
ENDBRANCH  15  19
BRANCH  17  27
ATOM     27  C   UNL A   1      32.789  21.975  25.298  1.00  0.00    -0.002 A 
ATOM     28  C   UNL A   1      31.852  20.940  25.201  1.00  0.00     0.011 A 
ATOM     29  C   UNL A   1      34.159  21.711  25.222  1.00  0.00     0.011 A 
ATOM     30  C   UNL A   1      32.288  19.630  24.997  1.00  0.00     0.021 A 
ATOM     31  C   UNL A   1      34.598  20.397  25.044  1.00  0.00     0.021 A 
ATOM     32  C   UNL A   1      33.661  19.364  24.925  1.00  0.00     0.067 A 
BRANCH  32  33
ATOM     33  S   UNL A   1      34.207  17.700  24.611  1.00  0.00     0.175 S 
ATOM     34  C   UNL A   1      33.561  17.318  23.005  1.00  0.00     0.163 C 
ATOM     35  O   UNL A   1      35.654  17.749  24.526  1.00  0.00    -0.224 OA
ATOM     36  O   UNL A   1      33.544  16.835  25.568  1.00  0.00    -0.224 OA
ENDBRANCH  32  33
ENDBRANCH  17  27
ENDBRANCH   9  14
ENDBRANCH   6   8
ENDBRANCH   5   6
ENDBRANCH   4   5
ENDBRANCH   3   4
ENDBRANCH   2   3
ENDBRANCH   1   2
BRANCH   1  37
ATOM     37  C   UNL A   1      33.235  35.510  29.514  1.00  0.00     0.188 C 
BRANCH  37  38
ATOM     38  O   UNL A   1      33.204  34.735  30.689  1.00  0.00    -0.376 OA
BRANCH  38  39
ATOM     39  C   UNL A   1      33.976  35.065  31.829  1.00  0.00     0.202 C 
BRANCH  39  40
ATOM     40  C   UNL A   1      35.332  34.447  32.204  1.00  0.00     0.261 C 
BRANCH  40  41
ATOM     41  O   UNL A   1      35.468  33.034  32.073  1.00  0.00    -0.460 OA
BRANCH  41  42
ATOM     42  C   UNL A   1      36.327  32.458  32.949  1.00  0.00     0.338 C 
ATOM     43  O   UNL A   1      36.269  32.463  34.166  1.00  0.00    -0.246 OA
BRANCH  42  44
ATOM     44  C   UNL A   1      37.313  31.671  32.194  1.00  0.00     0.060 A 
ATOM     45  C   UNL A   1      38.286  30.958  32.903  1.00  0.00     0.016 A 
ATOM     46  C   UNL A   1      37.304  31.679  30.797  1.00  0.00     0.016 A 
ATOM     47  C   UNL A   1      39.278  30.266  32.212  1.00  0.00     0.010 A 
ATOM     48  C   UNL A   1      38.310  31.000  30.108  1.00  0.00     0.010 A 
ATOM     49  C   UNL A   1      39.315  30.313  30.812  1.00  0.00    -0.014 A 
BRANCH  49  50
ATOM     50  C   UNL A   1      40.495  29.788  30.087  1.00  0.00     0.031 A 
ATOM     51  C   UNL A   1      41.657  30.708  29.838  1.00  0.00     0.074 A 
ATOM     52  C   UNL A   1      40.534  28.515  29.657  1.00  0.00     0.049 A 
ATOM     53  N   UNL A   1      42.765  30.487  29.180  1.00  0.00    -0.248 NA
ATOM     54  C   UNL A   1      41.552  32.061  30.407  1.00  0.00     0.031 C 
ATOM     55  C   UNL A   1      39.487  27.518  29.867  1.00  0.00     0.029 A 
ATOM     56  N   UNL A   1      41.497  27.850  28.941  1.00  0.00    -0.354 N 
ATOM     57  C   UNL A   1      43.488  31.671  29.253  1.00  0.00     0.074 A 
ATOM     58  C   UNL A   1      42.680  32.616  29.994  1.00  0.00     0.031 C 
ATOM     59  C   UNL A   1      39.856  26.369  29.276  1.00  0.00     0.029 A 
ATOM     60  C   UNL A   1      41.151  26.561  28.623  1.00  0.00     0.049 A 
ATOM     61  H   UNL A   1      42.354  28.259  28.681  1.00  0.00     0.167 HD
ATOM     62  C   UNL A   1      44.715  31.943  28.752  1.00  0.00     0.037 A 
ATOM     63  C   UNL A   1      41.797  25.651  27.869  1.00  0.00     0.037 A 
ATOM     64  C   UNL A   1      45.513  31.007  28.007  1.00  0.00     0.049 A 
ATOM     65  C   UNL A   1      43.127  26.004  27.256  1.00  0.00     0.074 A 
ATOM     66  C   UNL A   1      46.776  31.185  27.472  1.00  0.00     0.029 A 
ATOM     67  N   UNL A   1      45.116  29.719  27.680  1.00  0.00    -0.354 N 
ATOM     68  N   UNL A   1      43.817  27.114  27.356  1.00  0.00    -0.248 NA
ATOM     69  C   UNL A   1      43.768  24.974  26.424  1.00  0.00     0.031 C 
ATOM     70  C   UNL A   1      47.126  30.019  26.781  1.00  0.00     0.029 A 
ATOM     71  C   UNL A   1      46.101  29.098  26.929  1.00  0.00     0.049 A 
ATOM     72  H   UNL A   1      44.262  29.307  27.943  1.00  0.00     0.167 HD
ATOM     73  C   UNL A   1      44.983  26.907  26.628  1.00  0.00     0.074 A 
ATOM     74  C   UNL A   1      44.911  25.561  26.098  1.00  0.00     0.031 C 
ATOM     75  C   UNL A   1      46.020  27.755  26.416  1.00  0.00     0.037 A 
BRANCH  62  76
ATOM     76  C   UNL A   1      45.256  33.323  28.975  1.00  0.00     0.057 A 
ATOM     77  C   UNL A   1      46.061  33.634  30.078  1.00  0.00     0.134 A 
ATOM     78  C   UNL A   1      44.988  34.351  28.060  1.00  0.00     0.134 A 
ATOM     79  F   UNL A   1      46.342  32.699  30.999  1.00  0.00    -0.206 F 
ATOM     80  C   UNL A   1      46.563  34.921  30.276  1.00  0.00     0.040 A 
ATOM     81  C   UNL A   1      45.505  35.635  28.233  1.00  0.00     0.040 A 
ATOM     82  F   UNL A   1      44.227  34.119  26.980  1.00  0.00    -0.206 F 
ATOM     83  C   UNL A   1      46.290  35.925  29.348  1.00  0.00     0.006 A 
ENDBRANCH  62  76
BRANCH  63  84
ATOM     84  C   UNL A   1      41.192  24.315  27.632  1.00  0.00     0.057 A 
ATOM     85  C   UNL A   1      41.676  23.174  28.280  1.00  0.00     0.134 A 
ATOM     86  C   UNL A   1      40.134  24.146  26.729  1.00  0.00     0.134 A 
ATOM     87  F   UNL A   1      42.705  23.269  29.135  1.00  0.00    -0.206 F 
ATOM     88  C   UNL A   1      41.143  21.909  28.028  1.00  0.00     0.040 A 
ATOM     89  C   UNL A   1      39.575  22.891  26.486  1.00  0.00     0.040 A 
ATOM     90  F   UNL A   1      39.628  25.200  26.073  1.00  0.00    -0.206 F 
ATOM     91  C   UNL A   1      40.086  21.766  27.131  1.00  0.00     0.006 A 
ENDBRANCH  63  84
BRANCH  75  92
ATOM     92  C   UNL A   1      47.179  27.241  25.613  1.00  0.00     0.057 A 
ATOM     93  C   UNL A   1      47.317  27.522  24.248  1.00  0.00     0.134 A 
ATOM     94  C   UNL A   1      48.194  26.495  26.226  1.00  0.00     0.134 A 
ATOM     95  F   UNL A   1      46.373  28.221  23.599  1.00  0.00    -0.206 F 
ATOM     96  C   UNL A   1      48.413  27.060  23.516  1.00  0.00     0.040 A 
ATOM     97  C   UNL A   1      49.308  26.052  25.510  1.00  0.00     0.040 A 
ATOM     98  F   UNL A   1      48.129  26.200  27.533  1.00  0.00    -0.206 F 
ATOM     99  C   UNL A   1      49.416  26.329  24.150  1.00  0.00     0.006 A 
ENDBRANCH  75  92
ENDBRANCH  49  50
ENDBRANCH  42  44
ENDBRANCH  41  42
ENDBRANCH  40  41
ENDBRANCH  39  40
ENDBRANCH  38  39
ENDBRANCH  37  38
ENDBRANCH   1  37
TORSDOF 22
ENDMDL
MODEL 2
REMARK VINA RESULT:     -11.1      1.001      5.661
REMARK SMILES COc1cccc([C@H]2CC(c3ccc(S(C)(=O)=O)cc3)=NN2c2ccc(C(=O)OCCOCCOCCOC(=O)c3ccc(-c4c5nc(c(-c6c(F)cccc6F)c6ccc([nH]6)c(-c6c(F)cccc6F)c6nc(c(-c7c(F)cccc7F)c7ccc4[nH]7)C=C6)C=C5)cc3)cc2)c1
REMARK SMILES IDX 33 1 32 2 31 3 30 4 29 5 27 6 28 7 26 8 23 9 24 10 96 11
REMARK SMILES IDX 25 12 95 13 22 14 8 15 9 16 10 17 21 18 7 19 3 20 4 21 97 22
REMARK SMILES IDX 5 23 6 24 2 25 1 26 11 27 12 28 20 29 13 30 19 31 14 32
REMARK SMILES IDX 15 33 16 34 17 35 18 36 34 37 35 38 36 39 37 40 38 41 39 42
REMARK SMILES IDX 40 43 41 44 42 45 94 46 43 47 93 48 44 49 45 50 46 51 87 52
REMARK SMILES IDX 47 53 92 54 86 55 88 56 48 57 91 58 85 59 84 60 49 62 75 63
REMARK SMILES IDX 58 64 74 65 59 66 62 67 73 68 89 69 60 70 61 71 72 73 90 74
REMARK SMILES IDX 63 75 50 76 51 77 56 78 52 79 53 80 55 81 57 82 54 83 76 84
REMARK SMILES IDX 77 85 82 86 78 87 79 88 81 89 83 90 80 91 64 92 65 93 70 94
REMARK SMILES IDX 66 95 67 96 69 97 71 98 68 99
REMARK H PARENT 88 61 62 72
REMARK Flexibility Score: inf
ROOT
ATOM      1  C   UNL A   1      34.264  34.255  29.556  1.00  0.00     0.188 C 
ENDROOT
BRANCH   1   2
ATOM      2  O   UNL A   1      35.587  34.069  29.085  1.00  0.00    -0.376 OA
BRANCH   2   3
ATOM      3  C   UNL A   1      35.884  32.981  28.225  1.00  0.00     0.202 C 
BRANCH   3   4
ATOM      4  C   UNL A   1      35.404  31.568  28.569  1.00  0.00     0.261 C 
BRANCH   4   5
ATOM      5  O   UNL A   1      34.946  30.816  27.436  1.00  0.00    -0.460 OA
BRANCH   5   6
ATOM      6  C   UNL A   1      33.599  30.748  27.300  1.00  0.00     0.338 C 
ATOM      7  O   UNL A   1      32.822  31.687  27.225  1.00  0.00    -0.246 OA
BRANCH   6   8
ATOM      8  C   UNL A   1      33.178  29.349  27.081  1.00  0.00     0.060 A 
ATOM      9  C   UNL A   1      32.379  26.731  26.443  1.00  0.00     0.060 A 
ATOM     10  C   UNL A   1      33.613  27.224  26.003  1.00  0.00     0.029 A 
ATOM     11  C   UNL A   1      31.595  27.544  27.280  1.00  0.00     0.029 A 
ATOM     12  C   UNL A   1      33.998  28.535  26.291  1.00  0.00     0.018 A 
ATOM     13  C   UNL A   1      31.995  28.841  27.617  1.00  0.00     0.018 A 
BRANCH   9  14
ATOM     14  N   UNL A   1      31.894  25.514  25.973  1.00  0.00    -0.257 N 
ATOM     15  C   UNL A   1      30.606  25.404  25.283  1.00  0.00     0.144 C 
ATOM     16  C   UNL A   1      30.607  23.957  24.791  1.00  0.00     0.091 C 
ATOM     17  C   UNL A   1      31.943  23.500  25.309  1.00  0.00     0.071 C 
ATOM     18  N   UNL A   1      32.657  24.388  25.929  1.00  0.00    -0.176 NA
BRANCH  15  19
ATOM     19  C   UNL A   1      30.459  26.422  24.158  1.00  0.00    -0.019 A 
ATOM     20  C   UNL A   1      29.238  28.212  23.034  1.00  0.00     0.119 A 
ATOM     21  C   UNL A   1      30.171  28.186  21.996  1.00  0.00     0.046 A 
ATOM     22  C   UNL A   1      29.374  27.322  24.102  1.00  0.00     0.052 A 
ATOM     23  C   UNL A   1      31.247  27.302  22.032  1.00  0.00     0.004 A 
ATOM     24  C   UNL A   1      31.392  26.427  23.108  1.00  0.00     0.006 A 
BRANCH  20  25
ATOM     25  O   UNL A   1      28.222  29.113  22.869  1.00  0.00    -0.497 OA
ATOM     26  C   UNL A   1      28.584  30.487  22.939  1.00  0.00     0.278 C 
ENDBRANCH  20  25
ENDBRANCH  15  19
BRANCH  17  27
ATOM     27  C   UNL A   1      32.329  22.091  25.162  1.00  0.00    -0.002 A 
ATOM     28  C   UNL A   1      32.341  21.531  23.880  1.00  0.00     0.011 A 
ATOM     29  C   UNL A   1      32.776  21.361  26.267  1.00  0.00     0.011 A 
ATOM     30  C   UNL A   1      32.832  20.237  23.695  1.00  0.00     0.021 A 
ATOM     31  C   UNL A   1      33.243  20.056  26.088  1.00  0.00     0.021 A 
ATOM     32  C   UNL A   1      33.275  19.504  24.802  1.00  0.00     0.067 A 
BRANCH  32  33
ATOM     33  S   UNL A   1      33.950  17.877  24.551  1.00  0.00     0.175 S 
ATOM     34  C   UNL A   1      33.189  17.308  23.055  1.00  0.00     0.163 C 
ATOM     35  O   UNL A   1      35.369  18.049  24.310  1.00  0.00    -0.224 OA
ATOM     36  O   UNL A   1      33.473  17.035  25.634  1.00  0.00    -0.224 OA
ENDBRANCH  32  33
ENDBRANCH  17  27
ENDBRANCH   9  14
ENDBRANCH   6   8
ENDBRANCH   5   6
ENDBRANCH   4   5
ENDBRANCH   3   4
ENDBRANCH   2   3
ENDBRANCH   1   2
BRANCH   1  37
ATOM     37  C   UNL A   1      33.987  34.967  30.897  1.00  0.00     0.188 C 
BRANCH  37  38
ATOM     38  O   UNL A   1      33.414  34.258  31.971  1.00  0.00    -0.376 OA
BRANCH  38  39
ATOM     39  C   UNL A   1      34.189  33.449  32.837  1.00  0.00     0.202 C 
BRANCH  39  40
ATOM     40  C   UNL A   1      35.114  32.301  32.405  1.00  0.00     0.261 C 
BRANCH  40  41
ATOM     41  O   UNL A   1      36.309  32.102  33.156  1.00  0.00    -0.460 OA
BRANCH  41  42
ATOM     42  C   UNL A   1      37.327  32.940  32.842  1.00  0.00     0.338 C 
ATOM     43  O   UNL A   1      37.500  34.083  33.225  1.00  0.00    -0.246 OA
BRANCH  42  44
ATOM     44  C   UNL A   1      38.317  32.200  32.044  1.00  0.00     0.060 A 
ATOM     45  C   UNL A   1      39.304  31.467  32.713  1.00  0.00     0.016 A 
ATOM     46  C   UNL A   1      38.297  32.272  30.650  1.00  0.00     0.016 A 
ATOM     47  C   UNL A   1      40.298  30.820  31.985  1.00  0.00     0.010 A 
ATOM     48  C   UNL A   1      39.306  31.637  29.923  1.00  0.00     0.010 A 
ATOM     49  C   UNL A   1      40.325  30.932  30.587  1.00  0.00    -0.014 A 
BRANCH  49  50
ATOM     50  C   UNL A   1      41.505  30.454  29.831  1.00  0.00     0.031 A 
ATOM     51  C   UNL A   1      41.504  29.046  29.306  1.00  0.00     0.074 A 
ATOM     52  C   UNL A   1      42.559  31.258  29.612  1.00  0.00     0.049 A 
ATOM     53  N   UNL A   1      42.442  28.396  28.670  1.00  0.00    -0.248 NA
ATOM     54  C   UNL A   1      40.276  28.266  29.534  1.00  0.00     0.031 C 
ATOM     55  C   UNL A   1      42.665  32.651  30.039  1.00  0.00     0.029 A 
ATOM     56  N   UNL A   1      43.752  31.005  28.983  1.00  0.00    -0.354 N 
ATOM     57  C   UNL A   1      41.923  27.131  28.423  1.00  0.00     0.074 A 
ATOM     58  C   UNL A   1      40.598  27.096  29.003  1.00  0.00     0.031 C 
ATOM     59  C   UNL A   1      43.868  33.128  29.673  1.00  0.00     0.029 A 
ATOM     60  C   UNL A   1      44.624  32.064  29.015  1.00  0.00     0.049 A 
ATOM     61  H   UNL A   1      43.961  30.146  28.549  1.00  0.00     0.167 HD
ATOM     62  C   UNL A   1      42.498  26.096  27.768  1.00  0.00     0.037 A 
ATOM     63  C   UNL A   1      45.897  32.152  28.582  1.00  0.00     0.037 A 
ATOM     64  C   UNL A   1      43.819  26.128  27.201  1.00  0.00     0.049 A 
ATOM     65  C   UNL A   1      46.541  30.960  27.925  1.00  0.00     0.074 A 
ATOM     66  C   UNL A   1      44.482  25.134  26.503  1.00  0.00     0.029 A 
ATOM     67  N   UNL A   1      44.684  27.209  27.278  1.00  0.00    -0.354 N 
ATOM     68  N   UNL A   1      46.033  29.780  27.667  1.00  0.00    -0.248 NA
ATOM     69  C   UNL A   1      47.941  31.115  27.498  1.00  0.00     0.031 C 
ATOM     70  C   UNL A   1      45.767  25.598  26.198  1.00  0.00     0.029 A 
ATOM     71  C   UNL A   1      45.884  26.898  26.661  1.00  0.00     0.049 A 
ATOM     72  H   UNL A   1      44.475  28.070  27.707  1.00  0.00     0.167 HD
ATOM     73  C   UNL A   1      47.036  29.062  27.024  1.00  0.00     0.074 A 
ATOM     74  C   UNL A   1      48.180  29.945  26.922  1.00  0.00     0.031 C 
ATOM     75  C   UNL A   1      47.011  27.789  26.559  1.00  0.00     0.037 A 
BRANCH  62  76
ATOM     76  C   UNL A   1      41.703  24.830  27.655  1.00  0.00     0.057 A 
ATOM     77  C   UNL A   1      41.947  23.726  28.483  1.00  0.00     0.134 A 
ATOM     78  C   UNL A   1      40.663  24.721  26.723  1.00  0.00     0.134 A 
ATOM     79  F   UNL A   1      42.939  23.761  29.386  1.00  0.00    -0.206 F 
ATOM     80  C   UNL A   1      41.200  22.553  28.374  1.00  0.00     0.040 A 
ATOM     81  C   UNL A   1      39.892  23.563  26.621  1.00  0.00     0.040 A 
ATOM     82  F   UNL A   1      40.375  25.743  25.902  1.00  0.00    -0.206 F 
ATOM     83  C   UNL A   1      40.164  22.471  27.445  1.00  0.00     0.006 A 
ENDBRANCH  62  76
BRANCH  63  84
ATOM     84  C   UNL A   1      46.661  33.412  28.767  1.00  0.00     0.057 A 
ATOM     85  C   UNL A   1      47.373  33.661  29.945  1.00  0.00     0.134 A 
ATOM     86  C   UNL A   1      46.671  34.408  27.783  1.00  0.00     0.134 A 
ATOM     87  F   UNL A   1      47.378  32.757  30.936  1.00  0.00    -0.206 F 
ATOM     88  C   UNL A   1      48.055  34.862  30.147  1.00  0.00     0.040 A 
ATOM     89  C   UNL A   1      47.369  35.603  27.960  1.00  0.00     0.040 A 
ATOM     90  F   UNL A   1      46.004  34.231  26.633  1.00  0.00    -0.206 F 
ATOM     91  C   UNL A   1      48.058  35.836  29.149  1.00  0.00     0.006 A 
ENDBRANCH  63  84
BRANCH  75  92
ATOM     92  C   UNL A   1      48.241  27.284  25.862  1.00  0.00     0.057 A 
ATOM     93  C   UNL A   1      48.418  27.419  24.480  1.00  0.00     0.134 A 
ATOM     94  C   UNL A   1      49.282  26.697  26.594  1.00  0.00     0.134 A 
ATOM     95  F   UNL A   1      47.454  27.963  23.721  1.00  0.00    -0.206 F 
ATOM     96  C   UNL A   1      49.578  26.970  23.846  1.00  0.00     0.040 A 
ATOM     97  C   UNL A   1      50.457  26.267  25.974  1.00  0.00     0.040 A 
ATOM     98  F   UNL A   1      49.182  26.547  27.923  1.00  0.00    -0.206 F 
ATOM     99  C   UNL A   1      50.605  26.398  24.595  1.00  0.00     0.006 A 
ENDBRANCH  75  92
ENDBRANCH  49  50
ENDBRANCH  42  44
ENDBRANCH  41  42
ENDBRANCH  40  41
ENDBRANCH  39  40
ENDBRANCH  38  39
ENDBRANCH  37  38
ENDBRANCH   1  37
TORSDOF 22
ENDMDL
MODEL 3
REMARK VINA RESULT:     -10.5      2.825      6.668
REMARK SMILES COc1cccc([C@H]2CC(c3ccc(S(C)(=O)=O)cc3)=NN2c2ccc(C(=O)OCCOCCOCCOC(=O)c3ccc(-c4c5nc(c(-c6c(F)cccc6F)c6ccc([nH]6)c(-c6c(F)cccc6F)c6nc(c(-c7c(F)cccc7F)c7ccc4[nH]7)C=C6)C=C5)cc3)cc2)c1
REMARK SMILES IDX 33 1 32 2 31 3 30 4 29 5 27 6 28 7 26 8 23 9 24 10 96 11
REMARK SMILES IDX 25 12 95 13 22 14 8 15 9 16 10 17 21 18 7 19 3 20 4 21 97 22
REMARK SMILES IDX 5 23 6 24 2 25 1 26 11 27 12 28 20 29 13 30 19 31 14 32
REMARK SMILES IDX 15 33 16 34 17 35 18 36 34 37 35 38 36 39 37 40 38 41 39 42
REMARK SMILES IDX 40 43 41 44 42 45 94 46 43 47 93 48 44 49 45 50 46 51 87 52
REMARK SMILES IDX 47 53 92 54 86 55 88 56 48 57 91 58 85 59 84 60 49 62 75 63
REMARK SMILES IDX 58 64 74 65 59 66 62 67 73 68 89 69 60 70 61 71 72 73 90 74
REMARK SMILES IDX 63 75 50 76 51 77 56 78 52 79 53 80 55 81 57 82 54 83 76 84
REMARK SMILES IDX 77 85 82 86 78 87 79 88 81 89 83 90 80 91 64 92 65 93 70 94
REMARK SMILES IDX 66 95 67 96 69 97 71 98 68 99
REMARK H PARENT 88 61 62 72
REMARK Flexibility Score: inf
ROOT
ATOM      1  C   UNL A   1      34.433  33.688  30.322  1.00  0.00     0.188 C 
ENDROOT
BRANCH   1   2
ATOM      2  O   UNL A   1      35.732  33.400  29.835  1.00  0.00    -0.376 OA
BRANCH   2   3
ATOM      3  C   UNL A   1      35.889  32.684  28.621  1.00  0.00     0.202 C 
BRANCH   3   4
ATOM      4  C   UNL A   1      35.609  31.180  28.568  1.00  0.00     0.261 C 
BRANCH   4   5
ATOM      5  O   UNL A   1      35.052  30.734  27.324  1.00  0.00    -0.460 OA
BRANCH   5   6
ATOM      6  C   UNL A   1      33.703  30.598  27.317  1.00  0.00     0.338 C 
ATOM      7  O   UNL A   1      32.875  31.494  27.372  1.00  0.00    -0.246 OA
BRANCH   6   8
ATOM      8  C   UNL A   1      33.333  29.190  27.062  1.00  0.00     0.060 A 
ATOM      9  C   UNL A   1      32.637  26.560  26.357  1.00  0.00     0.060 A 
ATOM     10  C   UNL A   1      33.862  27.102  25.954  1.00  0.00     0.029 A 
ATOM     11  C   UNL A   1      31.807  27.330  27.191  1.00  0.00     0.029 A 
ATOM     12  C   UNL A   1      34.197  28.419  26.275  1.00  0.00     0.018 A 
ATOM     13  C   UNL A   1      32.156  28.633  27.561  1.00  0.00     0.018 A 
BRANCH   9  14
ATOM     14  N   UNL A   1      32.203  25.338  25.852  1.00  0.00    -0.257 N 
ATOM     15  C   UNL A   1      30.862  25.161  25.287  1.00  0.00     0.144 C 
ATOM     16  C   UNL A   1      30.926  23.752  24.697  1.00  0.00     0.091 C 
ATOM     17  C   UNL A   1      32.340  23.380  25.046  1.00  0.00     0.071 C 
ATOM     18  N   UNL A   1      33.043  24.286  25.653  1.00  0.00    -0.176 NA
BRANCH  15  19
ATOM     19  C   UNL A   1      30.517  26.230  24.257  1.00  0.00    -0.019 A 
ATOM     20  C   UNL A   1      28.942  27.783  23.226  1.00  0.00     0.119 A 
ATOM     21  C   UNL A   1      29.897  28.098  22.259  1.00  0.00     0.046 A 
ATOM     22  C   UNL A   1      29.247  26.840  24.211  1.00  0.00     0.052 A 
ATOM     23  C   UNL A   1      31.157  27.502  22.287  1.00  0.00     0.004 A 
ATOM     24  C   UNL A   1      31.466  26.576  23.281  1.00  0.00     0.006 A 
BRANCH  20  25
ATOM     25  O   UNL A   1      27.742  28.423  23.076  1.00  0.00    -0.497 OA
ATOM     26  C   UNL A   1      27.805  29.799  22.720  1.00  0.00     0.278 C 
ENDBRANCH  20  25
ENDBRANCH  15  19
BRANCH  17  27
ATOM     27  C   UNL A   1      32.819  22.022  24.763  1.00  0.00    -0.002 A 
ATOM     28  C   UNL A   1      34.193  21.766  24.843  1.00  0.00     0.011 A 
ATOM     29  C   UNL A   1      31.911  20.987  24.523  1.00  0.00     0.011 A 
ATOM     30  C   UNL A   1      34.662  20.458  24.712  1.00  0.00     0.021 A 
ATOM     31  C   UNL A   1      32.381  19.681  24.365  1.00  0.00     0.021 A 
ATOM     32  C   UNL A   1      33.752  19.422  24.467  1.00  0.00     0.067 A 
BRANCH  32  33
ATOM     33  S   UNL A   1      34.352  17.750  24.355  1.00  0.00     0.175 S 
ATOM     34  C   UNL A   1      33.380  16.851  25.533  1.00  0.00     0.163 C 
ATOM     35  O   UNL A   1      34.016  17.279  23.025  1.00  0.00    -0.224 OA
ATOM     36  O   UNL A   1      35.725  17.746  24.824  1.00  0.00    -0.224 OA
ENDBRANCH  32  33
ENDBRANCH  17  27
ENDBRANCH   9  14
ENDBRANCH   6   8
ENDBRANCH   5   6
ENDBRANCH   4   5
ENDBRANCH   3   4
ENDBRANCH   2   3
ENDBRANCH   1   2
BRANCH   1  37
ATOM     37  C   UNL A   1      34.226  34.580  31.565  1.00  0.00     0.188 C 
BRANCH  37  38
ATOM     38  O   UNL A   1      34.465  34.066  32.854  1.00  0.00    -0.376 OA
BRANCH  38  39
ATOM     39  C   UNL A   1      35.758  33.680  33.282  1.00  0.00     0.202 C 
BRANCH  39  40
ATOM     40  C   UNL A   1      36.256  32.234  33.442  1.00  0.00     0.261 C 
BRANCH  40  41
ATOM     41  O   UNL A   1      36.506  31.492  32.251  1.00  0.00    -0.460 OA
BRANCH  41  42
ATOM     42  C   UNL A   1      37.295  30.401  32.412  1.00  0.00     0.338 C 
ATOM     43  O   UNL A   1      36.986  29.318  32.876  1.00  0.00    -0.246 OA
BRANCH  42  44
ATOM     44  C   UNL A   1      38.603  30.670  31.796  1.00  0.00     0.060 A 
ATOM     45  C   UNL A   1      39.636  31.159  32.603  1.00  0.00     0.016 A 
ATOM     46  C   UNL A   1      38.788  30.487  30.424  1.00  0.00     0.016 A 
ATOM     47  C   UNL A   1      40.861  31.494  32.032  1.00  0.00     0.010 A 
ATOM     48  C   UNL A   1      40.011  30.840  29.851  1.00  0.00     0.010 A 
ATOM     49  C   UNL A   1      41.042  31.370  30.647  1.00  0.00    -0.014 A 
BRANCH  49  50
ATOM     50  C   UNL A   1      42.246  31.947  30.006  1.00  0.00     0.031 A 
ATOM     51  C   UNL A   1      43.436  31.059  29.776  1.00  0.00     0.074 A 
ATOM     52  C   UNL A   1      42.281  33.238  29.633  1.00  0.00     0.049 A 
ATOM     53  N   UNL A   1      44.612  31.356  29.287  1.00  0.00    -0.248 NA
ATOM     54  C   UNL A   1      43.278  29.645  30.152  1.00  0.00     0.031 C 
ATOM     55  C   UNL A   1      41.180  34.189  29.771  1.00  0.00     0.029 A 
ATOM     56  N   UNL A   1      43.295  33.971  29.071  1.00  0.00    -0.354 N 
ATOM     57  C   UNL A   1      45.334  30.170  29.298  1.00  0.00     0.074 A 
ATOM     58  C   UNL A   1      44.475  29.156  29.869  1.00  0.00     0.031 C 
ATOM     59  C   UNL A   1      41.585  35.389  29.320  1.00  0.00     0.029 A 
ATOM     60  C   UNL A   1      42.980  35.295  28.892  1.00  0.00     0.049 A 
ATOM     61  H   UNL A   1      44.165  33.585  28.820  1.00  0.00     0.167 HD
ATOM     62  C   UNL A   1      46.597  29.947  28.866  1.00  0.00     0.037 A 
ATOM     63  C   UNL A   1      43.742  36.316  28.454  1.00  0.00     0.037 A 
ATOM     64  C   UNL A   1      47.454  30.958  28.308  1.00  0.00     0.049 A 
ATOM     65  C   UNL A   1      45.170  36.056  28.053  1.00  0.00     0.074 A 
ATOM     66  C   UNL A   1      48.745  30.824  27.828  1.00  0.00     0.029 A 
ATOM     67  N   UNL A   1      47.110  32.294  28.169  1.00  0.00    -0.354 N 
ATOM     68  N   UNL A   1      45.835  34.927  28.036  1.00  0.00    -0.248 NA
ATOM     69  C   UNL A   1      45.955  37.219  27.607  1.00  0.00     0.031 C 
ATOM     70  C   UNL A   1      49.198  32.090  27.439  1.00  0.00     0.029 A 
ATOM     71  C   UNL A   1      48.172  33.001  27.631  1.00  0.00     0.049 A 
ATOM     72  H   UNL A   1      46.239  32.681  28.415  1.00  0.00     0.167 HD
ATOM     73  C   UNL A   1      47.102  35.235  27.554  1.00  0.00     0.074 A 
ATOM     74  C   UNL A   1      47.110  36.658  27.280  1.00  0.00     0.031 C 
ATOM     75  C   UNL A   1      48.163  34.415  27.355  1.00  0.00     0.037 A 
BRANCH  62  76
ATOM     76  C   UNL A   1      47.134  28.554  29.009  1.00  0.00     0.057 A 
ATOM     77  C   UNL A   1      47.034  27.613  27.977  1.00  0.00     0.134 A 
ATOM     78  C   UNL A   1      47.782  28.156  30.186  1.00  0.00     0.134 A 
ATOM     79  F   UNL A   1      46.412  27.927  26.829  1.00  0.00    -0.206 F 
ATOM     80  C   UNL A   1      47.539  26.320  28.116  1.00  0.00     0.040 A 
ATOM     81  C   UNL A   1      48.314  26.874  30.329  1.00  0.00     0.040 A 
ATOM     82  F   UNL A   1      47.914  29.010  31.213  1.00  0.00    -0.206 F 
ATOM     83  C   UNL A   1      48.188  25.950  29.293  1.00  0.00     0.006 A 
ENDBRANCH  62  76
BRANCH  63  84
ATOM     84  C   UNL A   1      43.179  37.688  28.384  1.00  0.00     0.057 A 
ATOM     85  C   UNL A   1      43.348  38.595  29.435  1.00  0.00     0.134 A 
ATOM     86  C   UNL A   1      42.434  38.113  27.277  1.00  0.00     0.134 A 
ATOM     87  F   UNL A   1      44.029  38.237  30.534  1.00  0.00    -0.206 F 
ATOM     88  C   UNL A   1      42.783  39.872  29.398  1.00  0.00     0.040 A 
ATOM     89  C   UNL A   1      41.883  39.394  27.215  1.00  0.00     0.040 A 
ATOM     90  F   UNL A   1      42.232  37.289  26.239  1.00  0.00    -0.206 F 
ATOM     91  C   UNL A   1      42.051  40.275  28.282  1.00  0.00     0.006 A 
ENDBRANCH  63  84
BRANCH  75  92
ATOM     92  C   UNL A   1      49.408  35.023  26.778  1.00  0.00     0.057 A 
ATOM     93  C   UNL A   1      49.537  35.290  25.409  1.00  0.00     0.134 A 
ATOM     94  C   UNL A   1      50.473  35.389  27.612  1.00  0.00     0.134 A 
ATOM     95  F   UNL A   1      48.557  34.953  24.556  1.00  0.00    -0.206 F 
ATOM     96  C   UNL A   1      50.690  35.880  24.888  1.00  0.00     0.040 A 
ATOM     97  C   UNL A   1      51.619  36.003  27.105  1.00  0.00     0.040 A 
ATOM     98  F   UNL A   1      50.410  35.171  28.934  1.00  0.00    -0.206 F 
ATOM     99  C   UNL A   1      51.732  36.245  25.738  1.00  0.00     0.006 A 
ENDBRANCH  75  92
ENDBRANCH  49  50
ENDBRANCH  42  44
ENDBRANCH  41  42
ENDBRANCH  40  41
ENDBRANCH  39  40
ENDBRANCH  38  39
ENDBRANCH  37  38
ENDBRANCH   1  37
TORSDOF 22
ENDMDL
