MODEL 1
REMARK VINA RESULT:     -11.2      0.000      0.000
REMARK SMILES Cc1cc(C)c2c(c1)C=C(C(=O)OCCOCCOCCOC(=O)c1ccc(-c3c4nc(c(-c5c(F)cccc5F)c5ccc([nH]5)c(-c5c(F)cccc5F)c5nc(c(-c6c(F)cccc6F)c6ccc3[nH]6)C=C5)C=C4)cc1)[C@@H](C(F)(F)F)O2
REMARK SMILES IDX 18 1 17 2 16 3 15 4 14 5 13 6 11 7 12 8 10 9 1 10 2 11 3 12
REMARK SMILES IDX 8 13 4 14 7 15 5 16 6 17 9 18 84 19 79 20 80 21 81 22 82 23
REMARK SMILES IDX 83 24 19 25 20 26 21 27 22 28 23 29 24 30 25 31 26 32 78 33
REMARK SMILES IDX 27 34 77 35 28 36 29 37 30 38 71 39 31 40 76 41 70 42 72 43
REMARK SMILES IDX 32 44 75 45 69 46 68 47 33 49 59 50 42 51 58 52 43 53 46 54
REMARK SMILES IDX 57 55 73 56 44 57 45 58 56 60 74 61 47 62 34 63 35 64 40 65
REMARK SMILES IDX 36 66 37 67 39 68 41 69 38 70 60 71 61 72 66 73 62 74 63 75
REMARK SMILES IDX 65 76 67 77 64 78 48 79 49 80 54 81 50 82 51 83 53 84 55 85
REMARK SMILES IDX 52 86
REMARK H PARENT 72 48 46 59
REMARK Flexibility Score: inf
ROOT
ATOM      1  C   UNL A   1      40.068  20.490  26.177  1.00  0.00     0.188 C 
ENDROOT
BRANCH   1   2
ATOM      2  C   UNL A   1      39.359  21.859  26.108  1.00  0.00     0.188 C 
BRANCH   2   3
ATOM      3  O   UNL A   1      38.233  22.045  25.264  1.00  0.00    -0.376 OA
BRANCH   3   4
ATOM      4  C   UNL A   1      36.937  22.226  25.820  1.00  0.00     0.202 C 
BRANCH   4   5
ATOM      5  C   UNL A   1      36.170  23.543  25.624  1.00  0.00     0.261 C 
BRANCH   5   6
ATOM      6  O   UNL A   1      34.862  23.403  25.051  1.00  0.00    -0.460 OA
BRANCH   6   7
ATOM      7  C   UNL A   1      34.739  23.825  23.770  1.00  0.00     0.338 C 
ATOM      8  O   UNL A   1      35.292  23.357  22.789  1.00  0.00    -0.246 OA
BRANCH   7   9
ATOM      9  C   UNL A   1      33.697  24.868  23.691  1.00  0.00     0.087 C 
ATOM     10  C   UNL A   1      32.274  30.361  26.079  1.00  0.00     0.044 C 
ATOM     11  C   UNL A   1      32.073  29.135  25.237  1.00  0.00    -0.050 A 
ATOM     12  C   UNL A   1      30.848  28.883  24.610  1.00  0.00     0.010 A 
ATOM     13  C   UNL A   1      33.104  28.196  25.114  1.00  0.00     0.015 A 
ATOM     14  C   UNL A   1      30.651  27.719  23.849  1.00  0.00    -0.008 A 
ATOM     15  C   UNL A   1      32.914  27.022  24.377  1.00  0.00     0.018 A 
ATOM     16  C   UNL A   1      29.315  27.460  23.209  1.00  0.00     0.048 C 
ATOM     17  C   UNL A   1      31.702  26.797  23.720  1.00  0.00     0.130 A 
ATOM     18  C   UNL A   1      33.945  25.999  24.363  1.00  0.00     0.027 C 
ATOM     19  O   UNL A   1      31.466  25.696  22.944  1.00  0.00    -0.475 OA
ATOM     20  C   UNL A   1      32.448  24.628  22.889  1.00  0.00     0.316 C 
BRANCH  20  21
ATOM     21  C   UNL A   1      31.747  23.318  23.274  1.00  0.00     0.430 C 
ATOM     22  F   UNL A   1      32.201  22.281  22.529  1.00  0.00    -0.167 F 
ATOM     23  F   UNL A   1      31.967  22.989  24.568  1.00  0.00    -0.167 F 
ATOM     24  F   UNL A   1      30.408  23.389  23.097  1.00  0.00    -0.167 F 
ENDBRANCH  20  21
ENDBRANCH   7   9
ENDBRANCH   6   7
ENDBRANCH   5   6
ENDBRANCH   4   5
ENDBRANCH   3   4
ENDBRANCH   2   3
ENDBRANCH   1   2
BRANCH   1  25
ATOM     25  O   UNL A   1      41.300  20.481  26.853  1.00  0.00    -0.376 OA
BRANCH  25  26
ATOM     26  C   UNL A   1      42.506  20.269  26.138  1.00  0.00     0.202 C 
BRANCH  26  27
ATOM     27  C   UNL A   1      43.384  21.365  25.496  1.00  0.00     0.261 C 
BRANCH  27  28
ATOM     28  O   UNL A   1      42.766  22.579  25.066  1.00  0.00    -0.460 OA
BRANCH  28  29
ATOM     29  C   UNL A   1      43.555  23.680  25.048  1.00  0.00     0.338 C 
ATOM     30  O   UNL A   1      44.495  23.906  24.312  1.00  0.00    -0.246 OA
BRANCH  29  31
ATOM     31  C   UNL A   1      42.974  24.676  25.971  1.00  0.00     0.060 A 
ATOM     32  C   UNL A   1      43.520  25.967  26.005  1.00  0.00     0.016 A 
ATOM     33  C   UNL A   1      41.914  24.331  26.809  1.00  0.00     0.016 A 
ATOM     34  C   UNL A   1      43.017  26.913  26.899  1.00  0.00     0.010 A 
ATOM     35  C   UNL A   1      41.428  25.271  27.721  1.00  0.00     0.010 A 
ATOM     36  C   UNL A   1      41.995  26.556  27.788  1.00  0.00    -0.014 A 
BRANCH  36  37
ATOM     37  C   UNL A   1      41.630  27.459  28.906  1.00  0.00     0.031 A 
ATOM     38  C   UNL A   1      42.411  27.367  30.187  1.00  0.00     0.074 A 
ATOM     39  C   UNL A   1      40.624  28.343  28.788  1.00  0.00     0.049 A 
ATOM     40  N   UNL A   1      42.212  27.976  31.326  1.00  0.00    -0.248 NA
ATOM     41  C   UNL A   1      43.577  26.467  30.178  1.00  0.00     0.031 C 
ATOM     42  C   UNL A   1      39.831  28.567  27.581  1.00  0.00     0.029 A 
ATOM     43  N   UNL A   1      40.091  29.210  29.710  1.00  0.00    -0.354 N 
ATOM     44  C   UNL A   1      43.221  27.533  32.171  1.00  0.00     0.074 A 
ATOM     45  C   UNL A   1      44.018  26.585  31.423  1.00  0.00     0.031 C 
ATOM     46  C   UNL A   1      38.900  29.501  27.842  1.00  0.00     0.029 A 
ATOM     47  C   UNL A   1      39.006  29.909  29.242  1.00  0.00     0.049 A 
ATOM     48  H   UNL A   1      40.452  29.319  30.619  1.00  0.00     0.167 HD
ATOM     49  C   UNL A   1      43.466  27.890  33.453  1.00  0.00     0.037 A 
ATOM     50  C   UNL A   1      38.178  30.759  29.882  1.00  0.00     0.037 A 
ATOM     51  C   UNL A   1      42.665  28.824  34.199  1.00  0.00     0.049 A 
ATOM     52  C   UNL A   1      38.414  31.069  31.337  1.00  0.00     0.074 A 
ATOM     53  C   UNL A   1      42.823  29.238  35.510  1.00  0.00     0.029 A 
ATOM     54  N   UNL A   1      41.553  29.487  33.700  1.00  0.00    -0.354 N 
ATOM     55  N   UNL A   1      39.363  30.638  32.133  1.00  0.00    -0.248 NA
ATOM     56  C   UNL A   1      37.463  31.986  31.984  1.00  0.00     0.031 C 
ATOM     57  C   UNL A   1      41.781  30.116  35.819  1.00  0.00     0.029 A 
ATOM     58  C   UNL A   1      41.008  30.297  34.683  1.00  0.00     0.049 A 
ATOM     59  H   UNL A   1      41.203  29.396  32.785  1.00  0.00     0.167 HD
ATOM     60  C   UNL A   1      39.148  31.259  33.359  1.00  0.00     0.074 A 
ATOM     61  C   UNL A   1      37.981  32.100  33.200  1.00  0.00     0.031 C 
ATOM     62  C   UNL A   1      39.858  31.145  34.508  1.00  0.00     0.037 A 
BRANCH  49  63
ATOM     63  C   UNL A   1      44.638  27.259  34.143  1.00  0.00     0.057 A 
ATOM     64  C   UNL A   1      45.891  27.882  34.185  1.00  0.00     0.134 A 
ATOM     65  C   UNL A   1      44.493  26.048  34.834  1.00  0.00     0.134 A 
ATOM     66  F   UNL A   1      46.100  29.034  33.530  1.00  0.00    -0.206 F 
ATOM     67  C   UNL A   1      46.960  27.323  34.887  1.00  0.00     0.040 A 
ATOM     68  C   UNL A   1      45.548  25.492  35.560  1.00  0.00     0.040 A 
ATOM     69  F   UNL A   1      43.318  25.401  34.835  1.00  0.00    -0.206 F 
ATOM     70  C   UNL A   1      46.786  26.130  35.588  1.00  0.00     0.006 A 
ENDBRANCH  49  63
BRANCH  50  71
ATOM     71  C   UNL A   1      37.043  31.380  29.151  1.00  0.00     0.057 A 
ATOM     72  C   UNL A   1      35.863  30.668  28.910  1.00  0.00     0.134 A 
ATOM     73  C   UNL A   1      37.113  32.694  28.671  1.00  0.00     0.134 A 
ATOM     74  F   UNL A   1      35.746  29.397  29.322  1.00  0.00    -0.206 F 
ATOM     75  C   UNL A   1      34.797  31.234  28.208  1.00  0.00     0.040 A 
ATOM     76  C   UNL A   1      36.043  33.282  27.992  1.00  0.00     0.040 A 
ATOM     77  F   UNL A   1      38.217  33.429  28.866  1.00  0.00    -0.206 F 
ATOM     78  C   UNL A   1      34.884  32.549  27.754  1.00  0.00     0.006 A 
ENDBRANCH  50  71
BRANCH  62  79
ATOM     79  C   UNL A   1      39.436  31.991  35.677  1.00  0.00     0.057 A 
ATOM     80  C   UNL A   1      39.917  33.290  35.869  1.00  0.00     0.134 A 
ATOM     81  C   UNL A   1      38.480  31.514  36.586  1.00  0.00     0.134 A 
ATOM     82  F   UNL A   1      40.839  33.804  35.040  1.00  0.00    -0.206 F 
ATOM     83  C   UNL A   1      39.480  34.079  36.935  1.00  0.00     0.040 A 
ATOM     84  C   UNL A   1      38.014  32.304  37.637  1.00  0.00     0.040 A 
ATOM     85  F   UNL A   1      37.966  30.282  36.452  1.00  0.00    -0.206 F 
ATOM     86  C   UNL A   1      38.519  33.589  37.818  1.00  0.00     0.006 A 
ENDBRANCH  62  79
ENDBRANCH  36  37
ENDBRANCH  29  31
ENDBRANCH  28  29
ENDBRANCH  27  28
ENDBRANCH  26  27
ENDBRANCH  25  26
ENDBRANCH   1  25
TORSDOF 18
ENDMDL
MODEL 2
REMARK VINA RESULT:     -11.1      1.003      2.118
REMARK SMILES Cc1cc(C)c2c(c1)C=C(C(=O)OCCOCCOCCOC(=O)c1ccc(-c3c4nc(c(-c5c(F)cccc5F)c5ccc([nH]5)c(-c5c(F)cccc5F)c5nc(c(-c6c(F)cccc6F)c6ccc3[nH]6)C=C5)C=C4)cc1)[C@@H](C(F)(F)F)O2
REMARK SMILES IDX 18 1 17 2 16 3 15 4 14 5 13 6 11 7 12 8 10 9 1 10 2 11 3 12
REMARK SMILES IDX 8 13 4 14 7 15 5 16 6 17 9 18 84 19 79 20 80 21 81 22 82 23
REMARK SMILES IDX 83 24 19 25 20 26 21 27 22 28 23 29 24 30 25 31 26 32 78 33
REMARK SMILES IDX 27 34 77 35 28 36 29 37 30 38 71 39 31 40 76 41 70 42 72 43
REMARK SMILES IDX 32 44 75 45 69 46 68 47 33 49 59 50 42 51 58 52 43 53 46 54
REMARK SMILES IDX 57 55 73 56 44 57 45 58 56 60 74 61 47 62 34 63 35 64 40 65
REMARK SMILES IDX 36 66 37 67 39 68 41 69 38 70 60 71 61 72 66 73 62 74 63 75
REMARK SMILES IDX 65 76 67 77 64 78 48 79 49 80 54 81 50 82 51 83 53 84 55 85
REMARK SMILES IDX 52 86
REMARK H PARENT 72 48 46 59
REMARK Flexibility Score: inf
ROOT
ATOM      1  C   UNL A   1      40.600  20.162  26.135  1.00  0.00     0.188 C 
ENDROOT
BRANCH   1   2
ATOM      2  C   UNL A   1      39.869  21.441  26.597  1.00  0.00     0.188 C 
BRANCH   2   3
ATOM      3  O   UNL A   1      39.154  22.238  25.665  1.00  0.00    -0.376 OA
BRANCH   3   4
ATOM      4  C   UNL A   1      37.865  21.841  25.217  1.00  0.00     0.202 C 
BRANCH   4   5
ATOM      5  C   UNL A   1      36.623  22.051  26.099  1.00  0.00     0.261 C 
BRANCH   5   6
ATOM      6  O   UNL A   1      35.476  21.276  25.723  1.00  0.00    -0.460 OA
BRANCH   6   7
ATOM      7  C   UNL A   1      34.277  21.868  25.940  1.00  0.00     0.338 C 
ATOM      8  O   UNL A   1      33.524  21.673  26.880  1.00  0.00    -0.246 OA
BRANCH   7   9
ATOM      9  C   UNL A   1      34.059  22.927  24.935  1.00  0.00     0.087 C 
ATOM     10  C   UNL A   1      33.380  29.032  24.530  1.00  0.00     0.044 C 
ATOM     11  C   UNL A   1      33.436  27.620  24.026  1.00  0.00    -0.050 A 
ATOM     12  C   UNL A   1      33.051  27.304  22.719  1.00  0.00     0.010 A 
ATOM     13  C   UNL A   1      33.829  26.588  24.887  1.00  0.00     0.015 A 
ATOM     14  C   UNL A   1      33.073  25.977  22.260  1.00  0.00    -0.008 A 
ATOM     15  C   UNL A   1      33.834  25.259  24.448  1.00  0.00     0.018 A 
ATOM     16  C   UNL A   1      32.627  25.662  20.859  1.00  0.00     0.048 C 
ATOM     17  C   UNL A   1      33.488  24.956  23.129  1.00  0.00     0.130 A 
ATOM     18  C   UNL A   1      34.120  24.187  25.385  1.00  0.00     0.027 C 
ATOM     19  O   UNL A   1      33.519  23.687  22.621  1.00  0.00    -0.475 OA
ATOM     20  C   UNL A   1      33.788  22.563  23.502  1.00  0.00     0.316 C 
BRANCH  20  21
ATOM     21  C   UNL A   1      32.634  21.561  23.359  1.00  0.00     0.430 C 
ATOM     22  F   UNL A   1      31.603  21.878  24.178  1.00  0.00    -0.167 F 
ATOM     23  F   UNL A   1      32.136  21.543  22.100  1.00  0.00    -0.167 F 
ATOM     24  F   UNL A   1      33.018  20.299  23.660  1.00  0.00    -0.167 F 
ENDBRANCH  20  21
ENDBRANCH   7   9
ENDBRANCH   6   7
ENDBRANCH   5   6
ENDBRANCH   4   5
ENDBRANCH   3   4
ENDBRANCH   2   3
ENDBRANCH   1   2
BRANCH   1  25
ATOM     25  O   UNL A   1      41.908  20.003  26.625  1.00  0.00    -0.376 OA
BRANCH  25  26
ATOM     26  C   UNL A   1      43.019  20.142  25.755  1.00  0.00     0.202 C 
BRANCH  26  27
ATOM     27  C   UNL A   1      43.705  21.469  25.366  1.00  0.00     0.261 C 
BRANCH  27  28
ATOM     28  O   UNL A   1      42.923  22.665  25.331  1.00  0.00    -0.460 OA
BRANCH  28  29
ATOM     29  C   UNL A   1      43.610  23.827  25.221  1.00  0.00     0.338 C 
ATOM     30  O   UNL A   1      44.493  24.094  24.430  1.00  0.00    -0.246 OA
BRANCH  29  31
ATOM     31  C   UNL A   1      42.985  24.817  26.121  1.00  0.00     0.060 A 
ATOM     32  C   UNL A   1      43.476  26.129  26.129  1.00  0.00     0.016 A 
ATOM     33  C   UNL A   1      41.938  24.444  26.964  1.00  0.00     0.016 A 
ATOM     34  C   UNL A   1      42.931  27.072  27.002  1.00  0.00     0.010 A 
ATOM     35  C   UNL A   1      41.410  25.382  27.855  1.00  0.00     0.010 A 
ATOM     36  C   UNL A   1      41.922  26.691  27.897  1.00  0.00    -0.014 A 
BRANCH  36  37
ATOM     37  C   UNL A   1      41.516  27.601  28.994  1.00  0.00     0.031 A 
ATOM     38  C   UNL A   1      42.276  27.546  30.290  1.00  0.00     0.074 A 
ATOM     39  C   UNL A   1      40.491  28.458  28.845  1.00  0.00     0.049 A 
ATOM     40  N   UNL A   1      42.042  28.166  31.416  1.00  0.00    -0.248 NA
ATOM     41  C   UNL A   1      43.462  26.674  30.315  1.00  0.00     0.031 C 
ATOM     42  C   UNL A   1      39.715  28.646  27.622  1.00  0.00     0.029 A 
ATOM     43  N   UNL A   1      39.921  29.325  29.745  1.00  0.00    -0.354 N 
ATOM     44  C   UNL A   1      43.046  27.760  32.285  1.00  0.00     0.074 A 
ATOM     45  C   UNL A   1      43.878  26.821  31.565  1.00  0.00     0.031 C 
ATOM     46  C   UNL A   1      38.757  29.561  27.853  1.00  0.00     0.029 A 
ATOM     47  C   UNL A   1      38.828  29.992  29.248  1.00  0.00     0.049 A 
ATOM     48  H   UNL A   1      40.263  29.456  30.659  1.00  0.00     0.167 HD
ATOM     49  C   UNL A   1      43.259  28.141  33.565  1.00  0.00     0.037 A 
ATOM     50  C   UNL A   1      37.969  30.831  29.861  1.00  0.00     0.037 A 
ATOM     51  C   UNL A   1      42.423  29.067  34.284  1.00  0.00     0.049 A 
ATOM     52  C   UNL A   1      38.172  31.167  31.315  1.00  0.00     0.074 A 
ATOM     53  C   UNL A   1      42.548  29.503  35.591  1.00  0.00     0.029 A 
ATOM     54  N   UNL A   1      41.305  29.695  33.755  1.00  0.00    -0.354 N 
ATOM     55  N   UNL A   1      39.117  30.771  32.134  1.00  0.00    -0.248 NA
ATOM     56  C   UNL A   1      37.188  32.070  31.932  1.00  0.00     0.031 C 
ATOM     57  C   UNL A   1      41.480  30.360  35.869  1.00  0.00     0.029 A 
ATOM     58  C   UNL A   1      40.724  30.506  34.717  1.00  0.00     0.049 A 
ATOM     59  H   UNL A   1      40.974  29.582  32.836  1.00  0.00     0.167 HD
ATOM     60  C   UNL A   1      38.865  31.404  33.346  1.00  0.00     0.074 A 
ATOM     61  C   UNL A   1      37.681  32.214  33.155  1.00  0.00     0.031 C 
ATOM     62  C   UNL A   1      39.557  31.324  34.509  1.00  0.00     0.037 A 
BRANCH  49  63
ATOM     63  C   UNL A   1      44.434  27.548  34.286  1.00  0.00     0.057 A 
ATOM     64  C   UNL A   1      44.343  26.323  34.958  1.00  0.00     0.134 A 
ATOM     65  C   UNL A   1      45.687  28.174  34.246  1.00  0.00     0.134 A 
ATOM     66  F   UNL A   1      43.169  25.681  35.048  1.00  0.00    -0.206 F 
ATOM     67  C   UNL A   1      45.456  25.744  35.569  1.00  0.00     0.040 A 
ATOM     68  C   UNL A   1      46.812  27.592  34.831  1.00  0.00     0.040 A 
ATOM     69  F   UNL A   1      45.841  29.349  33.617  1.00  0.00    -0.206 F 
ATOM     70  C   UNL A   1      46.699  26.373  35.496  1.00  0.00     0.006 A 
ENDBRANCH  49  63
BRANCH  50  71
ATOM     71  C   UNL A   1      36.833  31.414  29.101  1.00  0.00     0.057 A 
ATOM     72  C   UNL A   1      36.847  32.753  28.695  1.00  0.00     0.134 A 
ATOM     73  C   UNL A   1      35.706  30.652  28.769  1.00  0.00     0.134 A 
ATOM     74  F   UNL A   1      37.887  33.541  29.006  1.00  0.00    -0.206 F 
ATOM     75  C   UNL A   1      35.777  33.318  27.997  1.00  0.00     0.040 A 
ATOM     76  C   UNL A   1      34.642  31.195  28.047  1.00  0.00     0.040 A 
ATOM     77  F   UNL A   1      35.629  29.363  29.132  1.00  0.00    -0.206 F 
ATOM     78  C   UNL A   1      34.674  32.534  27.664  1.00  0.00     0.006 A 
ENDBRANCH  50  71
BRANCH  62  79
ATOM     79  C   UNL A   1      39.094  32.175  35.658  1.00  0.00     0.057 A 
ATOM     80  C   UNL A   1      38.303  31.664  36.692  1.00  0.00     0.134 A 
ATOM     81  C   UNL A   1      39.504  33.512  35.758  1.00  0.00     0.134 A 
ATOM     82  F   UNL A   1      37.868  30.396  36.655  1.00  0.00    -0.206 F 
ATOM     83  C   UNL A   1      37.919  32.458  37.776  1.00  0.00     0.040 A 
ATOM     84  C   UNL A   1      39.153  34.306  36.850  1.00  0.00     0.040 A 
ATOM     85  F   UNL A   1      40.277  34.061  34.808  1.00  0.00    -0.206 F 
ATOM     86  C   UNL A   1      38.351  33.780  37.861  1.00  0.00     0.006 A 
ENDBRANCH  62  79
ENDBRANCH  36  37
ENDBRANCH  29  31
ENDBRANCH  28  29
ENDBRANCH  27  28
ENDBRANCH  26  27
ENDBRANCH  25  26
ENDBRANCH   1  25
TORSDOF 18
ENDMDL
MODEL 3
REMARK VINA RESULT:     -11.0      4.600      9.629
REMARK SMILES Cc1cc(C)c2c(c1)C=C(C(=O)OCCOCCOCCOC(=O)c1ccc(-c3c4nc(c(-c5c(F)cccc5F)c5ccc([nH]5)c(-c5c(F)cccc5F)c5nc(c(-c6c(F)cccc6F)c6ccc3[nH]6)C=C5)C=C4)cc1)[C@@H](C(F)(F)F)O2
REMARK SMILES IDX 18 1 17 2 16 3 15 4 14 5 13 6 11 7 12 8 10 9 1 10 2 11 3 12
REMARK SMILES IDX 8 13 4 14 7 15 5 16 6 17 9 18 84 19 79 20 80 21 81 22 82 23
REMARK SMILES IDX 83 24 19 25 20 26 21 27 22 28 23 29 24 30 25 31 26 32 78 33
REMARK SMILES IDX 27 34 77 35 28 36 29 37 30 38 71 39 31 40 76 41 70 42 72 43
REMARK SMILES IDX 32 44 75 45 69 46 68 47 33 49 59 50 42 51 58 52 43 53 46 54
REMARK SMILES IDX 57 55 73 56 44 57 45 58 56 60 74 61 47 62 34 63 35 64 40 65
REMARK SMILES IDX 36 66 37 67 39 68 41 69 38 70 60 71 61 72 66 73 62 74 63 75
REMARK SMILES IDX 65 76 67 77 64 78 48 79 49 80 54 81 50 82 51 83 53 84 55 85
REMARK SMILES IDX 52 86
REMARK H PARENT 72 48 46 59
REMARK Flexibility Score: inf
ROOT
ATOM      1  C   UNL A   1      34.034  32.765  28.100  1.00  0.00     0.188 C 
ENDROOT
BRANCH   1   2
ATOM      2  C   UNL A   1      34.659  31.392  27.773  1.00  0.00     0.188 C 
BRANCH   2   3
ATOM      3  O   UNL A   1      33.959  30.455  26.968  1.00  0.00    -0.376 OA
BRANCH   3   4
ATOM      4  C   UNL A   1      32.566  30.610  26.728  1.00  0.00     0.202 C 
BRANCH   4   5
ATOM      5  C   UNL A   1      31.789  29.581  25.892  1.00  0.00     0.261 C 
BRANCH   5   6
ATOM      6  O   UNL A   1      32.415  28.295  25.780  1.00  0.00    -0.460 OA
BRANCH   6   7
ATOM      7  C   UNL A   1      31.833  27.301  26.494  1.00  0.00     0.338 C 
ATOM      8  O   UNL A   1      31.034  27.427  27.407  1.00  0.00    -0.246 OA
BRANCH   7   9
ATOM      9  C   UNL A   1      32.191  25.995  25.906  1.00  0.00     0.087 C 
ATOM     10  C   UNL A   1      37.131  22.717  24.249  1.00  0.00     0.044 C 
ATOM     11  C   UNL A   1      35.668  23.013  24.405  1.00  0.00    -0.050 A 
ATOM     12  C   UNL A   1      34.699  22.208  23.796  1.00  0.00     0.010 A 
ATOM     13  C   UNL A   1      35.258  24.141  25.125  1.00  0.00     0.015 A 
ATOM     14  C   UNL A   1      33.332  22.507  23.916  1.00  0.00    -0.008 A 
ATOM     15  C   UNL A   1      33.900  24.462  25.234  1.00  0.00     0.018 A 
ATOM     16  C   UNL A   1      32.313  21.640  23.228  1.00  0.00     0.048 C 
ATOM     17  C   UNL A   1      32.937  23.630  24.658  1.00  0.00     0.130 A 
ATOM     18  C   UNL A   1      33.497  25.702  25.875  1.00  0.00     0.027 C 
ATOM     19  O   UNL A   1      31.593  23.857  24.768  1.00  0.00    -0.475 OA
ATOM     20  C   UNL A   1      31.116  25.082  25.387  1.00  0.00     0.316 C 
BRANCH  20  21
ATOM     21  C   UNL A   1      30.179  25.782  24.394  1.00  0.00     0.430 C 
ATOM     22  F   UNL A   1      30.824  26.763  23.718  1.00  0.00    -0.167 F 
ATOM     23  F   UNL A   1      29.698  24.924  23.464  1.00  0.00    -0.167 F 
ATOM     24  F   UNL A   1      29.116  26.347  25.011  1.00  0.00    -0.167 F 
ENDBRANCH  20  21
ENDBRANCH   7   9
ENDBRANCH   6   7
ENDBRANCH   5   6
ENDBRANCH   4   5
ENDBRANCH   3   4
ENDBRANCH   2   3
ENDBRANCH   1   2
BRANCH   1  25
ATOM     25  O   UNL A   1      33.877  33.046  29.468  1.00  0.00    -0.376 OA
BRANCH  25  26
ATOM     26  C   UNL A   1      34.335  34.278  30.002  1.00  0.00     0.202 C 
BRANCH  26  27
ATOM     27  C   UNL A   1      34.841  34.510  31.441  1.00  0.00     0.261 C 
BRANCH  27  28
ATOM     28  O   UNL A   1      36.139  34.029  31.800  1.00  0.00    -0.460 OA
BRANCH  28  29
ATOM     29  C   UNL A   1      36.184  32.816  32.401  1.00  0.00     0.338 C 
ATOM     30  O   UNL A   1      35.424  32.376  33.241  1.00  0.00    -0.246 OA
BRANCH  29  31
ATOM     31  C   UNL A   1      37.226  32.012  31.732  1.00  0.00     0.060 A 
ATOM     32  C   UNL A   1      38.176  31.346  32.520  1.00  0.00     0.016 A 
ATOM     33  C   UNL A   1      37.277  31.935  30.340  1.00  0.00     0.016 A 
ATOM     34  C   UNL A   1      39.197  30.615  31.910  1.00  0.00     0.010 A 
ATOM     35  C   UNL A   1      38.314  31.223  29.731  1.00  0.00     0.010 A 
ATOM     36  C   UNL A   1      39.293  30.584  30.513  1.00  0.00    -0.014 A 
BRANCH  36  37
ATOM     37  C   UNL A   1      40.505  30.033  29.860  1.00  0.00     0.031 A 
ATOM     38  C   UNL A   1      41.671  30.952  29.621  1.00  0.00     0.074 A 
ATOM     39  C   UNL A   1      40.570  28.744  29.486  1.00  0.00     0.049 A 
ATOM     40  N   UNL A   1      42.787  30.725  28.980  1.00  0.00    -0.248 NA
ATOM     41  C   UNL A   1      41.560  32.309  30.182  1.00  0.00     0.031 C 
ATOM     42  C   UNL A   1      39.531  27.742  29.714  1.00  0.00     0.029 A 
ATOM     43  N   UNL A   1      41.558  28.062  28.819  1.00  0.00    -0.354 N 
ATOM     44  C   UNL A   1      43.511  31.908  29.058  1.00  0.00     0.074 A 
ATOM     45  C   UNL A   1      42.699  32.859  29.785  1.00  0.00     0.031 C 
ATOM     46  C   UNL A   1      39.930  26.574  29.181  1.00  0.00     0.029 A 
ATOM     47  C   UNL A   1      41.232  26.757  28.540  1.00  0.00     0.049 A 
ATOM     48  H   UNL A   1      42.417  28.470  28.564  1.00  0.00     0.167 HD
ATOM     49  C   UNL A   1      44.745  32.175  28.573  1.00  0.00     0.037 A 
ATOM     50  C   UNL A   1      41.897  25.829  27.824  1.00  0.00     0.037 A 
ATOM     51  C   UNL A   1      45.548  31.231  27.839  1.00  0.00     0.049 A 
ATOM     52  C   UNL A   1      43.228  26.179  27.212  1.00  0.00     0.074 A 
ATOM     53  C   UNL A   1      46.805  31.413  27.292  1.00  0.00     0.029 A 
ATOM     54  N   UNL A   1      45.168  29.929  27.548  1.00  0.00    -0.354 N 
ATOM     55  N   UNL A   1      43.902  27.302  27.280  1.00  0.00    -0.248 NA
ATOM     56  C   UNL A   1      43.894  25.131  26.424  1.00  0.00     0.031 C 
ATOM     57  C   UNL A   1      47.168  30.238  26.630  1.00  0.00     0.029 A 
ATOM     58  C   UNL A   1      46.163  29.302  26.816  1.00  0.00     0.049 A 
ATOM     59  H   UNL A   1      44.318  29.514  27.820  1.00  0.00     0.167 HD
ATOM     60  C   UNL A   1      45.084  27.085  26.580  1.00  0.00     0.074 A 
ATOM     61  C   UNL A   1      45.037  25.720  26.099  1.00  0.00     0.031 C 
ATOM     62  C   UNL A   1      46.115  27.937  26.361  1.00  0.00     0.037 A 
BRANCH  49  63
ATOM     63  C   UNL A   1      45.306  33.547  28.801  1.00  0.00     0.057 A 
ATOM     64  C   UNL A   1      46.232  33.804  29.819  1.00  0.00     0.134 A 
ATOM     65  C   UNL A   1      44.969  34.608  27.949  1.00  0.00     0.134 A 
ATOM     66  F   UNL A   1      46.584  32.836  30.679  1.00  0.00    -0.206 F 
ATOM     67  C   UNL A   1      46.801  35.068  29.985  1.00  0.00     0.040 A 
ATOM     68  C   UNL A   1      45.550  35.869  28.089  1.00  0.00     0.040 A 
ATOM     69  F   UNL A   1      44.088  34.428  26.954  1.00  0.00    -0.206 F 
ATOM     70  C   UNL A   1      46.470  36.102  29.110  1.00  0.00     0.006 A 
ENDBRANCH  49  63
BRANCH  50  71
ATOM     71  C   UNL A   1      41.315  24.474  27.644  1.00  0.00     0.057 A 
ATOM     72  C   UNL A   1      41.800  23.377  28.364  1.00  0.00     0.134 A 
ATOM     73  C   UNL A   1      40.267  24.241  26.744  1.00  0.00     0.134 A 
ATOM     74  F   UNL A   1      42.820  23.532  29.222  1.00  0.00    -0.206 F 
ATOM     75  C   UNL A   1      41.275  22.096  28.190  1.00  0.00     0.040 A 
ATOM     76  C   UNL A   1      39.713  22.970  26.580  1.00  0.00     0.040 A 
ATOM     77  F   UNL A   1      39.759  25.249  26.020  1.00  0.00    -0.206 F 
ATOM     78  C   UNL A   1      40.221  21.893  27.301  1.00  0.00     0.006 A 
ENDBRANCH  50  71
BRANCH  62  79
ATOM     79  C   UNL A   1      47.310  27.412  25.617  1.00  0.00     0.057 A 
ATOM     80  C   UNL A   1      47.464  27.585  24.237  1.00  0.00     0.134 A 
ATOM     81  C   UNL A   1      48.353  26.780  26.310  1.00  0.00     0.134 A 
ATOM     82  F   UNL A   1      46.501  28.174  23.513  1.00  0.00    -0.206 F 
ATOM     83  C   UNL A   1      48.604  27.131  23.568  1.00  0.00     0.040 A 
ATOM     84  C   UNL A   1      49.508  26.349  25.658  1.00  0.00     0.040 A 
ATOM     85  F   UNL A   1      48.276  26.594  27.636  1.00  0.00    -0.206 F 
ATOM     86  C   UNL A   1      49.633  26.518  24.281  1.00  0.00     0.006 A 
ENDBRANCH  62  79
ENDBRANCH  36  37
ENDBRANCH  29  31
ENDBRANCH  28  29
ENDBRANCH  27  28
ENDBRANCH  26  27
ENDBRANCH  25  26
ENDBRANCH   1  25
TORSDOF 18
ENDMDL
