MODEL 1
REMARK VINA RESULT:     -11.0      0.000      0.000
REMARK SMILES Cc1cc2c(=O)cc(-c3ccc(F)cc3)oc2c(C(=O)OCCOCCOCCOC(=O)c2ccc(-c3c4nc(c(-c5c(F)cccc5F)c5ccc([nH]5)c(-c5c(F)cccc5F)c5nc(c(-c6c(F)cccc6F)c6ccc3[nH]6)C=C5)C=C4)cc2)c1C
REMARK SMILES IDX 26 1 25 2 24 3 23 4 22 5 21 6 19 7 20 8 18 9 1 10 2 11 3 12
REMARK SMILES IDX 87 13 4 14 88 15 5 16 17 17 6 18 7 19 16 20 8 21 9 22 10 23
REMARK SMILES IDX 15 24 11 25 14 26 12 27 13 28 27 29 28 30 29 31 30 32 31 33
REMARK SMILES IDX 32 34 33 35 34 36 86 37 35 38 85 39 36 40 37 41 38 42 79 43
REMARK SMILES IDX 39 44 84 45 78 46 80 47 40 48 83 49 77 50 76 51 41 53 67 54
REMARK SMILES IDX 50 55 66 56 51 57 54 58 65 59 81 60 52 61 53 62 64 64 82 65
REMARK SMILES IDX 55 66 42 67 43 68 48 69 44 70 45 71 47 72 49 73 46 74 68 75
REMARK SMILES IDX 69 76 74 77 70 78 71 79 73 80 75 81 72 82 56 83 57 84 62 85
REMARK SMILES IDX 58 86 59 87 61 88 63 89 60 90
REMARK H PARENT 80 52 54 63
REMARK Flexibility Score: inf
ROOT
ATOM      1  C   UNL A   1      39.674  21.681  26.344  1.00  0.00     0.188 C 
ENDROOT
BRANCH   1   2
ATOM      2  C   UNL A   1      38.659  20.979  25.415  1.00  0.00     0.188 C 
BRANCH   2   3
ATOM      3  O   UNL A   1      37.301  21.243  25.670  1.00  0.00    -0.376 OA
BRANCH   3   4
ATOM      4  C   UNL A   1      36.827  22.579  25.701  1.00  0.00     0.202 C 
BRANCH   4   5
ATOM      5  C   UNL A   1      35.371  22.992  25.988  1.00  0.00     0.261 C 
BRANCH   5   6
ATOM      6  O   UNL A   1      35.117  24.390  26.149  1.00  0.00    -0.460 OA
BRANCH   6   7
ATOM      7  C   UNL A   1      33.826  24.774  25.989  1.00  0.00     0.342 C 
ATOM      8  O   UNL A   1      32.917  24.636  26.791  1.00  0.00    -0.246 OA
BRANCH   7   9
ATOM      9  C   UNL A   1      33.666  25.539  24.728  1.00  0.00     0.106 A 
ATOM     10  C   UNL A   1      33.822  29.052  23.182  1.00  0.00     0.044 C 
ATOM     11  C   UNL A   1      33.668  27.569  23.394  1.00  0.00    -0.046 A 
ATOM     12  C   UNL A   1      33.508  26.779  22.233  1.00  0.00     0.019 A 
ATOM     13  C   UNL A   1      33.741  26.947  24.665  1.00  0.00    -0.030 A 
ATOM     14  C   UNL A   1      33.361  25.399  22.329  1.00  0.00     0.066 A 
ATOM     15  C   UNL A   1      33.779  27.736  25.949  1.00  0.00     0.046 C 
ATOM     16  C   UNL A   1      33.091  24.564  21.142  1.00  0.00     0.193 A 
ATOM     17  C   UNL A   1      33.438  24.786  23.569  1.00  0.00     0.153 A 
ATOM     18  O   UNL A   1      33.056  25.030  20.011  1.00  0.00    -0.289 OA
ATOM     19  C   UNL A   1      32.818  23.132  21.383  1.00  0.00     0.100 A 
ATOM     20  O   UNL A   1      33.229  23.447  23.729  1.00  0.00    -0.455 OA
ATOM     21  C   UNL A   1      32.881  22.684  22.643  1.00  0.00     0.138 A 
BRANCH  21  22
ATOM     22  C   UNL A   1      32.603  21.310  23.058  1.00  0.00     0.018 A 
ATOM     23  C   UNL A   1      32.902  20.910  24.373  1.00  0.00     0.015 A 
ATOM     24  C   UNL A   1      32.185  20.360  22.126  1.00  0.00     0.015 A 
ATOM     25  C   UNL A   1      32.789  19.576  24.753  1.00  0.00     0.040 A 
ATOM     26  C   UNL A   1      32.095  19.020  22.502  1.00  0.00     0.040 A 
ATOM     27  C   UNL A   1      32.399  18.639  23.807  1.00  0.00     0.123 A 
ATOM     28  F   UNL A   1      32.322  17.349  24.154  1.00  0.00    -0.207 F 
ENDBRANCH  21  22
ENDBRANCH   7   9
ENDBRANCH   6   7
ENDBRANCH   5   6
ENDBRANCH   4   5
ENDBRANCH   3   4
ENDBRANCH   2   3
ENDBRANCH   1   2
BRANCH   1  29
ATOM     29  O   UNL A   1      40.369  20.949  27.339  1.00  0.00    -0.376 OA
BRANCH  29  30
ATOM     30  C   UNL A   1      41.672  20.461  27.053  1.00  0.00     0.202 C 
BRANCH  30  31
ATOM     31  C   UNL A   1      42.591  21.200  26.064  1.00  0.00     0.261 C 
BRANCH  31  32
ATOM     32  O   UNL A   1      43.375  22.280  26.606  1.00  0.00    -0.460 OA
BRANCH  32  33
ATOM     33  C   UNL A   1      43.346  23.444  25.912  1.00  0.00     0.338 C 
ATOM     34  O   UNL A   1      43.540  23.591  24.713  1.00  0.00    -0.246 OA
BRANCH  33  35
ATOM     35  C   UNL A   1      42.849  24.537  26.782  1.00  0.00     0.060 A 
ATOM     36  C   UNL A   1      41.725  24.363  27.588  1.00  0.00     0.016 A 
ATOM     37  C   UNL A   1      43.554  25.749  26.823  1.00  0.00     0.016 A 
ATOM     38  C   UNL A   1      41.326  25.398  28.450  1.00  0.00     0.010 A 
ATOM     39  C   UNL A   1      43.150  26.781  27.682  1.00  0.00     0.010 A 
ATOM     40  C   UNL A   1      42.037  26.614  28.520  1.00  0.00    -0.014 A 
BRANCH  40  41
ATOM     41  C   UNL A   1      41.729  27.575  29.614  1.00  0.00     0.031 A 
ATOM     42  C   UNL A   1      40.714  28.668  29.531  1.00  0.00     0.074 A 
ATOM     43  C   UNL A   1      42.429  27.514  30.759  1.00  0.00     0.049 A 
ATOM     44  N   UNL A   1      39.930  29.140  30.468  1.00  0.00    -0.248 NA
ATOM     45  C   UNL A   1      40.583  29.351  28.250  1.00  0.00     0.031 C 
ATOM     46  C   UNL A   1      43.558  26.629  31.024  1.00  0.00     0.029 A 
ATOM     47  N   UNL A   1      42.285  28.248  31.905  1.00  0.00    -0.354 N 
ATOM     48  C   UNL A   1      39.061  30.006  29.819  1.00  0.00     0.074 A 
ATOM     49  C   UNL A   1      39.519  30.117  28.458  1.00  0.00     0.031 C 
ATOM     50  C   UNL A   1      44.014  26.879  32.262  1.00  0.00     0.029 A 
ATOM     51  C   UNL A   1      43.200  27.932  32.868  1.00  0.00     0.049 A 
ATOM     52  H   UNL A   1      41.590  28.936  32.023  1.00  0.00     0.167 HD
ATOM     53  C   UNL A   1      38.007  30.690  30.319  1.00  0.00     0.037 A 
ATOM     54  C   UNL A   1      43.353  28.442  34.102  1.00  0.00     0.037 A 
ATOM     55  C   UNL A   1      37.923  31.080  31.695  1.00  0.00     0.049 A 
ATOM     56  C   UNL A   1      42.379  29.471  34.613  1.00  0.00     0.074 A 
ATOM     57  C   UNL A   1      37.026  31.943  32.298  1.00  0.00     0.029 A 
ATOM     58  N   UNL A   1      38.900  30.789  32.631  1.00  0.00    -0.354 N 
ATOM     59  N   UNL A   1      41.288  29.940  34.056  1.00  0.00    -0.248 NA
ATOM     60  C   UNL A   1      42.660  30.030  35.942  1.00  0.00     0.031 C 
ATOM     61  C   UNL A   1      37.560  32.304  33.542  1.00  0.00     0.029 A 
ATOM     62  C   UNL A   1      38.719  31.571  33.753  1.00  0.00     0.049 A 
ATOM     63  H   UNL A   1      39.616  30.124  32.513  1.00  0.00     0.167 HD
ATOM     64  C   UNL A   1      40.737  30.826  34.979  1.00  0.00     0.074 A 
ATOM     65  C   UNL A   1      41.610  30.816  36.134  1.00  0.00     0.031 C 
ATOM     66  C   UNL A   1      39.608  31.573  34.886  1.00  0.00     0.037 A 
BRANCH  53  67
ATOM     67  C   UNL A   1      36.956  31.163  29.366  1.00  0.00     0.057 A 
ATOM     68  C   UNL A   1      36.899  32.479  28.901  1.00  0.00     0.134 A 
ATOM     69  C   UNL A   1      35.938  30.289  28.960  1.00  0.00     0.134 A 
ATOM     70  F   UNL A   1      37.826  33.370  29.276  1.00  0.00    -0.206 F 
ATOM     71  C   UNL A   1      35.885  32.902  28.038  1.00  0.00     0.040 A 
ATOM     72  C   UNL A   1      34.923  30.697  28.092  1.00  0.00     0.040 A 
ATOM     73  F   UNL A   1      35.915  29.022  29.402  1.00  0.00    -0.206 F 
ATOM     74  C   UNL A   1      34.898  32.008  27.623  1.00  0.00     0.006 A 
ENDBRANCH  53  67
BRANCH  54  75
ATOM     75  C   UNL A   1      44.475  27.972  34.944  1.00  0.00     0.057 A 
ATOM     76  C   UNL A   1      44.298  26.942  35.876  1.00  0.00     0.134 A 
ATOM     77  C   UNL A   1      45.750  28.531  34.827  1.00  0.00     0.134 A 
ATOM     78  F   UNL A   1      43.093  26.375  36.040  1.00  0.00    -0.206 F 
ATOM     79  C   UNL A   1      45.352  26.486  36.665  1.00  0.00     0.040 A 
ATOM     80  C   UNL A   1      46.819  28.065  35.589  1.00  0.00     0.040 A 
ATOM     81  F   UNL A   1      45.979  29.513  33.942  1.00  0.00    -0.206 F 
ATOM     82  C   UNL A   1      46.621  27.041  36.515  1.00  0.00     0.006 A 
ENDBRANCH  54  75
BRANCH  66  83
ATOM     83  C   UNL A   1      39.242  32.439  36.056  1.00  0.00     0.057 A 
ATOM     84  C   UNL A   1      38.352  31.968  37.031  1.00  0.00     0.134 A 
ATOM     85  C   UNL A   1      39.722  33.747  36.199  1.00  0.00     0.134 A 
ATOM     86  F   UNL A   1      37.839  30.731  36.947  1.00  0.00    -0.206 F 
ATOM     87  C   UNL A   1      37.954  32.765  38.104  1.00  0.00     0.040 A 
ATOM     88  C   UNL A   1      39.360  34.542  37.288  1.00  0.00     0.040 A 
ATOM     89  F   UNL A   1      40.577  34.260  35.301  1.00  0.00    -0.206 F 
ATOM     90  C   UNL A   1      38.467  34.052  38.240  1.00  0.00     0.006 A 
ENDBRANCH  66  83
ENDBRANCH  40  41
ENDBRANCH  33  35
ENDBRANCH  32  33
ENDBRANCH  31  32
ENDBRANCH  30  31
ENDBRANCH  29  30
ENDBRANCH   1  29
TORSDOF 18
ENDMDL
MODEL 2
REMARK VINA RESULT:     -10.9     11.824     16.981
REMARK SMILES Cc1cc2c(=O)cc(-c3ccc(F)cc3)oc2c(C(=O)OCCOCCOCCOC(=O)c2ccc(-c3c4nc(c(-c5c(F)cccc5F)c5ccc([nH]5)c(-c5c(F)cccc5F)c5nc(c(-c6c(F)cccc6F)c6ccc3[nH]6)C=C5)C=C4)cc2)c1C
REMARK SMILES IDX 26 1 25 2 24 3 23 4 22 5 21 6 19 7 20 8 18 9 1 10 2 11 3 12
REMARK SMILES IDX 87 13 4 14 88 15 5 16 17 17 6 18 7 19 16 20 8 21 9 22 10 23
REMARK SMILES IDX 15 24 11 25 14 26 12 27 13 28 27 29 28 30 29 31 30 32 31 33
REMARK SMILES IDX 32 34 33 35 34 36 86 37 35 38 85 39 36 40 37 41 38 42 79 43
REMARK SMILES IDX 39 44 84 45 78 46 80 47 40 48 83 49 77 50 76 51 41 53 67 54
REMARK SMILES IDX 50 55 66 56 51 57 54 58 65 59 81 60 52 61 53 62 64 64 82 65
REMARK SMILES IDX 55 66 42 67 43 68 48 69 44 70 45 71 47 72 49 73 46 74 68 75
REMARK SMILES IDX 69 76 74 77 70 78 71 79 73 80 75 81 72 82 56 83 57 84 62 85
REMARK SMILES IDX 58 86 59 87 61 88 63 89 60 90
REMARK H PARENT 80 52 54 63
REMARK Flexibility Score: inf
ROOT
ATOM      1  C   UNL A   1      42.667  41.833  24.866  1.00  0.00     0.188 C 
ENDROOT
BRANCH   1   2
ATOM      2  C   UNL A   1      43.000  42.504  23.515  1.00  0.00     0.188 C 
BRANCH   2   3
ATOM      3  O   UNL A   1      42.297  42.022  22.396  1.00  0.00    -0.376 OA
BRANCH   3   4
ATOM      4  C   UNL A   1      41.988  42.892  21.319  1.00  0.00     0.202 C 
BRANCH   4   5
ATOM      5  C   UNL A   1      43.028  43.668  20.487  1.00  0.00     0.261 C 
BRANCH   5   6
ATOM      6  O   UNL A   1      42.535  44.401  19.362  1.00  0.00    -0.460 OA
BRANCH   6   7
ATOM      7  C   UNL A   1      43.472  44.792  18.462  1.00  0.00     0.342 C 
ATOM      8  O   UNL A   1      44.350  44.101  17.971  1.00  0.00    -0.246 OA
BRANCH   7   9
ATOM      9  C   UNL A   1      43.212  46.184  18.017  1.00  0.00     0.106 A 
ATOM     10  C   UNL A   1      41.126  48.343  15.621  1.00  0.00     0.044 C 
ATOM     11  C   UNL A   1      42.095  47.870  16.672  1.00  0.00    -0.046 A 
ATOM     12  C   UNL A   1      42.725  48.871  17.445  1.00  0.00     0.019 A 
ATOM     13  C   UNL A   1      42.344  46.503  16.951  1.00  0.00    -0.030 A 
ATOM     14  C   UNL A   1      43.635  48.531  18.441  1.00  0.00     0.066 A 
ATOM     15  C   UNL A   1      41.810  45.393  16.084  1.00  0.00     0.046 C 
ATOM     16  C   UNL A   1      44.382  49.559  19.193  1.00  0.00     0.193 A 
ATOM     17  C   UNL A   1      43.876  47.196  18.722  1.00  0.00     0.153 A 
ATOM     18  O   UNL A   1      44.186  50.756  19.032  1.00  0.00    -0.289 OA
ATOM     19  C   UNL A   1      45.418  49.077  20.130  1.00  0.00     0.100 A 
ATOM     20  O   UNL A   1      44.810  46.806  19.637  1.00  0.00    -0.455 OA
ATOM     21  C   UNL A   1      45.576  47.754  20.267  1.00  0.00     0.138 A 
BRANCH  21  22
ATOM     22  C   UNL A   1      46.576  47.114  21.118  1.00  0.00     0.018 A 
ATOM     23  C   UNL A   1      46.202  46.027  21.929  1.00  0.00     0.015 A 
ATOM     24  C   UNL A   1      47.853  47.661  21.244  1.00  0.00     0.015 A 
ATOM     25  C   UNL A   1      47.091  45.493  22.858  1.00  0.00     0.040 A 
ATOM     26  C   UNL A   1      48.735  47.141  22.192  1.00  0.00     0.040 A 
ATOM     27  C   UNL A   1      48.347  46.067  22.990  1.00  0.00     0.123 A 
ATOM     28  F   UNL A   1      49.196  45.584  23.905  1.00  0.00    -0.207 F 
ENDBRANCH  21  22
ENDBRANCH   7   9
ENDBRANCH   6   7
ENDBRANCH   5   6
ENDBRANCH   4   5
ENDBRANCH   3   4
ENDBRANCH   2   3
ENDBRANCH   1   2
BRANCH   1  29
ATOM     29  O   UNL A   1      43.573  40.920  25.462  1.00  0.00    -0.376 OA
BRANCH  29  30
ATOM     30  C   UNL A   1      43.095  40.022  26.454  1.00  0.00     0.202 C 
BRANCH  30  31
ATOM     31  C   UNL A   1      44.061  39.380  27.466  1.00  0.00     0.261 C 
BRANCH  31  32
ATOM     32  O   UNL A   1      44.163  37.944  27.430  1.00  0.00    -0.460 OA
BRANCH  32  33
ATOM     33  C   UNL A   1      44.636  37.352  28.555  1.00  0.00     0.338 C 
ATOM     34  O   UNL A   1      44.921  37.900  29.610  1.00  0.00    -0.246 OA
BRANCH  33  35
ATOM     35  C   UNL A   1      44.589  35.878  28.406  1.00  0.00     0.060 A 
ATOM     36  C   UNL A   1      45.162  35.037  29.360  1.00  0.00     0.016 A 
ATOM     37  C   UNL A   1      43.917  35.325  27.306  1.00  0.00     0.016 A 
ATOM     38  C   UNL A   1      45.037  33.646  29.219  1.00  0.00     0.010 A 
ATOM     39  C   UNL A   1      43.797  33.935  27.167  1.00  0.00     0.010 A 
ATOM     40  C   UNL A   1      44.344  33.074  28.131  1.00  0.00    -0.014 A 
BRANCH  40  41
ATOM     41  C   UNL A   1      44.026  31.621  28.154  1.00  0.00     0.031 A 
ATOM     42  C   UNL A   1      42.883  31.007  28.898  1.00  0.00     0.074 A 
ATOM     43  C   UNL A   1      44.830  30.761  27.509  1.00  0.00     0.049 A 
ATOM     44  N   UNL A   1      42.138  29.982  28.568  1.00  0.00    -0.248 NA
ATOM     45  C   UNL A   1      42.553  31.586  30.194  1.00  0.00     0.031 C 
ATOM     46  C   UNL A   1      46.078  31.101  26.833  1.00  0.00     0.029 A 
ATOM     47  N   UNL A   1      44.707  29.407  27.351  1.00  0.00    -0.354 N 
ATOM     48  C   UNL A   1      41.115  29.953  29.505  1.00  0.00     0.074 A 
ATOM     49  C   UNL A   1      41.428  30.949  30.498  1.00  0.00     0.031 C 
ATOM     50  C   UNL A   1      46.613  29.975  26.335  1.00  0.00     0.029 A 
ATOM     51  C   UNL A   1      45.738  28.848  26.652  1.00  0.00     0.049 A 
ATOM     52  H   UNL A   1      43.948  28.888  27.705  1.00  0.00     0.167 HD
ATOM     53  C   UNL A   1      40.039  29.138  29.567  1.00  0.00     0.037 A 
ATOM     54  C   UNL A   1      45.943  27.564  26.311  1.00  0.00     0.037 A 
ATOM     55  C   UNL A   1      40.036  27.819  29.009  1.00  0.00     0.049 A 
ATOM     56  C   UNL A   1      44.904  26.526  26.646  1.00  0.00     0.074 A 
ATOM     57  C   UNL A   1      39.102  26.812  29.171  1.00  0.00     0.029 A 
ATOM     58  N   UNL A   1      41.124  27.265  28.357  1.00  0.00    -0.354 N 
ATOM     59  N   UNL A   1      43.718  26.672  27.186  1.00  0.00    -0.248 NA
ATOM     60  C   UNL A   1      45.238  25.137  26.304  1.00  0.00     0.031 C 
ATOM     61  C   UNL A   1      39.702  25.612  28.766  1.00  0.00     0.029 A 
ATOM     62  C   UNL A   1      40.955  25.900  28.244  1.00  0.00     0.049 A 
ATOM     63  H   UNL A   1      41.900  27.770  28.023  1.00  0.00     0.167 HD
ATOM     64  C   UNL A   1      43.153  25.400  27.220  1.00  0.00     0.074 A 
ATOM     65  C   UNL A   1      44.124  24.500  26.635  1.00  0.00     0.031 C 
ATOM     66  C   UNL A   1      41.938  25.010  27.684  1.00  0.00     0.037 A 
BRANCH  53  67
ATOM     67  C   UNL A   1      38.855  29.592  30.360  1.00  0.00     0.057 A 
ATOM     68  C   UNL A   1      38.656  29.227  31.693  1.00  0.00     0.134 A 
ATOM     69  C   UNL A   1      37.856  30.361  29.744  1.00  0.00     0.134 A 
ATOM     70  F   UNL A   1      39.560  28.469  32.329  1.00  0.00    -0.206 F 
ATOM     71  C   UNL A   1      37.523  29.637  32.399  1.00  0.00     0.040 A 
ATOM     72  C   UNL A   1      36.722  30.784  30.441  1.00  0.00     0.040 A 
ATOM     73  F   UNL A   1      37.969  30.713  28.455  1.00  0.00    -0.206 F 
ATOM     74  C   UNL A   1      36.555  30.427  31.777  1.00  0.00     0.006 A 
ENDBRANCH  53  67
BRANCH  54  75
ATOM     75  C   UNL A   1      47.187  27.195  25.600  1.00  0.00     0.057 A 
ATOM     76  C   UNL A   1      47.323  27.410  24.223  1.00  0.00     0.134 A 
ATOM     77  C   UNL A   1      48.269  26.632  26.282  1.00  0.00     0.134 A 
ATOM     78  F   UNL A   1      46.313  27.937  23.515  1.00  0.00    -0.206 F 
ATOM     79  C   UNL A   1      48.495  27.076  23.548  1.00  0.00     0.040 A 
ATOM     80  C   UNL A   1      49.457  26.319  25.623  1.00  0.00     0.040 A 
ATOM     81  F   UNL A   1      48.197  26.414  27.603  1.00  0.00    -0.206 F 
ATOM     82  C   UNL A   1      49.571  26.538  24.251  1.00  0.00     0.006 A 
ENDBRANCH  54  75
BRANCH  66  83
ATOM     83  C   UNL A   1      41.581  23.556  27.579  1.00  0.00     0.057 A 
ATOM     84  C   UNL A   1      40.602  23.134  26.669  1.00  0.00     0.134 A 
ATOM     85  C   UNL A   1      42.159  22.581  28.402  1.00  0.00     0.134 A 
ATOM     86  F   UNL A   1      39.993  24.017  25.862  1.00  0.00    -0.206 F 
ATOM     87  C   UNL A   1      40.213  21.798  26.581  1.00  0.00     0.040 A 
ATOM     88  C   UNL A   1      41.805  21.235  28.297  1.00  0.00     0.040 A 
ATOM     89  F   UNL A   1      43.103  22.917  29.295  1.00  0.00    -0.206 F 
ATOM     90  C   UNL A   1      40.823  20.843  27.389  1.00  0.00     0.006 A 
ENDBRANCH  66  83
ENDBRANCH  40  41
ENDBRANCH  33  35
ENDBRANCH  32  33
ENDBRANCH  31  32
ENDBRANCH  30  31
ENDBRANCH  29  30
ENDBRANCH   1  29
TORSDOF 18
ENDMDL
MODEL 3
REMARK VINA RESULT:     -10.4      4.713      9.523
REMARK SMILES Cc1cc2c(=O)cc(-c3ccc(F)cc3)oc2c(C(=O)OCCOCCOCCOC(=O)c2ccc(-c3c4nc(c(-c5c(F)cccc5F)c5ccc([nH]5)c(-c5c(F)cccc5F)c5nc(c(-c6c(F)cccc6F)c6ccc3[nH]6)C=C5)C=C4)cc2)c1C
REMARK SMILES IDX 26 1 25 2 24 3 23 4 22 5 21 6 19 7 20 8 18 9 1 10 2 11 3 12
REMARK SMILES IDX 87 13 4 14 88 15 5 16 17 17 6 18 7 19 16 20 8 21 9 22 10 23
REMARK SMILES IDX 15 24 11 25 14 26 12 27 13 28 27 29 28 30 29 31 30 32 31 33
REMARK SMILES IDX 32 34 33 35 34 36 86 37 35 38 85 39 36 40 37 41 38 42 79 43
REMARK SMILES IDX 39 44 84 45 78 46 80 47 40 48 83 49 77 50 76 51 41 53 67 54
REMARK SMILES IDX 50 55 66 56 51 57 54 58 65 59 81 60 52 61 53 62 64 64 82 65
REMARK SMILES IDX 55 66 42 67 43 68 48 69 44 70 45 71 47 72 49 73 46 74 68 75
REMARK SMILES IDX 69 76 74 77 70 78 71 79 73 80 75 81 72 82 56 83 57 84 62 85
REMARK SMILES IDX 58 86 59 87 61 88 63 89 60 90
REMARK H PARENT 80 52 54 63
REMARK Flexibility Score: inf
ROOT
ATOM      1  C   UNL A   1      33.472  31.174  27.661  1.00  0.00     0.188 C 
ENDROOT
BRANCH   1   2
ATOM      2  C   UNL A   1      32.240  30.831  26.794  1.00  0.00     0.188 C 
BRANCH   2   3
ATOM      3  O   UNL A   1      32.285  29.602  26.113  1.00  0.00    -0.376 OA
BRANCH   3   4
ATOM      4  C   UNL A   1      31.840  28.416  26.751  1.00  0.00     0.202 C 
BRANCH   4   5
ATOM      5  C   UNL A   1      32.412  27.009  26.494  1.00  0.00     0.261 C 
BRANCH   5   6
ATOM      6  O   UNL A   1      31.769  25.920  27.162  1.00  0.00    -0.460 OA
BRANCH   6   7
ATOM      7  C   UNL A   1      31.225  24.975  26.354  1.00  0.00     0.342 C 
ATOM      8  O   UNL A   1      30.092  24.527  26.412  1.00  0.00    -0.246 OA
BRANCH   7   9
ATOM      9  C   UNL A   1      32.162  24.633  25.255  1.00  0.00     0.106 A 
ATOM     10  C   UNL A   1      35.079  22.342  24.256  1.00  0.00     0.044 C 
ATOM     11  C   UNL A   1      33.988  23.381  24.257  1.00  0.00    -0.046 A 
ATOM     12  C   UNL A   1      33.708  24.003  23.019  1.00  0.00     0.019 A 
ATOM     13  C   UNL A   1      33.213  23.702  25.399  1.00  0.00    -0.030 A 
ATOM     14  C   UNL A   1      32.716  24.974  22.921  1.00  0.00     0.066 A 
ATOM     15  C   UNL A   1      33.542  23.176  26.772  1.00  0.00     0.046 C 
ATOM     16  C   UNL A   1      32.473  25.710  21.665  1.00  0.00     0.193 A 
ATOM     17  C   UNL A   1      31.951  25.285  24.033  1.00  0.00     0.153 A 
ATOM     18  O   UNL A   1      33.078  25.455  20.632  1.00  0.00    -0.289 OA
ATOM     19  C   UNL A   1      31.489  26.810  21.718  1.00  0.00     0.100 A 
ATOM     20  O   UNL A   1      31.015  26.279  24.012  1.00  0.00    -0.455 OA
ATOM     21  C   UNL A   1      30.855  27.031  22.877  1.00  0.00     0.138 A 
BRANCH  21  22
ATOM     22  C   UNL A   1      29.884  28.098  23.109  1.00  0.00     0.018 A 
ATOM     23  C   UNL A   1      28.510  27.799  23.095  1.00  0.00     0.015 A 
ATOM     24  C   UNL A   1      30.300  29.427  23.197  1.00  0.00     0.015 A 
ATOM     25  C   UNL A   1      27.560  28.815  23.164  1.00  0.00     0.040 A 
ATOM     26  C   UNL A   1      29.348  30.445  23.243  1.00  0.00     0.040 A 
ATOM     27  C   UNL A   1      27.990  30.132  23.223  1.00  0.00     0.123 A 
ATOM     28  F   UNL A   1      27.085  31.118  23.254  1.00  0.00    -0.207 F 
ENDBRANCH  21  22
ENDBRANCH   7   9
ENDBRANCH   6   7
ENDBRANCH   5   6
ENDBRANCH   4   5
ENDBRANCH   3   4
ENDBRANCH   2   3
ENDBRANCH   1   2
BRANCH   1  29
ATOM     29  O   UNL A   1      34.216  32.357  27.424  1.00  0.00    -0.376 OA
BRANCH  29  30
ATOM     30  C   UNL A   1      34.233  33.372  28.418  1.00  0.00     0.202 C 
BRANCH  30  31
ATOM     31  C   UNL A   1      35.562  33.983  28.897  1.00  0.00     0.261 C 
BRANCH  31  32
ATOM     32  O   UNL A   1      35.838  33.889  30.307  1.00  0.00    -0.460 OA
BRANCH  32  33
ATOM     33  C   UNL A   1      35.729  32.654  30.854  1.00  0.00     0.338 C 
ATOM     34  O   UNL A   1      34.744  32.175  31.399  1.00  0.00    -0.246 OA
BRANCH  33  35
ATOM     35  C   UNL A   1      36.935  31.853  30.536  1.00  0.00     0.060 A 
ATOM     36  C   UNL A   1      37.168  31.380  29.246  1.00  0.00     0.016 A 
ATOM     37  C   UNL A   1      37.877  31.610  31.547  1.00  0.00     0.016 A 
ATOM     38  C   UNL A   1      38.356  30.684  28.968  1.00  0.00     0.010 A 
ATOM     39  C   UNL A   1      39.061  30.912  31.266  1.00  0.00     0.010 A 
ATOM     40  C   UNL A   1      39.324  30.451  29.968  1.00  0.00    -0.014 A 
BRANCH  40  41
ATOM     41  C   UNL A   1      40.664  29.935  29.576  1.00  0.00     0.031 A 
ATOM     42  C   UNL A   1      40.975  28.503  29.280  1.00  0.00     0.074 A 
ATOM     43  C   UNL A   1      41.704  30.781  29.520  1.00  0.00     0.049 A 
ATOM     44  N   UNL A   1      41.810  28.003  28.403  1.00  0.00    -0.248 NA
ATOM     45  C   UNL A   1      40.298  27.499  30.091  1.00  0.00     0.031 C 
ATOM     46  C   UNL A   1      41.681  32.190  29.898  1.00  0.00     0.029 A 
ATOM     47  N   UNL A   1      42.997  30.545  29.137  1.00  0.00    -0.354 N 
ATOM     48  C   UNL A   1      41.574  26.636  28.408  1.00  0.00     0.074 A 
ATOM     49  C   UNL A   1      40.649  26.374  29.481  1.00  0.00     0.031 C 
ATOM     50  C   UNL A   1      42.914  32.695  29.734  1.00  0.00     0.029 A 
ATOM     51  C   UNL A   1      43.800  31.645  29.233  1.00  0.00     0.049 A 
ATOM     52  H   UNL A   1      43.316  29.667  28.823  1.00  0.00     0.167 HD
ATOM     53  C   UNL A   1      42.116  25.674  27.628  1.00  0.00     0.037 A 
ATOM     54  C   UNL A   1      45.105  31.779  28.945  1.00  0.00     0.037 A 
ATOM     55  C   UNL A   1      43.415  25.801  27.037  1.00  0.00     0.049 A 
ATOM     56  C   UNL A   1      45.865  30.617  28.359  1.00  0.00     0.074 A 
ATOM     57  C   UNL A   1      44.174  24.837  26.398  1.00  0.00     0.029 A 
ATOM     58  N   UNL A   1      44.223  26.911  27.205  1.00  0.00    -0.354 N 
ATOM     59  N   UNL A   1      45.433  29.436  27.988  1.00  0.00    -0.248 NA
ATOM     60  C   UNL A   1      47.303  30.824  28.141  1.00  0.00     0.031 C 
ATOM     61  C   UNL A   1      45.491  25.311  26.336  1.00  0.00     0.029 A 
ATOM     62  C   UNL A   1      45.515  26.610  26.825  1.00  0.00     0.049 A 
ATOM     63  H   UNL A   1      43.922  27.784  27.544  1.00  0.00     0.167 HD
ATOM     64  C   UNL A   1      46.540  28.771  27.465  1.00  0.00     0.074 A 
ATOM     65  C   UNL A   1      47.656  29.688  27.557  1.00  0.00     0.031 C 
ATOM     66  C   UNL A   1      46.624  27.520  26.946  1.00  0.00     0.037 A 
BRANCH  53  67
ATOM     67  C   UNL A   1      41.378  24.381  27.485  1.00  0.00     0.057 A 
ATOM     68  C   UNL A   1      41.766  23.215  28.150  1.00  0.00     0.134 A 
ATOM     69  C   UNL A   1      40.290  24.292  26.605  1.00  0.00     0.134 A 
ATOM     70  F   UNL A   1      42.815  23.229  28.983  1.00  0.00    -0.206 F 
ATOM     71  C   UNL A   1      41.078  22.013  27.971  1.00  0.00     0.040 A 
ATOM     72  C   UNL A   1      39.589  23.098  26.423  1.00  0.00     0.040 A 
ATOM     73  F   UNL A   1      39.891  25.367  25.908  1.00  0.00    -0.206 F 
ATOM     74  C   UNL A   1      39.980  21.953  27.113  1.00  0.00     0.006 A 
ENDBRANCH  53  67
BRANCH  54  75
ATOM     75  C   UNL A   1      45.772  33.075  29.198  1.00  0.00     0.057 A 
ATOM     76  C   UNL A   1      45.812  34.072  28.215  1.00  0.00     0.134 A 
ATOM     77  C   UNL A   1      46.371  33.351  30.430  1.00  0.00     0.134 A 
ATOM     78  F   UNL A   1      45.264  33.859  27.010  1.00  0.00    -0.206 F 
ATOM     79  C   UNL A   1      46.429  35.299  28.449  1.00  0.00     0.040 A 
ATOM     80  C   UNL A   1      46.966  34.585  30.687  1.00  0.00     0.040 A 
ATOM     81  F   UNL A   1      46.353  32.436  31.411  1.00  0.00    -0.206 F 
ATOM     82  C   UNL A   1      46.999  35.563  29.693  1.00  0.00     0.006 A 
ENDBRANCH  54  75
BRANCH  66  83
ATOM     83  C   UNL A   1      47.959  27.062  26.433  1.00  0.00     0.057 A 
ATOM     84  C   UNL A   1      48.892  26.488  27.308  1.00  0.00     0.134 A 
ATOM     85  C   UNL A   1      48.345  27.230  25.097  1.00  0.00     0.134 A 
ATOM     86  F   UNL A   1      48.595  26.315  28.605  1.00  0.00    -0.206 F 
ATOM     87  C   UNL A   1      50.157  26.097  26.872  1.00  0.00     0.040 A 
ATOM     88  C   UNL A   1      49.596  26.808  24.642  1.00  0.00     0.040 A 
ATOM     89  F   UNL A   1      47.501  27.772  24.207  1.00  0.00    -0.206 F 
ATOM     90  C   UNL A   1      50.508  26.247  25.534  1.00  0.00     0.006 A 
ENDBRANCH  66  83
ENDBRANCH  40  41
ENDBRANCH  33  35
ENDBRANCH  32  33
ENDBRANCH  31  32
ENDBRANCH  30  31
ENDBRANCH  29  30
ENDBRANCH   1  29
TORSDOF 18
ENDMDL
