MODEL 1
REMARK VINA RESULT:     -10.1      0.000      0.000
REMARK SMILES C[C@@H](C(=O)OCCOCCOCCOC(=O)c1ccc(-c2c3nc(c(-c4c(F)cccc4F)c4ccc([nH]4)c(-c4c(F)cccc4F)c4nc(c(-c5c(F)cccc5F)c5ccc2[nH]5)C=C4)C=C3)cc1)c1ccc(-c2cccc(OC(=O)NCCCc3ccccc3)c2)c(F)c1
REMARK SMILES IDX 6 1 5 2 3 3 4 4 2 5 1 6 71 7 72 8 96 9 73 10 94 11 74 12
REMARK SMILES IDX 95 13 75 14 76 15 93 16 77 17 79 18 78 19 80 20 81 21 82 22
REMARK SMILES IDX 83 23 84 25 85 26 86 27 87 28 88 29 92 30 89 31 91 32 90 33
REMARK SMILES IDX 7 34 8 35 9 36 10 37 11 38 12 39 13 40 14 41 15 42 16 43
REMARK SMILES IDX 17 44 18 45 70 46 19 47 69 48 20 49 21 50 22 51 63 52 23 53
REMARK SMILES IDX 68 54 62 55 64 56 24 57 67 58 61 59 60 60 25 62 51 63 34 64
REMARK SMILES IDX 50 65 35 66 38 67 49 68 65 69 36 70 37 71 48 73 66 74 39 75
REMARK SMILES IDX 26 76 27 77 32 78 28 79 29 80 31 81 33 82 30 83 52 84 53 85
REMARK SMILES IDX 58 86 54 87 55 88 57 89 59 90 56 91 40 92 41 93 46 94 42 95
REMARK SMILES IDX 43 96 45 97 47 98 44 99
REMARK H PARENT 83 24 64 61 38 72
REMARK Flexibility Score: inf
ROOT
ATOM      1  C   UNL A   1      36.268  32.829  30.652  1.00  0.00     0.261 C 
ENDROOT
BRANCH   1   2
ATOM      2  O   UNL A   1      36.758  32.484  29.293  1.00  0.00    -0.463 OA
BRANCH   2   3
ATOM      3  C   UNL A   1      35.855  32.056  28.348  1.00  0.00     0.313 C 
ATOM      4  O   UNL A   1      35.511  32.802  27.431  1.00  0.00    -0.252 OA
BRANCH   3   5
ATOM      5  C   UNL A   1      35.483  30.495  28.367  1.00  0.00     0.126 C 
ATOM      6  C   UNL A   1      36.585  29.434  28.536  1.00  0.00     0.025 C 
BRANCH   5   7
ATOM      7  C   UNL A   1      34.465  30.010  27.287  1.00  0.00    -0.031 A 
ATOM      8  C   UNL A   1      34.636  28.791  26.579  1.00  0.00     0.005 A 
ATOM      9  C   UNL A   1      33.286  30.709  27.033  1.00  0.00     0.044 A 
ATOM     10  C   UNL A   1      33.640  28.252  25.765  1.00  0.00     0.012 A 
ATOM     11  C   UNL A   1      32.281  30.145  26.264  1.00  0.00     0.131 A 
ATOM     12  C   UNL A   1      32.389  28.848  25.719  1.00  0.00     0.018 A 
ATOM     13  F   UNL A   1      31.228  30.937  25.989  1.00  0.00    -0.206 F 
BRANCH  12  14
ATOM     14  C   UNL A   1      31.390  28.304  24.817  1.00  0.00    -0.012 A 
ATOM     15  C   UNL A   1      30.529  28.883  23.903  1.00  0.00     0.009 A 
ATOM     16  C   UNL A   1      31.155  27.013  25.100  1.00  0.00     0.056 A 
ATOM     17  C   UNL A   1      29.477  28.107  23.335  1.00  0.00     0.004 A 
ATOM     18  C   UNL A   1      29.956  26.420  24.882  1.00  0.00     0.133 A 
ATOM     19  C   UNL A   1      29.155  26.826  23.840  1.00  0.00     0.047 A 
BRANCH  18  20
ATOM     20  O   UNL A   1      30.091  25.030  25.699  1.00  0.00    -0.410 OA
BRANCH  20  21
ATOM     21  C   UNL A   1      30.301  23.282  26.691  1.00  0.00     0.412 C 
ATOM     22  O   UNL A   1      29.714  22.937  27.778  1.00  0.00    -0.224 OA
ATOM     23  N   UNL A   1      31.196  22.207  26.498  1.00  0.00    -0.321 N 
ATOM     24  H   UNL A   1      31.520  21.800  27.334  1.00  0.00     0.167 HD
BRANCH  23  25
ATOM     25  C   UNL A   1      31.716  21.607  25.322  1.00  0.00     0.120 C 
BRANCH  25  26
ATOM     26  C   UNL A   1      33.102  22.107  24.985  1.00  0.00     0.026 C 
BRANCH  26  27
ATOM     27  C   UNL A   1      33.169  23.592  25.192  1.00  0.00     0.037 C 
BRANCH  27  28
ATOM     28  C   UNL A   1      33.137  24.343  23.881  1.00  0.00    -0.048 A 
ATOM     29  C   UNL A   1      34.054  25.344  23.501  1.00  0.00     0.004 A 
ATOM     30  C   UNL A   1      32.065  24.118  23.043  1.00  0.00     0.004 A 
ATOM     31  C   UNL A   1      33.721  26.339  22.604  1.00  0.00     0.000 A 
ATOM     32  C   UNL A   1      31.869  24.958  21.952  1.00  0.00     0.000 A 
ATOM     33  C   UNL A   1      32.640  26.113  21.784  1.00  0.00     0.000 A 
ENDBRANCH  27  28
ENDBRANCH  26  27
ENDBRANCH  25  26
ENDBRANCH  23  25
ENDBRANCH  20  21
ENDBRANCH  18  20
ENDBRANCH  12  14
ENDBRANCH   5   7
ENDBRANCH   3   5
ENDBRANCH   2   3
ENDBRANCH   1   2
BRANCH   1  34
ATOM     34  C   UNL A   1      35.234  34.009  30.841  1.00  0.00     0.202 C 
BRANCH  34  35
ATOM     35  O   UNL A   1      34.008  33.782  31.502  1.00  0.00    -0.376 OA
BRANCH  35  36
ATOM     36  C   UNL A   1      33.811  34.588  32.635  1.00  0.00     0.188 C 
BRANCH  36  37
ATOM     37  C   UNL A   1      34.824  34.542  33.794  1.00  0.00     0.188 C 
BRANCH  37  38
ATOM     38  O   UNL A   1      36.019  35.248  34.039  1.00  0.00    -0.376 OA
BRANCH  38  39
ATOM     39  C   UNL A   1      37.198  34.449  33.980  1.00  0.00     0.202 C 
BRANCH  39  40
ATOM     40  C   UNL A   1      37.151  32.842  34.009  1.00  0.00     0.261 C 
BRANCH  40  41
ATOM     41  O   UNL A   1      37.057  32.020  35.248  1.00  0.00    -0.460 OA
BRANCH  41  42
ATOM     42  C   UNL A   1      38.178  31.327  35.680  1.00  0.00     0.338 C 
ATOM     43  O   UNL A   1      38.226  30.632  36.684  1.00  0.00    -0.246 OA
BRANCH  42  44
ATOM     44  C   UNL A   1      39.240  31.202  34.618  1.00  0.00     0.060 A 
ATOM     45  C   UNL A   1      39.171  30.314  33.504  1.00  0.00     0.016 A 
ATOM     46  C   UNL A   1      40.432  31.834  34.905  1.00  0.00     0.016 A 
ATOM     47  C   UNL A   1      40.308  29.981  32.777  1.00  0.00     0.010 A 
ATOM     48  C   UNL A   1      41.572  31.479  34.199  1.00  0.00     0.010 A 
ATOM     49  C   UNL A   1      41.520  30.527  33.170  1.00  0.00    -0.014 A 
BRANCH  49  50
ATOM     50  C   UNL A   1      42.744  30.138  32.492  1.00  0.00     0.031 A 
ATOM     51  C   UNL A   1      43.242  30.787  31.271  1.00  0.00     0.074 A 
ATOM     52  C   UNL A   1      43.336  29.025  32.923  1.00  0.00     0.049 A 
ATOM     53  N   UNL A   1      44.281  30.455  30.559  1.00  0.00    -0.248 NA
ATOM     54  C   UNL A   1      42.480  31.936  30.773  1.00  0.00     0.031 C 
ATOM     55  C   UNL A   1      42.726  27.929  34.430  1.00  0.00     0.029 A 
ATOM     56  N   UNL A   1      44.804  28.146  32.216  1.00  0.00    -0.354 N 
ATOM     57  C   UNL A   1      44.303  31.344  29.513  1.00  0.00     0.074 A 
ATOM     58  C   UNL A   1      43.148  32.212  29.663  1.00  0.00     0.031 C 
ATOM     59  C   UNL A   1      43.738  26.572  34.595  1.00  0.00     0.029 A 
ATOM     60  C   UNL A   1      45.207  26.655  33.288  1.00  0.00     0.049 A 
ATOM     61  H   UNL A   1      45.295  28.416  31.407  1.00  0.00     0.167 HD
ATOM     62  C   UNL A   1      45.222  31.420  28.531  1.00  0.00     0.037 A 
ATOM     63  C   UNL A   1      46.386  26.031  33.348  1.00  0.00     0.037 A 
ATOM     64  C   UNL A   1      46.334  30.523  28.366  1.00  0.00     0.049 A 
ATOM     65  C   UNL A   1      47.392  26.340  32.269  1.00  0.00     0.074 A 
ATOM     66  C   UNL A   1      47.291  30.580  27.373  1.00  0.00     0.029 A 
ATOM     67  N   UNL A   1      46.626  29.409  29.152  1.00  0.00    -0.354 N 
ATOM     68  N   UNL A   1      47.405  27.365  31.439  1.00  0.00    -0.248 NA
ATOM     69  C   UNL A   1      48.330  25.275  31.928  1.00  0.00     0.031 C 
ATOM     70  C   UNL A   1      48.108  29.465  27.501  1.00  0.00     0.029 A 
ATOM     71  C   UNL A   1      47.758  28.774  28.655  1.00  0.00     0.049 A 
ATOM     72  H   UNL A   1      46.110  29.117  29.938  1.00  0.00     0.167 HD
ATOM     73  C   UNL A   1      48.242  27.006  30.397  1.00  0.00     0.074 A 
ATOM     74  C   UNL A   1      48.842  25.738  30.795  1.00  0.00     0.031 C 
ATOM     75  C   UNL A   1      48.425  27.605  29.190  1.00  0.00     0.037 A 
BRANCH  62  76
ATOM     76  C   UNL A   1      45.015  32.502  27.528  1.00  0.00     0.057 A 
ATOM     77  C   UNL A   1      45.608  33.763  27.669  1.00  0.00     0.134 A 
ATOM     78  C   UNL A   1      44.199  32.280  26.413  1.00  0.00     0.134 A 
ATOM     79  F   UNL A   1      46.422  34.023  28.705  1.00  0.00    -0.206 F 
ATOM     80  C   UNL A   1      45.319  34.796  26.785  1.00  0.00     0.040 A 
ATOM     81  C   UNL A   1      43.972  33.280  25.477  1.00  0.00     0.040 A 
ATOM     82  F   UNL A   1      43.626  31.083  26.210  1.00  0.00    -0.206 F 
ATOM     83  C   UNL A   1      44.510  34.549  25.677  1.00  0.00     0.006 A 
ENDBRANCH  62  76
BRANCH  63  84
ATOM     84  C   UNL A   1      46.419  24.920  34.279  1.00  0.00     0.057 A 
ATOM     85  C   UNL A   1      47.130  25.073  35.453  1.00  0.00     0.134 A 
ATOM     86  C   UNL A   1      45.759  23.698  34.040  1.00  0.00     0.134 A 
ATOM     87  F   UNL A   1      47.717  26.244  35.739  1.00  0.00    -0.206 F 
ATOM     88  C   UNL A   1      47.260  24.010  36.328  1.00  0.00     0.040 A 
ATOM     89  C   UNL A   1      45.806  22.660  34.945  1.00  0.00     0.040 A 
ATOM     90  F   UNL A   1      45.029  23.483  32.934  1.00  0.00    -0.206 F 
ATOM     91  C   UNL A   1      46.592  22.807  36.078  1.00  0.00     0.006 A 
ENDBRANCH  63  84
BRANCH  75  92
ATOM     92  C   UNL A   1      49.583  27.081  28.398  1.00  0.00     0.057 A 
ATOM     93  C   UNL A   1      49.473  26.097  27.414  1.00  0.00     0.134 A 
ATOM     94  C   UNL A   1      50.862  27.574  28.697  1.00  0.00     0.134 A 
ATOM     95  F   UNL A   1      48.272  25.609  27.065  1.00  0.00    -0.206 F 
ATOM     96  C   UNL A   1      50.611  25.531  26.845  1.00  0.00     0.040 A 
ATOM     97  C   UNL A   1      51.996  27.082  28.069  1.00  0.00     0.040 A 
ATOM     98  F   UNL A   1      51.023  28.555  29.599  1.00  0.00    -0.206 F 
ATOM     99  C   UNL A   1      51.875  26.030  27.167  1.00  0.00     0.006 A 
ENDBRANCH  75  92
ENDBRANCH  49  50
ENDBRANCH  42  44
ENDBRANCH  41  42
ENDBRANCH  40  41
ENDBRANCH  39  40
ENDBRANCH  38  39
ENDBRANCH  37  38
ENDBRANCH  36  37
ENDBRANCH  35  36
ENDBRANCH  34  35
ENDBRANCH   1  34
TORSDOF 25
ENDMDL
MODEL 2
REMARK VINA RESULT:      -9.9      4.782      9.677
REMARK SMILES C[C@@H](C(=O)OCCOCCOCCOC(=O)c1ccc(-c2c3nc(c(-c4c(F)cccc4F)c4ccc([nH]4)c(-c4c(F)cccc4F)c4nc(c(-c5c(F)cccc5F)c5ccc2[nH]5)C=C4)C=C3)cc1)c1ccc(-c2cccc(OC(=O)NCCCc3ccccc3)c2)c(F)c1
REMARK SMILES IDX 6 1 5 2 3 3 4 4 2 5 1 6 71 7 72 8 96 9 73 10 94 11 74 12
REMARK SMILES IDX 95 13 75 14 76 15 93 16 77 17 79 18 78 19 80 20 81 21 82 22
REMARK SMILES IDX 83 23 84 25 85 26 86 27 87 28 88 29 92 30 89 31 91 32 90 33
REMARK SMILES IDX 7 34 8 35 9 36 10 37 11 38 12 39 13 40 14 41 15 42 16 43
REMARK SMILES IDX 17 44 18 45 70 46 19 47 69 48 20 49 21 50 22 51 63 52 23 53
REMARK SMILES IDX 68 54 62 55 64 56 24 57 67 58 61 59 60 60 25 62 51 63 34 64
REMARK SMILES IDX 50 65 35 66 38 67 49 68 65 69 36 70 37 71 48 73 66 74 39 75
REMARK SMILES IDX 26 76 27 77 32 78 28 79 29 80 31 81 33 82 30 83 52 84 53 85
REMARK SMILES IDX 58 86 54 87 55 88 57 89 59 90 56 91 40 92 41 93 46 94 42 95
REMARK SMILES IDX 43 96 45 97 47 98 44 99
REMARK H PARENT 83 24 64 61 38 72
REMARK Flexibility Score: inf
ROOT
ATOM      1  C   UNL A   1      44.041  23.052  27.345  1.00  0.00     0.261 C 
ENDROOT
BRANCH   1   2
ATOM      2  O   UNL A   1      42.582  23.153  27.604  1.00  0.00    -0.463 OA
BRANCH   2   3
ATOM      3  C   UNL A   1      41.724  23.279  26.536  1.00  0.00     0.313 C 
ATOM      4  O   UNL A   1      41.093  22.304  26.126  1.00  0.00    -0.252 OA
BRANCH   3   5
ATOM      5  C   UNL A   1      41.413  24.772  26.037  1.00  0.00     0.126 C 
ATOM      6  C   UNL A   1      42.489  25.585  25.295  1.00  0.00     0.025 C 
BRANCH   5   7
ATOM      7  C   UNL A   1      40.673  25.702  27.049  1.00  0.00    -0.031 A 
ATOM      8  C   UNL A   1      39.529  25.275  27.772  1.00  0.00     0.005 A 
ATOM      9  C   UNL A   1      41.159  26.972  27.359  1.00  0.00     0.044 A 
ATOM     10  C   UNL A   1      38.983  26.019  28.819  1.00  0.00     0.012 A 
ATOM     11  C   UNL A   1      40.645  27.683  28.431  1.00  0.00     0.131 A 
ATOM     12  C   UNL A   1      39.630  27.163  29.262  1.00  0.00     0.018 A 
ATOM     13  F   UNL A   1      41.105  28.939  28.587  1.00  0.00    -0.206 F 
BRANCH  12  14
ATOM     14  C   UNL A   1      39.010  27.952  30.310  1.00  0.00    -0.012 A 
ATOM     15  C   UNL A   1      38.954  27.817  31.686  1.00  0.00     0.009 A 
ATOM     16  C   UNL A   1      38.179  28.865  29.782  1.00  0.00     0.056 A 
ATOM     17  C   UNL A   1      38.051  28.623  32.438  1.00  0.00     0.004 A 
ATOM     18  C   UNL A   1      37.075  29.315  30.428  1.00  0.00     0.133 A 
ATOM     19  C   UNL A   1      37.056  29.400  31.801  1.00  0.00     0.047 A 
BRANCH  18  20
ATOM     20  O   UNL A   1      36.267  30.086  29.258  1.00  0.00    -0.410 OA
BRANCH  20  21
ATOM     21  C   UNL A   1      35.223  31.064  27.832  1.00  0.00     0.412 C 
ATOM     22  O   UNL A   1      35.198  32.330  27.626  1.00  0.00    -0.224 OA
ATOM     23  N   UNL A   1      34.242  30.610  26.923  1.00  0.00    -0.321 N 
ATOM     24  H   UNL A   1      33.509  31.249  26.770  1.00  0.00     0.167 HD
BRANCH  23  25
ATOM     25  C   UNL A   1      34.117  29.401  26.191  1.00  0.00     0.120 C 
BRANCH  25  26
ATOM     26  C   UNL A   1      33.757  28.228  27.074  1.00  0.00     0.026 C 
BRANCH  26  27
ATOM     27  C   UNL A   1      32.558  27.521  26.512  1.00  0.00     0.037 C 
BRANCH  27  28
ATOM     28  C   UNL A   1      32.894  26.120  26.057  1.00  0.00    -0.048 A 
ATOM     29  C   UNL A   1      32.242  24.950  26.495  1.00  0.00     0.004 A 
ATOM     30  C   UNL A   1      33.997  25.960  25.245  1.00  0.00     0.004 A 
ATOM     31  C   UNL A   1      32.868  23.719  26.498  1.00  0.00     0.000 A 
ATOM     32  C   UNL A   1      34.484  24.680  25.005  1.00  0.00     0.000 A 
ATOM     33  C   UNL A   1      33.977  23.575  25.697  1.00  0.00     0.000 A 
ENDBRANCH  27  28
ENDBRANCH  26  27
ENDBRANCH  25  26
ENDBRANCH  23  25
ENDBRANCH  20  21
ENDBRANCH  18  20
ENDBRANCH  12  14
ENDBRANCH   5   7
ENDBRANCH   3   5
ENDBRANCH   2   3
ENDBRANCH   1   2
BRANCH   1  34
ATOM     34  C   UNL A   1      44.569  22.175  26.140  1.00  0.00     0.202 C 
BRANCH  34  35
ATOM     35  O   UNL A   1      45.943  22.160  25.820  1.00  0.00    -0.376 OA
BRANCH  35  36
ATOM     36  C   UNL A   1      46.397  23.329  25.189  1.00  0.00     0.188 C 
BRANCH  36  37
ATOM     37  C   UNL A   1      47.020  24.460  26.027  1.00  0.00     0.188 C 
BRANCH  37  38
ATOM     38  O   UNL A   1      48.139  24.501  26.884  1.00  0.00    -0.376 OA
BRANCH  38  39
ATOM     39  C   UNL A   1      49.224  25.288  26.400  1.00  0.00     0.202 C 
BRANCH  39  40
ATOM     40  C   UNL A   1      49.154  26.084  25.005  1.00  0.00     0.261 C 
BRANCH  40  41
ATOM     41  O   UNL A   1      48.692  27.493  24.857  1.00  0.00    -0.460 OA
BRANCH  41  42
ATOM     42  C   UNL A   1      47.354  27.735  24.580  1.00  0.00     0.338 C 
ATOM     43  O   UNL A   1      46.812  27.512  23.507  1.00  0.00    -0.246 OA
BRANCH  42  44
ATOM     44  C   UNL A   1      46.525  27.958  25.818  1.00  0.00     0.060 A 
ATOM     45  C   UNL A   1      45.101  27.883  25.864  1.00  0.00     0.016 A 
ATOM     46  C   UNL A   1      47.209  28.488  26.892  1.00  0.00     0.016 A 
ATOM     47  C   UNL A   1      44.384  28.442  26.916  1.00  0.00     0.010 A 
ATOM     48  C   UNL A   1      46.492  29.072  27.927  1.00  0.00     0.010 A 
ATOM     49  C   UNL A   1      45.090  29.089  27.918  1.00  0.00    -0.014 A 
BRANCH  49  50
ATOM     50  C   UNL A   1      44.375  29.761  28.989  1.00  0.00     0.031 A 
ATOM     51  C   UNL A   1      44.043  31.193  28.974  1.00  0.00     0.074 A 
ATOM     52  C   UNL A   1      44.171  29.060  30.103  1.00  0.00     0.049 A 
ATOM     53  N   UNL A   1      43.477  31.890  29.918  1.00  0.00    -0.248 NA
ATOM     54  C   UNL A   1      44.401  31.944  27.767  1.00  0.00     0.031 C 
ATOM     55  C   UNL A   1      44.692  27.189  30.373  1.00  0.00     0.029 A 
ATOM     56  N   UNL A   1      43.445  29.623  31.710  1.00  0.00    -0.354 N 
ATOM     57  C   UNL A   1      43.415  33.173  29.434  1.00  0.00     0.074 A 
ATOM     58  C   UNL A   1      44.036  33.168  28.121  1.00  0.00     0.031 C 
ATOM     59  C   UNL A   1      44.297  26.710  31.956  1.00  0.00     0.029 A 
ATOM     60  C   UNL A   1      43.367  28.168  32.897  1.00  0.00     0.049 A 
ATOM     61  H   UNL A   1      43.149  30.540  31.911  1.00  0.00     0.167 HD
ATOM     62  C   UNL A   1      42.872  34.245  30.043  1.00  0.00     0.037 A 
ATOM     63  C   UNL A   1      42.568  28.069  33.962  1.00  0.00     0.037 A 
ATOM     64  C   UNL A   1      42.305  34.248  31.365  1.00  0.00     0.049 A 
ATOM     65  C   UNL A   1      41.886  29.326  34.438  1.00  0.00     0.074 A 
ATOM     66  C   UNL A   1      41.740  35.330  32.010  1.00  0.00     0.029 A 
ATOM     67  N   UNL A   1      42.258  33.173  32.251  1.00  0.00    -0.354 N 
ATOM     68  N   UNL A   1      41.714  30.456  33.781  1.00  0.00    -0.248 NA
ATOM     69  C   UNL A   1      41.588  29.406  35.865  1.00  0.00     0.031 C 
ATOM     70  C   UNL A   1      41.429  34.941  33.306  1.00  0.00     0.029 A 
ATOM     71  C   UNL A   1      41.667  33.578  33.442  1.00  0.00     0.049 A 
ATOM     72  H   UNL A   1      42.593  32.266  32.062  1.00  0.00     0.167 HD
ATOM     73  C   UNL A   1      41.431  31.418  34.735  1.00  0.00     0.074 A 
ATOM     74  C   UNL A   1      41.291  30.693  35.993  1.00  0.00     0.031 C 
ATOM     75  C   UNL A   1      41.390  32.771  34.612  1.00  0.00     0.037 A 
BRANCH  62  76
ATOM     76  C   UNL A   1      42.920  35.523  29.278  1.00  0.00     0.057 A 
ATOM     77  C   UNL A   1      44.041  36.362  29.313  1.00  0.00     0.134 A 
ATOM     78  C   UNL A   1      41.823  35.922  28.507  1.00  0.00     0.134 A 
ATOM     79  F   UNL A   1      45.132  36.016  30.015  1.00  0.00    -0.206 F 
ATOM     80  C   UNL A   1      44.030  37.602  28.685  1.00  0.00     0.040 A 
ATOM     81  C   UNL A   1      41.835  37.120  27.804  1.00  0.00     0.040 A 
ATOM     82  F   UNL A   1      40.733  35.146  28.412  1.00  0.00    -0.206 F 
ATOM     83  C   UNL A   1      42.930  37.975  27.915  1.00  0.00     0.006 A 
ENDBRANCH  62  76
BRANCH  63  84
ATOM     84  C   UNL A   1      42.703  26.822  34.689  1.00  0.00     0.057 A 
ATOM     85  C   UNL A   1      41.593  26.011  34.806  1.00  0.00     0.134 A 
ATOM     86  C   UNL A   1      43.915  26.403  35.275  1.00  0.00     0.134 A 
ATOM     87  F   UNL A   1      40.442  26.350  34.207  1.00  0.00    -0.206 F 
ATOM     88  C   UNL A   1      41.655  24.856  35.564  1.00  0.00     0.040 A 
ATOM     89  C   UNL A   1      44.014  25.210  35.958  1.00  0.00     0.040 A 
ATOM     90  F   UNL A   1      45.042  27.125  35.183  1.00  0.00    -0.206 F 
ATOM     91  C   UNL A   1      42.867  24.451  36.134  1.00  0.00     0.006 A 
ENDBRANCH  63  84
BRANCH  75  92
ATOM     92  C   UNL A   1      40.819  33.492  35.795  1.00  0.00     0.057 A 
ATOM     93  C   UNL A   1      41.590  34.022  36.831  1.00  0.00     0.134 A 
ATOM     94  C   UNL A   1      39.423  33.598  35.890  1.00  0.00     0.134 A 
ATOM     95  F   UNL A   1      42.931  33.976  36.780  1.00  0.00    -0.206 F 
ATOM     96  C   UNL A   1      40.985  34.519  37.983  1.00  0.00     0.040 A 
ATOM     97  C   UNL A   1      38.812  34.176  36.993  1.00  0.00     0.040 A 
ATOM     98  F   UNL A   1      38.634  33.150  34.901  1.00  0.00    -0.206 F 
ATOM     99  C   UNL A   1      39.594  34.604  38.061  1.00  0.00     0.006 A 
ENDBRANCH  75  92
ENDBRANCH  49  50
ENDBRANCH  42  44
ENDBRANCH  41  42
ENDBRANCH  40  41
ENDBRANCH  39  40
ENDBRANCH  38  39
ENDBRANCH  37  38
ENDBRANCH  36  37
ENDBRANCH  35  36
ENDBRANCH  34  35
ENDBRANCH   1  34
TORSDOF 25
ENDMDL
MODEL 3
REMARK VINA RESULT:      -9.8      2.494      7.231
REMARK SMILES C[C@@H](C(=O)OCCOCCOCCOC(=O)c1ccc(-c2c3nc(c(-c4c(F)cccc4F)c4ccc([nH]4)c(-c4c(F)cccc4F)c4nc(c(-c5c(F)cccc5F)c5ccc2[nH]5)C=C4)C=C3)cc1)c1ccc(-c2cccc(OC(=O)NCCCc3ccccc3)c2)c(F)c1
REMARK SMILES IDX 6 1 5 2 3 3 4 4 2 5 1 6 71 7 72 8 96 9 73 10 94 11 74 12
REMARK SMILES IDX 95 13 75 14 76 15 93 16 77 17 79 18 78 19 80 20 81 21 82 22
REMARK SMILES IDX 83 23 84 25 85 26 86 27 87 28 88 29 92 30 89 31 91 32 90 33
REMARK SMILES IDX 7 34 8 35 9 36 10 37 11 38 12 39 13 40 14 41 15 42 16 43
REMARK SMILES IDX 17 44 18 45 70 46 19 47 69 48 20 49 21 50 22 51 63 52 23 53
REMARK SMILES IDX 68 54 62 55 64 56 24 57 67 58 61 59 60 60 25 62 51 63 34 64
REMARK SMILES IDX 50 65 35 66 38 67 49 68 65 69 36 70 37 71 48 73 66 74 39 75
REMARK SMILES IDX 26 76 27 77 32 78 28 79 29 80 31 81 33 82 30 83 52 84 53 85
REMARK SMILES IDX 58 86 54 87 55 88 57 89 59 90 56 91 40 92 41 93 46 94 42 95
REMARK SMILES IDX 43 96 45 97 47 98 44 99
REMARK H PARENT 83 24 64 61 38 72
REMARK Flexibility Score: inf
ROOT
ATOM      1  C   UNL A   1      35.254  30.176  28.053  1.00  0.00     0.261 C 
ENDROOT
BRANCH   1   2
ATOM      2  O   UNL A   1      34.674  29.554  26.835  1.00  0.00    -0.463 OA
BRANCH   2   3
ATOM      3  C   UNL A   1      33.318  29.647  26.623  1.00  0.00     0.313 C 
ATOM      4  O   UNL A   1      32.631  30.409  27.303  1.00  0.00    -0.252 OA
BRANCH   3   5
ATOM      5  C   UNL A   1      32.746  28.916  25.313  1.00  0.00     0.126 C 
ATOM      6  C   UNL A   1      31.300  29.171  24.849  1.00  0.00     0.025 C 
BRANCH   5   7
ATOM      7  C   UNL A   1      33.072  27.397  25.166  1.00  0.00    -0.031 A 
ATOM      8  C   UNL A   1      32.706  26.446  26.155  1.00  0.00     0.005 A 
ATOM      9  C   UNL A   1      33.659  26.888  24.009  1.00  0.00     0.044 A 
ATOM     10  C   UNL A   1      32.811  25.071  25.945  1.00  0.00     0.012 A 
ATOM     11  C   UNL A   1      33.714  25.522  23.787  1.00  0.00     0.131 A 
ATOM     12  C   UNL A   1      33.173  24.589  24.697  1.00  0.00     0.018 A 
ATOM     13  F   UNL A   1      34.392  25.124  22.694  1.00  0.00    -0.206 F 
BRANCH  12  14
ATOM     14  C   UNL A   1      33.335  23.157  24.523  1.00  0.00    -0.012 A 
ATOM     15  C   UNL A   1      32.436  22.112  24.414  1.00  0.00     0.009 A 
ATOM     16  C   UNL A   1      34.617  22.803  24.707  1.00  0.00     0.056 A 
ATOM     17  C   UNL A   1      32.901  20.768  24.500  1.00  0.00     0.004 A 
ATOM     18  C   UNL A   1      34.982  21.587  25.182  1.00  0.00     0.133 A 
ATOM     19  C   UNL A   1      34.222  20.474  24.912  1.00  0.00     0.047 A 
BRANCH  18  20
ATOM     20  O   UNL A   1      36.545  21.801  25.544  1.00  0.00    -0.410 OA
BRANCH  20  21
ATOM     21  C   UNL A   1      38.488  22.044  26.040  1.00  0.00     0.412 C 
ATOM     22  O   UNL A   1      39.428  21.177  25.925  1.00  0.00    -0.224 OA
ATOM     23  N   UNL A   1      39.149  23.090  26.720  1.00  0.00    -0.321 N 
ATOM     24  H   UNL A   1      39.859  22.787  27.331  1.00  0.00     0.167 HD
BRANCH  23  25
ATOM     25  C   UNL A   1      38.977  24.498  26.685  1.00  0.00     0.120 C 
BRANCH  25  26
ATOM     26  C   UNL A   1      40.056  25.229  27.452  1.00  0.00     0.026 C 
BRANCH  26  27
ATOM     27  C   UNL A   1      39.543  25.607  28.811  1.00  0.00     0.037 C 
BRANCH  27  28
ATOM     28  C   UNL A   1      39.645  27.094  29.055  1.00  0.00    -0.048 A 
ATOM     29  C   UNL A   1      38.705  27.863  29.769  1.00  0.00     0.004 A 
ATOM     30  C   UNL A   1      40.674  27.773  28.435  1.00  0.00     0.004 A 
ATOM     31  C   UNL A   1      38.533  29.213  29.537  1.00  0.00     0.000 A 
ATOM     32  C   UNL A   1      40.664  29.164  28.432  1.00  0.00     0.000 A 
ATOM     33  C   UNL A   1      39.557  29.877  28.902  1.00  0.00     0.000 A 
ENDBRANCH  27  28
ENDBRANCH  26  27
ENDBRANCH  25  26
ENDBRANCH  23  25
ENDBRANCH  20  21
ENDBRANCH  18  20
ENDBRANCH  12  14
ENDBRANCH   5   7
ENDBRANCH   3   5
ENDBRANCH   2   3
ENDBRANCH   1   2
BRANCH   1  34
ATOM     34  C   UNL A   1      35.961  31.587  27.957  1.00  0.00     0.202 C 
BRANCH  34  35
ATOM     35  O   UNL A   1      35.865  32.505  29.024  1.00  0.00    -0.376 OA
BRANCH  35  36
ATOM     36  C   UNL A   1      34.759  32.294  29.863  1.00  0.00     0.188 C 
BRANCH  36  37
ATOM     37  C   UNL A   1      34.934  32.349  31.391  1.00  0.00     0.188 C 
BRANCH  37  38
ATOM     38  O   UNL A   1      34.364  33.173  32.383  1.00  0.00    -0.376 OA
BRANCH  38  39
ATOM     39  C   UNL A   1      35.204  34.238  32.820  1.00  0.00     0.202 C 
BRANCH  39  40
ATOM     40  C   UNL A   1      36.665  33.982  33.440  1.00  0.00     0.261 C 
BRANCH  40  41
ATOM     41  O   UNL A   1      36.942  33.750  34.886  1.00  0.00    -0.460 OA
BRANCH  41  42
ATOM     42  C   UNL A   1      37.633  32.608  35.262  1.00  0.00     0.338 C 
ATOM     43  O   UNL A   1      37.298  31.854  36.163  1.00  0.00    -0.246 OA
BRANCH  42  44
ATOM     44  C   UNL A   1      38.642  32.163  34.235  1.00  0.00     0.060 A 
ATOM     45  C   UNL A   1      38.409  31.153  33.255  1.00  0.00     0.016 A 
ATOM     46  C   UNL A   1      39.926  32.624  34.438  1.00  0.00     0.016 A 
ATOM     47  C   UNL A   1      39.463  30.540  32.588  1.00  0.00     0.010 A 
ATOM     48  C   UNL A   1      40.981  31.991  33.794  1.00  0.00     0.010 A 
ATOM     49  C   UNL A   1      40.755  30.927  32.909  1.00  0.00    -0.014 A 
BRANCH  49  50
ATOM     50  C   UNL A   1      41.887  30.251  32.299  1.00  0.00     0.031 A 
ATOM     51  C   UNL A   1      42.490  29.024  32.839  1.00  0.00     0.074 A 
ATOM     52  C   UNL A   1      42.495  30.888  31.300  1.00  0.00     0.049 A 
ATOM     53  N   UNL A   1      43.547  28.397  32.404  1.00  0.00    -0.248 NA
ATOM     54  C   UNL A   1      41.849  28.431  34.016  1.00  0.00     0.031 C 
ATOM     55  C   UNL A   1      41.939  32.613  30.553  1.00  0.00     0.029 A 
ATOM     56  N   UNL A   1      44.041  30.417  30.396  1.00  0.00    -0.354 N 
ATOM     57  C   UNL A   1      43.716  27.336  33.258  1.00  0.00     0.074 A 
ATOM     58  C   UNL A   1      42.670  27.421  34.262  1.00  0.00     0.031 C 
ATOM     59  C   UNL A   1      43.028  33.086  29.336  1.00  0.00     0.029 A 
ATOM     60  C   UNL A   1      44.380  31.684  29.050  1.00  0.00     0.049 A 
ATOM     61  H   UNL A   1      44.597  29.628  30.591  1.00  0.00     0.167 HD
ATOM     62  C   UNL A   1      44.660  26.378  33.184  1.00  0.00     0.037 A 
ATOM     63  C   UNL A   1      45.132  31.489  27.965  1.00  0.00     0.037 A 
ATOM     64  C   UNL A   1      45.720  26.332  32.214  1.00  0.00     0.049 A 
ATOM     65  C   UNL A   1      46.026  30.275  27.947  1.00  0.00     0.074 A 
ATOM     66  C   UNL A   1      46.697  25.362  32.114  1.00  0.00     0.029 A 
ATOM     67  N   UNL A   1      45.981  27.278  31.223  1.00  0.00    -0.354 N 
ATOM     68  N   UNL A   1      45.955  29.203  28.712  1.00  0.00    -0.248 NA
ATOM     69  C   UNL A   1      47.256  30.382  27.169  1.00  0.00     0.031 C 
ATOM     70  C   UNL A   1      47.593  25.755  31.129  1.00  0.00     0.029 A 
ATOM     71  C   UNL A   1      47.112  26.902  30.508  1.00  0.00     0.049 A 
ATOM     72  H   UNL A   1      45.446  28.088  31.057  1.00  0.00     0.167 HD
ATOM     73  C   UNL A   1      47.189  28.584  28.621  1.00  0.00     0.074 A 
ATOM     74  C   UNL A   1      47.922  29.316  27.595  1.00  0.00     0.031 C 
ATOM     75  C   UNL A   1      47.708  27.578  29.375  1.00  0.00     0.037 A 
BRANCH  62  76
ATOM     76  C   UNL A   1      44.599  25.322  34.234  1.00  0.00     0.057 A 
ATOM     77  C   UNL A   1      45.078  25.543  35.532  1.00  0.00     0.134 A 
ATOM     78  C   UNL A   1      44.067  24.063  33.935  1.00  0.00     0.134 A 
ATOM     79  F   UNL A   1      45.575  26.741  35.882  1.00  0.00    -0.206 F 
ATOM     80  C   UNL A   1      45.117  24.517  36.468  1.00  0.00     0.040 A 
ATOM     81  C   UNL A   1      44.022  23.056  34.890  1.00  0.00     0.040 A 
ATOM     82  F   UNL A   1      43.568  23.801  32.717  1.00  0.00    -0.206 F 
ATOM     83  C   UNL A   1      44.573  23.273  36.151  1.00  0.00     0.006 A 
ENDBRANCH  62  76
BRANCH  63  84
ATOM     84  C   UNL A   1      45.203  32.636  27.081  1.00  0.00     0.057 A 
ATOM     85  C   UNL A   1      44.338  32.688  26.007  1.00  0.00     0.134 A 
ATOM     86  C   UNL A   1      46.111  33.698  27.272  1.00  0.00     0.134 A 
ATOM     87  F   UNL A   1      43.420  31.725  25.832  1.00  0.00    -0.206 F 
ATOM     88  C   UNL A   1      44.430  33.720  25.091  1.00  0.00     0.040 A 
ATOM     89  C   UNL A   1      46.153  34.777  26.417  1.00  0.00     0.040 A 
ATOM     90  F   UNL A   1      46.966  33.731  28.306  1.00  0.00    -0.206 F 
ATOM     91  C   UNL A   1      45.332  34.768  25.300  1.00  0.00     0.006 A 
ENDBRANCH  63  84
BRANCH  75  92
ATOM     92  C   UNL A   1      48.983  26.992  28.849  1.00  0.00     0.057 A 
ATOM     93  C   UNL A   1      50.255  27.413  29.242  1.00  0.00     0.134 A 
ATOM     94  C   UNL A   1      48.893  25.995  27.866  1.00  0.00     0.134 A 
ATOM     95  F   UNL A   1      50.403  28.344  30.199  1.00  0.00    -0.206 F 
ATOM     96  C   UNL A   1      51.391  26.951  28.582  1.00  0.00     0.040 A 
ATOM     97  C   UNL A   1      50.023  25.460  27.267  1.00  0.00     0.040 A 
ATOM     98  F   UNL A   1      47.698  25.517  27.485  1.00  0.00    -0.206 F 
ATOM     99  C   UNL A   1      51.277  25.966  27.599  1.00  0.00     0.006 A 
ENDBRANCH  75  92
ENDBRANCH  49  50
ENDBRANCH  42  44
ENDBRANCH  41  42
ENDBRANCH  40  41
ENDBRANCH  39  40
ENDBRANCH  38  39
ENDBRANCH  37  38
ENDBRANCH  36  37
ENDBRANCH  35  36
ENDBRANCH  34  35
ENDBRANCH   1  34
TORSDOF 25
ENDMDL
