MODEL 1
REMARK VINA RESULT:     -10.8      0.000      0.000
REMARK SMILES O=C(OCCOCCOCCOC(=O)c1sccc1S(=O)(=O)Nc1ccccc1N1CCCCC1)c1ccc(-c2c3nc(c(-c4c(F)cccc4F)c4ccc([nH]4)c(-c4c(F)cccc4F)c4nc(c(-c5c(F)cccc5F)c5ccc2[nH]5)C=C4)C=C3)cc1
REMARK SMILES IDX 8 1 7 2 6 3 5 4 4 5 3 6 2 7 1 8 36 9 37 10 89 11 38 12 88 13
REMARK SMILES IDX 39 14 40 15 41 16 82 17 42 18 87 19 81 20 83 21 43 22 86 23
REMARK SMILES IDX 80 24 79 25 44 27 70 28 53 29 69 30 54 31 57 32 68 33 84 34
REMARK SMILES IDX 55 35 56 36 67 38 85 39 58 40 45 41 46 42 51 43 47 44 48 45
REMARK SMILES IDX 50 46 52 47 49 48 71 49 72 50 77 51 73 52 74 53 76 54 78 55
REMARK SMILES IDX 75 56 59 57 60 58 65 59 61 60 62 61 64 62 66 63 63 64 9 65
REMARK SMILES IDX 10 66 11 67 12 68 13 69 14 70 15 71 16 72 19 73 17 74 18 75
REMARK SMILES IDX 20 76 21 77 22 78 23 79 24 81 25 82 29 83 26 84 28 85 27 86
REMARK SMILES IDX 30 87 31 88 35 89 32 90 34 91 33 92
REMARK H PARENT 83 26 57 37 23 80
REMARK Flexibility Score: inf
ROOT
ATOM      1  C   UNL A   1      32.788  28.870  25.667  1.00  0.00     0.188 C 
ENDROOT
BRANCH   1   2
ATOM      2  C   UNL A   1      31.636  29.622  24.996  1.00  0.00     0.188 C 
BRANCH   2   3
ATOM      3  O   UNL A   1      31.234  30.767  25.744  1.00  0.00    -0.376 OA
BRANCH   3   4
ATOM      4  C   UNL A   1      32.155  31.144  26.769  1.00  0.00     0.202 C 
BRANCH   4   5
ATOM      5  C   UNL A   1      32.057  32.618  27.173  1.00  0.00     0.261 C 
BRANCH   5   6
ATOM      6  O   UNL A   1      33.337  33.022  27.672  1.00  0.00    -0.460 OA
BRANCH   6   7
ATOM      7  C   UNL A   1      33.351  34.099  28.505  1.00  0.00     0.338 C 
ATOM      8  O   UNL A   1      32.598  35.042  28.511  1.00  0.00    -0.246 OA
BRANCH   7   9
ATOM      9  C   UNL A   1      34.494  33.872  29.416  1.00  0.00     0.060 A 
ATOM     10  C   UNL A   1      35.779  34.180  28.946  1.00  0.00     0.016 A 
ATOM     11  C   UNL A   1      34.313  33.336  30.689  1.00  0.00     0.016 A 
ATOM     12  C   UNL A   1      36.896  33.885  29.697  1.00  0.00     0.010 A 
ATOM     13  C   UNL A   1      35.443  33.032  31.453  1.00  0.00     0.010 A 
ATOM     14  C   UNL A   1      36.734  33.269  30.936  1.00  0.00    -0.014 A 
BRANCH  14  15
ATOM     15  C   UNL A   1      37.923  32.677  31.570  1.00  0.00     0.031 A 
ATOM     16  C   UNL A   1      38.510  31.456  30.943  1.00  0.00     0.074 A 
ATOM     17  C   UNL A   1      38.540  33.277  32.600  1.00  0.00     0.049 A 
ATOM     18  N   UNL A   1      39.480  30.696  31.365  1.00  0.00    -0.248 NA
ATOM     19  C   UNL A   1      37.958  31.071  29.632  1.00  0.00     0.031 C 
ATOM     20  C   UNL A   1      38.202  34.591  33.128  1.00  0.00     0.029 A 
ATOM     21  N   UNL A   1      39.559  32.848  33.405  1.00  0.00    -0.354 N 
ATOM     22  C   UNL A   1      39.677  29.761  30.362  1.00  0.00     0.074 A 
ATOM     23  C   UNL A   1      38.692  30.012  29.334  1.00  0.00     0.031 C 
ATOM     24  C   UNL A   1      38.897  34.809  34.253  1.00  0.00     0.029 A 
ATOM     25  C   UNL A   1      39.715  33.637  34.519  1.00  0.00     0.049 A 
ATOM     26  H   UNL A   1      40.119  32.063  33.208  1.00  0.00     0.167 HD
ATOM     27  C   UNL A   1      40.621  28.796  30.302  1.00  0.00     0.037 A 
ATOM     28  C   UNL A   1      40.389  33.400  35.655  1.00  0.00     0.037 A 
ATOM     29  C   UNL A   1      41.572  28.564  31.354  1.00  0.00     0.049 A 
ATOM     30  C   UNL A   1      41.257  32.183  35.702  1.00  0.00     0.074 A 
ATOM     31  C   UNL A   1      42.553  27.597  31.440  1.00  0.00     0.029 A 
ATOM     32  N   UNL A   1      41.639  29.316  32.521  1.00  0.00    -0.354 N 
ATOM     33  N   UNL A   1      41.421  31.264  34.780  1.00  0.00    -0.248 NA
ATOM     34  C   UNL A   1      42.064  31.983  36.910  1.00  0.00     0.031 C 
ATOM     35  C   UNL A   1      43.186  27.736  32.683  1.00  0.00     0.029 A 
ATOM     36  C   UNL A   1      42.624  28.815  33.353  1.00  0.00     0.049 A 
ATOM     37  H   UNL A   1      41.070  30.092  32.725  1.00  0.00     0.167 HD
ATOM     38  C   UNL A   1      42.394  30.408  35.263  1.00  0.00     0.074 A 
ATOM     39  C   UNL A   1      42.759  30.902  36.580  1.00  0.00     0.031 C 
ATOM     40  C   UNL A   1      42.958  29.335  34.657  1.00  0.00     0.037 A 
BRANCH  27  41
ATOM     41  C   UNL A   1      40.597  27.922  29.088  1.00  0.00     0.057 A 
ATOM     42  C   UNL A   1      41.358  28.218  27.948  1.00  0.00     0.134 A 
ATOM     43  C   UNL A   1      39.728  26.829  29.021  1.00  0.00     0.134 A 
ATOM     44  F   UNL A   1      42.183  29.276  27.935  1.00  0.00    -0.206 F 
ATOM     45  C   UNL A   1      41.226  27.477  26.772  1.00  0.00     0.040 A 
ATOM     46  C   UNL A   1      39.602  26.068  27.857  1.00  0.00     0.040 A 
ATOM     47  F   UNL A   1      38.961  26.503  30.073  1.00  0.00    -0.206 F 
ATOM     48  C   UNL A   1      40.343  26.399  26.724  1.00  0.00     0.006 A 
ENDBRANCH  27  41
BRANCH  28  49
ATOM     49  C   UNL A   1      40.203  34.308  36.810  1.00  0.00     0.057 A 
ATOM     50  C   UNL A   1      40.953  35.476  36.965  1.00  0.00     0.134 A 
ATOM     51  C   UNL A   1      39.198  34.054  37.757  1.00  0.00     0.134 A 
ATOM     52  F   UNL A   1      41.929  35.771  36.095  1.00  0.00    -0.206 F 
ATOM     53  C   UNL A   1      40.715  36.358  38.022  1.00  0.00     0.040 A 
ATOM     54  C   UNL A   1      38.941  34.934  38.810  1.00  0.00     0.040 A 
ATOM     55  F   UNL A   1      38.431  32.958  37.655  1.00  0.00    -0.206 F 
ATOM     56  C   UNL A   1      39.703  36.092  38.944  1.00  0.00     0.006 A 
ENDBRANCH  28  49
BRANCH  40  57
ATOM     57  C   UNL A   1      44.064  28.657  35.399  1.00  0.00     0.057 A 
ATOM     58  C   UNL A   1      45.399  29.043  35.246  1.00  0.00     0.134 A 
ATOM     59  C   UNL A   1      43.776  27.637  36.314  1.00  0.00     0.134 A 
ATOM     60  F   UNL A   1      45.733  30.001  34.369  1.00  0.00    -0.206 F 
ATOM     61  C   UNL A   1      46.417  28.427  35.973  1.00  0.00     0.040 A 
ATOM     62  C   UNL A   1      44.781  27.029  37.063  1.00  0.00     0.040 A 
ATOM     63  F   UNL A   1      42.512  27.229  36.503  1.00  0.00    -0.206 F 
ATOM     64  C   UNL A   1      46.107  27.424  36.891  1.00  0.00     0.006 A 
ENDBRANCH  40  57
ENDBRANCH  14  15
ENDBRANCH   7   9
ENDBRANCH   6   7
ENDBRANCH   5   6
ENDBRANCH   4   5
ENDBRANCH   3   4
ENDBRANCH   2   3
ENDBRANCH   1   2
BRANCH   1  65
ATOM     65  O   UNL A   1      33.700  28.181  24.822  1.00  0.00    -0.376 OA
BRANCH  65  66
ATOM     66  C   UNL A   1      34.213  28.797  23.651  1.00  0.00     0.202 C 
BRANCH  66  67
ATOM     67  C   UNL A   1      33.979  28.207  22.246  1.00  0.00     0.261 C 
BRANCH  67  68
ATOM     68  O   UNL A   1      34.095  26.785  22.076  1.00  0.00    -0.459 OA
BRANCH  68  69
ATOM     69  C   UNL A   1      32.945  26.188  21.657  1.00  0.00     0.349 C 
ATOM     70  O   UNL A   1      32.852  25.607  20.584  1.00  0.00    -0.245 OA
BRANCH  69  71
ATOM     71  C   UNL A   1      31.872  26.222  22.631  1.00  0.00     0.133 A 
ATOM     72  S   UNL A   1      30.621  27.393  22.294  1.00  0.00    -0.136 S 
ATOM     73  C   UNL A   1      31.560  25.501  23.772  1.00  0.00     0.113 A 
ATOM     74  C   UNL A   1      29.641  26.849  23.569  1.00  0.00     0.067 A 
ATOM     75  C   UNL A   1      30.261  25.861  24.294  1.00  0.00     0.035 A 
BRANCH  73  76
ATOM     76  S   UNL A   1      32.439  24.174  24.446  1.00  0.00     0.263 S 
ATOM     77  O   UNL A   1      33.342  24.814  25.389  1.00  0.00    -0.201 OA
ATOM     78  O   UNL A   1      31.393  23.318  24.971  1.00  0.00    -0.201 OA
BRANCH  76  79
ATOM     79  N   UNL A   1      33.427  23.209  23.504  1.00  0.00    -0.277 N 
ATOM     80  H   UNL A   1      33.230  23.165  22.540  1.00  0.00     0.180 HD
BRANCH  79  81
ATOM     81  C   UNL A   1      34.537  22.441  23.986  1.00  0.00     0.072 A 
ATOM     82  C   UNL A   1      35.807  22.982  23.718  1.00  0.00     0.029 A 
ATOM     83  C   UNL A   1      34.417  21.153  24.560  1.00  0.00     0.061 A 
ATOM     84  C   UNL A   1      36.967  22.296  24.067  1.00  0.00     0.002 A 
ATOM     85  C   UNL A   1      35.609  20.509  24.943  1.00  0.00     0.028 A 
ATOM     86  C   UNL A   1      36.866  21.065  24.696  1.00  0.00     0.002 A 
BRANCH  83  87
ATOM     87  N   UNL A   1      33.197  20.499  24.704  1.00  0.00    -0.370 N 
ATOM     88  C   UNL A   1      32.858  19.791  25.946  1.00  0.00     0.116 C 
ATOM     89  C   UNL A   1      32.510  20.053  23.487  1.00  0.00     0.116 C 
ATOM     90  C   UNL A   1      32.968  18.282  25.805  1.00  0.00     0.021 C 
ATOM     91  C   UNL A   1      32.662  18.539  23.332  1.00  0.00     0.021 C 
ATOM     92  C   UNL A   1      32.189  17.806  24.585  1.00  0.00     0.004 C 
ENDBRANCH  83  87
ENDBRANCH  79  81
ENDBRANCH  76  79
ENDBRANCH  73  76
ENDBRANCH  69  71
ENDBRANCH  68  69
ENDBRANCH  67  68
ENDBRANCH  66  67
ENDBRANCH  65  66
ENDBRANCH   1  65
TORSDOF 21
ENDMDL
MODEL 2
REMARK VINA RESULT:     -10.4      4.210      8.020
REMARK SMILES O=C(OCCOCCOCCOC(=O)c1sccc1S(=O)(=O)Nc1ccccc1N1CCCCC1)c1ccc(-c2c3nc(c(-c4c(F)cccc4F)c4ccc([nH]4)c(-c4c(F)cccc4F)c4nc(c(-c5c(F)cccc5F)c5ccc2[nH]5)C=C4)C=C3)cc1
REMARK SMILES IDX 8 1 7 2 6 3 5 4 4 5 3 6 2 7 1 8 36 9 37 10 89 11 38 12 88 13
REMARK SMILES IDX 39 14 40 15 41 16 82 17 42 18 87 19 81 20 83 21 43 22 86 23
REMARK SMILES IDX 80 24 79 25 44 27 70 28 53 29 69 30 54 31 57 32 68 33 84 34
REMARK SMILES IDX 55 35 56 36 67 38 85 39 58 40 45 41 46 42 51 43 47 44 48 45
REMARK SMILES IDX 50 46 52 47 49 48 71 49 72 50 77 51 73 52 74 53 76 54 78 55
REMARK SMILES IDX 75 56 59 57 60 58 65 59 61 60 62 61 64 62 66 63 63 64 9 65
REMARK SMILES IDX 10 66 11 67 12 68 13 69 14 70 15 71 16 72 19 73 17 74 18 75
REMARK SMILES IDX 20 76 21 77 22 78 23 79 24 81 25 82 29 83 26 84 28 85 27 86
REMARK SMILES IDX 30 87 31 88 35 89 32 90 34 91 33 92
REMARK H PARENT 83 26 57 37 23 80
REMARK Flexibility Score: inf
ROOT
ATOM      1  C   UNL A   1      33.683  30.072  27.138  1.00  0.00     0.188 C 
ENDROOT
BRANCH   1   2
ATOM      2  C   UNL A   1      33.383  31.510  27.570  1.00  0.00     0.188 C 
BRANCH   2   3
ATOM      3  O   UNL A   1      34.518  32.141  28.159  1.00  0.00    -0.376 OA
BRANCH   3   4
ATOM      4  C   UNL A   1      34.193  33.218  29.040  1.00  0.00     0.202 C 
BRANCH   4   5
ATOM      5  C   UNL A   1      34.578  32.958  30.500  1.00  0.00     0.261 C 
BRANCH   5   6
ATOM      6  O   UNL A   1      35.857  33.558  30.730  1.00  0.00    -0.460 OA
BRANCH   6   7
ATOM      7  C   UNL A   1      36.578  33.069  31.776  1.00  0.00     0.338 C 
ATOM      8  O   UNL A   1      36.455  33.330  32.947  1.00  0.00    -0.246 OA
BRANCH   7   9
ATOM      9  C   UNL A   1      37.556  32.137  31.174  1.00  0.00     0.060 A 
ATOM     10  C   UNL A   1      38.509  31.549  32.020  1.00  0.00     0.016 A 
ATOM     11  C   UNL A   1      37.563  31.874  29.806  1.00  0.00     0.016 A 
ATOM     12  C   UNL A   1      39.520  30.765  31.508  1.00  0.00     0.010 A 
ATOM     13  C   UNL A   1      38.588  31.082  29.282  1.00  0.00     0.010 A 
ATOM     14  C   UNL A   1      39.588  30.564  30.132  1.00  0.00    -0.014 A 
BRANCH  14  15
ATOM     15  C   UNL A   1      40.834  30.005  29.580  1.00  0.00     0.031 A 
ATOM     16  C   UNL A   1      41.972  30.942  29.346  1.00  0.00     0.074 A 
ATOM     17  C   UNL A   1      40.992  28.684  29.408  1.00  0.00     0.049 A 
ATOM     18  N   UNL A   1      43.123  30.717  28.777  1.00  0.00    -0.248 NA
ATOM     19  C   UNL A   1      41.808  32.307  29.875  1.00  0.00     0.031 C 
ATOM     20  C   UNL A   1      40.045  27.663  29.834  1.00  0.00     0.029 A 
ATOM     21  N   UNL A   1      41.994  27.974  28.804  1.00  0.00    -0.354 N 
ATOM     22  C   UNL A   1      43.833  31.900  28.904  1.00  0.00     0.074 A 
ATOM     23  C   UNL A   1      42.967  32.858  29.555  1.00  0.00     0.031 C 
ATOM     24  C   UNL A   1      40.432  26.472  29.359  1.00  0.00     0.029 A 
ATOM     25  C   UNL A   1      41.649  26.662  28.587  1.00  0.00     0.049 A 
ATOM     26  H   UNL A   1      42.864  28.360  28.553  1.00  0.00     0.167 HD
ATOM     27  C   UNL A   1      45.107  32.146  28.531  1.00  0.00     0.037 A 
ATOM     28  C   UNL A   1      42.220  25.741  27.795  1.00  0.00     0.037 A 
ATOM     29  C   UNL A   1      45.931  31.173  27.868  1.00  0.00     0.049 A 
ATOM     30  C   UNL A   1      43.528  26.091  27.159  1.00  0.00     0.074 A 
ATOM     31  C   UNL A   1      47.223  31.303  27.400  1.00  0.00     0.029 A 
ATOM     32  N   UNL A   1      45.519  29.880  27.568  1.00  0.00    -0.354 N 
ATOM     33  N   UNL A   1      44.191  27.221  27.232  1.00  0.00    -0.248 NA
ATOM     34  C   UNL A   1      44.191  25.046  26.374  1.00  0.00     0.031 C 
ATOM     35  C   UNL A   1      47.576  30.100  26.774  1.00  0.00     0.029 A 
ATOM     36  C   UNL A   1      46.518  29.208  26.888  1.00  0.00     0.049 A 
ATOM     37  H   UNL A   1      44.644  29.498  27.805  1.00  0.00     0.167 HD
ATOM     38  C   UNL A   1      45.379  27.009  26.557  1.00  0.00     0.074 A 
ATOM     39  C   UNL A   1      45.329  25.648  26.051  1.00  0.00     0.031 C 
ATOM     40  C   UNL A   1      46.430  27.852  26.402  1.00  0.00     0.037 A 
BRANCH  27  41
ATOM     41  C   UNL A   1      45.618  33.527  28.793  1.00  0.00     0.057 A 
ATOM     42  C   UNL A   1      45.492  34.556  27.848  1.00  0.00     0.134 A 
ATOM     43  C   UNL A   1      46.334  33.806  29.962  1.00  0.00     0.134 A 
ATOM     44  F   UNL A   1      44.849  34.341  26.690  1.00  0.00    -0.206 F 
ATOM     45  C   UNL A   1      46.092  35.801  28.043  1.00  0.00     0.040 A 
ATOM     46  C   UNL A   1      46.922  35.054  30.176  1.00  0.00     0.040 A 
ATOM     47  F   UNL A   1      46.505  32.860  30.898  1.00  0.00    -0.206 F 
ATOM     48  C   UNL A   1      46.812  36.052  29.209  1.00  0.00     0.006 A 
ENDBRANCH  27  41
BRANCH  28  49
ATOM     49  C   UNL A   1      41.514  24.462  27.546  1.00  0.00     0.057 A 
ATOM     50  C   UNL A   1      41.866  23.280  28.200  1.00  0.00     0.134 A 
ATOM     51  C   UNL A   1      40.404  24.421  26.687  1.00  0.00     0.134 A 
ATOM     52  F   UNL A   1      42.918  23.255  29.030  1.00  0.00    -0.206 F 
ATOM     53  C   UNL A   1      41.143  22.100  28.008  1.00  0.00     0.040 A 
ATOM     54  C   UNL A   1      39.666  23.252  26.497  1.00  0.00     0.040 A 
ATOM     55  F   UNL A   1      40.005  25.527  26.042  1.00  0.00    -0.206 F 
ATOM     56  C   UNL A   1      40.037  22.085  27.160  1.00  0.00     0.006 A 
ENDBRANCH  28  49
BRANCH  40  57
ATOM     57  C   UNL A   1      47.626  27.300  25.697  1.00  0.00     0.057 A 
ATOM     58  C   UNL A   1      47.781  27.410  24.312  1.00  0.00     0.134 A 
ATOM     59  C   UNL A   1      48.656  26.694  26.428  1.00  0.00     0.134 A 
ATOM     60  F   UNL A   1      46.817  27.964  23.562  1.00  0.00    -0.206 F 
ATOM     61  C   UNL A   1      48.921  26.924  23.672  1.00  0.00     0.040 A 
ATOM     62  C   UNL A   1      49.809  26.224  25.803  1.00  0.00     0.040 A 
ATOM     63  F   UNL A   1      48.561  26.565  27.760  1.00  0.00    -0.206 F 
ATOM     64  C   UNL A   1      49.942  26.338  24.420  1.00  0.00     0.006 A 
ENDBRANCH  40  57
ENDBRANCH  14  15
ENDBRANCH   7   9
ENDBRANCH   6   7
ENDBRANCH   5   6
ENDBRANCH   4   5
ENDBRANCH   3   4
ENDBRANCH   2   3
ENDBRANCH   1   2
BRANCH   1  65
ATOM     65  O   UNL A   1      32.684  29.392  26.391  1.00  0.00    -0.376 OA
BRANCH  65  66
ATOM     66  C   UNL A   1      31.816  28.460  27.017  1.00  0.00     0.202 C 
BRANCH  66  67
ATOM     67  C   UNL A   1      31.981  26.938  26.837  1.00  0.00     0.261 C 
BRANCH  67  68
ATOM     68  O   UNL A   1      30.800  26.140  26.657  1.00  0.00    -0.459 OA
BRANCH  68  69
ATOM     69  C   UNL A   1      30.880  25.272  25.610  1.00  0.00     0.349 C 
ATOM     70  O   UNL A   1      30.787  24.060  25.746  1.00  0.00    -0.245 OA
BRANCH  69  71
ATOM     71  C   UNL A   1      30.993  25.916  24.316  1.00  0.00     0.133 A 
ATOM     72  S   UNL A   1      29.672  26.990  23.921  1.00  0.00    -0.136 S 
ATOM     73  C   UNL A   1      31.940  25.927  23.304  1.00  0.00     0.113 A 
ATOM     74  C   UNL A   1      30.425  27.540  22.501  1.00  0.00     0.067 A 
ATOM     75  C   UNL A   1      31.607  26.882  22.271  1.00  0.00     0.035 A 
BRANCH  73  76
ATOM     76  S   UNL A   1      33.459  25.105  23.284  1.00  0.00     0.263 S 
ATOM     77  O   UNL A   1      34.022  25.472  21.994  1.00  0.00    -0.201 OA
ATOM     78  O   UNL A   1      34.114  25.592  24.482  1.00  0.00    -0.201 OA
BRANCH  76  79
ATOM     79  N   UNL A   1      33.553  23.436  23.325  1.00  0.00    -0.277 N 
ATOM     80  H   UNL A   1      32.806  22.931  22.930  1.00  0.00     0.180 HD
BRANCH  79  81
ATOM     81  C   UNL A   1      34.633  22.682  23.889  1.00  0.00     0.072 A 
ATOM     82  C   UNL A   1      35.921  23.186  23.632  1.00  0.00     0.029 A 
ATOM     83  C   UNL A   1      34.473  21.432  24.534  1.00  0.00     0.061 A 
ATOM     84  C   UNL A   1      37.057  22.504  24.061  1.00  0.00     0.002 A 
ATOM     85  C   UNL A   1      35.639  20.794  24.994  1.00  0.00     0.028 A 
ATOM     86  C   UNL A   1      36.913  21.314  24.757  1.00  0.00     0.002 A 
BRANCH  83  87
ATOM     87  N   UNL A   1      33.237  20.807  24.675  1.00  0.00    -0.370 N 
ATOM     88  C   UNL A   1      32.899  20.063  25.896  1.00  0.00     0.116 C 
ATOM     89  C   UNL A   1      32.518  20.425  23.454  1.00  0.00     0.116 C 
ATOM     90  C   UNL A   1      32.964  18.558  25.698  1.00  0.00     0.021 C 
ATOM     91  C   UNL A   1      32.625  18.915  23.242  1.00  0.00     0.021 C 
ATOM     92  C   UNL A   1      32.152  18.149  24.475  1.00  0.00     0.004 C 
ENDBRANCH  83  87
ENDBRANCH  79  81
ENDBRANCH  76  79
ENDBRANCH  73  76
ENDBRANCH  69  71
ENDBRANCH  68  69
ENDBRANCH  67  68
ENDBRANCH  66  67
ENDBRANCH  65  66
ENDBRANCH   1  65
TORSDOF 21
ENDMDL
MODEL 3
REMARK VINA RESULT:     -10.2      2.986      8.653
REMARK SMILES O=C(OCCOCCOCCOC(=O)c1sccc1S(=O)(=O)Nc1ccccc1N1CCCCC1)c1ccc(-c2c3nc(c(-c4c(F)cccc4F)c4ccc([nH]4)c(-c4c(F)cccc4F)c4nc(c(-c5c(F)cccc5F)c5ccc2[nH]5)C=C4)C=C3)cc1
REMARK SMILES IDX 8 1 7 2 6 3 5 4 4 5 3 6 2 7 1 8 36 9 37 10 89 11 38 12 88 13
REMARK SMILES IDX 39 14 40 15 41 16 82 17 42 18 87 19 81 20 83 21 43 22 86 23
REMARK SMILES IDX 80 24 79 25 44 27 70 28 53 29 69 30 54 31 57 32 68 33 84 34
REMARK SMILES IDX 55 35 56 36 67 38 85 39 58 40 45 41 46 42 51 43 47 44 48 45
REMARK SMILES IDX 50 46 52 47 49 48 71 49 72 50 77 51 73 52 74 53 76 54 78 55
REMARK SMILES IDX 75 56 59 57 60 58 65 59 61 60 62 61 64 62 66 63 63 64 9 65
REMARK SMILES IDX 10 66 11 67 12 68 13 69 14 70 15 71 16 72 19 73 17 74 18 75
REMARK SMILES IDX 20 76 21 77 22 78 23 79 24 81 25 82 29 83 26 84 28 85 27 86
REMARK SMILES IDX 30 87 31 88 35 89 32 90 34 91 33 92
REMARK H PARENT 83 26 57 37 23 80
REMARK Flexibility Score: inf
ROOT
ATOM      1  C   UNL A   1      39.787  21.465  26.061  1.00  0.00     0.188 C 
ENDROOT
BRANCH   1   2
ATOM      2  C   UNL A   1      40.449  21.599  27.435  1.00  0.00     0.188 C 
BRANCH   2   3
ATOM      3  O   UNL A   1      41.870  21.537  27.354  1.00  0.00    -0.376 OA
BRANCH   3   4
ATOM      4  C   UNL A   1      42.359  20.924  26.159  1.00  0.00     0.202 C 
BRANCH   4   5
ATOM      5  C   UNL A   1      43.431  21.746  25.438  1.00  0.00     0.261 C 
BRANCH   5   6
ATOM      6  O   UNL A   1      43.819  22.817  26.305  1.00  0.00    -0.460 OA
BRANCH   6   7
ATOM      7  C   UNL A   1      43.747  24.074  25.787  1.00  0.00     0.338 C 
ATOM      8  O   UNL A   1      43.779  24.400  24.626  1.00  0.00    -0.246 OA
BRANCH   7   9
ATOM      9  C   UNL A   1      43.616  24.971  26.956  1.00  0.00     0.060 A 
ATOM     10  C   UNL A   1      42.873  24.513  28.055  1.00  0.00     0.016 A 
ATOM     11  C   UNL A   1      44.177  26.246  26.959  1.00  0.00     0.016 A 
ATOM     12  C   UNL A   1      42.614  25.341  29.126  1.00  0.00     0.010 A 
ATOM     13  C   UNL A   1      43.914  27.089  28.042  1.00  0.00     0.010 A 
ATOM     14  C   UNL A   1      43.097  26.646  29.103  1.00  0.00    -0.014 A 
BRANCH  14  15
ATOM     15  C   UNL A   1      42.549  27.599  30.084  1.00  0.00     0.031 A 
ATOM     16  C   UNL A   1      43.183  27.646  31.435  1.00  0.00     0.074 A 
ATOM     17  C   UNL A   1      41.600  28.484  29.746  1.00  0.00     0.049 A 
ATOM     18  N   UNL A   1      42.821  28.314  32.494  1.00  0.00    -0.248 NA
ATOM     19  C   UNL A   1      44.426  26.871  31.596  1.00  0.00     0.031 C 
ATOM     20  C   UNL A   1      41.090  28.693  28.398  1.00  0.00     0.029 A 
ATOM     21  N   UNL A   1      40.873  29.354  30.513  1.00  0.00    -0.354 N 
ATOM     22  C   UNL A   1      43.804  28.066  33.438  1.00  0.00     0.074 A 
ATOM     23  C   UNL A   1      44.750  27.144  32.849  1.00  0.00     0.031 C 
ATOM     24  C   UNL A   1      40.039  29.523  28.444  1.00  0.00     0.029 A 
ATOM     25  C   UNL A   1      39.806  29.887  29.832  1.00  0.00     0.049 A 
ATOM     26  H   UNL A   1      41.091  29.573  31.447  1.00  0.00     0.167 HD
ATOM     27  C   UNL A   1      43.913  28.591  34.678  1.00  0.00     0.037 A 
ATOM     28  C   UNL A   1      38.725  30.536  30.295  1.00  0.00     0.037 A 
ATOM     29  C   UNL A   1      42.942  29.490  35.237  1.00  0.00     0.049 A 
ATOM     30  C   UNL A   1      38.712  30.909  31.743  1.00  0.00     0.074 A 
ATOM     31  C   UNL A   1      42.908  30.063  36.492  1.00  0.00     0.029 A 
ATOM     32  N   UNL A   1      41.812  29.933  34.558  1.00  0.00    -0.354 N 
ATOM     33  N   UNL A   1      39.613  30.644  32.660  1.00  0.00    -0.248 NA
ATOM     34  C   UNL A   1      37.575  31.702  32.219  1.00  0.00     0.031 C 
ATOM     35  C   UNL A   1      41.732  30.818  36.589  1.00  0.00     0.029 A 
ATOM     36  C   UNL A   1      41.053  30.746  35.380  1.00  0.00     0.049 A 
ATOM     37  H   UNL A   1      41.586  29.703  33.629  1.00  0.00     0.167 HD
ATOM     38  C   UNL A   1      39.188  31.286  33.809  1.00  0.00     0.074 A 
ATOM     39  C   UNL A   1      37.926  31.927  33.479  1.00  0.00     0.031 C 
ATOM     40  C   UNL A   1      39.803  31.368  35.014  1.00  0.00     0.037 A 
BRANCH  27  41
ATOM     41  C   UNL A   1      45.089  28.140  35.485  1.00  0.00     0.057 A 
ATOM     42  C   UNL A   1      46.323  28.804  35.432  1.00  0.00     0.134 A 
ATOM     43  C   UNL A   1      45.016  26.970  36.248  1.00  0.00     0.134 A 
ATOM     44  F   UNL A   1      46.469  29.911  34.688  1.00  0.00    -0.206 F 
ATOM     45  C   UNL A   1      47.451  28.297  36.080  1.00  0.00     0.040 A 
ATOM     46  C   UNL A   1      46.132  26.465  36.917  1.00  0.00     0.040 A 
ATOM     47  F   UNL A   1      43.868  26.279  36.327  1.00  0.00    -0.206 F 
ATOM     48  C   UNL A   1      47.358  27.122  36.823  1.00  0.00     0.006 A 
ENDBRANCH  27  41
BRANCH  28  49
ATOM     49  C   UNL A   1      37.592  30.799  29.379  1.00  0.00     0.057 A 
ATOM     50  C   UNL A   1      36.635  29.826  29.083  1.00  0.00     0.134 A 
ATOM     51  C   UNL A   1      37.403  32.079  28.834  1.00  0.00     0.134 A 
ATOM     52  F   UNL A   1      36.762  28.584  29.570  1.00  0.00    -0.206 F 
ATOM     53  C   UNL A   1      35.532  30.113  28.274  1.00  0.00     0.040 A 
ATOM     54  C   UNL A   1      36.300  32.382  28.035  1.00  0.00     0.040 A 
ATOM     55  F   UNL A   1      38.277  33.062  29.095  1.00  0.00    -0.206 F 
ATOM     56  C   UNL A   1      35.359  31.395  27.753  1.00  0.00     0.006 A 
ENDBRANCH  28  49
BRANCH  40  57
ATOM     57  C   UNL A   1      39.138  32.222  36.044  1.00  0.00     0.057 A 
ATOM     58  C   UNL A   1      38.178  31.707  36.920  1.00  0.00     0.134 A 
ATOM     59  C   UNL A   1      39.503  33.567  36.185  1.00  0.00     0.134 A 
ATOM     60  F   UNL A   1      37.777  30.431  36.816  1.00  0.00    -0.206 F 
ATOM     61  C   UNL A   1      37.594  32.507  37.901  1.00  0.00     0.040 A 
ATOM     62  C   UNL A   1      38.942  34.370  37.175  1.00  0.00     0.040 A 
ATOM     63  F   UNL A   1      40.421  34.112  35.372  1.00  0.00    -0.206 F 
ATOM     64  C   UNL A   1      37.983  33.839  38.036  1.00  0.00     0.006 A 
ENDBRANCH  40  57
ENDBRANCH  14  15
ENDBRANCH   7   9
ENDBRANCH   6   7
ENDBRANCH   5   6
ENDBRANCH   4   5
ENDBRANCH   3   4
ENDBRANCH   2   3
ENDBRANCH   1   2
BRANCH   1  65
ATOM     65  O   UNL A   1      38.481  22.005  25.908  1.00  0.00    -0.376 OA
BRANCH  65  66
ATOM     66  C   UNL A   1      38.234  23.384  26.132  1.00  0.00     0.202 C 
BRANCH  66  67
ATOM     67  C   UNL A   1      36.833  24.004  25.960  1.00  0.00     0.261 C 
BRANCH  67  68
ATOM     68  O   UNL A   1      35.704  23.298  26.500  1.00  0.00    -0.459 OA
BRANCH  68  69
ATOM     69  C   UNL A   1      34.530  23.580  25.871  1.00  0.00     0.349 C 
ATOM     70  O   UNL A   1      34.205  24.716  25.549  1.00  0.00    -0.245 OA
BRANCH  69  71
ATOM     71  C   UNL A   1      33.743  22.410  25.534  1.00  0.00     0.133 A 
ATOM     72  S   UNL A   1      34.682  21.014  25.061  1.00  0.00    -0.136 S 
ATOM     73  C   UNL A   1      32.393  22.099  25.541  1.00  0.00     0.113 A 
ATOM     74  C   UNL A   1      33.319  20.004  24.999  1.00  0.00     0.067 A 
ATOM     75  C   UNL A   1      32.163  20.703  25.247  1.00  0.00     0.035 A 
BRANCH  73  76
ATOM     76  S   UNL A   1      31.087  23.119  26.031  1.00  0.00     0.263 S 
ATOM     77  O   UNL A   1      29.962  22.203  26.127  1.00  0.00    -0.201 OA
ATOM     78  O   UNL A   1      31.582  23.727  27.251  1.00  0.00    -0.201 OA
BRANCH  76  79
ATOM     79  N   UNL A   1      30.535  24.363  25.061  1.00  0.00    -0.277 N 
ATOM     80  H   UNL A   1      29.619  24.689  25.219  1.00  0.00     0.180 HD
BRANCH  79  81
ATOM     81  C   UNL A   1      31.287  24.995  24.017  1.00  0.00     0.072 A 
ATOM     82  C   UNL A   1      31.855  24.124  23.069  1.00  0.00     0.029 A 
ATOM     83  C   UNL A   1      31.591  26.378  23.986  1.00  0.00     0.061 A 
ATOM     84  C   UNL A   1      32.669  24.607  22.049  1.00  0.00     0.002 A 
ATOM     85  C   UNL A   1      32.379  26.837  22.915  1.00  0.00     0.028 A 
ATOM     86  C   UNL A   1      32.918  25.968  21.963  1.00  0.00     0.002 A 
BRANCH  83  87
ATOM     87  N   UNL A   1      31.191  27.262  24.984  1.00  0.00    -0.370 N 
ATOM     88  C   UNL A   1      30.656  28.589  24.650  1.00  0.00     0.116 C 
ATOM     89  C   UNL A   1      31.791  27.112  26.314  1.00  0.00     0.116 C 
ATOM     90  C   UNL A   1      31.661  29.701  24.901  1.00  0.00     0.021 C 
ATOM     91  C   UNL A   1      32.830  28.211  26.540  1.00  0.00     0.021 C 
ATOM     92  C   UNL A   1      32.228  29.595  26.312  1.00  0.00     0.004 C 
ENDBRANCH  83  87
ENDBRANCH  79  81
ENDBRANCH  76  79
ENDBRANCH  73  76
ENDBRANCH  69  71
ENDBRANCH  68  69
ENDBRANCH  67  68
ENDBRANCH  66  67
ENDBRANCH  65  66
ENDBRANCH   1  65
TORSDOF 21
ENDMDL
