MODEL 1
REMARK VINA RESULT:     -10.2      0.000      0.000
REMARK SMILES Cc1cnc(N2CCO[C@H](CC(=O)OCCOCCOCCOC(=O)c3ccc(-c4c5nc(c(-c6c(F)cccc6F)c6ccc([nH]6)c(-c6c(F)cccc6F)c6nc(c(-c7c(F)cccc7F)c7ccc4[nH]7)C=C6)C=C5)cc3)C2)c([N+](=O)[O-])c1
REMARK SMILES IDX 18 1 17 2 16 3 15 4 14 5 12 6 13 7 11 8 10 9 6 10 7 11 80 12
REMARK SMILES IDX 8 13 9 14 5 15 1 16 2 17 3 18 85 19 4 20 81 21 82 22 83 23
REMARK SMILES IDX 84 24 19 25 20 26 21 27 22 28 23 29 24 30 25 31 26 32 27 33
REMARK SMILES IDX 79 34 28 35 78 36 29 37 30 38 31 39 72 40 32 41 77 42 71 43
REMARK SMILES IDX 73 44 33 45 76 46 70 47 69 48 34 50 60 51 43 52 59 53 44 54
REMARK SMILES IDX 47 55 58 56 74 57 45 58 46 59 57 61 75 62 48 63 35 64 36 65
REMARK SMILES IDX 41 66 37 67 38 68 40 69 42 70 39 71 61 72 62 73 67 74 63 75
REMARK SMILES IDX 64 76 66 77 68 78 65 79 49 80 50 81 55 82 51 83 52 84 54 85
REMARK SMILES IDX 56 86 53 87
REMARK H PARENT 73 49 47 60
REMARK Flexibility Score: inf
ROOT
ATOM      1  C   UNL A   1      32.006  28.483  27.636  1.00  0.00     0.188 C 
ENDROOT
BRANCH   1   2
ATOM      2  O   UNL A   1      30.971  27.580  27.257  1.00  0.00    -0.376 OA
BRANCH   2   3
ATOM      3  C   UNL A   1      31.376  26.380  26.585  1.00  0.00     0.202 C 
BRANCH   3   4
ATOM      4  C   UNL A   1      30.347  25.238  26.504  1.00  0.00     0.261 C 
BRANCH   4   5
ATOM      5  O   UNL A   1      30.856  23.962  26.963  1.00  0.00    -0.463 OA
BRANCH   5   6
ATOM      6  C   UNL A   1      30.889  22.985  26.026  1.00  0.00     0.308 C 
ATOM      7  O   UNL A   1      30.343  21.893  26.158  1.00  0.00    -0.252 OA
BRANCH   6   8
ATOM      8  C   UNL A   1      31.429  23.412  24.685  1.00  0.00     0.156 C 
BRANCH   8   9
ATOM      9  C   UNL A   1      32.934  23.541  24.405  1.00  0.00     0.148 C 
ATOM     10  N   UNL A   1      32.537  25.502  23.040  1.00  0.00    -0.346 N 
ATOM     11  C   UNL A   1      32.989  24.853  21.810  1.00  0.00     0.147 C 
ATOM     12  C   UNL A   1      33.269  25.056  24.227  1.00  0.00     0.151 C 
ATOM     13  C   UNL A   1      32.865  23.323  21.978  1.00  0.00     0.182 C 
ATOM     14  O   UNL A   1      33.373  22.815  23.231  1.00  0.00    -0.374 OA
BRANCH  10  15
ATOM     15  C   UNL A   1      31.792  26.651  23.038  1.00  0.00     0.208 A 
ATOM     16  C   UNL A   1      29.228  30.104  22.898  1.00  0.00     0.046 C 
ATOM     17  C   UNL A   1      30.143  28.922  22.935  1.00  0.00    -0.026 A 
ATOM     18  C   UNL A   1      29.662  27.624  23.048  1.00  0.00     0.117 A 
ATOM     19  C   UNL A   1      31.520  29.075  22.862  1.00  0.00     0.094 A 
ATOM     20  N   UNL A   1      30.444  26.508  23.077  1.00  0.00    -0.233 NA
ATOM     21  C   UNL A   1      32.333  27.935  22.926  1.00  0.00     0.311 A 
BRANCH  21  22
ATOM     22  N   UNL A   1      33.746  28.143  22.722  1.00  0.00     0.066 N 
ATOM     23  O   UNL A   1      34.192  28.032  21.572  1.00  0.00    -0.258 OA
ATOM     24  O   UNL A   1      34.429  28.349  23.735  1.00  0.00    -0.258 OA
ENDBRANCH  21  22
ENDBRANCH  10  15
ENDBRANCH   8   9
ENDBRANCH   6   8
ENDBRANCH   5   6
ENDBRANCH   4   5
ENDBRANCH   3   4
ENDBRANCH   2   3
ENDBRANCH   1   2
BRANCH   1  25
ATOM     25  C   UNL A   1      32.953  28.922  26.514  1.00  0.00     0.188 C 
BRANCH  25  26
ATOM     26  O   UNL A   1      32.778  30.261  26.107  1.00  0.00    -0.376 OA
BRANCH  26  27
ATOM     27  C   UNL A   1      31.576  30.965  26.395  1.00  0.00     0.202 C 
BRANCH  27  28
ATOM     28  C   UNL A   1      31.605  32.420  26.922  1.00  0.00     0.261 C 
BRANCH  28  29
ATOM     29  O   UNL A   1      32.841  33.150  26.807  1.00  0.00    -0.460 OA
BRANCH  29  30
ATOM     30  C   UNL A   1      33.289  33.789  27.917  1.00  0.00     0.338 C 
ATOM     31  O   UNL A   1      32.683  34.602  28.575  1.00  0.00    -0.246 OA
BRANCH  30  32
ATOM     32  C   UNL A   1      34.538  33.101  28.367  1.00  0.00     0.060 A 
ATOM     33  C   UNL A   1      34.452  31.731  28.661  1.00  0.00     0.016 A 
ATOM     34  C   UNL A   1      35.778  33.742  28.416  1.00  0.00     0.016 A 
ATOM     35  C   UNL A   1      35.590  31.015  29.044  1.00  0.00     0.010 A 
ATOM     36  C   UNL A   1      36.916  33.028  28.822  1.00  0.00     0.010 A 
ATOM     37  C   UNL A   1      36.823  31.667  29.172  1.00  0.00    -0.014 A 
BRANCH  37  38
ATOM     38  C   UNL A   1      37.956  30.978  29.850  1.00  0.00     0.031 A 
ATOM     39  C   UNL A   1      38.213  31.282  31.304  1.00  0.00     0.074 A 
ATOM     40  C   UNL A   1      38.729  30.076  29.216  1.00  0.00     0.049 A 
ATOM     41  N   UNL A   1      39.152  30.833  32.098  1.00  0.00    -0.248 NA
ATOM     42  C   UNL A   1      37.279  32.222  31.947  1.00  0.00     0.031 C 
ATOM     43  C   UNL A   1      38.576  29.655  27.825  1.00  0.00     0.029 A 
ATOM     44  N   UNL A   1      39.810  29.356  29.668  1.00  0.00    -0.354 N 
ATOM     45  C   UNL A   1      38.929  31.443  33.327  1.00  0.00     0.074 A 
ATOM     46  C   UNL A   1      37.785  32.313  33.167  1.00  0.00     0.031 C 
ATOM     47  C   UNL A   1      39.539  28.763  27.532  1.00  0.00     0.029 A 
ATOM     48  C   UNL A   1      40.396  28.573  28.702  1.00  0.00     0.049 A 
ATOM     49  H   UNL A   1      40.135  29.398  30.596  1.00  0.00     0.167 HD
ATOM     50  C   UNL A   1      39.610  31.289  34.488  1.00  0.00     0.037 A 
ATOM     51  C   UNL A   1      41.509  27.812  28.749  1.00  0.00     0.037 A 
ATOM     52  C   UNL A   1      40.748  30.422  34.655  1.00  0.00     0.049 A 
ATOM     53  C   UNL A   1      42.294  27.712  30.034  1.00  0.00     0.074 A 
ATOM     54  C   UNL A   1      41.480  30.178  35.804  1.00  0.00     0.029 A 
ATOM     55  N   UNL A   1      41.327  29.672  33.645  1.00  0.00    -0.354 N 
ATOM     56  N   UNL A   1      42.051  28.260  31.200  1.00  0.00    -0.248 NA
ATOM     57  C   UNL A   1      43.509  26.882  30.008  1.00  0.00     0.031 C 
ATOM     58  C   UNL A   1      42.542  29.329  35.474  1.00  0.00     0.029 A 
ATOM     59  C   UNL A   1      42.430  28.991  34.136  1.00  0.00     0.049 A 
ATOM     60  H   UNL A   1      41.004  29.629  32.715  1.00  0.00     0.167 HD
ATOM     61  C   UNL A   1      43.062  27.820  32.049  1.00  0.00     0.074 A 
ATOM     62  C   UNL A   1      43.910  26.944  31.270  1.00  0.00     0.031 C 
ATOM     63  C   UNL A   1      43.269  28.117  33.356  1.00  0.00     0.037 A 
BRANCH  50  64
ATOM     64  C   UNL A   1      39.164  32.103  35.668  1.00  0.00     0.057 A 
ATOM     65  C   UNL A   1      39.581  33.427  35.862  1.00  0.00     0.134 A 
ATOM     66  C   UNL A   1      38.270  31.565  36.602  1.00  0.00     0.134 A 
ATOM     67  F   UNL A   1      40.449  33.998  35.013  1.00  0.00    -0.206 F 
ATOM     68  C   UNL A   1      39.139  34.178  36.953  1.00  0.00     0.040 A 
ATOM     69  C   UNL A   1      37.798  32.316  37.679  1.00  0.00     0.040 A 
ATOM     70  F   UNL A   1      37.827  30.305  36.474  1.00  0.00    -0.206 F 
ATOM     71  C   UNL A   1      38.238  33.625  37.860  1.00  0.00     0.006 A 
ENDBRANCH  50  64
BRANCH  51  72
ATOM     72  C   UNL A   1      41.980  27.098  27.532  1.00  0.00     0.057 A 
ATOM     73  C   UNL A   1      42.795  27.727  26.583  1.00  0.00     0.134 A 
ATOM     74  C   UNL A   1      41.585  25.780  27.266  1.00  0.00     0.134 A 
ATOM     75  F   UNL A   1      43.185  28.998  26.765  1.00  0.00    -0.206 F 
ATOM     76  C   UNL A   1      43.182  27.082  25.406  1.00  0.00     0.040 A 
ATOM     77  C   UNL A   1      41.989  25.112  26.109  1.00  0.00     0.040 A 
ATOM     78  F   UNL A   1      40.799  25.122  28.130  1.00  0.00    -0.206 F 
ATOM     79  C   UNL A   1      42.783  25.769  25.169  1.00  0.00     0.006 A 
ENDBRANCH  51  72
BRANCH  63  80
ATOM     80  C   UNL A   1      44.435  27.459  34.043  1.00  0.00     0.057 A 
ATOM     81  C   UNL A   1      44.330  26.198  34.645  1.00  0.00     0.134 A 
ATOM     82  C   UNL A   1      45.691  28.082  34.072  1.00  0.00     0.134 A 
ATOM     83  F   UNL A   1      43.156  25.548  34.662  1.00  0.00    -0.206 F 
ATOM     84  C   UNL A   1      45.420  25.596  35.277  1.00  0.00     0.040 A 
ATOM     85  C   UNL A   1      46.795  27.476  34.673  1.00  0.00     0.040 A 
ATOM     86  F   UNL A   1      45.868  29.284  33.505  1.00  0.00    -0.206 F 
ATOM     87  C   UNL A   1      46.660  26.234  35.287  1.00  0.00     0.006 A 
ENDBRANCH  63  80
ENDBRANCH  37  38
ENDBRANCH  30  32
ENDBRANCH  29  30
ENDBRANCH  28  29
ENDBRANCH  27  28
ENDBRANCH  26  27
ENDBRANCH  25  26
ENDBRANCH   1  25
TORSDOF 20
ENDMDL
MODEL 2
REMARK VINA RESULT:     -10.1      0.565      6.093
REMARK SMILES Cc1cnc(N2CCO[C@H](CC(=O)OCCOCCOCCOC(=O)c3ccc(-c4c5nc(c(-c6c(F)cccc6F)c6ccc([nH]6)c(-c6c(F)cccc6F)c6nc(c(-c7c(F)cccc7F)c7ccc4[nH]7)C=C6)C=C5)cc3)C2)c([N+](=O)[O-])c1
REMARK SMILES IDX 18 1 17 2 16 3 15 4 14 5 12 6 13 7 11 8 10 9 6 10 7 11 80 12
REMARK SMILES IDX 8 13 9 14 5 15 1 16 2 17 3 18 85 19 4 20 81 21 82 22 83 23
REMARK SMILES IDX 84 24 19 25 20 26 21 27 22 28 23 29 24 30 25 31 26 32 27 33
REMARK SMILES IDX 79 34 28 35 78 36 29 37 30 38 31 39 72 40 32 41 77 42 71 43
REMARK SMILES IDX 73 44 33 45 76 46 70 47 69 48 34 50 60 51 43 52 59 53 44 54
REMARK SMILES IDX 47 55 58 56 74 57 45 58 46 59 57 61 75 62 48 63 35 64 36 65
REMARK SMILES IDX 41 66 37 67 38 68 40 69 42 70 39 71 61 72 62 73 67 74 63 75
REMARK SMILES IDX 64 76 66 77 68 78 65 79 49 80 50 81 55 82 51 83 52 84 54 85
REMARK SMILES IDX 56 86 53 87
REMARK H PARENT 73 49 47 60
REMARK Flexibility Score: inf
ROOT
ATOM      1  C   UNL A   1      31.708  28.685  27.373  1.00  0.00     0.188 C 
ENDROOT
BRANCH   1   2
ATOM      2  O   UNL A   1      31.262  27.686  26.461  1.00  0.00    -0.376 OA
BRANCH   2   3
ATOM      3  C   UNL A   1      31.674  26.339  26.727  1.00  0.00     0.202 C 
BRANCH   3   4
ATOM      4  C   UNL A   1      30.646  25.224  26.464  1.00  0.00     0.261 C 
BRANCH   4   5
ATOM      5  O   UNL A   1      31.096  23.908  26.870  1.00  0.00    -0.463 OA
BRANCH   5   6
ATOM      6  C   UNL A   1      30.941  22.935  25.942  1.00  0.00     0.308 C 
ATOM      7  O   UNL A   1      30.229  21.947  26.101  1.00  0.00    -0.252 OA
BRANCH   6   8
ATOM      8  C   UNL A   1      31.500  23.263  24.581  1.00  0.00     0.156 C 
BRANCH   8   9
ATOM      9  C   UNL A   1      33.005  23.435  24.327  1.00  0.00     0.148 C 
ATOM     10  N   UNL A   1      32.587  25.467  23.077  1.00  0.00    -0.346 N 
ATOM     11  C   UNL A   1      33.064  24.900  21.816  1.00  0.00     0.147 C 
ATOM     12  C   UNL A   1      33.314  24.963  24.244  1.00  0.00     0.151 C 
ATOM     13  C   UNL A   1      32.966  23.361  21.891  1.00  0.00     0.182 C 
ATOM     14  O   UNL A   1      33.469  22.788  23.117  1.00  0.00    -0.374 OA
BRANCH  10  15
ATOM     15  C   UNL A   1      31.821  26.601  23.135  1.00  0.00     0.208 A 
ATOM     16  C   UNL A   1      29.198  30.012  23.171  1.00  0.00     0.046 C 
ATOM     17  C   UNL A   1      30.134  28.845  23.148  1.00  0.00    -0.026 A 
ATOM     18  C   UNL A   1      29.675  27.534  23.175  1.00  0.00     0.117 A 
ATOM     19  C   UNL A   1      31.509  29.026  23.104  1.00  0.00     0.094 A 
ATOM     20  N   UNL A   1      30.477  26.433  23.147  1.00  0.00    -0.233 NA
ATOM     21  C   UNL A   1      32.341  27.898  23.109  1.00  0.00     0.311 A 
BRANCH  21  22
ATOM     22  N   UNL A   1      33.752  28.143  22.938  1.00  0.00     0.066 N 
ATOM     23  O   UNL A   1      34.429  28.383  23.946  1.00  0.00    -0.258 OA
ATOM     24  O   UNL A   1      34.174  28.168  21.772  1.00  0.00    -0.258 OA
ENDBRANCH  21  22
ENDBRANCH  10  15
ENDBRANCH   8   9
ENDBRANCH   6   8
ENDBRANCH   5   6
ENDBRANCH   4   5
ENDBRANCH   3   4
ENDBRANCH   2   3
ENDBRANCH   1   2
BRANCH   1  25
ATOM     25  C   UNL A   1      33.067  29.320  27.055  1.00  0.00     0.188 C 
BRANCH  25  26
ATOM     26  O   UNL A   1      32.980  30.627  26.533  1.00  0.00    -0.376 OA
BRANCH  26  27
ATOM     27  C   UNL A   1      31.751  31.343  26.543  1.00  0.00     0.202 C 
BRANCH  27  28
ATOM     28  C   UNL A   1      31.701  32.849  26.895  1.00  0.00     0.261 C 
BRANCH  28  29
ATOM     29  O   UNL A   1      32.950  33.562  26.967  1.00  0.00    -0.460 OA
BRANCH  29  30
ATOM     30  C   UNL A   1      33.266  34.140  28.154  1.00  0.00     0.338 C 
ATOM     31  O   UNL A   1      32.568  34.888  28.799  1.00  0.00    -0.246 OA
BRANCH  30  32
ATOM     32  C   UNL A   1      34.491  33.465  28.679  1.00  0.00     0.060 A 
ATOM     33  C   UNL A   1      34.319  32.254  29.367  1.00  0.00     0.016 A 
ATOM     34  C   UNL A   1      35.782  33.943  28.435  1.00  0.00     0.016 A 
ATOM     35  C   UNL A   1      35.424  31.545  29.847  1.00  0.00     0.010 A 
ATOM     36  C   UNL A   1      36.890  33.243  28.935  1.00  0.00     0.010 A 
ATOM     37  C   UNL A   1      36.717  32.057  29.675  1.00  0.00    -0.014 A 
BRANCH  37  38
ATOM     38  C   UNL A   1      37.854  31.458  30.427  1.00  0.00     0.031 A 
ATOM     39  C   UNL A   1      38.716  30.437  29.729  1.00  0.00     0.074 A 
ATOM     40  C   UNL A   1      38.153  31.825  31.687  1.00  0.00     0.049 A 
ATOM     41  N   UNL A   1      39.739  29.758  30.182  1.00  0.00    -0.248 NA
ATOM     42  C   UNL A   1      38.372  30.144  28.328  1.00  0.00     0.031 C 
ATOM     43  C   UNL A   1      37.434  32.825  32.473  1.00  0.00     0.029 A 
ATOM     44  N   UNL A   1      39.144  31.383  32.532  1.00  0.00    -0.354 N 
ATOM     45  C   UNL A   1      40.153  28.951  29.128  1.00  0.00     0.074 A 
ATOM     46  C   UNL A   1      39.255  29.205  28.023  1.00  0.00     0.031 C 
ATOM     47  C   UNL A   1      37.998  32.909  33.692  1.00  0.00     0.029 A 
ATOM     48  C   UNL A   1      39.096  31.947  33.785  1.00  0.00     0.049 A 
ATOM     49  H   UNL A   1      39.825  30.724  32.265  1.00  0.00     0.167 HD
ATOM     50  C   UNL A   1      41.191  28.082  29.079  1.00  0.00     0.037 A 
ATOM     51  C   UNL A   1      39.833  31.697  34.886  1.00  0.00     0.037 A 
ATOM     52  C   UNL A   1      42.091  27.828  30.174  1.00  0.00     0.049 A 
ATOM     53  C   UNL A   1      40.940  30.671  34.829  1.00  0.00     0.074 A 
ATOM     54  C   UNL A   1      43.192  26.989  30.204  1.00  0.00     0.029 A 
ATOM     55  N   UNL A   1      41.987  28.395  31.433  1.00  0.00    -0.354 N 
ATOM     56  N   UNL A   1      41.348  29.946  33.816  1.00  0.00    -0.248 NA
ATOM     57  C   UNL A   1      41.690  30.434  36.073  1.00  0.00     0.031 C 
ATOM     58  C   UNL A   1      43.716  26.999  31.501  1.00  0.00     0.029 A 
ATOM     59  C   UNL A   1      42.983  27.898  32.259  1.00  0.00     0.049 A 
ATOM     60  H   UNL A   1      41.307  29.055  31.702  1.00  0.00     0.167 HD
ATOM     61  C   UNL A   1      42.416  29.191  34.291  1.00  0.00     0.074 A 
ATOM     62  C   UNL A   1      42.606  29.561  35.677  1.00  0.00     0.031 C 
ATOM     63  C   UNL A   1      43.170  28.273  33.638  1.00  0.00     0.037 A 
BRANCH  50  64
ATOM     64  C   UNL A   1      41.393  27.312  27.806  1.00  0.00     0.057 A 
ATOM     65  C   UNL A   1      42.202  27.789  26.766  1.00  0.00     0.134 A 
ATOM     66  C   UNL A   1      40.802  26.053  27.638  1.00  0.00     0.134 A 
ATOM     67  F   UNL A   1      42.786  28.994  26.857  1.00  0.00    -0.206 F 
ATOM     68  C   UNL A   1      42.398  27.051  25.598  1.00  0.00     0.040 A 
ATOM     69  C   UNL A   1      41.015  25.294  26.488  1.00  0.00     0.040 A 
ATOM     70  F   UNL A   1      40.020  25.535  28.597  1.00  0.00    -0.206 F 
ATOM     71  C   UNL A   1      41.811  25.795  25.461  1.00  0.00     0.006 A 
ENDBRANCH  50  64
BRANCH  51  72
ATOM     72  C   UNL A   1      39.540  32.406  36.161  1.00  0.00     0.057 A 
ATOM     73  C   UNL A   1      38.542  31.960  37.034  1.00  0.00     0.134 A 
ATOM     74  C   UNL A   1      40.224  33.577  36.512  1.00  0.00     0.134 A 
ATOM     75  F   UNL A   1      37.831  30.860  36.741  1.00  0.00    -0.206 F 
ATOM     76  C   UNL A   1      38.217  32.662  38.197  1.00  0.00     0.040 A 
ATOM     77  C   UNL A   1      39.932  34.273  37.687  1.00  0.00     0.040 A 
ATOM     78  F   UNL A   1      41.188  34.063  35.717  1.00  0.00    -0.206 F 
ATOM     79  C   UNL A   1      38.918  33.819  38.529  1.00  0.00     0.006 A 
ENDBRANCH  51  72
BRANCH  63  80
ATOM     80  C   UNL A   1      44.298  27.630  34.397  1.00  0.00     0.057 A 
ATOM     81  C   UNL A   1      45.563  28.225  34.496  1.00  0.00     0.134 A 
ATOM     82  C   UNL A   1      44.106  26.415  35.070  1.00  0.00     0.134 A 
ATOM     83  F   UNL A   1      45.821  29.384  33.871  1.00  0.00    -0.206 F 
ATOM     84  C   UNL A   1      46.602  27.620  35.207  1.00  0.00     0.040 A 
ATOM     85  C   UNL A   1      45.127  25.817  35.809  1.00  0.00     0.040 A 
ATOM     86  F   UNL A   1      42.917  25.795  35.030  1.00  0.00    -0.206 F 
ATOM     87  C   UNL A   1      46.383  26.415  35.872  1.00  0.00     0.006 A 
ENDBRANCH  63  80
ENDBRANCH  37  38
ENDBRANCH  30  32
ENDBRANCH  29  30
ENDBRANCH  28  29
ENDBRANCH  27  28
ENDBRANCH  26  27
ENDBRANCH  25  26
ENDBRANCH   1  25
TORSDOF 20
ENDMDL
MODEL 3
REMARK VINA RESULT:     -10.0      1.889      3.875
REMARK SMILES Cc1cnc(N2CCO[C@H](CC(=O)OCCOCCOCCOC(=O)c3ccc(-c4c5nc(c(-c6c(F)cccc6F)c6ccc([nH]6)c(-c6c(F)cccc6F)c6nc(c(-c7c(F)cccc7F)c7ccc4[nH]7)C=C6)C=C5)cc3)C2)c([N+](=O)[O-])c1
REMARK SMILES IDX 18 1 17 2 16 3 15 4 14 5 12 6 13 7 11 8 10 9 6 10 7 11 80 12
REMARK SMILES IDX 8 13 9 14 5 15 1 16 2 17 3 18 85 19 4 20 81 21 82 22 83 23
REMARK SMILES IDX 84 24 19 25 20 26 21 27 22 28 23 29 24 30 25 31 26 32 27 33
REMARK SMILES IDX 79 34 28 35 78 36 29 37 30 38 31 39 72 40 32 41 77 42 71 43
REMARK SMILES IDX 73 44 33 45 76 46 70 47 69 48 34 50 60 51 43 52 59 53 44 54
REMARK SMILES IDX 47 55 58 56 74 57 45 58 46 59 57 61 75 62 48 63 35 64 36 65
REMARK SMILES IDX 41 66 37 67 38 68 40 69 42 70 39 71 61 72 62 73 67 74 63 75
REMARK SMILES IDX 64 76 66 77 68 78 65 79 49 80 50 81 55 82 51 83 52 84 54 85
REMARK SMILES IDX 56 86 53 87
REMARK H PARENT 73 49 47 60
REMARK Flexibility Score: inf
ROOT
ATOM      1  C   UNL A   1      33.303  28.835  25.837  1.00  0.00     0.188 C 
ENDROOT
BRANCH   1   2
ATOM      2  O   UNL A   1      33.872  27.955  24.873  1.00  0.00    -0.376 OA
BRANCH   2   3
ATOM      3  C   UNL A   1      33.830  28.382  23.505  1.00  0.00     0.202 C 
BRANCH   3   4
ATOM      4  C   UNL A   1      33.131  27.449  22.499  1.00  0.00     0.261 C 
BRANCH   4   5
ATOM      5  O   UNL A   1      33.807  26.182  22.312  1.00  0.00    -0.463 OA
BRANCH   5   6
ATOM      6  C   UNL A   1      33.251  25.132  22.960  1.00  0.00     0.308 C 
ATOM      7  O   UNL A   1      32.043  25.005  23.144  1.00  0.00    -0.252 OA
BRANCH   6   8
ATOM      8  C   UNL A   1      34.189  23.982  23.227  1.00  0.00     0.156 C 
BRANCH   8   9
ATOM      9  C   UNL A   1      35.370  24.091  24.204  1.00  0.00     0.148 C 
ATOM     10  N   UNL A   1      34.773  21.966  25.201  1.00  0.00    -0.346 N 
ATOM     11  C   UNL A   1      34.445  22.561  26.496  1.00  0.00     0.147 C 
ATOM     12  C   UNL A   1      35.875  22.647  24.520  1.00  0.00     0.151 C 
ATOM     13  C   UNL A   1      34.112  24.055  26.291  1.00  0.00     0.182 C 
ATOM     14  O   UNL A   1      35.041  24.764  25.443  1.00  0.00    -0.374 OA
BRANCH  10  15
ATOM     15  C   UNL A   1      34.364  20.710  24.840  1.00  0.00     0.208 A 
ATOM     16  C   UNL A   1      33.368  16.705  23.621  1.00  0.00     0.046 C 
ATOM     17  C   UNL A   1      33.688  18.109  24.027  1.00  0.00    -0.026 A 
ATOM     18  C   UNL A   1      34.934  18.460  24.533  1.00  0.00     0.117 A 
ATOM     19  C   UNL A   1      32.748  19.122  23.921  1.00  0.00     0.094 A 
ATOM     20  N   UNL A   1      35.288  19.721  24.911  1.00  0.00    -0.233 NA
ATOM     21  C   UNL A   1      33.093  20.415  24.340  1.00  0.00     0.311 A 
BRANCH  21  22
ATOM     22  N   UNL A   1      32.120  21.450  24.091  1.00  0.00     0.066 N 
ATOM     23  O   UNL A   1      31.552  21.963  25.065  1.00  0.00    -0.258 OA
ATOM     24  O   UNL A   1      31.867  21.702  22.904  1.00  0.00    -0.258 OA
ENDBRANCH  21  22
ENDBRANCH  10  15
ENDBRANCH   8   9
ENDBRANCH   6   8
ENDBRANCH   5   6
ENDBRANCH   4   5
ENDBRANCH   3   4
ENDBRANCH   2   3
ENDBRANCH   1   2
BRANCH   1  25
ATOM     25  C   UNL A   1      31.822  29.179  25.636  1.00  0.00     0.188 C 
BRANCH  25  26
ATOM     26  O   UNL A   1      31.561  30.563  25.561  1.00  0.00    -0.376 OA
BRANCH  26  27
ATOM     27  C   UNL A   1      31.476  31.360  26.735  1.00  0.00     0.202 C 
BRANCH  27  28
ATOM     28  C   UNL A   1      31.665  32.895  26.679  1.00  0.00     0.261 C 
BRANCH  28  29
ATOM     29  O   UNL A   1      33.000  33.413  26.829  1.00  0.00    -0.460 OA
BRANCH  29  30
ATOM     30  C   UNL A   1      33.348  33.883  28.054  1.00  0.00     0.338 C 
ATOM     31  O   UNL A   1      32.667  34.564  28.785  1.00  0.00    -0.246 OA
BRANCH  30  32
ATOM     32  C   UNL A   1      34.592  33.171  28.479  1.00  0.00     0.060 A 
ATOM     33  C   UNL A   1      34.475  31.817  28.828  1.00  0.00     0.016 A 
ATOM     34  C   UNL A   1      35.853  33.772  28.454  1.00  0.00     0.016 A 
ATOM     35  C   UNL A   1      35.604  31.077  29.193  1.00  0.00     0.010 A 
ATOM     36  C   UNL A   1      36.983  33.035  28.841  1.00  0.00     0.010 A 
ATOM     37  C   UNL A   1      36.861  31.692  29.246  1.00  0.00    -0.014 A 
BRANCH  37  38
ATOM     38  C   UNL A   1      38.000  30.992  29.904  1.00  0.00     0.031 A 
ATOM     39  C   UNL A   1      38.271  31.275  31.359  1.00  0.00     0.074 A 
ATOM     40  C   UNL A   1      38.764  30.096  29.251  1.00  0.00     0.049 A 
ATOM     41  N   UNL A   1      39.216  30.814  32.138  1.00  0.00    -0.248 NA
ATOM     42  C   UNL A   1      37.346  32.209  32.023  1.00  0.00     0.031 C 
ATOM     43  C   UNL A   1      38.596  29.694  27.856  1.00  0.00     0.029 A 
ATOM     44  N   UNL A   1      39.848  29.368  29.683  1.00  0.00    -0.354 N 
ATOM     45  C   UNL A   1      39.008  31.408  33.377  1.00  0.00     0.074 A 
ATOM     46  C   UNL A   1      37.864  32.283  33.240  1.00  0.00     0.031 C 
ATOM     47  C   UNL A   1      39.554  28.803  27.542  1.00  0.00     0.029 A 
ATOM     48  C   UNL A   1      40.422  28.596  28.701  1.00  0.00     0.049 A 
ATOM     49  H   UNL A   1      40.182  29.397  30.608  1.00  0.00     0.167 HD
ATOM     50  C   UNL A   1      39.699  31.237  34.529  1.00  0.00     0.037 A 
ATOM     51  C   UNL A   1      41.533  27.832  28.727  1.00  0.00     0.037 A 
ATOM     52  C   UNL A   1      40.836  30.365  34.674  1.00  0.00     0.049 A 
ATOM     53  C   UNL A   1      42.331  27.713  30.003  1.00  0.00     0.074 A 
ATOM     54  C   UNL A   1      41.578  30.104  35.813  1.00  0.00     0.029 A 
ATOM     55  N   UNL A   1      41.404  29.627  33.649  1.00  0.00    -0.354 N 
ATOM     56  N   UNL A   1      42.100  28.246  31.179  1.00  0.00    -0.248 NA
ATOM     57  C   UNL A   1      43.543  26.880  29.954  1.00  0.00     0.031 C 
ATOM     58  C   UNL A   1      42.635  29.257  35.462  1.00  0.00     0.029 A 
ATOM     59  C   UNL A   1      42.509  28.936  34.120  1.00  0.00     0.049 A 
ATOM     60  H   UNL A   1      41.071  29.597  32.722  1.00  0.00     0.167 HD
ATOM     61  C   UNL A   1      43.118  27.792  32.012  1.00  0.00     0.074 A 
ATOM     62  C   UNL A   1      43.956  26.924  31.213  1.00  0.00     0.031 C 
ATOM     63  C   UNL A   1      43.339  28.071  33.321  1.00  0.00     0.037 A 
BRANCH  50  64
ATOM     64  C   UNL A   1      39.267  32.037  35.725  1.00  0.00     0.057 A 
ATOM     65  C   UNL A   1      38.361  31.536  36.669  1.00  0.00     0.134 A 
ATOM     66  C   UNL A   1      39.800  33.311  35.954  1.00  0.00     0.134 A 
ATOM     67  F   UNL A   1      37.802  30.328  36.501  1.00  0.00    -0.206 F 
ATOM     68  C   UNL A   1      37.987  32.282  37.788  1.00  0.00     0.040 A 
ATOM     69  C   UNL A   1      39.455  34.055  37.084  1.00  0.00     0.040 A 
ATOM     70  F   UNL A   1      40.676  33.850  35.093  1.00  0.00    -0.206 F 
ATOM     71  C   UNL A   1      38.541  33.542  38.002  1.00  0.00     0.006 A 
ENDBRANCH  50  64
BRANCH  51  72
ATOM     72  C   UNL A   1      41.991  27.133  27.496  1.00  0.00     0.057 A 
ATOM     73  C   UNL A   1      41.659  25.797  27.246  1.00  0.00     0.134 A 
ATOM     74  C   UNL A   1      42.813  27.776  26.561  1.00  0.00     0.134 A 
ATOM     75  F   UNL A   1      40.898  25.117  28.117  1.00  0.00    -0.206 F 
ATOM     76  C   UNL A   1      42.145  25.117  26.126  1.00  0.00     0.040 A 
ATOM     77  C   UNL A   1      43.281  27.119  25.421  1.00  0.00     0.040 A 
ATOM     78  F   UNL A   1      43.175  29.054  26.742  1.00  0.00    -0.206 F 
ATOM     79  C   UNL A   1      42.954  25.781  25.207  1.00  0.00     0.006 A 
ENDBRANCH  51  72
BRANCH  63  80
ATOM     80  C   UNL A   1      44.509  27.401  33.987  1.00  0.00     0.057 A 
ATOM     81  C   UNL A   1      44.406  26.134  34.576  1.00  0.00     0.134 A 
ATOM     82  C   UNL A   1      45.767  28.019  34.011  1.00  0.00     0.134 A 
ATOM     83  F   UNL A   1      43.231  25.487  34.598  1.00  0.00    -0.206 F 
ATOM     84  C   UNL A   1      45.501  25.521  35.189  1.00  0.00     0.040 A 
ATOM     85  C   UNL A   1      46.876  27.403  34.593  1.00  0.00     0.040 A 
ATOM     86  F   UNL A   1      45.943  29.228  33.455  1.00  0.00    -0.206 F 
ATOM     87  C   UNL A   1      46.743  26.154  35.193  1.00  0.00     0.006 A 
ENDBRANCH  63  80
ENDBRANCH  37  38
ENDBRANCH  30  32
ENDBRANCH  29  30
ENDBRANCH  28  29
ENDBRANCH  27  28
ENDBRANCH  26  27
ENDBRANCH  25  26
ENDBRANCH   1  25
TORSDOF 20
ENDMDL
