MODEL 1
REMARK VINA RESULT:      -9.7      0.000      0.000
REMARK SMILES Cc1oc2c(C)c3oc(=O)c(CCC(=O)N[C@H](Cc4ccc(Cl)cc4)C(=O)OCCOCCOCCOC(=O)c4ccc(-c5c6nc(c(-c7c(F)cccc7F)c7ccc([nH]7)c(-c7c(F)cccc7F)c7nc(c(-c8c(F)cccc8F)c8ccc5[nH]8)C=C7)C=C6)cc4)c(C)c3cc2c1C
REMARK SMILES IDX 32 1 31 2 30 3 29 4 28 5 26 6 27 7 17 8 16 9 14 10 15 11
REMARK SMILES IDX 13 13 12 14 11 15 1 16 2 17 3 18 99 19 4 20 98 21 100 22
REMARK SMILES IDX 5 23 97 24 6 25 7 26 96 27 8 28 94 29 9 30 95 31 10 32 18 33
REMARK SMILES IDX 19 34 20 35 25 36 21 37 24 38 22 39 23 40 33 41 34 42 35 43
REMARK SMILES IDX 36 44 37 45 38 46 39 47 40 48 41 49 93 50 42 51 92 52 43 53
REMARK SMILES IDX 44 54 45 55 86 56 46 57 91 58 85 59 87 60 47 61 90 62 84 63
REMARK SMILES IDX 83 64 48 66 74 67 57 68 73 69 58 70 61 71 72 72 88 73 59 74
REMARK SMILES IDX 60 75 71 77 89 78 62 79 49 80 50 81 55 82 51 83 52 84 54 85
REMARK SMILES IDX 56 86 53 87 75 88 76 89 81 90 77 91 78 92 80 93 82 94 79 95
REMARK SMILES IDX 63 96 64 97 69 98 65 99 66 100 68 101 70 102 67 103
REMARK H PARENT 16 12 87 65 61 76
REMARK Flexibility Score: inf
ROOT
ATOM      1  C   UNL A   1      49.933  19.669  35.134  1.00  0.00     0.188 C 
ENDROOT
BRANCH   1   2
ATOM      2  O   UNL A   1      51.184  19.045  34.869  1.00  0.00    -0.376 OA
BRANCH   2   3
ATOM      3  C   UNL A   1      52.333  19.631  35.486  1.00  0.00     0.202 C 
BRANCH   3   4
ATOM      4  C   UNL A   1      53.385  20.211  34.506  1.00  0.00     0.261 C 
BRANCH   4   5
ATOM      5  O   UNL A   1      53.112  21.573  34.039  1.00  0.00    -0.462 OA
BRANCH   5   6
ATOM      6  C   UNL A   1      52.196  21.871  33.057  1.00  0.00     0.329 C 
ATOM      7  O   UNL A   1      52.012  21.142  32.088  1.00  0.00    -0.250 OA
BRANCH   6   8
ATOM      8  C   UNL A   1      51.473  23.349  33.281  1.00  0.00     0.196 C 
BRANCH   8   9
ATOM      9  N   UNL A   1      51.658  23.703  34.704  1.00  0.00    -0.342 N 
ATOM     10  C   UNL A   1      50.960  23.662  35.852  1.00  0.00     0.221 C 
ATOM     11  O   UNL A   1      51.591  24.198  36.783  1.00  0.00    -0.275 OA
ATOM     12  H   UNL A   1      52.555  24.078  34.856  1.00  0.00     0.164 HD
BRANCH  10  13
ATOM     13  C   UNL A   1      49.660  22.910  36.232  1.00  0.00     0.105 C 
BRANCH  13  14
ATOM     14  C   UNL A   1      48.638  22.916  37.424  1.00  0.00     0.053 C 
BRANCH  14  15
ATOM     15  C   UNL A   1      48.386  21.751  38.377  1.00  0.00     0.042 A 
ATOM     16  C   UNL A   1      43.677  15.600  41.595  1.00  0.00     0.088 C 
ATOM     17  C   UNL A   1      44.708  16.369  40.860  1.00  0.00     0.105 A 
ATOM     18  O   UNL A   1      45.762  16.839  41.592  1.00  0.00    -0.461 OA
ATOM     19  C   UNL A   1      44.752  16.862  39.567  1.00  0.00    -0.002 A 
ATOM     20  C   UNL A   1      46.423  17.759  40.822  1.00  0.00     0.141 A 
ATOM     21  C   UNL A   1      45.887  17.746  39.553  1.00  0.00     0.025 A 
ATOM     22  C   UNL A   1      43.669  16.711  38.549  1.00  0.00     0.049 C 
ATOM     23  C   UNL A   1      47.421  18.662  41.247  1.00  0.00     0.036 A 
ATOM     24  C   UNL A   1      46.365  18.719  38.654  1.00  0.00     0.024 A 
ATOM     25  C   UNL A   1      47.942  18.586  42.639  1.00  0.00     0.052 C 
ATOM     26  C   UNL A   1      47.721  19.724  40.342  1.00  0.00     0.145 A 
ATOM     27  C   UNL A   1      47.109  19.844  39.106  1.00  0.00     0.022 A 
ATOM     28  O   UNL A   1      48.609  20.782  40.688  1.00  0.00    -0.422 OA
ATOM     29  C   UNL A   1      47.169  21.211  38.463  1.00  0.00    -0.030 A 
ATOM     30  C   UNL A   1      48.990  21.799  39.767  1.00  0.00     0.339 A 
ATOM     31  C   UNL A   1      46.134  22.354  38.543  1.00  0.00     0.046 C 
ATOM     32  O   UNL A   1      49.684  22.751  40.112  1.00  0.00    -0.246 OA
ENDBRANCH  14  15
ENDBRANCH  13  14
ENDBRANCH  10  13
ENDBRANCH   8   9
BRANCH   8  33
ATOM     33  C   UNL A   1      50.281  24.431  32.561  1.00  0.00     0.072 C 
BRANCH  33  34
ATOM     34  C   UNL A   1      49.988  25.705  31.621  1.00  0.00    -0.045 A 
ATOM     35  C   UNL A   1      50.404  25.621  30.273  1.00  0.00     0.005 A 
ATOM     36  C   UNL A   1      49.475  26.993  31.902  1.00  0.00     0.005 A 
ATOM     37  C   UNL A   1      50.194  26.661  29.321  1.00  0.00     0.021 A 
ATOM     38  C   UNL A   1      49.205  28.021  30.978  1.00  0.00     0.021 A 
ATOM     39  C   UNL A   1      49.552  27.842  29.668  1.00  0.00     0.041 A 
ATOM     40  Cl  UNL A   1      49.213  29.070  28.518  1.00  0.00    -0.084 Cl
ENDBRANCH  33  34
ENDBRANCH   8  33
ENDBRANCH   6   8
ENDBRANCH   5   6
ENDBRANCH   4   5
ENDBRANCH   3   4
ENDBRANCH   2   3
ENDBRANCH   1   2
BRANCH   1  41
ATOM     41  C   UNL A   1      49.061  19.937  33.920  1.00  0.00     0.188 C 
BRANCH  41  42
ATOM     42  O   UNL A   1      47.812  20.579  34.094  1.00  0.00    -0.376 OA
BRANCH  42  43
ATOM     43  C   UNL A   1      46.820  19.993  34.913  1.00  0.00     0.202 C 
BRANCH  43  44
ATOM     44  C   UNL A   1      45.599  20.839  35.285  1.00  0.00     0.261 C 
BRANCH  44  45
ATOM     45  O   UNL A   1      44.806  21.271  34.166  1.00  0.00    -0.460 OA
BRANCH  45  46
ATOM     46  C   UNL A   1      44.314  22.519  34.328  1.00  0.00     0.338 C 
ATOM     47  O   UNL A   1      43.431  22.855  35.114  1.00  0.00    -0.246 OA
BRANCH  46  48
ATOM     48  C   UNL A   1      44.861  23.482  33.361  1.00  0.00     0.060 A 
ATOM     49  C   UNL A   1      45.854  24.417  33.683  1.00  0.00     0.016 A 
ATOM     50  C   UNL A   1      44.162  23.587  32.161  1.00  0.00     0.016 A 
ATOM     51  C   UNL A   1      46.114  25.487  32.823  1.00  0.00     0.010 A 
ATOM     52  C   UNL A   1      44.422  24.652  31.307  1.00  0.00     0.010 A 
ATOM     53  C   UNL A   1      45.393  25.613  31.634  1.00  0.00    -0.014 A 
BRANCH  53  54
ATOM     54  C   UNL A   1      45.838  26.617  30.639  1.00  0.00     0.031 A 
ATOM     55  C   UNL A   1      45.837  25.993  29.278  1.00  0.00     0.074 A 
ATOM     56  C   UNL A   1      45.554  27.936  30.709  1.00  0.00     0.049 A 
ATOM     57  N   UNL A   1      44.716  25.782  28.650  1.00  0.00    -0.248 NA
ATOM     58  C   UNL A   1      46.962  25.220  28.754  1.00  0.00     0.031 C 
ATOM     59  C   UNL A   1      44.407  28.482  31.443  1.00  0.00     0.029 A 
ATOM     60  N   UNL A   1      46.020  29.006  29.964  1.00  0.00    -0.354 N 
ATOM     61  C   UNL A   1      44.934  24.750  27.766  1.00  0.00     0.074 A 
ATOM     62  C   UNL A   1      46.354  24.476  27.813  1.00  0.00     0.031 C 
ATOM     63  C   UNL A   1      44.131  29.710  30.958  1.00  0.00     0.029 A 
ATOM     64  C   UNL A   1      45.158  30.103  29.992  1.00  0.00     0.049 A 
ATOM     65  H   UNL A   1      46.871  28.993  29.466  1.00  0.00     0.167 HD
ATOM     66  C   UNL A   1      43.917  24.143  27.102  1.00  0.00     0.037 A 
ATOM     67  C   UNL A   1      44.940  30.957  28.951  1.00  0.00     0.037 A 
ATOM     68  C   UNL A   1      42.595  24.620  27.386  1.00  0.00     0.049 A 
ATOM     69  C   UNL A   1      44.050  30.122  28.068  1.00  0.00     0.074 A 
ATOM     70  C   UNL A   1      41.492  24.219  28.109  1.00  0.00     0.029 A 
ATOM     71  N   UNL A   1      42.221  25.819  26.828  1.00  0.00    -0.354 N 
ATOM     72  N   UNL A   1      42.770  29.912  28.216  1.00  0.00    -0.248 NA
ATOM     73  C   UNL A   1      44.720  29.197  27.153  1.00  0.00     0.031 C 
ATOM     74  C   UNL A   1      40.709  25.402  28.307  1.00  0.00     0.029 A 
ATOM     75  C   UNL A   1      41.406  26.458  27.726  1.00  0.00     0.049 A 
ATOM     76  H   UNL A   1      42.490  26.156  25.944  1.00  0.00     0.167 HD
ATOM     77  C   UNL A   1      42.538  28.656  27.647  1.00  0.00     0.074 A 
ATOM     78  C   UNL A   1      43.763  28.302  26.962  1.00  0.00     0.031 C 
ATOM     79  C   UNL A   1      41.443  27.890  27.927  1.00  0.00     0.037 A 
BRANCH  66  80
ATOM     80  C   UNL A   1      44.111  23.192  26.000  1.00  0.00     0.057 A 
ATOM     81  C   UNL A   1      43.759  21.858  26.246  1.00  0.00     0.134 A 
ATOM     82  C   UNL A   1      44.799  23.487  24.825  1.00  0.00     0.134 A 
ATOM     83  F   UNL A   1      43.106  21.531  27.374  1.00  0.00    -0.206 F 
ATOM     84  C   UNL A   1      44.120  20.836  25.375  1.00  0.00     0.040 A 
ATOM     85  C   UNL A   1      45.156  22.470  23.935  1.00  0.00     0.040 A 
ATOM     86  F   UNL A   1      45.172  24.745  24.546  1.00  0.00    -0.206 F 
ATOM     87  C   UNL A   1      44.831  21.141  24.219  1.00  0.00     0.006 A 
ENDBRANCH  66  80
BRANCH  67  88
ATOM     88  C   UNL A   1      46.113  31.730  28.429  1.00  0.00     0.057 A 
ATOM     89  C   UNL A   1      46.996  32.317  29.354  1.00  0.00     0.134 A 
ATOM     90  C   UNL A   1      46.411  31.971  27.079  1.00  0.00     0.134 A 
ATOM     91  F   UNL A   1      46.731  32.270  30.669  1.00  0.00    -0.206 F 
ATOM     92  C   UNL A   1      48.167  32.978  28.966  1.00  0.00     0.040 A 
ATOM     93  C   UNL A   1      47.596  32.600  26.674  1.00  0.00     0.040 A 
ATOM     94  F   UNL A   1      45.570  31.610  26.101  1.00  0.00    -0.206 F 
ATOM     95  C   UNL A   1      48.489  33.088  27.619  1.00  0.00     0.006 A 
ENDBRANCH  67  88
BRANCH  79  96
ATOM     96  C   UNL A   1      40.354  28.564  28.686  1.00  0.00     0.057 A 
ATOM     97  C   UNL A   1      39.359  29.272  28.003  1.00  0.00     0.134 A 
ATOM     98  C   UNL A   1      40.242  28.474  30.080  1.00  0.00     0.134 A 
ATOM     99  F   UNL A   1      39.400  29.386  26.665  1.00  0.00    -0.206 F 
ATOM    100  C   UNL A   1      38.281  29.849  28.676  1.00  0.00     0.040 A 
ATOM    101  C   UNL A   1      39.154  29.026  30.762  1.00  0.00     0.040 A 
ATOM    102  F   UNL A   1      41.168  27.829  30.807  1.00  0.00    -0.206 F 
ATOM    103  C   UNL A   1      38.168  29.714  30.059  1.00  0.00     0.006 A 
ENDBRANCH  79  96
ENDBRANCH  53  54
ENDBRANCH  46  48
ENDBRANCH  45  46
ENDBRANCH  44  45
ENDBRANCH  43  44
ENDBRANCH  42  43
ENDBRANCH  41  42
ENDBRANCH   1  41
TORSDOF 23
ENDMDL
MODEL 2
REMARK VINA RESULT:      -9.2      8.685     14.236
REMARK SMILES Cc1oc2c(C)c3oc(=O)c(CCC(=O)N[C@H](Cc4ccc(Cl)cc4)C(=O)OCCOCCOCCOC(=O)c4ccc(-c5c6nc(c(-c7c(F)cccc7F)c7ccc([nH]7)c(-c7c(F)cccc7F)c7nc(c(-c8c(F)cccc8F)c8ccc5[nH]8)C=C7)C=C6)cc4)c(C)c3cc2c1C
REMARK SMILES IDX 32 1 31 2 30 3 29 4 28 5 26 6 27 7 17 8 16 9 14 10 15 11
REMARK SMILES IDX 13 13 12 14 11 15 1 16 2 17 3 18 99 19 4 20 98 21 100 22
REMARK SMILES IDX 5 23 97 24 6 25 7 26 96 27 8 28 94 29 9 30 95 31 10 32 18 33
REMARK SMILES IDX 19 34 20 35 25 36 21 37 24 38 22 39 23 40 33 41 34 42 35 43
REMARK SMILES IDX 36 44 37 45 38 46 39 47 40 48 41 49 93 50 42 51 92 52 43 53
REMARK SMILES IDX 44 54 45 55 86 56 46 57 91 58 85 59 87 60 47 61 90 62 84 63
REMARK SMILES IDX 83 64 48 66 74 67 57 68 73 69 58 70 61 71 72 72 88 73 59 74
REMARK SMILES IDX 60 75 71 77 89 78 62 79 49 80 50 81 55 82 51 83 52 84 54 85
REMARK SMILES IDX 56 86 53 87 75 88 76 89 81 90 77 91 78 92 80 93 82 94 79 95
REMARK SMILES IDX 63 96 64 97 69 98 65 99 66 100 68 101 70 102 67 103
REMARK H PARENT 16 12 87 65 61 76
REMARK Flexibility Score: inf
ROOT
ATOM      1  C   UNL A   1      45.027  31.082  30.427  1.00  0.00     0.188 C 
ENDROOT
BRANCH   1   2
ATOM      2  O   UNL A   1      44.292  30.109  31.161  1.00  0.00    -0.376 OA
BRANCH   2   3
ATOM      3  C   UNL A   1      43.040  30.533  31.707  1.00  0.00     0.202 C 
BRANCH   3   4
ATOM      4  C   UNL A   1      41.961  30.917  30.662  1.00  0.00     0.261 C 
BRANCH   4   5
ATOM      5  O   UNL A   1      40.620  30.389  30.933  1.00  0.00    -0.462 OA
BRANCH   5   6
ATOM      6  C   UNL A   1      40.323  29.046  30.963  1.00  0.00     0.329 C 
ATOM      7  O   UNL A   1      41.162  28.195  31.240  1.00  0.00    -0.250 OA
BRANCH   6   8
ATOM      8  C   UNL A   1      38.768  28.721  30.484  1.00  0.00     0.196 C 
BRANCH   8   9
ATOM      9  N   UNL A   1      38.847  27.633  29.488  1.00  0.00    -0.342 N 
ATOM     10  C   UNL A   1      39.347  27.427  28.257  1.00  0.00     0.221 C 
ATOM     11  O   UNL A   1      39.035  26.302  27.826  1.00  0.00    -0.275 OA
ATOM     12  H   UNL A   1      38.404  26.820  29.823  1.00  0.00     0.164 HD
BRANCH  10  13
ATOM     13  C   UNL A   1      40.369  28.237  27.420  1.00  0.00     0.105 C 
BRANCH  13  14
ATOM     14  C   UNL A   1      41.808  28.012  26.835  1.00  0.00     0.053 C 
BRANCH  14  15
ATOM     15  C   UNL A   1      42.309  26.719  26.195  1.00  0.00     0.042 A 
ATOM     16  C   UNL A   1      43.528  18.422  26.058  1.00  0.00     0.088 C 
ATOM     17  C   UNL A   1      43.030  19.793  25.800  1.00  0.00     0.105 A 
ATOM     18  O   UNL A   1      43.795  20.582  24.987  1.00  0.00    -0.461 OA
ATOM     19  C   UNL A   1      41.993  20.523  26.354  1.00  0.00    -0.002 A 
ATOM     20  C   UNL A   1      43.347  21.868  25.118  1.00  0.00     0.141 A 
ATOM     21  C   UNL A   1      42.200  21.866  25.881  1.00  0.00     0.025 A 
ATOM     22  C   UNL A   1      41.075  20.039  27.429  1.00  0.00     0.049 C 
ATOM     23  C   UNL A   1      43.981  23.041  24.653  1.00  0.00     0.036 A 
ATOM     24  C   UNL A   1      41.665  23.123  26.224  1.00  0.00     0.024 A 
ATOM     25  C   UNL A   1      45.213  22.935  23.824  1.00  0.00     0.052 C 
ATOM     26  C   UNL A   1      43.486  24.268  25.188  1.00  0.00     0.145 A 
ATOM     27  C   UNL A   1      42.422  24.317  26.073  1.00  0.00     0.022 A 
ATOM     28  O   UNL A   1      44.109  25.518  24.913  1.00  0.00    -0.422 OA
ATOM     29  C   UNL A   1      42.296  25.582  26.892  1.00  0.00    -0.030 A 
ATOM     30  C   UNL A   1      43.576  26.758  25.363  1.00  0.00     0.339 A 
ATOM     31  C   UNL A   1      42.853  25.869  28.304  1.00  0.00     0.046 C 
ATOM     32  O   UNL A   1      44.177  27.816  25.192  1.00  0.00    -0.246 OA
ENDBRANCH  14  15
ENDBRANCH  13  14
ENDBRANCH  10  13
ENDBRANCH   8   9
BRANCH   8  33
ATOM     33  C   UNL A   1      37.154  29.431  30.447  1.00  0.00     0.072 C 
BRANCH  33  34
ATOM     34  C   UNL A   1      36.200  30.624  29.935  1.00  0.00    -0.045 A 
ATOM     35  C   UNL A   1      35.903  30.664  28.554  1.00  0.00     0.005 A 
ATOM     36  C   UNL A   1      35.660  31.754  30.592  1.00  0.00     0.005 A 
ATOM     37  C   UNL A   1      35.058  31.648  27.962  1.00  0.00     0.021 A 
ATOM     38  C   UNL A   1      34.780  32.712  30.051  1.00  0.00     0.021 A 
ATOM     39  C   UNL A   1      34.461  32.643  28.723  1.00  0.00     0.041 A 
ATOM     40  Cl  UNL A   1      33.373  33.784  28.046  1.00  0.00    -0.084 Cl
ENDBRANCH  33  34
ENDBRANCH   8  33
ENDBRANCH   6   8
ENDBRANCH   5   6
ENDBRANCH   4   5
ENDBRANCH   3   4
ENDBRANCH   2   3
ENDBRANCH   1   2
BRANCH   1  41
ATOM     41  C   UNL A   1      45.954  30.534  29.356  1.00  0.00     0.188 C 
BRANCH  41  42
ATOM     42  O   UNL A   1      46.566  31.431  28.448  1.00  0.00    -0.376 OA
BRANCH  42  43
ATOM     43  C   UNL A   1      46.915  31.000  27.148  1.00  0.00     0.202 C 
BRANCH  43  44
ATOM     44  C   UNL A   1      45.834  31.027  26.063  1.00  0.00     0.261 C 
BRANCH  44  45
ATOM     45  O   UNL A   1      44.539  31.453  26.520  1.00  0.00    -0.460 OA
BRANCH  45  46
ATOM     46  C   UNL A   1      44.228  32.701  26.106  1.00  0.00     0.338 C 
ATOM     47  O   UNL A   1      43.881  33.025  24.972  1.00  0.00    -0.246 OA
BRANCH  46  48
ATOM     48  C   UNL A   1      44.459  33.723  27.137  1.00  0.00     0.060 A 
ATOM     49  C   UNL A   1      43.730  33.789  28.332  1.00  0.00     0.016 A 
ATOM     50  C   UNL A   1      45.280  34.782  26.758  1.00  0.00     0.016 A 
ATOM     51  C   UNL A   1      43.785  34.940  29.124  1.00  0.00     0.010 A 
ATOM     52  C   UNL A   1      45.334  35.924  27.547  1.00  0.00     0.010 A 
ATOM     53  C   UNL A   1      44.581  36.015  28.730  1.00  0.00    -0.014 A 
BRANCH  53  54
ATOM     54  C   UNL A   1      44.801  37.123  29.689  1.00  0.00     0.031 A 
ATOM     55  C   UNL A   1      46.250  37.499  29.683  1.00  0.00     0.074 A 
ATOM     56  C   UNL A   1      43.911  38.113  29.926  1.00  0.00     0.049 A 
ATOM     57  N   UNL A   1      46.750  38.181  28.692  1.00  0.00    -0.248 NA
ATOM     58  C   UNL A   1      47.256  36.818  30.496  1.00  0.00     0.031 C 
ATOM     59  C   UNL A   1      42.878  38.521  28.968  1.00  0.00     0.029 A 
ATOM     60  N   UNL A   1      43.896  39.109  30.888  1.00  0.00    -0.354 N 
ATOM     61  C   UNL A   1      48.097  37.902  28.646  1.00  0.00     0.074 A 
ATOM     62  C   UNL A   1      48.381  37.106  29.821  1.00  0.00     0.031 C 
ATOM     63  C   UNL A   1      42.482  39.774  29.272  1.00  0.00     0.029 A 
ATOM     64  C   UNL A   1      43.113  40.204  30.521  1.00  0.00     0.049 A 
ATOM     65  H   UNL A   1      44.388  39.051  31.740  1.00  0.00     0.167 HD
ATOM     66  C   UNL A   1      48.877  38.287  27.604  1.00  0.00     0.037 A 
ATOM     67  C   UNL A   1      43.386  41.504  30.830  1.00  0.00     0.037 A 
ATOM     68  C   UNL A   1      48.219  38.987  26.539  1.00  0.00     0.049 A 
ATOM     69  C   UNL A   1      44.492  41.811  29.853  1.00  0.00     0.074 A 
ATOM     70  C   UNL A   1      47.776  38.726  25.260  1.00  0.00     0.029 A 
ATOM     71  N   UNL A   1      47.887  40.302  26.755  1.00  0.00    -0.354 N 
ATOM     72  N   UNL A   1      44.364  42.096  28.585  1.00  0.00    -0.248 NA
ATOM     73  C   UNL A   1      45.847  41.440  30.263  1.00  0.00     0.031 C 
ATOM     74  C   UNL A   1      46.814  39.748  24.969  1.00  0.00     0.029 A 
ATOM     75  C   UNL A   1      46.704  40.544  26.107  1.00  0.00     0.049 A 
ATOM     76  H   UNL A   1      48.406  40.953  27.281  1.00  0.00     0.167 HD
ATOM     77  C   UNL A   1      45.551  41.657  27.991  1.00  0.00     0.074 A 
ATOM     78  C   UNL A   1      46.438  41.321  29.084  1.00  0.00     0.031 C 
ATOM     79  C   UNL A   1      45.678  41.403  26.655  1.00  0.00     0.037 A 
BRANCH  66  80
ATOM     80  C   UNL A   1      50.344  38.203  27.604  1.00  0.00     0.057 A 
ATOM     81  C   UNL A   1      51.037  39.255  28.216  1.00  0.00     0.134 A 
ATOM     82  C   UNL A   1      51.073  37.270  26.870  1.00  0.00     0.134 A 
ATOM     83  F   UNL A   1      50.367  40.182  28.922  1.00  0.00    -0.206 F 
ATOM     84  C   UNL A   1      52.410  39.408  28.067  1.00  0.00     0.040 A 
ATOM     85  C   UNL A   1      52.456  37.405  26.724  1.00  0.00     0.040 A 
ATOM     86  F   UNL A   1      50.459  36.251  26.252  1.00  0.00    -0.206 F 
ATOM     87  C   UNL A   1      53.124  38.484  27.309  1.00  0.00     0.006 A 
ENDBRANCH  66  80
BRANCH  67  88
ATOM     88  C   UNL A   1      43.454  41.875  32.280  1.00  0.00     0.057 A 
ATOM     89  C   UNL A   1      42.671  42.953  32.734  1.00  0.00     0.134 A 
ATOM     90  C   UNL A   1      44.266  41.271  33.252  1.00  0.00     0.134 A 
ATOM     91  F   UNL A   1      41.963  43.691  31.866  1.00  0.00    -0.206 F 
ATOM     92  C   UNL A   1      42.596  43.315  34.085  1.00  0.00     0.040 A 
ATOM     93  C   UNL A   1      44.177  41.599  34.612  1.00  0.00     0.040 A 
ATOM     94  F   UNL A   1      45.176  40.344  32.927  1.00  0.00    -0.206 F 
ATOM     95  C   UNL A   1      43.324  42.610  35.035  1.00  0.00     0.006 A 
ENDBRANCH  67  88
BRANCH  79  96
ATOM     96  C   UNL A   1      44.552  41.862  25.795  1.00  0.00     0.057 A 
ATOM     97  C   UNL A   1      44.608  43.118  25.181  1.00  0.00     0.134 A 
ATOM     98  C   UNL A   1      43.440  41.056  25.519  1.00  0.00     0.134 A 
ATOM     99  F   UNL A   1      45.653  43.935  25.393  1.00  0.00    -0.206 F 
ATOM    100  C   UNL A   1      43.609  43.547  24.306  1.00  0.00     0.040 A 
ATOM    101  C   UNL A   1      42.446  41.465  24.626  1.00  0.00     0.040 A 
ATOM    102  F   UNL A   1      43.306  39.847  26.086  1.00  0.00    -0.206 F 
ATOM    103  C   UNL A   1      42.530  42.713  24.015  1.00  0.00     0.006 A 
ENDBRANCH  79  96
ENDBRANCH  53  54
ENDBRANCH  46  48
ENDBRANCH  45  46
ENDBRANCH  44  45
ENDBRANCH  43  44
ENDBRANCH  42  43
ENDBRANCH  41  42
ENDBRANCH   1  41
TORSDOF 23
ENDMDL
MODEL 3
REMARK VINA RESULT:      -9.2      6.610     12.680
REMARK SMILES Cc1oc2c(C)c3oc(=O)c(CCC(=O)N[C@H](Cc4ccc(Cl)cc4)C(=O)OCCOCCOCCOC(=O)c4ccc(-c5c6nc(c(-c7c(F)cccc7F)c7ccc([nH]7)c(-c7c(F)cccc7F)c7nc(c(-c8c(F)cccc8F)c8ccc5[nH]8)C=C7)C=C6)cc4)c(C)c3cc2c1C
REMARK SMILES IDX 32 1 31 2 30 3 29 4 28 5 26 6 27 7 17 8 16 9 14 10 15 11
REMARK SMILES IDX 13 13 12 14 11 15 1 16 2 17 3 18 99 19 4 20 98 21 100 22
REMARK SMILES IDX 5 23 97 24 6 25 7 26 96 27 8 28 94 29 9 30 95 31 10 32 18 33
REMARK SMILES IDX 19 34 20 35 25 36 21 37 24 38 22 39 23 40 33 41 34 42 35 43
REMARK SMILES IDX 36 44 37 45 38 46 39 47 40 48 41 49 93 50 42 51 92 52 43 53
REMARK SMILES IDX 44 54 45 55 86 56 46 57 91 58 85 59 87 60 47 61 90 62 84 63
REMARK SMILES IDX 83 64 48 66 74 67 57 68 73 69 58 70 61 71 72 72 88 73 59 74
REMARK SMILES IDX 60 75 71 77 89 78 62 79 49 80 50 81 55 82 51 83 52 84 54 85
REMARK SMILES IDX 56 86 53 87 75 88 76 89 81 90 77 91 78 92 80 93 82 94 79 95
REMARK SMILES IDX 63 96 64 97 69 98 65 99 66 100 68 101 70 102 67 103
REMARK H PARENT 16 12 87 65 61 76
REMARK Flexibility Score: inf
ROOT
ATOM      1  C   UNL A   1      41.943  34.609  30.478  1.00  0.00     0.188 C 
ENDROOT
BRANCH   1   2
ATOM      2  O   UNL A   1      40.549  34.347  30.594  1.00  0.00    -0.376 OA
BRANCH   2   3
ATOM      3  C   UNL A   1      40.019  34.289  31.921  1.00  0.00     0.202 C 
BRANCH   3   4
ATOM      4  C   UNL A   1      38.472  34.269  32.012  1.00  0.00     0.261 C 
BRANCH   4   5
ATOM      5  O   UNL A   1      37.933  34.015  33.352  1.00  0.00    -0.462 OA
BRANCH   5   6
ATOM      6  C   UNL A   1      37.061  32.991  33.640  1.00  0.00     0.329 C 
ATOM      7  O   UNL A   1      35.911  32.970  33.215  1.00  0.00    -0.250 OA
BRANCH   6   8
ATOM      8  C   UNL A   1      37.702  31.878  34.691  1.00  0.00     0.196 C 
BRANCH   8   9
ATOM      9  N   UNL A   1      37.408  32.363  36.056  1.00  0.00    -0.342 N 
ATOM     10  C   UNL A   1      37.963  33.162  36.983  1.00  0.00     0.221 C 
ATOM     11  O   UNL A   1      37.309  33.147  38.043  1.00  0.00    -0.275 OA
ATOM     12  H   UNL A   1      36.557  31.992  36.382  1.00  0.00     0.164 HD
BRANCH  10  13
ATOM     13  C   UNL A   1      39.104  34.206  36.883  1.00  0.00     0.105 C 
BRANCH  13  14
ATOM     14  C   UNL A   1      40.672  34.188  36.809  1.00  0.00     0.053 C 
BRANCH  14  15
ATOM     15  C   UNL A   1      41.509  34.749  35.663  1.00  0.00     0.042 A 
ATOM     16  C   UNL A   1      48.401  35.069  30.891  1.00  0.00     0.088 C 
ATOM     17  C   UNL A   1      47.026  34.841  31.395  1.00  0.00     0.105 A 
ATOM     18  O   UNL A   1      46.192  35.923  31.417  1.00  0.00    -0.461 OA
ATOM     19  C   UNL A   1      46.434  33.756  32.019  1.00  0.00    -0.002 A 
ATOM     20  C   UNL A   1      45.106  35.594  32.181  1.00  0.00     0.141 A 
ATOM     21  C   UNL A   1      45.175  34.256  32.503  1.00  0.00     0.025 A 
ATOM     22  C   UNL A   1      47.120  32.469  32.346  1.00  0.00     0.049 C 
ATOM     23  C   UNL A   1      44.112  36.471  32.669  1.00  0.00     0.036 A 
ATOM     24  C   UNL A   1      44.199  33.767  33.393  1.00  0.00     0.024 A 
ATOM     25  C   UNL A   1      44.119  37.900  32.251  1.00  0.00     0.052 C 
ATOM     26  C   UNL A   1      43.273  35.946  33.697  1.00  0.00     0.145 A 
ATOM     27  C   UNL A   1      43.390  34.648  34.163  1.00  0.00     0.022 A 
ATOM     28  O   UNL A   1      42.315  36.753  34.374  1.00  0.00    -0.422 OA
ATOM     29  C   UNL A   1      42.780  34.369  35.517  1.00  0.00    -0.030 A 
ATOM     30  C   UNL A   1      41.409  36.226  35.337  1.00  0.00     0.339 A 
ATOM     31  C   UNL A   1      43.462  34.410  36.903  1.00  0.00     0.046 C 
ATOM     32  O   UNL A   1      40.653  36.954  35.974  1.00  0.00    -0.246 OA
ENDBRANCH  14  15
ENDBRANCH  13  14
ENDBRANCH  10  13
ENDBRANCH   8   9
BRANCH   8  33
ATOM     33  C   UNL A   1      38.889  30.577  34.777  1.00  0.00     0.072 C 
BRANCH  33  34
ATOM     34  C   UNL A   1      40.439  30.139  34.726  1.00  0.00    -0.045 A 
ATOM     35  C   UNL A   1      40.743  28.923  34.075  1.00  0.00     0.005 A 
ATOM     36  C   UNL A   1      41.599  30.689  35.319  1.00  0.00     0.005 A 
ATOM     37  C   UNL A   1      42.070  28.420  33.935  1.00  0.00     0.021 A 
ATOM     38  C   UNL A   1      42.928  30.249  35.156  1.00  0.00     0.021 A 
ATOM     39  C   UNL A   1      43.164  29.110  34.438  1.00  0.00     0.041 A 
ATOM     40  Cl  UNL A   1      44.775  28.566  34.205  1.00  0.00    -0.084 Cl
ENDBRANCH  33  34
ENDBRANCH   8  33
ENDBRANCH   6   8
ENDBRANCH   5   6
ENDBRANCH   4   5
ENDBRANCH   3   4
ENDBRANCH   2   3
ENDBRANCH   1   2
BRANCH   1  41
ATOM     41  C   UNL A   1      42.444  34.887  29.071  1.00  0.00     0.188 C 
BRANCH  41  42
ATOM     42  O   UNL A   1      41.654  35.674  28.200  1.00  0.00    -0.376 OA
BRANCH  42  43
ATOM     43  C   UNL A   1      42.183  36.122  26.968  1.00  0.00     0.202 C 
BRANCH  43  44
ATOM     44  C   UNL A   1      43.617  35.720  26.609  1.00  0.00     0.261 C 
BRANCH  44  45
ATOM     45  O   UNL A   1      43.726  34.844  25.474  1.00  0.00    -0.460 OA
BRANCH  45  46
ATOM     46  C   UNL A   1      44.899  34.172  25.448  1.00  0.00     0.338 C 
ATOM     47  O   UNL A   1      45.799  34.314  24.624  1.00  0.00    -0.246 OA
BRANCH  46  48
ATOM     48  C   UNL A   1      44.977  33.114  26.466  1.00  0.00     0.060 A 
ATOM     49  C   UNL A   1      44.072  32.047  26.539  1.00  0.00     0.016 A 
ATOM     50  C   UNL A   1      45.857  33.359  27.517  1.00  0.00     0.016 A 
ATOM     51  C   UNL A   1      44.014  31.254  27.688  1.00  0.00     0.010 A 
ATOM     52  C   UNL A   1      45.799  32.568  28.658  1.00  0.00     0.010 A 
ATOM     53  C   UNL A   1      44.873  31.516  28.756  1.00  0.00    -0.014 A 
BRANCH  53  54
ATOM     54  C   UNL A   1      44.952  30.531  29.860  1.00  0.00     0.031 A 
ATOM     55  C   UNL A   1      43.597  30.378  30.479  1.00  0.00     0.074 A 
ATOM     56  C   UNL A   1      45.750  29.440  29.852  1.00  0.00     0.049 A 
ATOM     57  N   UNL A   1      42.665  29.704  29.867  1.00  0.00    -0.248 NA
ATOM     58  C   UNL A   1      43.093  31.263  31.528  1.00  0.00     0.031 C 
ATOM     59  C   UNL A   1      46.249  28.809  28.625  1.00  0.00     0.029 A 
ATOM     60  N   UNL A   1      46.053  28.530  30.850  1.00  0.00    -0.354 N 
ATOM     61  C   UNL A   1      41.456  30.178  30.323  1.00  0.00     0.074 A 
ATOM     62  C   UNL A   1      41.766  31.095  31.399  1.00  0.00     0.031 C 
ATOM     63  C   UNL A   1      46.600  27.538  28.909  1.00  0.00     0.029 A 
ATOM     64  C   UNL A   1      46.496  27.305  30.350  1.00  0.00     0.049 A 
ATOM     65  H   UNL A   1      45.965  28.727  31.812  1.00  0.00     0.167 HD
ATOM     66  C   UNL A   1      40.280  29.835  29.737  1.00  0.00     0.037 A 
ATOM     67  C   UNL A   1      46.238  26.088  30.910  1.00  0.00     0.037 A 
ATOM     68  C   UNL A   1      40.364  28.965  28.600  1.00  0.00     0.049 A 
ATOM     69  C   UNL A   1      44.802  25.877  30.502  1.00  0.00     0.074 A 
ATOM     70  C   UNL A   1      40.268  29.057  27.228  1.00  0.00     0.029 A 
ATOM     71  N   UNL A   1      40.615  27.636  28.838  1.00  0.00    -0.354 N 
ATOM     72  N   UNL A   1      44.367  25.479  29.337  1.00  0.00    -0.248 NA
ATOM     73  C   UNL A   1      43.784  26.477  31.363  1.00  0.00     0.031 C 
ATOM     74  C   UNL A   1      40.911  27.883  26.716  1.00  0.00     0.029 A 
ATOM     75  C   UNL A   1      41.394  27.170  27.811  1.00  0.00     0.049 A 
ATOM     76  H   UNL A   1      40.292  27.112  29.607  1.00  0.00     0.167 HD
ATOM     77  C   UNL A   1      43.095  26.044  29.210  1.00  0.00     0.074 A 
ATOM     78  C   UNL A   1      42.777  26.593  30.512  1.00  0.00     0.031 C 
ATOM     79  C   UNL A   1      42.457  26.211  28.014  1.00  0.00     0.037 A 
BRANCH  66  80
ATOM     80  C   UNL A   1      38.962  30.138  30.309  1.00  0.00     0.057 A 
ATOM     81  C   UNL A   1      38.412  29.181  31.171  1.00  0.00     0.134 A 
ATOM     82  C   UNL A   1      38.154  31.195  29.894  1.00  0.00     0.134 A 
ATOM     83  F   UNL A   1      39.155  28.140  31.584  1.00  0.00    -0.206 F 
ATOM     84  C   UNL A   1      37.083  29.242  31.576  1.00  0.00     0.040 A 
ATOM     85  C   UNL A   1      36.820  31.274  30.304  1.00  0.00     0.040 A 
ATOM     86  F   UNL A   1      38.625  32.131  29.057  1.00  0.00    -0.206 F 
ATOM     87  C   UNL A   1      36.279  30.288  31.132  1.00  0.00     0.006 A 
ENDBRANCH  66  80
BRANCH  67  88
ATOM     88  C   UNL A   1      46.734  25.844  32.303  1.00  0.00     0.057 A 
ATOM     89  C   UNL A   1      47.932  26.462  32.706  1.00  0.00     0.134 A 
ATOM     90  C   UNL A   1      46.135  25.011  33.260  1.00  0.00     0.134 A 
ATOM     91  F   UNL A   1      48.662  27.167  31.828  1.00  0.00    -0.206 F 
ATOM     92  C   UNL A   1      48.426  26.369  34.012  1.00  0.00     0.040 A 
ATOM     93  C   UNL A   1      46.598  24.936  34.581  1.00  0.00     0.040 A 
ATOM     94  F   UNL A   1      45.083  24.239  32.958  1.00  0.00    -0.206 F 
ATOM     95  C   UNL A   1      47.736  25.633  34.967  1.00  0.00     0.006 A 
ENDBRANCH  67  88
BRANCH  79  96
ATOM     96  C   UNL A   1      43.075  25.523  26.847  1.00  0.00     0.057 A 
ATOM     97  C   UNL A   1      44.024  26.189  26.063  1.00  0.00     0.134 A 
ATOM     98  C   UNL A   1      42.786  24.192  26.520  1.00  0.00     0.134 A 
ATOM     99  F   UNL A   1      44.356  27.463  26.331  1.00  0.00    -0.206 F 
ATOM    100  C   UNL A   1      44.680  25.548  25.011  1.00  0.00     0.040 A 
ATOM    101  C   UNL A   1      43.454  23.533  25.485  1.00  0.00     0.040 A 
ATOM    102  F   UNL A   1      41.872  23.493  27.212  1.00  0.00    -0.206 F 
ATOM    103  C   UNL A   1      44.407  24.212  24.728  1.00  0.00     0.006 A 
ENDBRANCH  79  96
ENDBRANCH  53  54
ENDBRANCH  46  48
ENDBRANCH  45  46
ENDBRANCH  44  45
ENDBRANCH  43  44
ENDBRANCH  42  43
ENDBRANCH  41  42
ENDBRANCH   1  41
TORSDOF 23
ENDMDL
