MODEL 1
REMARK VINA RESULT:     -10.5      0.000      0.000
REMARK SMILES O=C(OCCOCCOCCOC(=O)[C@H]1[C@@H](C(=O)NN2CCOCC2)[C@H]2C=C[C@@H]1CC2)c1ccc(-c2c3nc(c(-c4c(F)cccc4F)c4ccc([nH]4)c(-c4c(F)cccc4F)c4nc(c(-c5c(F)cccc5F)c5ccc2[nH]5)C=C4)C=C3)cc1
REMARK SMILES IDX 7 1 6 2 5 3 4 4 3 5 2 6 1 7 32 8 33 9 85 10 34 11 84 12
REMARK SMILES IDX 35 13 36 14 37 15 78 16 38 17 83 18 77 19 79 20 39 21 82 22
REMARK SMILES IDX 76 23 75 24 40 26 66 27 49 28 65 29 50 30 53 31 64 32 80 33
REMARK SMILES IDX 51 34 52 35 63 37 81 38 54 39 41 40 42 41 47 42 43 43 44 44
REMARK SMILES IDX 46 45 48 46 45 47 67 48 68 49 73 50 69 51 70 52 72 53 74 54
REMARK SMILES IDX 71 55 55 56 56 57 61 58 57 59 58 60 60 61 62 62 59 63 8 64
REMARK SMILES IDX 9 65 10 66 11 67 12 68 13 69 14 70 15 71 16 72 29 73 26 74
REMARK SMILES IDX 28 75 30 76 27 77 31 78 17 79 18 80 19 81 20 83 21 84 25 85
REMARK SMILES IDX 22 86 24 87 23 88
REMARK H PARENT 79 25 53 36 19 82
REMARK Flexibility Score: inf
ROOT
ATOM      1  C   UNL A   1      29.035  31.936  23.923  1.00  0.00     0.188 C 
ENDROOT
BRANCH   1   2
ATOM      2  O   UNL A   1      29.926  31.607  24.994  1.00  0.00    -0.376 OA
BRANCH   2   3
ATOM      3  C   UNL A   1      30.746  32.709  25.404  1.00  0.00     0.202 C 
BRANCH   3   4
ATOM      4  C   UNL A   1      31.565  32.486  26.691  1.00  0.00     0.261 C 
BRANCH   4   5
ATOM      5  O   UNL A   1      32.215  33.671  27.186  1.00  0.00    -0.460 OA
BRANCH   5   6
ATOM      6  C   UNL A   1      32.983  33.834  28.294  1.00  0.00     0.338 C 
ATOM      7  O   UNL A   1      32.616  34.653  29.136  1.00  0.00    -0.246 OA
BRANCH   6   8
ATOM      8  C   UNL A   1      34.265  33.103  28.551  1.00  0.00     0.060 A 
ATOM      9  C   UNL A   1      34.368  31.755  28.887  1.00  0.00     0.016 A 
ATOM     10  C   UNL A   1      35.464  33.828  28.402  1.00  0.00     0.016 A 
ATOM     11  C   UNL A   1      35.585  31.167  29.184  1.00  0.00     0.010 A 
ATOM     12  C   UNL A   1      36.706  33.236  28.663  1.00  0.00     0.010 A 
ATOM     13  C   UNL A   1      36.755  31.914  29.114  1.00  0.00    -0.014 A 
BRANCH  13  14
ATOM     14  C   UNL A   1      37.943  31.328  29.760  1.00  0.00     0.031 A 
ATOM     15  C   UNL A   1      38.142  31.610  31.218  1.00  0.00     0.074 A 
ATOM     16  C   UNL A   1      38.671  30.399  29.116  1.00  0.00     0.049 A 
ATOM     17  N   UNL A   1      39.032  31.128  32.041  1.00  0.00    -0.248 NA
ATOM     18  C   UNL A   1      37.176  32.530  31.847  1.00  0.00     0.031 C 
ATOM     19  C   UNL A   1      38.423  29.944  27.749  1.00  0.00     0.029 A 
ATOM     20  N   UNL A   1      39.728  29.638  29.531  1.00  0.00    -0.354 N 
ATOM     21  C   UNL A   1      38.742  31.696  33.275  1.00  0.00     0.074 A 
ATOM     22  C   UNL A   1      37.607  32.569  33.096  1.00  0.00     0.031 C 
ATOM     23  C   UNL A   1      39.306  28.986  27.431  1.00  0.00     0.029 A 
ATOM     24  C   UNL A   1      40.197  28.779  28.565  1.00  0.00     0.049 A 
ATOM     25  H   UNL A   1      40.115  29.699  30.433  1.00  0.00     0.167 HD
ATOM     26  C   UNL A   1      39.375  31.498  34.453  1.00  0.00     0.037 A 
ATOM     27  C   UNL A   1      41.238  27.929  28.604  1.00  0.00     0.037 A 
ATOM     28  C   UNL A   1      40.507  30.625  34.596  1.00  0.00     0.049 A 
ATOM     29  C   UNL A   1      42.004  27.826  29.894  1.00  0.00     0.074 A 
ATOM     30  C   UNL A   1      41.277  30.383  35.716  1.00  0.00     0.029 A 
ATOM     31  N   UNL A   1      41.033  29.853  33.567  1.00  0.00    -0.354 N 
ATOM     32  N   UNL A   1      41.760  28.405  31.047  1.00  0.00    -0.248 NA
ATOM     33  C   UNL A   1      43.182  26.952  29.894  1.00  0.00     0.031 C 
ATOM     34  C   UNL A   1      42.308  29.511  35.349  1.00  0.00     0.029 A 
ATOM     35  C   UNL A   1      42.138  29.155  34.018  1.00  0.00     0.049 A 
ATOM     36  H   UNL A   1      40.672  29.810  32.652  1.00  0.00     0.167 HD
ATOM     37  C   UNL A   1      42.733  27.942  31.920  1.00  0.00     0.074 A 
ATOM     38  C   UNL A   1      43.561  27.022  31.163  1.00  0.00     0.031 C 
ATOM     39  C   UNL A   1      42.929  28.242  33.228  1.00  0.00     0.037 A 
BRANCH  26  40
ATOM     40  C   UNL A   1      38.900  32.308  35.623  1.00  0.00     0.057 A 
ATOM     41  C   UNL A   1      39.257  33.651  35.805  1.00  0.00     0.134 A 
ATOM     42  C   UNL A   1      38.116  31.709  36.616  1.00  0.00     0.134 A 
ATOM     43  F   UNL A   1      40.037  34.276  34.911  1.00  0.00    -0.206 F 
ATOM     44  C   UNL A   1      38.876  34.358  36.949  1.00  0.00     0.040 A 
ATOM     45  C   UNL A   1      37.707  32.413  37.749  1.00  0.00     0.040 A 
ATOM     46  F   UNL A   1      37.749  30.423  36.511  1.00  0.00    -0.206 F 
ATOM     47  C   UNL A   1      38.096  33.739  37.923  1.00  0.00     0.006 A 
ENDBRANCH  26  40
BRANCH  27  48
ATOM     48  C   UNL A   1      41.624  27.145  27.402  1.00  0.00     0.057 A 
ATOM     49  C   UNL A   1      41.203  25.823  27.219  1.00  0.00     0.134 A 
ATOM     50  C   UNL A   1      42.449  27.696  26.411  1.00  0.00     0.134 A 
ATOM     51  F   UNL A   1      40.423  25.231  28.136  1.00  0.00    -0.206 F 
ATOM     52  C   UNL A   1      41.607  25.071  26.113  1.00  0.00     0.040 A 
ATOM     53  C   UNL A   1      42.837  26.966  25.286  1.00  0.00     0.040 A 
ATOM     54  F   UNL A   1      42.884  28.960  26.517  1.00  0.00    -0.206 F 
ATOM     55  C   UNL A   1      42.424  25.644  25.140  1.00  0.00     0.006 A 
ENDBRANCH  27  48
BRANCH  39  56
ATOM     56  C   UNL A   1      44.050  27.531  33.922  1.00  0.00     0.057 A 
ATOM     57  C   UNL A   1      43.885  26.264  34.496  1.00  0.00     0.134 A 
ATOM     58  C   UNL A   1      45.323  28.112  33.983  1.00  0.00     0.134 A 
ATOM     59  F   UNL A   1      42.685  25.662  34.481  1.00  0.00    -0.206 F 
ATOM     60  C   UNL A   1      44.941  25.613  35.132  1.00  0.00     0.040 A 
ATOM     61  C   UNL A   1      46.395  27.456  34.586  1.00  0.00     0.040 A 
ATOM     62  F   UNL A   1      45.548  29.319  33.440  1.00  0.00    -0.206 F 
ATOM     63  C   UNL A   1      46.201  26.206  35.171  1.00  0.00     0.006 A 
ENDBRANCH  39  56
ENDBRANCH  13  14
ENDBRANCH   6   8
ENDBRANCH   5   6
ENDBRANCH   4   5
ENDBRANCH   3   4
ENDBRANCH   2   3
ENDBRANCH   1   2
BRANCH   1  64
ATOM     64  C   UNL A   1      28.226  30.758  23.382  1.00  0.00     0.188 C 
BRANCH  64  65
ATOM     65  O   UNL A   1      28.687  30.109  22.206  1.00  0.00    -0.376 OA
BRANCH  65  66
ATOM     66  C   UNL A   1      29.826  29.270  22.331  1.00  0.00     0.202 C 
BRANCH  66  67
ATOM     67  C   UNL A   1      29.655  27.850  22.900  1.00  0.00     0.261 C 
BRANCH  67  68
ATOM     68  O   UNL A   1      30.860  27.130  23.228  1.00  0.00    -0.463 OA
BRANCH  68  69
ATOM     69  C   UNL A   1      30.808  26.461  24.415  1.00  0.00     0.310 C 
ATOM     70  O   UNL A   1      30.116  25.470  24.588  1.00  0.00    -0.252 OA
BRANCH  69  71
ATOM     71  C   UNL A   1      31.549  27.151  25.558  1.00  0.00     0.119 C 
ATOM     72  C   UNL A   1      32.992  26.609  25.854  1.00  0.00     0.101 C 
ATOM     73  C   UNL A   1      31.560  28.703  25.640  1.00  0.00     0.026 C 
ATOM     74  C   UNL A   1      33.904  27.778  26.326  1.00  0.00     0.025 C 
ATOM     75  C   UNL A   1      32.720  29.299  24.877  1.00  0.00    -0.027 C 
ATOM     76  C   UNL A   1      31.872  29.057  27.132  1.00  0.00     0.009 C 
ATOM     77  C   UNL A   1      33.923  28.885  25.296  1.00  0.00    -0.027 C 
ATOM     78  C   UNL A   1      33.223  28.419  27.561  1.00  0.00     0.009 C 
BRANCH  72  79
ATOM     79  C   UNL A   1      33.555  25.615  24.826  1.00  0.00     0.238 C 
ATOM     80  O   UNL A   1      33.944  26.019  23.723  1.00  0.00    -0.273 OA
ATOM     81  N   UNL A   1      33.719  24.278  25.098  1.00  0.00    -0.288 N 
ATOM     82  H   UNL A   1      34.596  23.858  24.954  1.00  0.00     0.185 HD
BRANCH  81  83
ATOM     83  N   UNL A   1      32.645  23.501  25.582  1.00  0.00    -0.217 NA
ATOM     84  C   UNL A   1      32.676  23.302  27.044  1.00  0.00     0.136 C 
ATOM     85  C   UNL A   1      32.568  22.188  24.910  1.00  0.00     0.136 C 
ATOM     86  C   UNL A   1      33.716  22.278  27.506  1.00  0.00     0.177 C 
ATOM     87  C   UNL A   1      33.612  21.186  25.420  1.00  0.00     0.177 C 
ATOM     88  O   UNL A   1      33.530  21.022  26.841  1.00  0.00    -0.379 OA
ENDBRANCH  81  83
ENDBRANCH  72  79
ENDBRANCH  69  71
ENDBRANCH  68  69
ENDBRANCH  67  68
ENDBRANCH  66  67
ENDBRANCH  65  66
ENDBRANCH  64  65
ENDBRANCH   1  64
TORSDOF 19
ENDMDL
MODEL 2
REMARK VINA RESULT:     -10.4      3.428      8.511
REMARK SMILES O=C(OCCOCCOCCOC(=O)[C@H]1[C@@H](C(=O)NN2CCOCC2)[C@H]2C=C[C@@H]1CC2)c1ccc(-c2c3nc(c(-c4c(F)cccc4F)c4ccc([nH]4)c(-c4c(F)cccc4F)c4nc(c(-c5c(F)cccc5F)c5ccc2[nH]5)C=C4)C=C3)cc1
REMARK SMILES IDX 7 1 6 2 5 3 4 4 3 5 2 6 1 7 32 8 33 9 85 10 34 11 84 12
REMARK SMILES IDX 35 13 36 14 37 15 78 16 38 17 83 18 77 19 79 20 39 21 82 22
REMARK SMILES IDX 76 23 75 24 40 26 66 27 49 28 65 29 50 30 53 31 64 32 80 33
REMARK SMILES IDX 51 34 52 35 63 37 81 38 54 39 41 40 42 41 47 42 43 43 44 44
REMARK SMILES IDX 46 45 48 46 45 47 67 48 68 49 73 50 69 51 70 52 72 53 74 54
REMARK SMILES IDX 71 55 55 56 56 57 61 58 57 59 58 60 60 61 62 62 59 63 8 64
REMARK SMILES IDX 9 65 10 66 11 67 12 68 13 69 14 70 15 71 16 72 29 73 26 74
REMARK SMILES IDX 28 75 30 76 27 77 31 78 17 79 18 80 19 81 20 83 21 84 25 85
REMARK SMILES IDX 22 86 24 87 23 88
REMARK H PARENT 79 25 53 36 19 82
REMARK Flexibility Score: inf
ROOT
ATOM      1  C   UNL A   1      41.081  20.632  26.387  1.00  0.00     0.188 C 
ENDROOT
BRANCH   1   2
ATOM      2  O   UNL A   1      42.191  20.755  25.493  1.00  0.00    -0.376 OA
BRANCH   2   3
ATOM      3  C   UNL A   1      43.293  21.478  26.057  1.00  0.00     0.202 C 
BRANCH   3   4
ATOM      4  C   UNL A   1      44.250  22.132  25.041  1.00  0.00     0.261 C 
BRANCH   4   5
ATOM      5  O   UNL A   1      43.829  23.432  24.590  1.00  0.00    -0.460 OA
BRANCH   5   6
ATOM      6  C   UNL A   1      44.214  24.661  25.019  1.00  0.00     0.338 C 
ATOM      7  O   UNL A   1      45.308  25.087  24.650  1.00  0.00    -0.246 OA
BRANCH   6   8
ATOM      8  C   UNL A   1      43.408  25.528  25.937  1.00  0.00     0.060 A 
ATOM      9  C   UNL A   1      43.693  26.856  26.244  1.00  0.00     0.016 A 
ATOM     10  C   UNL A   1      42.246  24.966  26.505  1.00  0.00     0.016 A 
ATOM     11  C   UNL A   1      42.943  27.571  27.162  1.00  0.00     0.010 A 
ATOM     12  C   UNL A   1      41.457  25.690  27.406  1.00  0.00     0.010 A 
ATOM     13  C   UNL A   1      41.847  26.980  27.777  1.00  0.00    -0.014 A 
BRANCH  13  14
ATOM     14  C   UNL A   1      41.317  27.669  28.967  1.00  0.00     0.031 A 
ATOM     15  C   UNL A   1      42.120  27.579  30.229  1.00  0.00     0.074 A 
ATOM     16  C   UNL A   1      40.286  28.524  28.847  1.00  0.00     0.049 A 
ATOM     17  N   UNL A   1      41.937  28.181  31.372  1.00  0.00    -0.248 NA
ATOM     18  C   UNL A   1      43.321  26.726  30.184  1.00  0.00     0.031 C 
ATOM     19  C   UNL A   1      39.567  28.796  27.604  1.00  0.00     0.029 A 
ATOM     20  N   UNL A   1      39.695  29.354  29.758  1.00  0.00    -0.354 N 
ATOM     21  C   UNL A   1      42.988  27.769  32.181  1.00  0.00     0.074 A 
ATOM     22  C   UNL A   1      43.797  26.856  31.410  1.00  0.00     0.031 C 
ATOM     23  C   UNL A   1      38.626  29.725  27.827  1.00  0.00     0.029 A 
ATOM     24  C   UNL A   1      38.661  30.094  29.235  1.00  0.00     0.049 A 
ATOM     25  H   UNL A   1      39.984  29.418  30.697  1.00  0.00     0.167 HD
ATOM     26  C   UNL A   1      43.249  28.129  33.457  1.00  0.00     0.037 A 
ATOM     27  C   UNL A   1      37.835  30.964  29.842  1.00  0.00     0.037 A 
ATOM     28  C   UNL A   1      42.419  29.037  34.198  1.00  0.00     0.049 A 
ATOM     29  C   UNL A   1      38.072  31.248  31.300  1.00  0.00     0.074 A 
ATOM     30  C   UNL A   1      42.534  29.437  35.516  1.00  0.00     0.029 A 
ATOM     31  N   UNL A   1      41.305  29.684  33.674  1.00  0.00    -0.354 N 
ATOM     32  N   UNL A   1      39.037  30.815  32.078  1.00  0.00    -0.248 NA
ATOM     33  C   UNL A   1      37.115  32.140  31.963  1.00  0.00     0.031 C 
ATOM     34  C   UNL A   1      41.454  30.278  35.806  1.00  0.00     0.029 A 
ATOM     35  C   UNL A   1      40.706  30.457  34.651  1.00  0.00     0.049 A 
ATOM     36  H   UNL A   1      40.990  29.602  32.745  1.00  0.00     0.167 HD
ATOM     37  C   UNL A   1      38.824  31.407  33.314  1.00  0.00     0.074 A 
ATOM     38  C   UNL A   1      37.645  32.240  33.174  1.00  0.00     0.031 C 
ATOM     39  C   UNL A   1      39.535  31.279  34.463  1.00  0.00     0.037 A 
BRANCH  26  40
ATOM     40  C   UNL A   1      44.415  27.464  34.125  1.00  0.00     0.057 A 
ATOM     41  C   UNL A   1      45.704  28.015  34.119  1.00  0.00     0.134 A 
ATOM     42  C   UNL A   1      44.251  26.216  34.739  1.00  0.00     0.134 A 
ATOM     43  F   UNL A   1      45.939  29.190  33.516  1.00  0.00    -0.206 F 
ATOM     44  C   UNL A   1      46.792  27.333  34.670  1.00  0.00     0.040 A 
ATOM     45  C   UNL A   1      45.324  25.538  35.318  1.00  0.00     0.040 A 
ATOM     46  F   UNL A   1      43.047  25.626  34.771  1.00  0.00    -0.206 F 
ATOM     47  C   UNL A   1      46.602  26.092  35.275  1.00  0.00     0.006 A 
ENDBRANCH  26  40
BRANCH  27  48
ATOM     48  C   UNL A   1      36.717  31.597  29.095  1.00  0.00     0.057 A 
ATOM     49  C   UNL A   1      36.750  32.946  28.723  1.00  0.00     0.134 A 
ATOM     50  C   UNL A   1      35.568  30.868  28.754  1.00  0.00     0.134 A 
ATOM     51  F   UNL A   1      37.814  33.704  29.029  1.00  0.00    -0.206 F 
ATOM     52  C   UNL A   1      35.678  33.552  28.064  1.00  0.00     0.040 A 
ATOM     53  C   UNL A   1      34.501  31.454  28.071  1.00  0.00     0.040 A 
ATOM     54  F   UNL A   1      35.470  29.569  29.074  1.00  0.00    -0.206 F 
ATOM     55  C   UNL A   1      34.550  32.804  27.733  1.00  0.00     0.006 A 
ENDBRANCH  27  48
BRANCH  39  56
ATOM     56  C   UNL A   1      39.077  32.098  35.632  1.00  0.00     0.057 A 
ATOM     57  C   UNL A   1      38.279  31.560  36.649  1.00  0.00     0.134 A 
ATOM     58  C   UNL A   1      39.475  33.435  35.753  1.00  0.00     0.134 A 
ATOM     59  F   UNL A   1      37.856  30.289  36.581  1.00  0.00    -0.206 F 
ATOM     60  C   UNL A   1      37.868  32.334  37.733  1.00  0.00     0.040 A 
ATOM     61  C   UNL A   1      39.098  34.209  36.850  1.00  0.00     0.040 A 
ATOM     62  F   UNL A   1      40.250  34.005  34.818  1.00  0.00    -0.206 F 
ATOM     63  C   UNL A   1      38.285  33.660  37.839  1.00  0.00     0.006 A 
ENDBRANCH  39  56
ENDBRANCH  13  14
ENDBRANCH   6   8
ENDBRANCH   5   6
ENDBRANCH   4   5
ENDBRANCH   3   4
ENDBRANCH   2   3
ENDBRANCH   1   2
BRANCH   1  64
ATOM     64  C   UNL A   1      40.233  21.896  26.530  1.00  0.00     0.188 C 
BRANCH  64  65
ATOM     65  O   UNL A   1      38.872  21.842  26.129  1.00  0.00    -0.376 OA
BRANCH  65  66
ATOM     66  C   UNL A   1      38.136  23.055  26.163  1.00  0.00     0.202 C 
BRANCH  66  67
ATOM     67  C   UNL A   1      37.409  23.530  24.891  1.00  0.00     0.261 C 
BRANCH  67  68
ATOM     68  O   UNL A   1      35.986  23.741  24.995  1.00  0.00    -0.463 OA
BRANCH  68  69
ATOM     69  C   UNL A   1      35.248  23.038  24.090  1.00  0.00     0.310 C 
ATOM     70  O   UNL A   1      35.739  22.491  23.115  1.00  0.00    -0.252 OA
BRANCH  69  71
ATOM     71  C   UNL A   1      33.739  23.135  24.298  1.00  0.00     0.119 C 
ATOM     72  C   UNL A   1      33.095  21.972  25.133  1.00  0.00     0.101 C 
ATOM     73  C   UNL A   1      33.110  24.488  24.736  1.00  0.00     0.026 C 
ATOM     74  C   UNL A   1      31.907  22.526  25.972  1.00  0.00     0.025 C 
ATOM     75  C   UNL A   1      33.062  24.626  26.241  1.00  0.00    -0.027 C 
ATOM     76  C   UNL A   1      31.603  24.421  24.319  1.00  0.00     0.009 C 
ATOM     77  C   UNL A   1      32.367  23.662  26.859  1.00  0.00    -0.027 C 
ATOM     78  C   UNL A   1      30.919  23.193  24.982  1.00  0.00     0.009 C 
BRANCH  72  79
ATOM     79  C   UNL A   1      34.084  21.013  25.815  1.00  0.00     0.238 C 
ATOM     80  O   UNL A   1      34.979  21.461  26.542  1.00  0.00    -0.273 OA
ATOM     81  N   UNL A   1      33.981  19.647  25.714  1.00  0.00    -0.288 N 
ATOM     82  H   UNL A   1      33.960  19.100  26.532  1.00  0.00     0.185 HD
BRANCH  81  83
ATOM     83  N   UNL A   1      33.906  19.017  24.453  1.00  0.00    -0.217 NA
ATOM     84  C   UNL A   1      32.572  18.460  24.154  1.00  0.00     0.136 C 
ATOM     85  C   UNL A   1      34.925  17.958  24.304  1.00  0.00     0.136 C 
ATOM     86  C   UNL A   1      32.266  17.158  24.899  1.00  0.00     0.177 C 
ATOM     87  C   UNL A   1      34.565  16.665  25.047  1.00  0.00     0.177 C 
ATOM     88  O   UNL A   1      33.278  16.175  24.652  1.00  0.00    -0.379 OA
ENDBRANCH  81  83
ENDBRANCH  72  79
ENDBRANCH  69  71
ENDBRANCH  68  69
ENDBRANCH  67  68
ENDBRANCH  66  67
ENDBRANCH  65  66
ENDBRANCH  64  65
ENDBRANCH   1  64
TORSDOF 19
ENDMDL
MODEL 3
REMARK VINA RESULT:     -10.3      0.509      6.217
REMARK SMILES O=C(OCCOCCOCCOC(=O)[C@H]1[C@@H](C(=O)NN2CCOCC2)[C@H]2C=C[C@@H]1CC2)c1ccc(-c2c3nc(c(-c4c(F)cccc4F)c4ccc([nH]4)c(-c4c(F)cccc4F)c4nc(c(-c5c(F)cccc5F)c5ccc2[nH]5)C=C4)C=C3)cc1
REMARK SMILES IDX 7 1 6 2 5 3 4 4 3 5 2 6 1 7 32 8 33 9 85 10 34 11 84 12
REMARK SMILES IDX 35 13 36 14 37 15 78 16 38 17 83 18 77 19 79 20 39 21 82 22
REMARK SMILES IDX 76 23 75 24 40 26 66 27 49 28 65 29 50 30 53 31 64 32 80 33
REMARK SMILES IDX 51 34 52 35 63 37 81 38 54 39 41 40 42 41 47 42 43 43 44 44
REMARK SMILES IDX 46 45 48 46 45 47 67 48 68 49 73 50 69 51 70 52 72 53 74 54
REMARK SMILES IDX 71 55 55 56 56 57 61 58 57 59 58 60 60 61 62 62 59 63 8 64
REMARK SMILES IDX 9 65 10 66 11 67 12 68 13 69 14 70 15 71 16 72 29 73 26 74
REMARK SMILES IDX 28 75 30 76 27 77 31 78 17 79 18 80 19 81 20 83 21 84 25 85
REMARK SMILES IDX 22 86 24 87 23 88
REMARK H PARENT 79 25 53 36 19 82
REMARK Flexibility Score: inf
ROOT
ATOM      1  C   UNL A   1      28.970  31.730  23.635  1.00  0.00     0.188 C 
ENDROOT
BRANCH   1   2
ATOM      2  O   UNL A   1      29.855  31.469  24.729  1.00  0.00    -0.376 OA
BRANCH   2   3
ATOM      3  C   UNL A   1      30.387  32.661  25.321  1.00  0.00     0.202 C 
BRANCH   3   4
ATOM      4  C   UNL A   1      31.338  32.444  26.515  1.00  0.00     0.261 C 
BRANCH   4   5
ATOM      5  O   UNL A   1      32.182  33.572  26.807  1.00  0.00    -0.460 OA
BRANCH   5   6
ATOM      6  C   UNL A   1      32.901  33.845  27.925  1.00  0.00     0.338 C 
ATOM      7  O   UNL A   1      32.552  34.800  28.619  1.00  0.00    -0.246 OA
BRANCH   6   8
ATOM      8  C   UNL A   1      34.110  33.078  28.363  1.00  0.00     0.060 A 
ATOM      9  C   UNL A   1      34.164  31.698  28.548  1.00  0.00     0.016 A 
ATOM     10  C   UNL A   1      35.300  33.806  28.566  1.00  0.00     0.016 A 
ATOM     11  C   UNL A   1      35.299  31.069  29.027  1.00  0.00     0.010 A 
ATOM     12  C   UNL A   1      36.467  33.177  29.016  1.00  0.00     0.010 A 
ATOM     13  C   UNL A   1      36.442  31.809  29.302  1.00  0.00    -0.014 A 
BRANCH  13  14
ATOM     14  C   UNL A   1      37.474  31.138  30.114  1.00  0.00     0.031 A 
ATOM     15  C   UNL A   1      38.440  30.245  29.397  1.00  0.00     0.074 A 
ATOM     16  C   UNL A   1      37.668  31.504  31.393  1.00  0.00     0.049 A 
ATOM     17  N   UNL A   1      39.499  29.635  29.853  1.00  0.00    -0.248 NA
ATOM     18  C   UNL A   1      38.206  30.048  27.955  1.00  0.00     0.031 C 
ATOM     19  C   UNL A   1      36.874  32.503  32.106  1.00  0.00     0.029 A 
ATOM     20  N   UNL A   1      38.614  31.124  32.304  1.00  0.00    -0.354 N 
ATOM     21  C   UNL A   1      40.045  28.973  28.761  1.00  0.00     0.074 A 
ATOM     22  C   UNL A   1      39.198  29.239  27.624  1.00  0.00     0.031 C 
ATOM     23  C   UNL A   1      37.358  32.655  33.347  1.00  0.00     0.029 A 
ATOM     24  C   UNL A   1      38.482  31.745  33.523  1.00  0.00     0.049 A 
ATOM     25  H   UNL A   1      39.321  30.469  32.105  1.00  0.00     0.167 HD
ATOM     26  C   UNL A   1      41.160  28.210  28.720  1.00  0.00     0.037 A 
ATOM     27  C   UNL A   1      39.193  31.582  34.652  1.00  0.00     0.037 A 
ATOM     28  C   UNL A   1      41.978  27.960  29.874  1.00  0.00     0.049 A 
ATOM     29  C   UNL A   1      40.354  30.627  34.611  1.00  0.00     0.074 A 
ATOM     30  C   UNL A   1      43.097  27.157  29.984  1.00  0.00     0.029 A 
ATOM     31  N   UNL A   1      41.751  28.513  31.129  1.00  0.00    -0.354 N 
ATOM     32  N   UNL A   1      40.837  29.959  33.588  1.00  0.00    -0.248 NA
ATOM     33  C   UNL A   1      41.070  30.403  35.871  1.00  0.00     0.031 C 
ATOM     34  C   UNL A   1      43.511  27.177  31.321  1.00  0.00     0.029 A 
ATOM     35  C   UNL A   1      42.692  28.047  32.028  1.00  0.00     0.049 A 
ATOM     36  H   UNL A   1      41.027  29.144  31.345  1.00  0.00     0.167 HD
ATOM     37  C   UNL A   1      41.934  29.262  34.072  1.00  0.00     0.074 A 
ATOM     38  C   UNL A   1      42.050  29.601  35.477  1.00  0.00     0.031 C 
ATOM     39  C   UNL A   1      42.774  28.419  33.420  1.00  0.00     0.037 A 
BRANCH  26  40
ATOM     40  C   UNL A   1      41.479  27.542  27.416  1.00  0.00     0.057 A 
ATOM     41  C   UNL A   1      41.009  26.263  27.089  1.00  0.00     0.134 A 
ATOM     42  C   UNL A   1      42.322  28.174  26.494  1.00  0.00     0.134 A 
ATOM     43  F   UNL A   1      40.227  25.585  27.943  1.00  0.00    -0.206 F 
ATOM     44  C   UNL A   1      41.393  25.625  25.907  1.00  0.00     0.040 A 
ATOM     45  C   UNL A   1      42.690  27.558  25.297  1.00  0.00     0.040 A 
ATOM     46  F   UNL A   1      42.818  29.394  26.749  1.00  0.00    -0.206 F 
ATOM     47  C   UNL A   1      42.233  26.275  25.005  1.00  0.00     0.006 A 
ENDBRANCH  26  40
BRANCH  27  48
ATOM     48  C   UNL A   1      38.821  32.305  35.896  1.00  0.00     0.057 A 
ATOM     49  C   UNL A   1      39.211  33.630  36.121  1.00  0.00     0.134 A 
ATOM     50  C   UNL A   1      38.082  31.675  36.907  1.00  0.00     0.134 A 
ATOM     51  F   UNL A   1      39.931  34.288  35.200  1.00  0.00    -0.206 F 
ATOM     52  C   UNL A   1      38.902  34.293  37.311  1.00  0.00     0.040 A 
ATOM     53  C   UNL A   1      37.743  32.335  38.090  1.00  0.00     0.040 A 
ATOM     54  F   UNL A   1      37.670  30.408  36.756  1.00  0.00    -0.206 F 
ATOM     55  C   UNL A   1      38.163  33.646  38.299  1.00  0.00     0.006 A 
ENDBRANCH  27  48
BRANCH  39  56
ATOM     56  C   UNL A   1      43.911  27.854  34.214  1.00  0.00     0.057 A 
ATOM     57  C   UNL A   1      45.132  28.527  34.349  1.00  0.00     0.134 A 
ATOM     58  C   UNL A   1      43.764  26.631  34.883  1.00  0.00     0.134 A 
ATOM     59  F   UNL A   1      45.337  29.695  33.721  1.00  0.00    -0.206 F 
ATOM     60  C   UNL A   1      46.178  27.989  35.098  1.00  0.00     0.040 A 
ATOM     61  C   UNL A   1      44.791  26.101  35.663  1.00  0.00     0.040 A 
ATOM     62  F   UNL A   1      42.614  25.944  34.803  1.00  0.00    -0.206 F 
ATOM     63  C   UNL A   1      46.005  26.777  35.763  1.00  0.00     0.006 A 
ENDBRANCH  39  56
ENDBRANCH  13  14
ENDBRANCH   6   8
ENDBRANCH   5   6
ENDBRANCH   4   5
ENDBRANCH   3   4
ENDBRANCH   2   3
ENDBRANCH   1   2
BRANCH   1  64
ATOM     64  C   UNL A   1      28.529  30.489  22.860  1.00  0.00     0.188 C 
BRANCH  64  65
ATOM     65  O   UNL A   1      29.359  30.024  21.806  1.00  0.00    -0.376 OA
BRANCH  65  66
ATOM     66  C   UNL A   1      30.481  29.231  22.164  1.00  0.00     0.202 C 
BRANCH  66  67
ATOM     67  C   UNL A   1      30.262  27.770  22.597  1.00  0.00     0.261 C 
BRANCH  67  68
ATOM     68  O   UNL A   1      29.772  27.554  23.936  1.00  0.00    -0.463 OA
BRANCH  68  69
ATOM     69  C   UNL A   1      30.461  26.612  24.640  1.00  0.00     0.310 C 
ATOM     70  O   UNL A   1      30.242  25.415  24.536  1.00  0.00    -0.252 OA
BRANCH  69  71
ATOM     71  C   UNL A   1      31.408  27.181  25.694  1.00  0.00     0.119 C 
ATOM     72  C   UNL A   1      32.836  26.531  25.743  1.00  0.00     0.101 C 
ATOM     73  C   UNL A   1      31.543  28.722  25.853  1.00  0.00     0.026 C 
ATOM     74  C   UNL A   1      33.889  27.608  26.133  1.00  0.00     0.025 C 
ATOM     75  C   UNL A   1      32.620  29.288  24.957  1.00  0.00    -0.027 C 
ATOM     76  C   UNL A   1      32.093  28.963  27.297  1.00  0.00     0.009 C 
ATOM     77  C   UNL A   1      33.838  28.773  25.170  1.00  0.00    -0.027 C 
ATOM     78  C   UNL A   1      33.442  28.215  27.487  1.00  0.00     0.009 C 
BRANCH  72  79
ATOM     79  C   UNL A   1      33.170  25.568  24.592  1.00  0.00     0.238 C 
ATOM     80  O   UNL A   1      33.244  25.993  23.432  1.00  0.00    -0.273 OA
ATOM     81  N   UNL A   1      33.468  24.242  24.796  1.00  0.00    -0.288 N 
ATOM     82  H   UNL A   1      34.301  23.870  24.428  1.00  0.00     0.185 HD
BRANCH  81  83
ATOM     83  N   UNL A   1      32.595  23.409  25.526  1.00  0.00    -0.217 NA
ATOM     84  C   UNL A   1      33.246  22.732  26.666  1.00  0.00     0.136 C 
ATOM     85  C   UNL A   1      31.944  22.401  24.665  1.00  0.00     0.136 C 
ATOM     86  C   UNL A   1      34.138  21.557  26.258  1.00  0.00     0.177 C 
ATOM     87  C   UNL A   1      32.868  21.230  24.301  1.00  0.00     0.177 C 
ATOM     88  O   UNL A   1      33.409  20.607  25.472  1.00  0.00    -0.379 OA
ENDBRANCH  81  83
ENDBRANCH  72  79
ENDBRANCH  69  71
ENDBRANCH  68  69
ENDBRANCH  67  68
ENDBRANCH  66  67
ENDBRANCH  65  66
ENDBRANCH  64  65
ENDBRANCH   1  64
TORSDOF 19
ENDMDL
