MODEL 1
REMARK VINA RESULT:     -10.7      0.000      0.000
REMARK SMILES C[C@H]1[C@@H](C(=O)OCCOCCOCCOC(=O)c2ccc(-c3c4nc(c(-c5c(F)cccc5F)c5ccc([nH]5)c(-c5c(F)cccc5F)c5nc(c(-c6c(F)cccc6F)c6ccc3[nH]6)C=C5)C=C4)cc2)CCN1C(=O)c1cncc(O)c1
REMARK SMILES IDX 10 1 9 2 8 3 7 4 6 5 4 6 5 7 3 8 1 9 2 10 74 11 72 12 73 13
REMARK SMILES IDX 75 14 76 15 77 16 78 17 83 18 79 19 81 20 80 21 82 22 11 24
REMARK SMILES IDX 12 25 13 26 14 27 15 28 16 29 17 30 18 31 19 32 71 33 20 34
REMARK SMILES IDX 70 35 21 36 22 37 23 38 64 39 24 40 69 41 63 42 65 43 25 44
REMARK SMILES IDX 68 45 62 46 61 47 26 49 52 50 35 51 51 52 36 53 39 54 50 55
REMARK SMILES IDX 66 56 37 57 38 58 49 60 67 61 40 62 27 63 28 64 33 65 29 66
REMARK SMILES IDX 30 67 32 68 34 69 31 70 53 71 54 72 59 73 55 74 56 75 58 76
REMARK SMILES IDX 60 77 57 78 41 79 42 80 47 81 43 82 44 83 46 84 48 85 45 86
REMARK H PARENT 82 23 65 48 39 59
REMARK Flexibility Score: inf
ROOT
ATOM      1  C   UNL A   1      39.471  20.101  25.803  1.00  0.00     0.188 C 
ENDROOT
BRANCH   1   2
ATOM      2  O   UNL A   1      39.192  21.486  25.772  1.00  0.00    -0.376 OA
BRANCH   2   3
ATOM      3  C   UNL A   1      37.852  21.914  25.589  1.00  0.00     0.202 C 
BRANCH   3   4
ATOM      4  C   UNL A   1      37.498  23.379  25.865  1.00  0.00     0.261 C 
BRANCH   4   5
ATOM      5  O   UNL A   1      36.184  23.552  26.433  1.00  0.00    -0.463 OA
BRANCH   5   6
ATOM      6  C   UNL A   1      35.133  23.154  25.682  1.00  0.00     0.311 C 
ATOM      7  O   UNL A   1      34.201  22.481  26.115  1.00  0.00    -0.252 OA
BRANCH   6   8
ATOM      8  C   UNL A   1      35.116  23.670  24.249  1.00  0.00     0.123 C 
ATOM      9  C   UNL A   1      33.996  25.949  24.917  1.00  0.00     0.032 C 
ATOM     10  C   UNL A   1      34.543  25.037  23.823  1.00  0.00     0.096 C 
ATOM     11  N   UNL A   1      33.581  24.748  22.740  1.00  0.00    -0.335 N 
ATOM     12  C   UNL A   1      34.501  22.628  23.302  1.00  0.00     0.039 C 
ATOM     13  C   UNL A   1      33.438  23.335  22.488  1.00  0.00     0.121 C 
BRANCH  11  14
ATOM     14  C   UNL A   1      32.846  25.622  21.946  1.00  0.00     0.255 C 
ATOM     15  O   UNL A   1      33.123  25.856  20.772  1.00  0.00    -0.269 OA
BRANCH  14  16
ATOM     16  C   UNL A   1      31.704  26.329  22.534  1.00  0.00     0.062 A 
ATOM     17  C   UNL A   1      31.492  27.667  22.229  1.00  0.00     0.125 A 
ATOM     18  C   UNL A   1      30.822  25.679  23.396  1.00  0.00     0.063 A 
ATOM     19  N   UNL A   1      30.413  28.363  22.666  1.00  0.00    -0.260 NA
ATOM     20  C   UNL A   1      29.703  26.366  23.836  1.00  0.00     0.134 A 
ATOM     21  C   UNL A   1      29.535  27.689  23.450  1.00  0.00     0.157 A 
BRANCH  20  22
ATOM     22  O   UNL A   1      28.762  25.767  24.616  1.00  0.00    -0.506 OA
ATOM     23  H   UNL A   1      28.881  25.725  25.545  1.00  0.00     0.293 HD
ENDBRANCH  20  22
ENDBRANCH  14  16
ENDBRANCH  11  14
ENDBRANCH   6   8
ENDBRANCH   5   6
ENDBRANCH   4   5
ENDBRANCH   3   4
ENDBRANCH   2   3
ENDBRANCH   1   2
BRANCH   1  24
ATOM     24  C   UNL A   1      40.836  19.594  26.305  1.00  0.00     0.188 C 
BRANCH  24  25
ATOM     25  O   UNL A   1      41.865  19.215  25.420  1.00  0.00    -0.376 OA
BRANCH  25  26
ATOM     26  C   UNL A   1      43.141  19.821  25.495  1.00  0.00     0.202 C 
BRANCH  26  27
ATOM     27  C   UNL A   1      43.359  21.196  26.139  1.00  0.00     0.261 C 
BRANCH  27  28
ATOM     28  O   UNL A   1      42.479  22.239  25.706  1.00  0.00    -0.460 OA
BRANCH  28  29
ATOM     29  C   UNL A   1      43.087  23.382  25.310  1.00  0.00     0.338 C 
ATOM     30  O   UNL A   1      43.818  23.543  24.340  1.00  0.00    -0.246 OA
BRANCH  29  31
ATOM     31  C   UNL A   1      42.605  24.488  26.148  1.00  0.00     0.060 A 
ATOM     32  C   UNL A   1      43.115  25.779  25.946  1.00  0.00     0.016 A 
ATOM     33  C   UNL A   1      41.677  24.238  27.155  1.00  0.00     0.016 A 
ATOM     34  C   UNL A   1      42.693  26.834  26.754  1.00  0.00     0.010 A 
ATOM     35  C   UNL A   1      41.280  25.285  27.984  1.00  0.00     0.010 A 
ATOM     36  C   UNL A   1      41.799  26.581  27.801  1.00  0.00    -0.014 A 
BRANCH  36  37
ATOM     37  C   UNL A   1      41.532  27.599  28.840  1.00  0.00     0.031 A 
ATOM     38  C   UNL A   1      42.334  27.537  30.106  1.00  0.00     0.074 A 
ATOM     39  C   UNL A   1      40.555  28.510  28.694  1.00  0.00     0.049 A 
ATOM     40  N   UNL A   1      42.130  28.133  31.250  1.00  0.00    -0.248 NA
ATOM     41  C   UNL A   1      43.522  26.669  30.078  1.00  0.00     0.031 C 
ATOM     42  C   UNL A   1      39.760  28.716  27.485  1.00  0.00     0.029 A 
ATOM     43  N   UNL A   1      40.043  29.410  29.595  1.00  0.00    -0.354 N 
ATOM     44  C   UNL A   1      43.144  27.689  32.089  1.00  0.00     0.074 A 
ATOM     45  C   UNL A   1      43.956  26.767  31.326  1.00  0.00     0.031 C 
ATOM     46  C   UNL A   1      38.834  29.659  27.732  1.00  0.00     0.029 A 
ATOM     47  C   UNL A   1      38.935  30.075  29.130  1.00  0.00     0.049 A 
ATOM     48  H   UNL A   1      40.432  29.564  30.487  1.00  0.00     0.167 HD
ATOM     49  C   UNL A   1      43.368  28.017  33.382  1.00  0.00     0.037 A 
ATOM     50  C   UNL A   1      38.073  30.883  29.779  1.00  0.00     0.037 A 
ATOM     51  C   UNL A   1      42.549  28.932  34.129  1.00  0.00     0.049 A 
ATOM     52  C   UNL A   1      38.283  31.159  31.247  1.00  0.00     0.074 A 
ATOM     53  C   UNL A   1      42.689  29.337  35.444  1.00  0.00     0.029 A 
ATOM     54  N   UNL A   1      41.431  29.580  33.624  1.00  0.00    -0.354 N 
ATOM     55  N   UNL A   1      39.233  30.730  32.043  1.00  0.00    -0.248 NA
ATOM     56  C   UNL A   1      37.296  32.024  31.911  1.00  0.00     0.031 C 
ATOM     57  C   UNL A   1      41.622  30.185  35.753  1.00  0.00     0.029 A 
ATOM     58  C   UNL A   1      40.858  30.363  34.610  1.00  0.00     0.049 A 
ATOM     59  H   UNL A   1      41.095  29.494  32.702  1.00  0.00     0.167 HD
ATOM     60  C   UNL A   1      38.985  31.306  33.283  1.00  0.00     0.074 A 
ATOM     61  C   UNL A   1      37.790  32.111  33.139  1.00  0.00     0.031 C 
ATOM     62  C   UNL A   1      39.687  31.186  34.436  1.00  0.00     0.037 A 
BRANCH  49  63
ATOM     63  C   UNL A   1      44.513  27.343  34.080  1.00  0.00     0.057 A 
ATOM     64  C   UNL A   1      44.364  26.122  34.748  1.00  0.00     0.134 A 
ATOM     65  C   UNL A   1      45.791  27.917  34.059  1.00  0.00     0.134 A 
ATOM     66  F   UNL A   1      43.164  25.527  34.818  1.00  0.00    -0.206 F 
ATOM     67  C   UNL A   1      45.438  25.508  35.393  1.00  0.00     0.040 A 
ATOM     68  C   UNL A   1      46.879  27.298  34.675  1.00  0.00     0.040 A 
ATOM     69  F   UNL A   1      46.005  29.085  33.434  1.00  0.00    -0.206 F 
ATOM     70  C   UNL A   1      46.704  26.093  35.351  1.00  0.00     0.006 A 
ENDBRANCH  49  63
BRANCH  50  71
ATOM     71  C   UNL A   1      36.906  31.460  29.062  1.00  0.00     0.057 A 
ATOM     72  C   UNL A   1      36.896  32.800  28.658  1.00  0.00     0.134 A 
ATOM     73  C   UNL A   1      35.763  30.697  28.786  1.00  0.00     0.134 A 
ATOM     74  F   UNL A   1      37.949  33.589  28.915  1.00  0.00    -0.206 F 
ATOM     75  C   UNL A   1      35.788  33.366  28.023  1.00  0.00     0.040 A 
ATOM     76  C   UNL A   1      34.660  31.242  28.126  1.00  0.00     0.040 A 
ATOM     77  F   UNL A   1      35.706  29.407  29.147  1.00  0.00    -0.206 F 
ATOM     78  C   UNL A   1      34.667  32.584  27.750  1.00  0.00     0.006 A 
ENDBRANCH  50  71
BRANCH  62  79
ATOM     79  C   UNL A   1      39.241  31.994  35.621  1.00  0.00     0.057 A 
ATOM     80  C   UNL A   1      39.624  33.328  35.802  1.00  0.00     0.134 A 
ATOM     81  C   UNL A   1      38.330  31.451  36.537  1.00  0.00     0.134 A 
ATOM     82  F   UNL A   1      40.501  33.904  34.966  1.00  0.00    -0.206 F 
ATOM     83  C   UNL A   1      39.120  34.092  36.857  1.00  0.00     0.040 A 
ATOM     84  C   UNL A   1      37.799  32.212  37.579  1.00  0.00     0.040 A 
ATOM     85  F   UNL A   1      37.914  30.181  36.414  1.00  0.00    -0.206 F 
ATOM     86  C   UNL A   1      38.194  33.538  37.740  1.00  0.00     0.006 A 
ENDBRANCH  62  79
ENDBRANCH  36  37
ENDBRANCH  29  31
ENDBRANCH  28  29
ENDBRANCH  27  28
ENDBRANCH  26  27
ENDBRANCH  25  26
ENDBRANCH  24  25
ENDBRANCH   1  24
TORSDOF 20
ENDMDL
MODEL 2
REMARK VINA RESULT:     -10.7      4.108      9.094
REMARK SMILES C[C@H]1[C@@H](C(=O)OCCOCCOCCOC(=O)c2ccc(-c3c4nc(c(-c5c(F)cccc5F)c5ccc([nH]5)c(-c5c(F)cccc5F)c5nc(c(-c6c(F)cccc6F)c6ccc3[nH]6)C=C5)C=C4)cc2)CCN1C(=O)c1cncc(O)c1
REMARK SMILES IDX 10 1 9 2 8 3 7 4 6 5 4 6 5 7 3 8 1 9 2 10 74 11 72 12 73 13
REMARK SMILES IDX 75 14 76 15 77 16 78 17 83 18 79 19 81 20 80 21 82 22 11 24
REMARK SMILES IDX 12 25 13 26 14 27 15 28 16 29 17 30 18 31 19 32 71 33 20 34
REMARK SMILES IDX 70 35 21 36 22 37 23 38 64 39 24 40 69 41 63 42 65 43 25 44
REMARK SMILES IDX 68 45 62 46 61 47 26 49 52 50 35 51 51 52 36 53 39 54 50 55
REMARK SMILES IDX 66 56 37 57 38 58 49 60 67 61 40 62 27 63 28 64 33 65 29 66
REMARK SMILES IDX 30 67 32 68 34 69 31 70 53 71 54 72 59 73 55 74 56 75 58 76
REMARK SMILES IDX 60 77 57 78 41 79 42 80 47 81 43 82 44 83 46 84 48 85 45 86
REMARK H PARENT 82 23 65 48 39 59
REMARK Flexibility Score: inf
ROOT
ATOM      1  C   UNL A   1      34.642  31.990  29.118  1.00  0.00     0.188 C 
ENDROOT
BRANCH   1   2
ATOM      2  O   UNL A   1      33.997  31.400  28.007  1.00  0.00    -0.376 OA
BRANCH   2   3
ATOM      3  C   UNL A   1      34.702  30.446  27.229  1.00  0.00     0.202 C 
BRANCH   3   4
ATOM      4  C   UNL A   1      34.194  29.002  27.190  1.00  0.00     0.261 C 
BRANCH   4   5
ATOM      5  O   UNL A   1      33.042  28.779  28.029  1.00  0.00    -0.463 OA
BRANCH   5   6
ATOM      6  C   UNL A   1      32.014  28.087  27.489  1.00  0.00     0.311 C 
ATOM      7  O   UNL A   1      30.943  27.902  28.060  1.00  0.00    -0.252 OA
BRANCH   6   8
ATOM      8  C   UNL A   1      32.223  27.607  26.059  1.00  0.00     0.123 C 
ATOM      9  C   UNL A   1      31.313  29.836  25.011  1.00  0.00     0.032 C 
ATOM     10  C   UNL A   1      31.869  28.431  24.804  1.00  0.00     0.096 C 
ATOM     11  N   UNL A   1      31.011  27.556  23.980  1.00  0.00    -0.335 N 
ATOM     12  C   UNL A   1      31.602  26.217  25.855  1.00  0.00     0.039 C 
ATOM     13  C   UNL A   1      30.730  26.294  24.619  1.00  0.00     0.121 C 
BRANCH  11  14
ATOM     14  C   UNL A   1      30.481  27.769  22.712  1.00  0.00     0.255 C 
ATOM     15  O   UNL A   1      30.854  27.152  21.717  1.00  0.00    -0.269 OA
BRANCH  14  16
ATOM     16  C   UNL A   1      29.451  28.797  22.533  1.00  0.00     0.062 A 
ATOM     17  C   UNL A   1      28.202  28.629  23.116  1.00  0.00     0.125 A 
ATOM     18  C   UNL A   1      29.706  29.947  21.787  1.00  0.00     0.063 A 
ATOM     19  N   UNL A   1      27.230  29.573  23.065  1.00  0.00    -0.260 NA
ATOM     20  C   UNL A   1      28.732  30.932  21.741  1.00  0.00     0.134 A 
ATOM     21  C   UNL A   1      27.525  30.711  22.389  1.00  0.00     0.157 A 
BRANCH  20  22
ATOM     22  O   UNL A   1      28.945  32.111  21.095  1.00  0.00    -0.506 OA
ATOM     23  H   UNL A   1      28.723  32.196  20.189  1.00  0.00     0.293 HD
ENDBRANCH  20  22
ENDBRANCH  14  16
ENDBRANCH  11  14
ENDBRANCH   6   8
ENDBRANCH   5   6
ENDBRANCH   4   5
ENDBRANCH   3   4
ENDBRANCH   2   3
ENDBRANCH   1   2
BRANCH   1  24
ATOM     24  C   UNL A   1      34.492  33.498  29.393  1.00  0.00     0.188 C 
BRANCH  24  25
ATOM     25  O   UNL A   1      33.240  34.144  29.361  1.00  0.00    -0.376 OA
BRANCH  25  26
ATOM     26  C   UNL A   1      33.148  35.526  29.073  1.00  0.00     0.202 C 
BRANCH  26  27
ATOM     27  C   UNL A   1      32.759  36.561  30.136  1.00  0.00     0.261 C 
BRANCH  27  28
ATOM     28  O   UNL A   1      32.156  36.043  31.325  1.00  0.00    -0.460 OA
BRANCH  28  29
ATOM     29  C   UNL A   1      32.823  36.304  32.474  1.00  0.00     0.338 C 
ATOM     30  O   UNL A   1      32.539  37.128  33.335  1.00  0.00    -0.246 OA
BRANCH  29  31
ATOM     31  C   UNL A   1      33.898  35.315  32.631  1.00  0.00     0.060 A 
ATOM     32  C   UNL A   1      33.582  34.014  33.050  1.00  0.00     0.016 A 
ATOM     33  C   UNL A   1      35.219  35.688  32.399  1.00  0.00     0.016 A 
ATOM     34  C   UNL A   1      34.594  33.073  33.236  1.00  0.00     0.010 A 
ATOM     35  C   UNL A   1      36.233  34.757  32.616  1.00  0.00     0.010 A 
ATOM     36  C   UNL A   1      35.928  33.454  33.054  1.00  0.00    -0.014 A 
BRANCH  36  37
ATOM     37  C   UNL A   1      37.039  32.581  33.492  1.00  0.00     0.031 A 
ATOM     38  C   UNL A   1      37.708  32.899  34.797  1.00  0.00     0.074 A 
ATOM     39  C   UNL A   1      37.488  31.577  32.720  1.00  0.00     0.049 A 
ATOM     40  N   UNL A   1      38.841  32.463  35.278  1.00  0.00    -0.248 NA
ATOM     41  C   UNL A   1      37.005  33.853  35.669  1.00  0.00     0.031 C 
ATOM     42  C   UNL A   1      36.877  31.127  31.472  1.00  0.00     0.029 A 
ATOM     43  N   UNL A   1      38.596  30.779  32.864  1.00  0.00    -0.354 N 
ATOM     44  C   UNL A   1      39.004  33.113  36.494  1.00  0.00     0.074 A 
ATOM     45  C   UNL A   1      37.860  33.979  36.673  1.00  0.00     0.031 C 
ATOM     46  C   UNL A   1      37.639  30.154  30.944  1.00  0.00     0.029 A 
ATOM     47  C   UNL A   1      38.819  29.959  31.785  1.00  0.00     0.049 A 
ATOM     48  H   UNL A   1      39.173  30.793  33.661  1.00  0.00     0.167 HD
ATOM     49  C   UNL A   1      40.024  33.001  37.376  1.00  0.00     0.037 A 
ATOM     50  C   UNL A   1      39.881  29.184  31.490  1.00  0.00     0.037 A 
ATOM     51  C   UNL A   1      41.157  32.138  37.183  1.00  0.00     0.049 A 
ATOM     52  C   UNL A   1      41.054  29.147  32.438  1.00  0.00     0.074 A 
ATOM     53  C   UNL A   1      42.246  31.946  38.015  1.00  0.00     0.029 A 
ATOM     54  N   UNL A   1      41.350  31.328  36.073  1.00  0.00    -0.354 N 
ATOM     55  N   UNL A   1      41.214  29.770  33.582  1.00  0.00    -0.248 NA
ATOM     56  C   UNL A   1      42.198  28.307  32.053  1.00  0.00     0.031 C 
ATOM     57  C   UNL A   1      43.125  31.063  37.382  1.00  0.00     0.029 A 
ATOM     58  C   UNL A   1      42.552  30.652  36.189  1.00  0.00     0.049 A 
ATOM     59  H   UNL A   1      40.725  31.247  35.317  1.00  0.00     0.167 HD
ATOM     60  C   UNL A   1      42.451  29.364  34.070  1.00  0.00     0.074 A 
ATOM     61  C   UNL A   1      43.004  28.446  33.097  1.00  0.00     0.031 C 
ATOM     62  C   UNL A   1      43.069  29.715  35.224  1.00  0.00     0.037 A 
BRANCH  49  63
ATOM     63  C   UNL A   1      39.981  33.867  38.600  1.00  0.00     0.057 A 
ATOM     64  C   UNL A   1      40.599  35.122  38.648  1.00  0.00     0.134 A 
ATOM     65  C   UNL A   1      39.286  33.445  39.742  1.00  0.00     0.134 A 
ATOM     66  F   UNL A   1      41.292  35.579  37.594  1.00  0.00    -0.206 F 
ATOM     67  C   UNL A   1      40.550  35.916  39.794  1.00  0.00     0.040 A 
ATOM     68  C   UNL A   1      39.206  34.243  40.884  1.00  0.00     0.040 A 
ATOM     69  F   UNL A   1      38.669  32.254  39.764  1.00  0.00    -0.206 F 
ATOM     70  C   UNL A   1      39.844  35.480  40.915  1.00  0.00     0.006 A 
ENDBRANCH  49  63
BRANCH  50  71
ATOM     71  C   UNL A   1      39.911  28.408  30.222  1.00  0.00     0.057 A 
ATOM     72  C   UNL A   1      39.242  27.184  30.108  1.00  0.00     0.134 A 
ATOM     73  C   UNL A   1      40.629  28.855  29.105  1.00  0.00     0.134 A 
ATOM     74  F   UNL A   1      38.559  26.689  31.151  1.00  0.00    -0.206 F 
ATOM     75  C   UNL A   1      39.300  26.424  28.938  1.00  0.00     0.040 A 
ATOM     76  C   UNL A   1      40.671  28.120  27.919  1.00  0.00     0.040 A 
ATOM     77  F   UNL A   1      41.294  30.019  29.148  1.00  0.00    -0.206 F 
ATOM     78  C   UNL A   1      40.011  26.895  27.836  1.00  0.00     0.006 A 
ENDBRANCH  50  71
BRANCH  62  79
ATOM     79  C   UNL A   1      44.378  29.054  35.551  1.00  0.00     0.057 A 
ATOM     80  C   UNL A   1      45.609  29.627  35.212  1.00  0.00     0.134 A 
ATOM     81  C   UNL A   1      44.398  27.874  36.307  1.00  0.00     0.134 A 
ATOM     82  F   UNL A   1      45.659  30.750  34.480  1.00  0.00    -0.206 F 
ATOM     83  C   UNL A   1      46.815  29.045  35.610  1.00  0.00     0.040 A 
ATOM     84  C   UNL A   1      45.595  27.300  36.734  1.00  0.00     0.040 A 
ATOM     85  F   UNL A   1      43.252  27.280  36.674  1.00  0.00    -0.206 F 
ATOM     86  C   UNL A   1      46.809  27.887  36.385  1.00  0.00     0.006 A 
ENDBRANCH  62  79
ENDBRANCH  36  37
ENDBRANCH  29  31
ENDBRANCH  28  29
ENDBRANCH  27  28
ENDBRANCH  26  27
ENDBRANCH  25  26
ENDBRANCH  24  25
ENDBRANCH   1  24
TORSDOF 20
ENDMDL
MODEL 3
REMARK VINA RESULT:     -10.7      2.164      3.055
REMARK SMILES C[C@H]1[C@@H](C(=O)OCCOCCOCCOC(=O)c2ccc(-c3c4nc(c(-c5c(F)cccc5F)c5ccc([nH]5)c(-c5c(F)cccc5F)c5nc(c(-c6c(F)cccc6F)c6ccc3[nH]6)C=C5)C=C4)cc2)CCN1C(=O)c1cncc(O)c1
REMARK SMILES IDX 10 1 9 2 8 3 7 4 6 5 4 6 5 7 3 8 1 9 2 10 74 11 72 12 73 13
REMARK SMILES IDX 75 14 76 15 77 16 78 17 83 18 79 19 81 20 80 21 82 22 11 24
REMARK SMILES IDX 12 25 13 26 14 27 15 28 16 29 17 30 18 31 19 32 71 33 20 34
REMARK SMILES IDX 70 35 21 36 22 37 23 38 64 39 24 40 69 41 63 42 65 43 25 44
REMARK SMILES IDX 68 45 62 46 61 47 26 49 52 50 35 51 51 52 36 53 39 54 50 55
REMARK SMILES IDX 66 56 37 57 38 58 49 60 67 61 40 62 27 63 28 64 33 65 29 66
REMARK SMILES IDX 30 67 32 68 34 69 31 70 53 71 54 72 59 73 55 74 56 75 58 76
REMARK SMILES IDX 60 77 57 78 41 79 42 80 47 81 43 82 44 83 46 84 48 85 45 86
REMARK H PARENT 82 23 65 48 39 59
REMARK Flexibility Score: inf
ROOT
ATOM      1  C   UNL A   1      42.020  19.274  25.821  1.00  0.00     0.188 C 
ENDROOT
BRANCH   1   2
ATOM      2  O   UNL A   1      41.498  20.549  26.137  1.00  0.00    -0.376 OA
BRANCH   2   3
ATOM      3  C   UNL A   1      40.091  20.738  26.129  1.00  0.00     0.202 C 
BRANCH   3   4
ATOM      4  C   UNL A   1      39.536  22.164  26.189  1.00  0.00     0.261 C 
BRANCH   4   5
ATOM      5  O   UNL A   1      38.143  22.249  25.826  1.00  0.00    -0.463 OA
BRANCH   5   6
ATOM      6  C   UNL A   1      37.535  23.443  26.000  1.00  0.00     0.311 C 
ATOM      7  O   UNL A   1      37.985  24.342  26.705  1.00  0.00    -0.252 OA
BRANCH   6   8
ATOM      8  C   UNL A   1      36.267  23.661  25.184  1.00  0.00     0.123 C 
ATOM      9  C   UNL A   1      34.706  22.683  27.056  1.00  0.00     0.032 C 
ATOM     10  C   UNL A   1      34.850  23.279  25.659  1.00  0.00     0.096 C 
ATOM     11  N   UNL A   1      34.279  22.443  24.584  1.00  0.00    -0.335 N 
ATOM     12  C   UNL A   1      36.421  23.079  23.771  1.00  0.00     0.039 C 
ATOM     13  C   UNL A   1      35.215  22.201  23.513  1.00  0.00     0.121 C 
BRANCH  11  14
ATOM     14  C   UNL A   1      33.003  21.902  24.459  1.00  0.00     0.255 C 
ATOM     15  O   UNL A   1      31.987  22.590  24.397  1.00  0.00    -0.269 OA
BRANCH  14  16
ATOM     16  C   UNL A   1      32.847  20.445  24.432  1.00  0.00     0.062 A 
ATOM     17  C   UNL A   1      33.018  19.713  25.599  1.00  0.00     0.125 A 
ATOM     18  C   UNL A   1      32.526  19.778  23.250  1.00  0.00     0.063 A 
ATOM     19  N   UNL A   1      32.807  18.375  25.671  1.00  0.00    -0.260 NA
ATOM     20  C   UNL A   1      32.287  18.414  23.307  1.00  0.00     0.134 A 
ATOM     21  C   UNL A   1      32.432  17.759  24.522  1.00  0.00     0.157 A 
BRANCH  20  22
ATOM     22  O   UNL A   1      31.894  17.716  22.207  1.00  0.00    -0.506 OA
ATOM     23  H   UNL A   1      32.226  17.948  21.361  1.00  0.00     0.293 HD
ENDBRANCH  20  22
ENDBRANCH  14  16
ENDBRANCH  11  14
ENDBRANCH   6   8
ENDBRANCH   5   6
ENDBRANCH   4   5
ENDBRANCH   3   4
ENDBRANCH   2   3
ENDBRANCH   1   2
BRANCH   1  24
ATOM     24  C   UNL A   1      43.484  19.125  25.366  1.00  0.00     0.188 C 
BRANCH  24  25
ATOM     25  O   UNL A   1      44.095  20.048  24.494  1.00  0.00    -0.376 OA
BRANCH  25  26
ATOM     26  C   UNL A   1      45.266  20.740  24.881  1.00  0.00     0.202 C 
BRANCH  26  27
ATOM     27  C   UNL A   1      45.221  22.121  25.547  1.00  0.00     0.261 C 
BRANCH  27  28
ATOM     28  O   UNL A   1      43.972  22.492  26.139  1.00  0.00    -0.460 OA
BRANCH  28  29
ATOM     29  C   UNL A   1      43.420  23.630  25.658  1.00  0.00     0.338 C 
ATOM     30  O   UNL A   1      43.024  23.848  24.519  1.00  0.00    -0.246 OA
BRANCH  29  31
ATOM     31  C   UNL A   1      43.206  24.561  26.775  1.00  0.00     0.060 A 
ATOM     32  C   UNL A   1      42.260  24.248  27.762  1.00  0.00     0.016 A 
ATOM     33  C   UNL A   1      43.918  25.757  26.823  1.00  0.00     0.016 A 
ATOM     34  C   UNL A   1      42.023  25.136  28.811  1.00  0.00     0.010 A 
ATOM     35  C   UNL A   1      43.657  26.658  27.852  1.00  0.00     0.010 A 
ATOM     36  C   UNL A   1      42.696  26.362  28.838  1.00  0.00    -0.014 A 
BRANCH  36  37
ATOM     37  C   UNL A   1      42.288  27.438  29.768  1.00  0.00     0.031 A 
ATOM     38  C   UNL A   1      42.977  27.513  31.099  1.00  0.00     0.074 A 
ATOM     39  C   UNL A   1      41.284  28.279  29.470  1.00  0.00     0.049 A 
ATOM     40  N   UNL A   1      42.644  28.179  32.172  1.00  0.00    -0.248 NA
ATOM     41  C   UNL A   1      44.205  26.713  31.238  1.00  0.00     0.031 C 
ATOM     42  C   UNL A   1      40.590  28.352  28.186  1.00  0.00     0.029 A 
ATOM     43  N   UNL A   1      40.651  29.213  30.252  1.00  0.00    -0.354 N 
ATOM     44  C   UNL A   1      43.600  27.854  33.125  1.00  0.00     0.074 A 
ATOM     45  C   UNL A   1      44.520  26.925  32.507  1.00  0.00     0.031 C 
ATOM     46  C   UNL A   1      39.601  29.257  28.280  1.00  0.00     0.029 A 
ATOM     47  C   UNL A   1      39.557  29.780  29.645  1.00  0.00     0.049 A 
ATOM     48  H   UNL A   1      40.951  29.453  31.159  1.00  0.00     0.167 HD
ATOM     49  C   UNL A   1      43.692  28.287  34.403  1.00  0.00     0.037 A 
ATOM     50  C   UNL A   1      38.602  30.583  30.154  1.00  0.00     0.037 A 
ATOM     51  C   UNL A   1      42.767  29.208  35.005  1.00  0.00     0.049 A 
ATOM     52  C   UNL A   1      38.668  30.978  31.609  1.00  0.00     0.074 A 
ATOM     53  C   UNL A   1      42.770  29.715  36.292  1.00  0.00     0.029 A 
ATOM     54  N   UNL A   1      41.667  29.754  34.359  1.00  0.00    -0.354 N 
ATOM     55  N   UNL A   1      39.564  30.661  32.513  1.00  0.00    -0.248 NA
ATOM     56  C   UNL A   1      37.584  31.832  32.118  1.00  0.00     0.031 C 
ATOM     57  C   UNL A   1      41.640  30.522  36.442  1.00  0.00     0.029 A 
ATOM     58  C   UNL A   1      40.971  30.574  35.229  1.00  0.00     0.049 A 
ATOM     59  H   UNL A   1      41.419  29.583  33.421  1.00  0.00     0.167 HD
ATOM     60  C   UNL A   1      39.178  31.311  33.680  1.00  0.00     0.074 A 
ATOM     61  C   UNL A   1      37.963  32.036  33.373  1.00  0.00     0.031 C 
ATOM     62  C   UNL A   1      39.781  31.315  34.894  1.00  0.00     0.037 A 
BRANCH  49  63
ATOM     63  C   UNL A   1      44.803  27.731  35.245  1.00  0.00     0.057 A 
ATOM     64  C   UNL A   1      44.688  26.508  35.916  1.00  0.00     0.134 A 
ATOM     65  C   UNL A   1      46.016  28.423  35.364  1.00  0.00     0.134 A 
ATOM     66  F   UNL A   1      43.549  25.803  35.856  1.00  0.00    -0.206 F 
ATOM     67  C   UNL A   1      45.730  26.004  36.696  1.00  0.00     0.040 A 
ATOM     68  C   UNL A   1      47.075  27.915  36.117  1.00  0.00     0.040 A 
ATOM     69  F   UNL A   1      46.194  29.599  34.744  1.00  0.00    -0.206 F 
ATOM     70  C   UNL A   1      46.932  26.706  36.792  1.00  0.00     0.006 A 
ENDBRANCH  49  63
BRANCH  50  71
ATOM     71  C   UNL A   1      37.476  31.041  29.298  1.00  0.00     0.057 A 
ATOM     72  C   UNL A   1      37.449  32.337  28.772  1.00  0.00     0.134 A 
ATOM     73  C   UNL A   1      36.389  30.206  29.008  1.00  0.00     0.134 A 
ATOM     74  F   UNL A   1      38.447  33.193  29.035  1.00  0.00    -0.206 F 
ATOM     75  C   UNL A   1      36.375  32.794  28.004  1.00  0.00     0.040 A 
ATOM     76  C   UNL A   1      35.323  30.639  28.217  1.00  0.00     0.040 A 
ATOM     77  F   UNL A   1      36.352  28.952  29.482  1.00  0.00    -0.206 F 
ATOM     78  C   UNL A   1      35.310  31.940  27.719  1.00  0.00     0.006 A 
ENDBRANCH  50  71
BRANCH  62  79
ATOM     79  C   UNL A   1      39.193  32.182  35.970  1.00  0.00     0.057 A 
ATOM     80  C   UNL A   1      39.551  33.526  36.126  1.00  0.00     0.134 A 
ATOM     81  C   UNL A   1      38.176  31.682  36.795  1.00  0.00     0.134 A 
ATOM     82  F   UNL A   1      40.524  34.062  35.374  1.00  0.00    -0.206 F 
ATOM     83  C   UNL A   1      38.921  34.340  37.069  1.00  0.00     0.040 A 
ATOM     84  C   UNL A   1      37.522  32.493  37.722  1.00  0.00     0.040 A 
ATOM     85  F   UNL A   1      37.779  30.404  36.689  1.00  0.00    -0.206 F 
ATOM     86  C   UNL A   1      37.894  33.828  37.860  1.00  0.00     0.006 A 
ENDBRANCH  62  79
ENDBRANCH  36  37
ENDBRANCH  29  31
ENDBRANCH  28  29
ENDBRANCH  27  28
ENDBRANCH  26  27
ENDBRANCH  25  26
ENDBRANCH  24  25
ENDBRANCH   1  24
TORSDOF 20
ENDMDL
