MODEL 1
REMARK VINA RESULT:      -9.8      0.000      0.000
REMARK SMILES CC(C)(Cn1cc(Br)cn1)C(=O)OCCOCCOCCOC(=O)c1ccc(-c2c3nc(c(-c4c(F)cccc4F)c4ccc([nH]4)c(-c4c(F)cccc4F)c4nc(c(-c5c(F)cccc5F)c5ccc2[nH]5)C=C4)C=C3)cc1
REMARK SMILES IDX 17 1 16 2 15 3 14 4 13 5 11 6 12 7 2 8 1 9 3 10 4 11 5 12
REMARK SMILES IDX 6 13 10 14 7 15 9 16 8 17 18 18 19 19 20 20 21 21 22 22
REMARK SMILES IDX 23 23 24 24 25 25 26 26 78 27 27 28 77 29 28 30 29 31 30 32
REMARK SMILES IDX 71 33 31 34 76 35 70 36 72 37 32 38 75 39 69 40 68 41 33 43
REMARK SMILES IDX 59 44 42 45 58 46 43 47 46 48 57 49 73 50 44 51 45 52 56 54
REMARK SMILES IDX 74 55 47 56 34 57 35 58 40 59 36 60 37 61 39 62 41 63 38 64
REMARK SMILES IDX 60 65 61 66 66 67 62 68 63 69 65 70 67 71 64 72 48 73 49 74
REMARK SMILES IDX 54 75 50 76 51 77 53 78 55 79 52 80
REMARK H PARENT 72 42 46 53
REMARK Flexibility Score: inf
ROOT
ATOM      1  C   UNL A   1      39.712  21.948  26.619  1.00  0.00     0.188 C 
ENDROOT
BRANCH   1   2
ATOM      2  O   UNL A   1      39.120  21.384  25.462  1.00  0.00    -0.376 OA
BRANCH   2   3
ATOM      3  C   UNL A   1      37.717  21.498  25.272  1.00  0.00     0.202 C 
BRANCH   3   4
ATOM      4  C   UNL A   1      36.965  22.760  25.750  1.00  0.00     0.261 C 
BRANCH   4   5
ATOM      5  O   UNL A   1      36.607  23.748  24.745  1.00  0.00    -0.463 OA
BRANCH   5   6
ATOM      6  C   UNL A   1      35.799  23.325  23.744  1.00  0.00     0.313 C 
ATOM      7  O   UNL A   1      36.236  22.951  22.658  1.00  0.00    -0.252 OA
BRANCH   6   8
ATOM      8  C   UNL A   1      34.279  23.396  24.024  1.00  0.00     0.082 C 
ATOM      9  C   UNL A   1      33.606  23.414  22.638  1.00  0.00     0.025 C 
ATOM     10  C   UNL A   1      34.083  24.790  24.662  1.00  0.00     0.025 C 
BRANCH   8  11
ATOM     11  C   UNL A   1      33.645  22.369  25.033  1.00  0.00     0.162 C 
BRANCH  11  12
ATOM     12  N   UNL A   1      33.424  20.960  24.709  1.00  0.00    -0.270 N 
ATOM     13  C   UNL A   1      34.404  19.998  24.627  1.00  0.00     0.124 A 
ATOM     14  N   UNL A   1      32.186  20.433  24.597  1.00  0.00    -0.180 NA
ATOM     15  C   UNL A   1      33.751  18.810  24.435  1.00  0.00     0.055 A 
ATOM     16  C   UNL A   1      32.392  19.126  24.412  1.00  0.00     0.150 A 
ATOM     17  Br  UNL A   1      34.474  17.099  24.255  1.00  0.00    -0.047 Br
ENDBRANCH  11  12
ENDBRANCH   8  11
ENDBRANCH   6   8
ENDBRANCH   5   6
ENDBRANCH   4   5
ENDBRANCH   3   4
ENDBRANCH   2   3
ENDBRANCH   1   2
BRANCH   1  18
ATOM     18  C   UNL A   1      40.788  21.168  27.387  1.00  0.00     0.188 C 
BRANCH  18  19
ATOM     19  O   UNL A   1      40.972  19.805  27.037  1.00  0.00    -0.376 OA
BRANCH  19  20
ATOM     20  C   UNL A   1      42.267  19.228  27.089  1.00  0.00     0.202 C 
BRANCH  20  21
ATOM     21  C   UNL A   1      42.999  19.126  25.750  1.00  0.00     0.261 C 
BRANCH  21  22
ATOM     22  O   UNL A   1      43.138  20.385  25.109  1.00  0.00    -0.460 OA
BRANCH  22  23
ATOM     23  C   UNL A   1      44.212  20.467  24.309  1.00  0.00     0.338 C 
ATOM     24  O   UNL A   1      44.633  19.629  23.514  1.00  0.00    -0.246 OA
BRANCH  23  25
ATOM     25  C   UNL A   1      44.829  21.766  24.494  1.00  0.00     0.060 A 
ATOM     26  C   UNL A   1      45.947  21.817  25.332  1.00  0.00     0.016 A 
ATOM     27  C   UNL A   1      44.045  22.877  24.181  1.00  0.00     0.016 A 
ATOM     28  C   UNL A   1      46.087  22.918  26.132  1.00  0.00     0.010 A 
ATOM     29  C   UNL A   1      44.178  23.969  24.987  1.00  0.00     0.010 A 
ATOM     30  C   UNL A   1      45.108  23.902  26.030  1.00  0.00    -0.014 A 
BRANCH  30  31
ATOM     31  C   UNL A   1      44.993  24.853  27.109  1.00  0.00     0.031 A 
ATOM     32  C   UNL A   1      46.174  25.726  27.259  1.00  0.00     0.074 A 
ATOM     33  C   UNL A   1      43.805  24.980  27.734  1.00  0.00     0.049 A 
ATOM     34  N   UNL A   1      46.843  25.992  28.330  1.00  0.00    -0.248 NA
ATOM     35  C   UNL A   1      46.758  26.281  26.024  1.00  0.00     0.031 C 
ATOM     36  C   UNL A   1      42.542  24.301  27.405  1.00  0.00     0.029 A 
ATOM     37  N   UNL A   1      43.424  25.867  28.683  1.00  0.00    -0.354 N 
ATOM     38  C   UNL A   1      47.803  26.915  27.933  1.00  0.00     0.074 A 
ATOM     39  C   UNL A   1      47.821  26.925  26.495  1.00  0.00     0.031 C 
ATOM     40  C   UNL A   1      41.516  24.994  27.943  1.00  0.00     0.029 A 
ATOM     41  C   UNL A   1      42.056  26.092  28.724  1.00  0.00     0.049 A 
ATOM     42  H   UNL A   1      44.060  26.313  29.288  1.00  0.00     0.167 HD
ATOM     43  C   UNL A   1      48.324  27.815  28.805  1.00  0.00     0.037 A 
ATOM     44  C   UNL A   1      41.446  27.182  29.252  1.00  0.00     0.037 A 
ATOM     45  C   UNL A   1      48.199  27.386  30.169  1.00  0.00     0.049 A 
ATOM     46  C   UNL A   1      42.447  27.874  30.111  1.00  0.00     0.074 A 
ATOM     47  C   UNL A   1      48.616  26.260  30.854  1.00  0.00     0.029 A 
ATOM     48  N   UNL A   1      47.236  27.967  30.956  1.00  0.00    -0.354 N 
ATOM     49  N   UNL A   1      42.902  27.398  31.237  1.00  0.00    -0.248 NA
ATOM     50  C   UNL A   1      43.288  28.885  29.480  1.00  0.00     0.031 C 
ATOM     51  C   UNL A   1      47.553  25.959  31.753  1.00  0.00     0.029 A 
ATOM     52  C   UNL A   1      46.580  26.946  31.600  1.00  0.00     0.049 A 
ATOM     53  H   UNL A   1      47.051  28.930  31.043  1.00  0.00     0.167 HD
ATOM     54  C   UNL A   1      44.251  27.727  31.246  1.00  0.00     0.074 A 
ATOM     55  C   UNL A   1      44.412  28.713  30.181  1.00  0.00     0.031 C 
ATOM     56  C   UNL A   1      45.168  26.961  31.907  1.00  0.00     0.037 A 
BRANCH  43  57
ATOM     57  C   UNL A   1      48.617  29.225  28.391  1.00  0.00     0.057 A 
ATOM     58  C   UNL A   1      47.592  30.039  27.896  1.00  0.00     0.134 A 
ATOM     59  C   UNL A   1      49.928  29.731  28.239  1.00  0.00     0.134 A 
ATOM     60  F   UNL A   1      46.315  29.632  27.936  1.00  0.00    -0.206 F 
ATOM     61  C   UNL A   1      47.855  31.270  27.285  1.00  0.00     0.040 A 
ATOM     62  C   UNL A   1      50.197  30.981  27.686  1.00  0.00     0.040 A 
ATOM     63  F   UNL A   1      51.012  28.998  28.533  1.00  0.00    -0.206 F 
ATOM     64  C   UNL A   1      49.159  31.747  27.185  1.00  0.00     0.006 A 
ENDBRANCH  43  57
BRANCH  44  65
ATOM     65  C   UNL A   1      40.192  27.834  28.799  1.00  0.00     0.057 A 
ATOM     66  C   UNL A   1      39.104  27.981  29.671  1.00  0.00     0.134 A 
ATOM     67  C   UNL A   1      40.101  28.538  27.584  1.00  0.00     0.134 A 
ATOM     68  F   UNL A   1      39.113  27.392  30.874  1.00  0.00    -0.206 F 
ATOM     69  C   UNL A   1      37.998  28.785  29.356  1.00  0.00     0.040 A 
ATOM     70  C   UNL A   1      38.995  29.327  27.250  1.00  0.00     0.040 A 
ATOM     71  F   UNL A   1      41.113  28.556  26.706  1.00  0.00    -0.206 F 
ATOM     72  C   UNL A   1      37.943  29.464  28.144  1.00  0.00     0.006 A 
ENDBRANCH  44  65
BRANCH  56  73
ATOM     73  C   UNL A   1      44.663  25.865  32.807  1.00  0.00     0.057 A 
ATOM     74  C   UNL A   1      44.455  24.543  32.383  1.00  0.00     0.134 A 
ATOM     75  C   UNL A   1      44.551  26.107  34.180  1.00  0.00     0.134 A 
ATOM     76  F   UNL A   1      44.650  24.185  31.108  1.00  0.00    -0.206 F 
ATOM     77  C   UNL A   1      44.107  23.524  33.274  1.00  0.00     0.040 A 
ATOM     78  C   UNL A   1      44.240  25.090  35.087  1.00  0.00     0.040 A 
ATOM     79  F   UNL A   1      44.800  27.331  34.672  1.00  0.00    -0.206 F 
ATOM     80  C   UNL A   1      44.005  23.795  34.633  1.00  0.00     0.006 A 
ENDBRANCH  56  73
ENDBRANCH  30  31
ENDBRANCH  23  25
ENDBRANCH  22  23
ENDBRANCH  21  22
ENDBRANCH  20  21
ENDBRANCH  19  20
ENDBRANCH  18  19
ENDBRANCH   1  18
TORSDOF 19
ENDMDL
MODEL 2
REMARK VINA RESULT:      -9.5      4.455      8.515
REMARK SMILES CC(C)(Cn1cc(Br)cn1)C(=O)OCCOCCOCCOC(=O)c1ccc(-c2c3nc(c(-c4c(F)cccc4F)c4ccc([nH]4)c(-c4c(F)cccc4F)c4nc(c(-c5c(F)cccc5F)c5ccc2[nH]5)C=C4)C=C3)cc1
REMARK SMILES IDX 17 1 16 2 15 3 14 4 13 5 11 6 12 7 2 8 1 9 3 10 4 11 5 12
REMARK SMILES IDX 6 13 10 14 7 15 9 16 8 17 18 18 19 19 20 20 21 21 22 22
REMARK SMILES IDX 23 23 24 24 25 25 26 26 78 27 27 28 77 29 28 30 29 31 30 32
REMARK SMILES IDX 71 33 31 34 76 35 70 36 72 37 32 38 75 39 69 40 68 41 33 43
REMARK SMILES IDX 59 44 42 45 58 46 43 47 46 48 57 49 73 50 44 51 45 52 56 54
REMARK SMILES IDX 74 55 47 56 34 57 35 58 40 59 36 60 37 61 39 62 41 63 38 64
REMARK SMILES IDX 60 65 61 66 66 67 62 68 63 69 65 70 67 71 64 72 48 73 49 74
REMARK SMILES IDX 54 75 50 76 51 77 53 78 55 79 52 80
REMARK H PARENT 72 42 46 53
REMARK Flexibility Score: inf
ROOT
ATOM      1  C   UNL A   1      34.462  30.785  27.230  1.00  0.00     0.188 C 
ENDROOT
BRANCH   1   2
ATOM      2  O   UNL A   1      33.289  30.011  27.411  1.00  0.00    -0.376 OA
BRANCH   2   3
ATOM      3  C   UNL A   1      33.358  28.599  27.266  1.00  0.00     0.202 C 
BRANCH   3   4
ATOM      4  C   UNL A   1      32.103  27.796  26.857  1.00  0.00     0.261 C 
BRANCH   4   5
ATOM      5  O   UNL A   1      31.772  27.744  25.442  1.00  0.00    -0.463 OA
BRANCH   5   6
ATOM      6  C   UNL A   1      30.963  26.732  25.048  1.00  0.00     0.313 C 
ATOM      7  O   UNL A   1      30.169  26.187  25.813  1.00  0.00    -0.252 OA
BRANCH   6   8
ATOM      8  C   UNL A   1      31.136  26.255  23.587  1.00  0.00     0.082 C 
ATOM      9  C   UNL A   1      30.456  24.873  23.522  1.00  0.00     0.025 C 
ATOM     10  C   UNL A   1      32.661  26.037  23.445  1.00  0.00     0.025 C 
BRANCH   8  11
ATOM     11  C   UNL A   1      30.731  27.227  22.419  1.00  0.00     0.162 C 
BRANCH  11  12
ATOM     12  N   UNL A   1      29.824  28.360  22.599  1.00  0.00    -0.270 N 
ATOM     13  C   UNL A   1      30.125  29.673  22.314  1.00  0.00     0.124 A 
ATOM     14  N   UNL A   1      28.527  28.199  22.936  1.00  0.00    -0.180 NA
ATOM     15  C   UNL A   1      28.962  30.374  22.500  1.00  0.00     0.055 A 
ATOM     16  C   UNL A   1      28.011  29.430  22.891  1.00  0.00     0.150 A 
ATOM     17  Br  UNL A   1      28.654  32.200  22.273  1.00  0.00    -0.047 Br
ENDBRANCH  11  12
ENDBRANCH   8  11
ENDBRANCH   6   8
ENDBRANCH   5   6
ENDBRANCH   4   5
ENDBRANCH   3   4
ENDBRANCH   2   3
ENDBRANCH   1   2
BRANCH   1  18
ATOM     18  C   UNL A   1      34.624  32.116  27.976  1.00  0.00     0.188 C 
BRANCH  18  19
ATOM     19  O   UNL A   1      35.858  32.798  27.820  1.00  0.00    -0.376 OA
BRANCH  19  20
ATOM     20  C   UNL A   1      36.600  33.193  28.964  1.00  0.00     0.202 C 
BRANCH  20  21
ATOM     21  C   UNL A   1      37.362  32.074  29.676  1.00  0.00     0.261 C 
BRANCH  21  22
ATOM     22  O   UNL A   1      37.913  31.129  28.770  1.00  0.00    -0.460 OA
BRANCH  22  23
ATOM     23  C   UNL A   1      37.933  29.875  29.246  1.00  0.00     0.338 C 
ATOM     24  O   UNL A   1      37.449  29.452  30.293  1.00  0.00    -0.246 OA
BRANCH  23  25
ATOM     25  C   UNL A   1      38.615  29.028  28.287  1.00  0.00     0.060 A 
ATOM     26  C   UNL A   1      38.590  27.652  28.534  1.00  0.00     0.016 A 
ATOM     27  C   UNL A   1      39.557  29.651  27.468  1.00  0.00     0.016 A 
ATOM     28  C   UNL A   1      39.715  26.936  28.231  1.00  0.00     0.010 A 
ATOM     29  C   UNL A   1      40.683  28.938  27.177  1.00  0.00     0.010 A 
ATOM     30  C   UNL A   1      40.786  27.640  27.687  1.00  0.00    -0.014 A 
BRANCH  30  31
ATOM     31  C   UNL A   1      42.090  27.025  27.734  1.00  0.00     0.031 A 
ATOM     32  C   UNL A   1      42.848  27.334  28.961  1.00  0.00     0.074 A 
ATOM     33  C   UNL A   1      42.412  26.121  26.786  1.00  0.00     0.049 A 
ATOM     34  N   UNL A   1      44.063  27.756  29.070  1.00  0.00    -0.248 NA
ATOM     35  C   UNL A   1      42.109  27.279  30.237  1.00  0.00     0.031 C 
ATOM     36  C   UNL A   1      41.552  25.606  25.710  1.00  0.00     0.029 A 
ATOM     37  N   UNL A   1      43.513  25.340  26.684  1.00  0.00    -0.354 N 
ATOM     38  C   UNL A   1      44.303  27.815  30.437  1.00  0.00     0.074 A 
ATOM     39  C   UNL A   1      43.034  27.683  31.101  1.00  0.00     0.031 C 
ATOM     40  C   UNL A   1      42.058  24.436  25.263  1.00  0.00     0.029 A 
ATOM     41  C   UNL A   1      43.312  24.181  25.948  1.00  0.00     0.049 A 
ATOM     42  H   UNL A   1      44.377  25.573  27.094  1.00  0.00     0.167 HD
ATOM     43  C   UNL A   1      45.555  27.686  30.943  1.00  0.00     0.037 A 
ATOM     44  C   UNL A   1      44.065  23.055  26.020  1.00  0.00     0.037 A 
ATOM     45  C   UNL A   1      46.568  28.010  29.979  1.00  0.00     0.049 A 
ATOM     46  C   UNL A   1      45.338  23.419  26.701  1.00  0.00     0.074 A 
ATOM     47  C   UNL A   1      46.832  29.133  29.217  1.00  0.00     0.029 A 
ATOM     48  N   UNL A   1      47.266  26.985  29.388  1.00  0.00    -0.354 N 
ATOM     49  N   UNL A   1      46.259  24.180  26.177  1.00  0.00    -0.248 NA
ATOM     50  C   UNL A   1      45.376  23.309  28.155  1.00  0.00     0.031 C 
ATOM     51  C   UNL A   1      47.259  28.632  27.954  1.00  0.00     0.029 A 
ATOM     52  C   UNL A   1      47.279  27.240  28.038  1.00  0.00     0.049 A 
ATOM     53  H   UNL A   1      47.678  26.216  29.844  1.00  0.00     0.167 HD
ATOM     54  C   UNL A   1      46.718  24.962  27.230  1.00  0.00     0.074 A 
ATOM     55  C   UNL A   1      46.199  24.323  28.437  1.00  0.00     0.031 C 
ATOM     56  C   UNL A   1      47.222  26.214  27.023  1.00  0.00     0.037 A 
BRANCH  43  57
ATOM     57  C   UNL A   1      45.812  26.926  32.208  1.00  0.00     0.057 A 
ATOM     58  C   UNL A   1      46.566  27.506  33.235  1.00  0.00     0.134 A 
ATOM     59  C   UNL A   1      45.541  25.547  32.352  1.00  0.00     0.134 A 
ATOM     60  F   UNL A   1      46.930  28.794  33.174  1.00  0.00    -0.206 F 
ATOM     61  C   UNL A   1      47.026  26.760  34.327  1.00  0.00     0.040 A 
ATOM     62  C   UNL A   1      45.943  24.808  33.463  1.00  0.00     0.040 A 
ATOM     63  F   UNL A   1      44.958  24.830  31.380  1.00  0.00    -0.206 F 
ATOM     64  C   UNL A   1      46.709  25.410  34.446  1.00  0.00     0.006 A 
ENDBRANCH  43  57
BRANCH  44  65
ATOM     65  C   UNL A   1      43.621  21.649  25.849  1.00  0.00     0.057 A 
ATOM     66  C   UNL A   1      44.377  20.744  25.093  1.00  0.00     0.134 A 
ATOM     67  C   UNL A   1      42.574  21.089  26.606  1.00  0.00     0.134 A 
ATOM     68  F   UNL A   1      45.427  21.168  24.376  1.00  0.00    -0.206 F 
ATOM     69  C   UNL A   1      44.115  19.365  25.096  1.00  0.00     0.040 A 
ATOM     70  C   UNL A   1      42.290  19.719  26.603  1.00  0.00     0.040 A 
ATOM     71  F   UNL A   1      41.837  21.833  27.442  1.00  0.00    -0.206 F 
ATOM     72  C   UNL A   1      43.072  18.849  25.856  1.00  0.00     0.006 A 
ENDBRANCH  44  65
BRANCH  56  73
ATOM     73  C   UNL A   1      47.469  26.655  25.605  1.00  0.00     0.057 A 
ATOM     74  C   UNL A   1      46.543  27.385  24.843  1.00  0.00     0.134 A 
ATOM     75  C   UNL A   1      48.744  26.492  25.052  1.00  0.00     0.134 A 
ATOM     76  F   UNL A   1      45.336  27.694  25.331  1.00  0.00    -0.206 F 
ATOM     77  C   UNL A   1      46.855  27.886  23.577  1.00  0.00     0.040 A 
ATOM     78  C   UNL A   1      49.081  27.019  23.803  1.00  0.00     0.040 A 
ATOM     79  F   UNL A   1      49.705  25.862  25.746  1.00  0.00    -0.206 F 
ATOM     80  C   UNL A   1      48.131  27.710  23.055  1.00  0.00     0.006 A 
ENDBRANCH  56  73
ENDBRANCH  30  31
ENDBRANCH  23  25
ENDBRANCH  22  23
ENDBRANCH  21  22
ENDBRANCH  20  21
ENDBRANCH  19  20
ENDBRANCH  18  19
ENDBRANCH   1  18
TORSDOF 19
ENDMDL
MODEL 3
REMARK VINA RESULT:      -9.3      4.242      8.414
REMARK SMILES CC(C)(Cn1cc(Br)cn1)C(=O)OCCOCCOCCOC(=O)c1ccc(-c2c3nc(c(-c4c(F)cccc4F)c4ccc([nH]4)c(-c4c(F)cccc4F)c4nc(c(-c5c(F)cccc5F)c5ccc2[nH]5)C=C4)C=C3)cc1
REMARK SMILES IDX 17 1 16 2 15 3 14 4 13 5 11 6 12 7 2 8 1 9 3 10 4 11 5 12
REMARK SMILES IDX 6 13 10 14 7 15 9 16 8 17 18 18 19 19 20 20 21 21 22 22
REMARK SMILES IDX 23 23 24 24 25 25 26 26 78 27 27 28 77 29 28 30 29 31 30 32
REMARK SMILES IDX 71 33 31 34 76 35 70 36 72 37 32 38 75 39 69 40 68 41 33 43
REMARK SMILES IDX 59 44 42 45 58 46 43 47 46 48 57 49 73 50 44 51 45 52 56 54
REMARK SMILES IDX 74 55 47 56 34 57 35 58 40 59 36 60 37 61 39 62 41 63 38 64
REMARK SMILES IDX 60 65 61 66 66 67 62 68 63 69 65 70 67 71 64 72 48 73 49 74
REMARK SMILES IDX 54 75 50 76 51 77 53 78 55 79 52 80
REMARK H PARENT 72 42 46 53
REMARK Flexibility Score: inf
ROOT
ATOM      1  C   UNL A   1      34.811  32.528  30.666  1.00  0.00     0.188 C 
ENDROOT
BRANCH   1   2
ATOM      2  O   UNL A   1      34.851  33.203  29.420  1.00  0.00    -0.376 OA
BRANCH   2   3
ATOM      3  C   UNL A   1      34.041  32.737  28.350  1.00  0.00     0.202 C 
BRANCH   3   4
ATOM      4  C   UNL A   1      34.362  31.393  27.657  1.00  0.00     0.261 C 
BRANCH   4   5
ATOM      5  O   UNL A   1      33.369  30.335  27.756  1.00  0.00    -0.463 OA
BRANCH   5   6
ATOM      6  C   UNL A   1      32.413  30.313  26.797  1.00  0.00     0.313 C 
ATOM      7  O   UNL A   1      31.780  31.316  26.475  1.00  0.00    -0.252 OA
BRANCH   6   8
ATOM      8  C   UNL A   1      32.116  28.931  26.168  1.00  0.00     0.082 C 
ATOM      9  C   UNL A   1      31.568  28.064  27.319  1.00  0.00     0.025 C 
ATOM     10  C   UNL A   1      33.513  28.386  25.790  1.00  0.00     0.025 C 
BRANCH   8  11
ATOM     11  C   UNL A   1      31.259  28.867  24.850  1.00  0.00     0.162 C 
BRANCH  11  12
ATOM     12  N   UNL A   1      31.279  27.725  23.937  1.00  0.00    -0.270 N 
ATOM     13  C   UNL A   1      31.939  27.682  22.730  1.00  0.00     0.124 A 
ATOM     14  N   UNL A   1      30.756  26.526  24.271  1.00  0.00    -0.180 NA
ATOM     15  C   UNL A   1      31.807  26.397  22.274  1.00  0.00     0.055 A 
ATOM     16  C   UNL A   1      31.065  25.726  23.247  1.00  0.00     0.150 A 
ATOM     17  Br  UNL A   1      32.475  25.644  20.702  1.00  0.00    -0.047 Br
ENDBRANCH  11  12
ENDBRANCH   8  11
ENDBRANCH   6   8
ENDBRANCH   5   6
ENDBRANCH   4   5
ENDBRANCH   3   4
ENDBRANCH   2   3
ENDBRANCH   1   2
BRANCH   1  18
ATOM     18  C   UNL A   1      36.009  32.612  31.622  1.00  0.00     0.188 C 
BRANCH  18  19
ATOM     19  O   UNL A   1      36.130  31.589  32.597  1.00  0.00    -0.376 OA
BRANCH  19  20
ATOM     20  C   UNL A   1      36.993  30.487  32.366  1.00  0.00     0.202 C 
BRANCH  20  21
ATOM     21  C   UNL A   1      36.706  29.677  31.100  1.00  0.00     0.261 C 
BRANCH  21  22
ATOM     22  O   UNL A   1      37.888  29.344  30.387  1.00  0.00    -0.460 OA
BRANCH  22  23
ATOM     23  C   UNL A   1      37.987  29.949  29.194  1.00  0.00     0.338 C 
ATOM     24  O   UNL A   1      37.631  31.085  28.886  1.00  0.00    -0.246 OA
BRANCH  23  25
ATOM     25  C   UNL A   1      38.637  29.042  28.269  1.00  0.00     0.060 A 
ATOM     26  C   UNL A   1      38.630  27.686  28.608  1.00  0.00     0.016 A 
ATOM     27  C   UNL A   1      39.544  29.612  27.374  1.00  0.00     0.016 A 
ATOM     28  C   UNL A   1      39.747  26.954  28.311  1.00  0.00     0.010 A 
ATOM     29  C   UNL A   1      40.662  28.885  27.088  1.00  0.00     0.010 A 
ATOM     30  C   UNL A   1      40.792  27.624  27.680  1.00  0.00    -0.014 A 
BRANCH  30  31
ATOM     31  C   UNL A   1      42.101  27.019  27.717  1.00  0.00     0.031 A 
ATOM     32  C   UNL A   1      42.864  27.330  28.941  1.00  0.00     0.074 A 
ATOM     33  C   UNL A   1      42.423  26.119  26.766  1.00  0.00     0.049 A 
ATOM     34  N   UNL A   1      44.077  27.760  29.043  1.00  0.00    -0.248 NA
ATOM     35  C   UNL A   1      42.133  27.266  30.221  1.00  0.00     0.031 C 
ATOM     36  C   UNL A   1      41.560  25.600  25.693  1.00  0.00     0.029 A 
ATOM     37  N   UNL A   1      43.529  25.346  26.655  1.00  0.00    -0.354 N 
ATOM     38  C   UNL A   1      44.325  27.817  30.409  1.00  0.00     0.074 A 
ATOM     39  C   UNL A   1      43.061  27.675  31.080  1.00  0.00     0.031 C 
ATOM     40  C   UNL A   1      42.072  24.436  25.241  1.00  0.00     0.029 A 
ATOM     41  C   UNL A   1      43.332  24.187  25.917  1.00  0.00     0.049 A 
ATOM     42  H   UNL A   1      44.394  25.584  27.060  1.00  0.00     0.167 HD
ATOM     43  C   UNL A   1      45.580  27.696  30.907  1.00  0.00     0.037 A 
ATOM     44  C   UNL A   1      44.093  23.066  25.982  1.00  0.00     0.037 A 
ATOM     45  C   UNL A   1      46.585  28.029  29.938  1.00  0.00     0.049 A 
ATOM     46  C   UNL A   1      45.367  23.437  26.657  1.00  0.00     0.074 A 
ATOM     47  C   UNL A   1      46.837  29.156  29.177  1.00  0.00     0.029 A 
ATOM     48  N   UNL A   1      47.287  27.011  29.340  1.00  0.00    -0.354 N 
ATOM     49  N   UNL A   1      46.280  24.207  26.129  1.00  0.00    -0.248 NA
ATOM     50  C   UNL A   1      45.415  23.325  28.110  1.00  0.00     0.031 C 
ATOM     51  C   UNL A   1      47.260  28.661  27.910  1.00  0.00     0.029 A 
ATOM     52  C   UNL A   1      47.290  27.269  27.991  1.00  0.00     0.049 A 
ATOM     53  H   UNL A   1      47.707  26.244  29.793  1.00  0.00     0.167 HD
ATOM     54  C   UNL A   1      46.739  24.989  27.181  1.00  0.00     0.074 A 
ATOM     55  C   UNL A   1      46.233  24.344  28.389  1.00  0.00     0.031 C 
ATOM     56  C   UNL A   1      47.234  26.245  26.974  1.00  0.00     0.037 A 
BRANCH  43  57
ATOM     57  C   UNL A   1      45.850  26.935  32.169  1.00  0.00     0.057 A 
ATOM     58  C   UNL A   1      46.595  27.523  33.198  1.00  0.00     0.134 A 
ATOM     59  C   UNL A   1      45.603  25.551  32.307  1.00  0.00     0.134 A 
ATOM     60  F   UNL A   1      46.936  28.818  33.143  1.00  0.00    -0.206 F 
ATOM     61  C   UNL A   1      47.067  26.780  34.287  1.00  0.00     0.040 A 
ATOM     62  C   UNL A   1      46.017  24.814  33.414  1.00  0.00     0.040 A 
ATOM     63  F   UNL A   1      45.031  24.829  31.331  1.00  0.00    -0.206 F 
ATOM     64  C   UNL A   1      46.773  25.424  34.400  1.00  0.00     0.006 A 
ENDBRANCH  43  57
BRANCH  44  65
ATOM     65  C   UNL A   1      43.657  21.658  25.811  1.00  0.00     0.057 A 
ATOM     66  C   UNL A   1      44.428  20.754  25.068  1.00  0.00     0.134 A 
ATOM     67  C   UNL A   1      42.604  21.095  26.556  1.00  0.00     0.134 A 
ATOM     68  F   UNL A   1      45.484  21.180  24.362  1.00  0.00    -0.206 F 
ATOM     69  C   UNL A   1      44.172  19.374  25.072  1.00  0.00     0.040 A 
ATOM     70  C   UNL A   1      42.327  19.724  26.554  1.00  0.00     0.040 A 
ATOM     71  F   UNL A   1      41.853  21.838  27.380  1.00  0.00    -0.206 F 
ATOM     72  C   UNL A   1      43.122  18.855  25.821  1.00  0.00     0.006 A 
ENDBRANCH  44  65
BRANCH  56  73
ATOM     73  C   UNL A   1      47.469  26.691  25.555  1.00  0.00     0.057 A 
ATOM     74  C   UNL A   1      46.547  27.445  24.813  1.00  0.00     0.134 A 
ATOM     75  C   UNL A   1      48.733  26.506  24.983  1.00  0.00     0.134 A 
ATOM     76  F   UNL A   1      45.354  27.775  25.319  1.00  0.00    -0.206 F 
ATOM     77  C   UNL A   1      46.851  27.949  23.545  1.00  0.00     0.040 A 
ATOM     78  C   UNL A   1      49.062  27.036  23.732  1.00  0.00     0.040 A 
ATOM     79  F   UNL A   1      49.691  25.852  25.659  1.00  0.00    -0.206 F 
ATOM     80  C   UNL A   1      48.115  27.751  23.003  1.00  0.00     0.006 A 
ENDBRANCH  56  73
ENDBRANCH  30  31
ENDBRANCH  23  25
ENDBRANCH  22  23
ENDBRANCH  21  22
ENDBRANCH  20  21
ENDBRANCH  19  20
ENDBRANCH  18  19
ENDBRANCH   1  18
TORSDOF 19
ENDMDL
