MODEL 1
REMARK VINA RESULT:     -11.1      0.000      0.000
REMARK SMILES O=C1NC(=S)/C(=C/c2ccc(-c3ccc(C(=O)OCCOCCOCCOC(=O)c4ccc(-c5c6nc(c(-c7c(F)cccc7F)c7ccc([nH]7)c(-c7c(F)cccc7F)c7nc(c(-c8c(F)cccc8F)c8ccc5[nH]8)C=C7)C=C6)cc4)cc3)o2)S1
REMARK SMILES IDX 22 1 21 2 20 3 19 4 18 5 16 6 17 7 15 8 12 9 13 10 85 11
REMARK SMILES IDX 14 12 84 13 11 14 8 15 9 16 86 17 10 18 7 19 1 20 2 21 3 22
REMARK SMILES IDX 87 23 4 24 6 26 5 27 23 28 24 29 25 30 26 31 27 32 28 33
REMARK SMILES IDX 29 34 30 35 31 36 83 37 32 38 82 39 33 40 34 41 35 42 76 43
REMARK SMILES IDX 36 44 81 45 75 46 77 47 37 48 80 49 74 50 73 51 38 53 64 54
REMARK SMILES IDX 47 55 63 56 48 57 51 58 62 59 78 60 49 61 50 62 61 64 79 65
REMARK SMILES IDX 52 66 39 67 40 68 45 69 41 70 42 71 44 72 46 73 43 74 65 75
REMARK SMILES IDX 66 76 71 77 67 78 68 79 70 80 72 81 69 82 53 83 54 84 59 85
REMARK SMILES IDX 55 86 56 87 58 88 60 89 57 90
REMARK H PARENT 3 25 77 52 51 63
REMARK Flexibility Score: inf
ROOT
ATOM      1  C   UNL A   1      35.831  23.144  26.123  1.00  0.00     0.188 C 
ENDROOT
BRANCH   1   2
ATOM      2  O   UNL A   1      34.588  23.427  26.734  1.00  0.00    -0.376 OA
BRANCH   2   3
ATOM      3  C   UNL A   1      33.381  23.354  25.993  1.00  0.00     0.202 C 
BRANCH   3   4
ATOM      4  C   UNL A   1      32.384  24.520  25.864  1.00  0.00     0.261 C 
BRANCH   4   5
ATOM      5  O   UNL A   1      32.894  25.832  26.121  1.00  0.00    -0.460 OA
BRANCH   5   6
ATOM      6  C   UNL A   1      31.976  26.739  26.535  1.00  0.00     0.338 C 
ATOM      7  O   UNL A   1      30.827  26.513  26.876  1.00  0.00    -0.246 OA
BRANCH   6   8
ATOM      8  C   UNL A   1      32.609  28.068  26.697  1.00  0.00     0.060 A 
ATOM      9  C   UNL A   1      33.911  30.485  27.246  1.00  0.00     0.017 A 
ATOM     10  C   UNL A   1      34.658  29.355  26.896  1.00  0.00     0.013 A 
ATOM     11  C   UNL A   1      32.508  30.422  27.204  1.00  0.00     0.013 A 
ATOM     12  C   UNL A   1      34.008  28.144  26.639  1.00  0.00     0.016 A 
ATOM     13  C   UNL A   1      31.854  29.219  26.923  1.00  0.00     0.016 A 
BRANCH   9  14
ATOM     14  C   UNL A   1      34.554  31.625  27.876  1.00  0.00     0.134 A 
ATOM     15  C   UNL A   1      34.636  33.452  29.132  1.00  0.00     0.128 A 
ATOM     16  C   UNL A   1      35.861  33.317  28.486  1.00  0.00     0.051 A 
ATOM     17  O   UNL A   1      33.842  32.384  28.755  1.00  0.00    -0.457 OA
ATOM     18  C   UNL A   1      35.805  32.162  27.688  1.00  0.00     0.051 A 
BRANCH  15  19
ATOM     19  C   UNL A   1      34.232  34.465  30.045  1.00  0.00     0.065 C 
ATOM     20  O   UNL A   1      35.500  33.437  34.821  1.00  0.00    -0.261 OA
ATOM     21  C   UNL A   1      35.060  33.872  33.775  1.00  0.00     0.289 C 
ATOM     22  N   UNL A   1      34.316  35.002  33.626  1.00  0.00    -0.307 N 
ATOM     23  S   UNL A   1      35.277  33.119  32.215  1.00  0.00    -0.025 SA
ATOM     24  C   UNL A   1      33.902  35.361  32.369  1.00  0.00     0.120 C 
ATOM     25  H   UNL A   1      34.079  35.552  34.407  1.00  0.00     0.171 HD
ATOM     26  C   UNL A   1      34.411  34.370  31.372  1.00  0.00     0.056 C 
ATOM     27  S   UNL A   1      32.942  36.706  32.152  1.00  0.00    -0.059 S 
ENDBRANCH  15  19
ENDBRANCH   9  14
ENDBRANCH   6   8
ENDBRANCH   5   6
ENDBRANCH   4   5
ENDBRANCH   3   4
ENDBRANCH   2   3
ENDBRANCH   1   2
BRANCH   1  28
ATOM     28  C   UNL A   1      36.124  21.729  25.583  1.00  0.00     0.188 C 
BRANCH  28  29
ATOM     29  O   UNL A   1      37.465  21.312  25.561  1.00  0.00    -0.376 OA
BRANCH  29  30
ATOM     30  C   UNL A   1      37.818  20.060  24.999  1.00  0.00     0.202 C 
BRANCH  30  31
ATOM     31  C   UNL A   1      39.042  19.197  25.375  1.00  0.00     0.261 C 
BRANCH  31  32
ATOM     32  O   UNL A   1      39.868  19.610  26.466  1.00  0.00    -0.460 OA
BRANCH  32  33
ATOM     33  C   UNL A   1      41.205  19.576  26.242  1.00  0.00     0.338 C 
ATOM     34  O   UNL A   1      41.859  18.649  25.798  1.00  0.00    -0.246 OA
BRANCH  33  35
ATOM     35  C   UNL A   1      41.755  20.927  26.459  1.00  0.00     0.060 A 
ATOM     36  C   UNL A   1      42.010  21.355  27.768  1.00  0.00     0.016 A 
ATOM     37  C   UNL A   1      41.985  21.776  25.376  1.00  0.00     0.016 A 
ATOM     38  C   UNL A   1      42.484  22.645  28.001  1.00  0.00     0.010 A 
ATOM     39  C   UNL A   1      42.437  23.077  25.614  1.00  0.00     0.010 A 
ATOM     40  C   UNL A   1      42.664  23.527  26.928  1.00  0.00    -0.014 A 
BRANCH  40  41
ATOM     41  C   UNL A   1      42.930  24.963  27.183  1.00  0.00     0.031 A 
ATOM     42  C   UNL A   1      44.273  25.525  26.808  1.00  0.00     0.074 A 
ATOM     43  C   UNL A   1      41.995  25.760  27.734  1.00  0.00     0.049 A 
ATOM     44  N   UNL A   1      44.759  26.723  27.007  1.00  0.00    -0.248 NA
ATOM     45  C   UNL A   1      45.194  24.607  26.119  1.00  0.00     0.031 C 
ATOM     46  C   UNL A   1      40.642  25.350  28.099  1.00  0.00     0.029 A 
ATOM     47  N   UNL A   1      42.056  27.084  28.092  1.00  0.00    -0.354 N 
ATOM     48  C   UNL A   1      46.043  26.701  26.478  1.00  0.00     0.074 A 
ATOM     49  C   UNL A   1      46.272  25.362  25.978  1.00  0.00     0.031 C 
ATOM     50  C   UNL A   1      40.002  26.400  28.644  1.00  0.00     0.029 A 
ATOM     51  C   UNL A   1      40.913  27.541  28.701  1.00  0.00     0.049 A 
ATOM     52  H   UNL A   1      42.845  27.651  27.929  1.00  0.00     0.167 HD
ATOM     53  C   UNL A   1      46.947  27.707  26.407  1.00  0.00     0.037 A 
ATOM     54  C   UNL A   1      40.647  28.736  29.265  1.00  0.00     0.037 A 
ATOM     55  C   UNL A   1      46.719  29.036  26.911  1.00  0.00     0.049 A 
ATOM     56  C   UNL A   1      41.703  29.812  29.255  1.00  0.00     0.074 A 
ATOM     57  C   UNL A   1      47.569  30.127  26.875  1.00  0.00     0.029 A 
ATOM     58  N   UNL A   1      45.562  29.450  27.553  1.00  0.00    -0.354 N 
ATOM     59  N   UNL A   1      42.906  29.790  28.735  1.00  0.00    -0.248 NA
ATOM     60  C   UNL A   1      41.360  31.082  29.914  1.00  0.00     0.031 C 
ATOM     61  C   UNL A   1      46.950  31.186  27.549  1.00  0.00     0.029 A 
ATOM     62  C   UNL A   1      45.687  30.774  27.944  1.00  0.00     0.049 A 
ATOM     63  H   UNL A   1      44.769  28.888  27.707  1.00  0.00     0.167 HD
ATOM     64  C   UNL A   1      43.448  31.050  28.968  1.00  0.00     0.074 A 
ATOM     65  C   UNL A   1      42.438  31.814  29.669  1.00  0.00     0.031 C 
ATOM     66  C   UNL A   1      44.670  31.530  28.630  1.00  0.00     0.037 A 
BRANCH  53  67
ATOM     67  C   UNL A   1      48.280  27.398  25.789  1.00  0.00     0.057 A 
ATOM     68  C   UNL A   1      48.491  27.464  24.406  1.00  0.00     0.134 A 
ATOM     69  C   UNL A   1      49.378  27.064  26.593  1.00  0.00     0.134 A 
ATOM     70  F   UNL A   1      47.481  27.765  23.576  1.00  0.00    -0.206 F 
ATOM     71  C   UNL A   1      49.738  27.183  23.842  1.00  0.00     0.040 A 
ATOM     72  C   UNL A   1      50.636  26.811  26.045  1.00  0.00     0.040 A 
ATOM     73  F   UNL A   1      49.248  26.988  27.926  1.00  0.00    -0.206 F 
ATOM     74  C   UNL A   1      50.817  26.864  24.664  1.00  0.00     0.006 A 
ENDBRANCH  53  67
BRANCH  54  75
ATOM     75  C   UNL A   1      39.327  28.985  29.902  1.00  0.00     0.057 A 
ATOM     76  C   UNL A   1      39.121  28.732  31.264  1.00  0.00     0.134 A 
ATOM     77  C   UNL A   1      38.231  29.444  29.161  1.00  0.00     0.134 A 
ATOM     78  F   UNL A   1      40.124  28.265  32.022  1.00  0.00    -0.206 F 
ATOM     79  C   UNL A   1      37.872  28.908  31.860  1.00  0.00     0.040 A 
ATOM     80  C   UNL A   1      36.984  29.653  29.751  1.00  0.00     0.040 A 
ATOM     81  F   UNL A   1      38.359  29.702  27.851  1.00  0.00    -0.206 F 
ATOM     82  C   UNL A   1      36.799  29.374  31.104  1.00  0.00     0.006 A 
ENDBRANCH  54  75
BRANCH  66  83
ATOM     83  C   UNL A   1      44.970  32.965  28.964  1.00  0.00     0.057 A 
ATOM     84  C   UNL A   1      44.534  34.026  28.159  1.00  0.00     0.134 A 
ATOM     85  C   UNL A   1      45.671  33.291  30.134  1.00  0.00     0.134 A 
ATOM     86  F   UNL A   1      43.867  33.785  27.020  1.00  0.00    -0.206 F 
ATOM     87  C   UNL A   1      44.806  35.355  28.492  1.00  0.00     0.040 A 
ATOM     88  C   UNL A   1      45.920  34.616  30.493  1.00  0.00     0.040 A 
ATOM     89  F   UNL A   1      46.108  32.326  30.958  1.00  0.00    -0.206 F 
ATOM     90  C   UNL A   1      45.494  35.653  29.666  1.00  0.00     0.006 A 
ENDBRANCH  66  83
ENDBRANCH  40  41
ENDBRANCH  33  35
ENDBRANCH  32  33
ENDBRANCH  31  32
ENDBRANCH  30  31
ENDBRANCH  29  30
ENDBRANCH  28  29
ENDBRANCH   1  28
TORSDOF 19
ENDMDL
MODEL 2
REMARK VINA RESULT:     -10.9      0.965      6.058
REMARK SMILES O=C1NC(=S)/C(=C/c2ccc(-c3ccc(C(=O)OCCOCCOCCOC(=O)c4ccc(-c5c6nc(c(-c7c(F)cccc7F)c7ccc([nH]7)c(-c7c(F)cccc7F)c7nc(c(-c8c(F)cccc8F)c8ccc5[nH]8)C=C7)C=C6)cc4)cc3)o2)S1
REMARK SMILES IDX 22 1 21 2 20 3 19 4 18 5 16 6 17 7 15 8 12 9 13 10 85 11
REMARK SMILES IDX 14 12 84 13 11 14 8 15 9 16 86 17 10 18 7 19 1 20 2 21 3 22
REMARK SMILES IDX 87 23 4 24 6 26 5 27 23 28 24 29 25 30 26 31 27 32 28 33
REMARK SMILES IDX 29 34 30 35 31 36 83 37 32 38 82 39 33 40 34 41 35 42 76 43
REMARK SMILES IDX 36 44 81 45 75 46 77 47 37 48 80 49 74 50 73 51 38 53 64 54
REMARK SMILES IDX 47 55 63 56 48 57 51 58 62 59 78 60 49 61 50 62 61 64 79 65
REMARK SMILES IDX 52 66 39 67 40 68 45 69 41 70 42 71 44 72 46 73 43 74 65 75
REMARK SMILES IDX 66 76 71 77 67 78 68 79 70 80 72 81 69 82 53 83 54 84 59 85
REMARK SMILES IDX 55 86 56 87 58 88 60 89 57 90
REMARK H PARENT 3 25 77 52 51 63
REMARK Flexibility Score: inf
ROOT
ATOM      1  C   UNL A   1      35.705  23.133  25.902  1.00  0.00     0.188 C 
ENDROOT
BRANCH   1   2
ATOM      2  O   UNL A   1      34.495  23.438  26.567  1.00  0.00    -0.376 OA
BRANCH   2   3
ATOM      3  C   UNL A   1      33.253  23.356  25.888  1.00  0.00     0.202 C 
BRANCH   3   4
ATOM      4  C   UNL A   1      32.368  24.575  25.571  1.00  0.00     0.261 C 
BRANCH   4   5
ATOM      5  O   UNL A   1      32.890  25.857  25.932  1.00  0.00    -0.460 OA
BRANCH   5   6
ATOM      6  C   UNL A   1      31.990  26.719  26.465  1.00  0.00     0.338 C 
ATOM      7  O   UNL A   1      30.874  26.450  26.878  1.00  0.00    -0.246 OA
BRANCH   6   8
ATOM      8  C   UNL A   1      32.610  28.051  26.656  1.00  0.00     0.060 A 
ATOM      9  C   UNL A   1      33.896  30.465  27.252  1.00  0.00     0.017 A 
ATOM     10  C   UNL A   1      34.646  29.359  26.839  1.00  0.00     0.013 A 
ATOM     11  C   UNL A   1      32.493  30.384  27.251  1.00  0.00     0.013 A 
ATOM     12  C   UNL A   1      34.005  28.149  26.558  1.00  0.00     0.016 A 
ATOM     13  C   UNL A   1      31.846  29.183  26.947  1.00  0.00     0.016 A 
BRANCH   9  14
ATOM     14  C   UNL A   1      34.542  31.592  27.903  1.00  0.00     0.134 A 
ATOM     15  C   UNL A   1      34.625  33.411  29.168  1.00  0.00     0.128 A 
ATOM     16  C   UNL A   1      35.864  33.257  28.553  1.00  0.00     0.051 A 
ATOM     17  O   UNL A   1      33.822  32.359  28.767  1.00  0.00    -0.457 OA
ATOM     18  C   UNL A   1      35.808  32.106  27.749  1.00  0.00     0.051 A 
BRANCH  15  19
ATOM     19  C   UNL A   1      34.216  34.428  30.075  1.00  0.00     0.065 C 
ATOM     20  O   UNL A   1      35.530  33.458  34.851  1.00  0.00    -0.261 OA
ATOM     21  C   UNL A   1      35.077  33.879  33.804  1.00  0.00     0.289 C 
ATOM     22  N   UNL A   1      34.319  34.999  33.650  1.00  0.00    -0.307 N 
ATOM     23  S   UNL A   1      35.292  33.115  32.250  1.00  0.00    -0.025 SA
ATOM     24  C   UNL A   1      33.892  35.341  32.394  1.00  0.00     0.120 C 
ATOM     25  H   UNL A   1      34.082  35.553  34.429  1.00  0.00     0.171 HD
ATOM     26  C   UNL A   1      34.406  34.347  31.402  1.00  0.00     0.056 C 
ATOM     27  S   UNL A   1      32.915  36.674  32.172  1.00  0.00    -0.059 S 
ENDBRANCH  15  19
ENDBRANCH   9  14
ENDBRANCH   6   8
ENDBRANCH   5   6
ENDBRANCH   4   5
ENDBRANCH   3   4
ENDBRANCH   2   3
ENDBRANCH   1   2
BRANCH   1  28
ATOM     28  C   UNL A   1      35.936  21.724  25.321  1.00  0.00     0.188 C 
BRANCH  28  29
ATOM     29  O   UNL A   1      37.266  21.326  25.102  1.00  0.00    -0.376 OA
BRANCH  29  30
ATOM     30  C   UNL A   1      37.580  19.962  24.883  1.00  0.00     0.202 C 
BRANCH  30  31
ATOM     31  C   UNL A   1      38.872  19.237  25.316  1.00  0.00     0.261 C 
BRANCH  31  32
ATOM     32  O   UNL A   1      39.740  19.876  26.255  1.00  0.00    -0.460 OA
BRANCH  32  33
ATOM     33  C   UNL A   1      41.057  19.568  26.148  1.00  0.00     0.338 C 
ATOM     34  O   UNL A   1      41.544  18.524  25.752  1.00  0.00    -0.246 OA
BRANCH  33  35
ATOM     35  C   UNL A   1      41.850  20.779  26.432  1.00  0.00     0.060 A 
ATOM     36  C   UNL A   1      42.086  21.140  27.765  1.00  0.00     0.016 A 
ATOM     37  C   UNL A   1      42.326  21.569  25.385  1.00  0.00     0.016 A 
ATOM     38  C   UNL A   1      42.792  22.306  28.057  1.00  0.00     0.010 A 
ATOM     39  C   UNL A   1      43.012  22.750  25.682  1.00  0.00     0.010 A 
ATOM     40  C   UNL A   1      43.225  23.139  27.017  1.00  0.00    -0.014 A 
BRANCH  40  41
ATOM     41  C   UNL A   1      43.755  24.490  27.319  1.00  0.00     0.031 A 
ATOM     42  C   UNL A   1      42.798  25.551  27.792  1.00  0.00     0.074 A 
ATOM     43  C   UNL A   1      45.063  24.775  27.183  1.00  0.00     0.049 A 
ATOM     44  N   UNL A   1      43.015  26.817  28.039  1.00  0.00    -0.248 NA
ATOM     45  C   UNL A   1      41.408  25.123  28.011  1.00  0.00     0.031 C 
ATOM     46  C   UNL A   1      46.097  23.827  26.778  1.00  0.00     0.029 A 
ATOM     47  N   UNL A   1      45.738  25.958  27.359  1.00  0.00    -0.354 N 
ATOM     48  C   UNL A   1      41.789  27.338  28.432  1.00  0.00     0.074 A 
ATOM     49  C   UNL A   1      40.827  26.260  28.360  1.00  0.00     0.031 C 
ATOM     50  C   UNL A   1      47.278  24.469  26.725  1.00  0.00     0.029 A 
ATOM     51  C   UNL A   1      47.074  25.878  27.052  1.00  0.00     0.049 A 
ATOM     52  H   UNL A   1      45.305  26.783  27.676  1.00  0.00     0.167 HD
ATOM     53  C   UNL A   1      41.493  28.600  28.825  1.00  0.00     0.037 A 
ATOM     54  C   UNL A   1      48.015  26.842  27.012  1.00  0.00     0.037 A 
ATOM     55  C   UNL A   1      42.451  29.673  28.889  1.00  0.00     0.049 A 
ATOM     56  C   UNL A   1      47.641  28.259  27.366  1.00  0.00     0.074 A 
ATOM     57  C   UNL A   1      42.250  30.983  29.286  1.00  0.00     0.029 A 
ATOM     58  N   UNL A   1      43.787  29.562  28.535  1.00  0.00    -0.354 N 
ATOM     59  N   UNL A   1      46.485  28.740  27.756  1.00  0.00    -0.248 NA
ATOM     60  C   UNL A   1      48.707  29.268  27.272  1.00  0.00     0.031 C 
ATOM     61  C   UNL A   1      43.451  31.681  29.115  1.00  0.00     0.029 A 
ATOM     62  C   UNL A   1      44.416  30.788  28.678  1.00  0.00     0.049 A 
ATOM     63  H   UNL A   1      44.224  28.735  28.229  1.00  0.00     0.167 HD
ATOM     64  C   UNL A   1      46.694  30.095  27.991  1.00  0.00     0.074 A 
ATOM     65  C   UNL A   1      48.090  30.357  27.708  1.00  0.00     0.031 C 
ATOM     66  C   UNL A   1      45.810  31.036  28.405  1.00  0.00     0.037 A 
BRANCH  53  67
ATOM     67  C   UNL A   1      40.066  28.897  29.185  1.00  0.00     0.057 A 
ATOM     68  C   UNL A   1      39.108  29.223  28.216  1.00  0.00     0.134 A 
ATOM     69  C   UNL A   1      39.636  28.821  30.516  1.00  0.00     0.134 A 
ATOM     70  F   UNL A   1      39.454  29.326  26.924  1.00  0.00    -0.206 F 
ATOM     71  C   UNL A   1      37.781  29.489  28.562  1.00  0.00     0.040 A 
ATOM     72  C   UNL A   1      38.306  29.053  30.870  1.00  0.00     0.040 A 
ATOM     73  F   UNL A   1      40.499  28.508  31.495  1.00  0.00    -0.206 F 
ATOM     74  C   UNL A   1      37.375  29.395  29.891  1.00  0.00     0.006 A 
ENDBRANCH  53  67
BRANCH  54  75
ATOM     75  C   UNL A   1      49.408  26.511  26.609  1.00  0.00     0.057 A 
ATOM     76  C   UNL A   1      49.842  26.689  25.290  1.00  0.00     0.134 A 
ATOM     77  C   UNL A   1      50.325  25.975  27.521  1.00  0.00     0.134 A 
ATOM     78  F   UNL A   1      49.002  27.173  24.363  1.00  0.00    -0.206 F 
ATOM     79  C   UNL A   1      51.129  26.328  24.888  1.00  0.00     0.040 A 
ATOM     80  C   UNL A   1      51.624  25.638  27.140  1.00  0.00     0.040 A 
ATOM     81  F   UNL A   1      49.973  25.776  28.800  1.00  0.00    -0.206 F 
ATOM     82  C   UNL A   1      52.027  25.806  25.816  1.00  0.00     0.006 A 
ENDBRANCH  54  75
BRANCH  66  83
ATOM     83  C   UNL A   1      46.331  32.428  28.632  1.00  0.00     0.057 A 
ATOM     84  C   UNL A   1      46.856  32.837  29.865  1.00  0.00     0.134 A 
ATOM     85  C   UNL A   1      46.346  33.360  27.585  1.00  0.00     0.134 A 
ATOM     86  F   UNL A   1      46.864  31.999  30.913  1.00  0.00    -0.206 F 
ATOM     87  C   UNL A   1      47.353  34.130  30.055  1.00  0.00     0.040 A 
ATOM     88  C   UNL A   1      46.869  34.643  27.754  1.00  0.00     0.040 A 
ATOM     89  F   UNL A   1      45.870  33.033  26.374  1.00  0.00    -0.206 F 
ATOM     90  C   UNL A   1      47.367  35.033  28.995  1.00  0.00     0.006 A 
ENDBRANCH  66  83
ENDBRANCH  40  41
ENDBRANCH  33  35
ENDBRANCH  32  33
ENDBRANCH  31  32
ENDBRANCH  30  31
ENDBRANCH  29  30
ENDBRANCH  28  29
ENDBRANCH   1  28
TORSDOF 19
ENDMDL
MODEL 3
REMARK VINA RESULT:     -10.8      4.496      8.436
REMARK SMILES O=C1NC(=S)/C(=C/c2ccc(-c3ccc(C(=O)OCCOCCOCCOC(=O)c4ccc(-c5c6nc(c(-c7c(F)cccc7F)c7ccc([nH]7)c(-c7c(F)cccc7F)c7nc(c(-c8c(F)cccc8F)c8ccc5[nH]8)C=C7)C=C6)cc4)cc3)o2)S1
REMARK SMILES IDX 22 1 21 2 20 3 19 4 18 5 16 6 17 7 15 8 12 9 13 10 85 11
REMARK SMILES IDX 14 12 84 13 11 14 8 15 9 16 86 17 10 18 7 19 1 20 2 21 3 22
REMARK SMILES IDX 87 23 4 24 6 26 5 27 23 28 24 29 25 30 26 31 27 32 28 33
REMARK SMILES IDX 29 34 30 35 31 36 83 37 32 38 82 39 33 40 34 41 35 42 76 43
REMARK SMILES IDX 36 44 81 45 75 46 77 47 37 48 80 49 74 50 73 51 38 53 64 54
REMARK SMILES IDX 47 55 63 56 48 57 51 58 62 59 78 60 49 61 50 62 61 64 79 65
REMARK SMILES IDX 52 66 39 67 40 68 45 69 41 70 42 71 44 72 46 73 43 74 65 75
REMARK SMILES IDX 66 76 71 77 67 78 68 79 70 80 72 81 69 82 53 83 54 84 59 85
REMARK SMILES IDX 55 86 56 87 58 88 60 89 57 90
REMARK H PARENT 3 25 77 52 51 63
REMARK Flexibility Score: inf
ROOT
ATOM      1  C   UNL A   1      44.626  19.588  25.073  1.00  0.00     0.188 C 
ENDROOT
BRANCH   1   2
ATOM      2  O   UNL A   1      44.357  18.387  25.771  1.00  0.00    -0.376 OA
BRANCH   2   3
ATOM      3  C   UNL A   1      43.040  18.070  26.190  1.00  0.00     0.202 C 
BRANCH   3   4
ATOM      4  C   UNL A   1      41.789  18.850  25.747  1.00  0.00     0.261 C 
BRANCH   4   5
ATOM      5  O   UNL A   1      41.054  19.519  26.775  1.00  0.00    -0.460 OA
BRANCH   5   6
ATOM      6  C   UNL A   1      41.070  20.873  26.710  1.00  0.00     0.338 C 
ATOM      7  O   UNL A   1      42.048  21.598  26.784  1.00  0.00    -0.246 OA
BRANCH   6   8
ATOM      8  C   UNL A   1      39.727  21.383  26.351  1.00  0.00     0.060 A 
ATOM      9  C   UNL A   1      37.264  22.317  25.401  1.00  0.00     0.017 A 
ATOM     10  C   UNL A   1      37.597  20.965  25.262  1.00  0.00     0.013 A 
ATOM     11  C   UNL A   1      38.122  23.167  26.120  1.00  0.00     0.013 A 
ATOM     12  C   UNL A   1      38.834  20.503  25.721  1.00  0.00     0.016 A 
ATOM     13  C   UNL A   1      39.349  22.703  26.602  1.00  0.00     0.016 A 
BRANCH   9  14
ATOM     14  C   UNL A   1      36.185  22.894  24.617  1.00  0.00     0.134 A 
ATOM     15  C   UNL A   1      34.185  23.798  24.301  1.00  0.00     0.128 A 
ATOM     16  C   UNL A   1      34.742  23.537  23.053  1.00  0.00     0.051 A 
ATOM     17  O   UNL A   1      35.101  23.408  25.261  1.00  0.00    -0.457 OA
ATOM     18  C   UNL A   1      36.008  22.961  23.256  1.00  0.00     0.051 A 
BRANCH  15  19
ATOM     19  C   UNL A   1      32.922  24.384  24.593  1.00  0.00     0.065 C 
ATOM     20  O   UNL A   1      32.435  29.049  22.731  1.00  0.00    -0.261 OA
ATOM     21  C   UNL A   1      32.336  27.981  23.301  1.00  0.00     0.289 C 
ATOM     22  N   UNL A   1      31.286  27.572  24.064  1.00  0.00    -0.307 N 
ATOM     23  S   UNL A   1      33.549  26.726  23.276  1.00  0.00    -0.025 SA
ATOM     24  C   UNL A   1      31.328  26.326  24.634  1.00  0.00     0.120 C 
ATOM     25  H   UNL A   1      30.510  28.161  24.204  1.00  0.00     0.171 HD
ATOM     26  C   UNL A   1      32.600  25.641  24.248  1.00  0.00     0.056 C 
ATOM     27  S   UNL A   1      30.087  25.811  25.621  1.00  0.00    -0.059 S 
ENDBRANCH  15  19
ENDBRANCH   9  14
ENDBRANCH   6   8
ENDBRANCH   5   6
ENDBRANCH   4   5
ENDBRANCH   3   4
ENDBRANCH   2   3
ENDBRANCH   1   2
BRANCH   1  28
ATOM     28  C   UNL A   1      46.049  19.883  24.559  1.00  0.00     0.188 C 
BRANCH  28  29
ATOM     29  O   UNL A   1      46.614  21.124  24.901  1.00  0.00    -0.376 OA
BRANCH  29  30
ATOM     30  C   UNL A   1      45.864  22.076  25.634  1.00  0.00     0.202 C 
BRANCH  30  31
ATOM     31  C   UNL A   1      46.011  23.611  25.563  1.00  0.00     0.261 C 
BRANCH  31  32
ATOM     32  O   UNL A   1      45.158  24.345  24.680  1.00  0.00    -0.460 OA
BRANCH  32  33
ATOM     33  C   UNL A   1      43.837  24.050  24.754  1.00  0.00     0.338 C 
ATOM     34  O   UNL A   1      43.258  23.106  24.247  1.00  0.00    -0.246 OA
BRANCH  33  35
ATOM     35  C   UNL A   1      43.199  24.975  25.710  1.00  0.00     0.060 A 
ATOM     36  C   UNL A   1      43.589  26.321  25.717  1.00  0.00     0.016 A 
ATOM     37  C   UNL A   1      42.247  24.506  26.616  1.00  0.00     0.016 A 
ATOM     38  C   UNL A   1      43.035  27.203  26.644  1.00  0.00     0.010 A 
ATOM     39  C   UNL A   1      41.712  25.387  27.560  1.00  0.00     0.010 A 
ATOM     40  C   UNL A   1      42.123  26.733  27.596  1.00  0.00    -0.014 A 
BRANCH  40  41
ATOM     41  C   UNL A   1      41.719  27.599  28.729  1.00  0.00     0.031 A 
ATOM     42  C   UNL A   1      42.496  27.515  30.014  1.00  0.00     0.074 A 
ATOM     43  C   UNL A   1      40.683  28.451  28.623  1.00  0.00     0.049 A 
ATOM     44  N   UNL A   1      42.281  28.112  31.158  1.00  0.00    -0.248 NA
ATOM     45  C   UNL A   1      43.674  26.633  30.006  1.00  0.00     0.031 C 
ATOM     46  C   UNL A   1      39.879  28.660  27.422  1.00  0.00     0.029 A 
ATOM     47  N   UNL A   1      40.124  29.291  29.555  1.00  0.00    -0.354 N 
ATOM     48  C   UNL A   1      43.288  27.672  32.007  1.00  0.00     0.074 A 
ATOM     49  C   UNL A   1      44.096  26.733  31.257  1.00  0.00     0.031 C 
ATOM     50  C   UNL A   1      38.919  29.563  27.693  1.00  0.00     0.029 A 
ATOM     51  C   UNL A   1      39.018  29.963  29.095  1.00  0.00     0.049 A 
ATOM     52  H   UNL A   1      40.483  29.401  30.465  1.00  0.00     0.167 HD
ATOM     53  C   UNL A   1      43.524  28.023  33.293  1.00  0.00     0.037 A 
ATOM     54  C   UNL A   1      38.167  30.783  29.744  1.00  0.00     0.037 A 
ATOM     55  C   UNL A   1      42.715  28.951  34.040  1.00  0.00     0.049 A 
ATOM     56  C   UNL A   1      38.398  31.088  31.202  1.00  0.00     0.074 A 
ATOM     57  C   UNL A   1      42.881  29.381  35.344  1.00  0.00     0.029 A 
ATOM     58  N   UNL A   1      41.583  29.584  33.550  1.00  0.00    -0.354 N 
ATOM     59  N   UNL A   1      39.364  30.684  31.992  1.00  0.00    -0.248 NA
ATOM     60  C   UNL A   1      37.416  31.964  31.859  1.00  0.00     0.031 C 
ATOM     61  C   UNL A   1      41.813  30.227  35.665  1.00  0.00     0.029 A 
ATOM     62  C   UNL A   1      41.022  30.378  34.538  1.00  0.00     0.049 A 
ATOM     63  H   UNL A   1      41.229  29.484  32.637  1.00  0.00     0.167 HD
ATOM     64  C   UNL A   1      39.129  31.287  33.223  1.00  0.00     0.074 A 
ATOM     65  C   UNL A   1      37.933  32.091  33.073  1.00  0.00     0.031 C 
ATOM     66  C   UNL A   1      39.839  31.185  34.374  1.00  0.00     0.037 A 
BRANCH  53  67
ATOM     67  C   UNL A   1      44.687  27.375  33.986  1.00  0.00     0.057 A 
ATOM     68  C   UNL A   1      44.564  26.152  34.659  1.00  0.00     0.134 A 
ATOM     69  C   UNL A   1      45.958  27.964  33.951  1.00  0.00     0.134 A 
ATOM     70  F   UNL A   1      43.373  25.539  34.744  1.00  0.00    -0.206 F 
ATOM     71  C   UNL A   1      45.654  25.553  35.294  1.00  0.00     0.040 A 
ATOM     72  C   UNL A   1      47.062  27.360  34.554  1.00  0.00     0.040 A 
ATOM     73  F   UNL A   1      46.150  29.132  33.319  1.00  0.00    -0.206 F 
ATOM     74  C   UNL A   1      46.910  26.153  35.234  1.00  0.00     0.006 A 
ENDBRANCH  53  67
BRANCH  54  75
ATOM     75  C   UNL A   1      37.004  31.370  29.028  1.00  0.00     0.057 A 
ATOM     76  C   UNL A   1      37.010  32.706  28.609  1.00  0.00     0.134 A 
ATOM     77  C   UNL A   1      35.845  30.623  28.780  1.00  0.00     0.134 A 
ATOM     78  F   UNL A   1      38.079  33.481  28.842  1.00  0.00    -0.206 F 
ATOM     79  C   UNL A   1      35.901  33.283  27.988  1.00  0.00     0.040 A 
ATOM     80  C   UNL A   1      34.741  31.179  28.133  1.00  0.00     0.040 A 
ATOM     81  F   UNL A   1      35.772  29.339  29.159  1.00  0.00    -0.206 F 
ATOM     82  C   UNL A   1      34.763  32.517  27.744  1.00  0.00     0.006 A 
ENDBRANCH  54  75
BRANCH  66  83
ATOM     83  C   UNL A   1      39.379  32.001  35.550  1.00  0.00     0.057 A 
ATOM     84  C   UNL A   1      39.825  33.312  35.769  1.00  0.00     0.134 A 
ATOM     85  C   UNL A   1      38.442  31.481  36.453  1.00  0.00     0.134 A 
ATOM     86  F   UNL A   1      40.730  33.868  34.949  1.00  0.00    -0.206 F 
ATOM     87  C   UNL A   1      39.375  34.064  36.857  1.00  0.00     0.040 A 
ATOM     88  C   UNL A   1      37.961  32.234  37.525  1.00  0.00     0.040 A 
ATOM     89  F   UNL A   1      37.963  30.237  36.297  1.00  0.00    -0.206 F 
ATOM     90  C   UNL A   1      38.435  33.527  37.734  1.00  0.00     0.006 A 
ENDBRANCH  66  83
ENDBRANCH  40  41
ENDBRANCH  33  35
ENDBRANCH  32  33
ENDBRANCH  31  32
ENDBRANCH  30  31
ENDBRANCH  29  30
ENDBRANCH  28  29
ENDBRANCH   1  28
TORSDOF 19
ENDMDL
