MODEL 1
REMARK VINA RESULT:     -10.3      0.000      0.000
REMARK SMILES CCCCN(c1ccccc1C(=O)OCCOCCOCCOC(=O)c1ccc(-c2c3nc(c(-c4c(F)cccc4F)c4ccc([nH]4)c(-c4c(F)cccc4F)c4nc(c(-c5c(F)cccc5F)c5ccc2[nH]5)C=C4)C=C3)cc1)S(=O)(=O)c1ccc2c(c1)oc(=O)n2C
REMARK SMILES IDX 18 1 17 2 16 3 15 4 14 5 12 6 13 7 11 8 6 9 7 10 8 11 10 12
REMARK SMILES IDX 9 13 5 14 4 15 3 16 2 17 1 18 80 19 81 20 82 21 83 22 84 23
REMARK SMILES IDX 88 24 85 25 87 26 86 27 89 28 92 29 90 30 93 31 91 32 19 33
REMARK SMILES IDX 20 34 21 35 22 36 23 37 24 38 25 39 26 40 27 41 79 42 28 43
REMARK SMILES IDX 78 44 29 45 30 46 31 47 72 48 32 49 77 50 71 51 73 52 33 53
REMARK SMILES IDX 76 54 70 55 69 56 34 58 60 59 43 60 59 61 44 62 47 63 58 64
REMARK SMILES IDX 74 65 45 66 46 67 57 69 75 70 48 71 35 72 36 73 41 74 37 75
REMARK SMILES IDX 38 76 40 77 42 78 39 79 61 80 62 81 67 82 63 83 64 84 66 85
REMARK SMILES IDX 68 86 65 87 49 88 50 89 55 90 51 91 52 92 54 93 56 94 53 95
REMARK H PARENT 73 57 47 68
REMARK Flexibility Score: inf
ROOT
ATOM      1  C   UNL A   1      30.650  26.648  25.885  1.00  0.00     0.188 C 
ENDROOT
BRANCH   1   2
ATOM      2  O   UNL A   1      31.578  26.265  26.895  1.00  0.00    -0.376 OA
BRANCH   2   3
ATOM      3  C   UNL A   1      32.293  25.041  26.749  1.00  0.00     0.202 C 
BRANCH   3   4
ATOM      4  C   UNL A   1      31.513  23.733  26.930  1.00  0.00     0.261 C 
BRANCH   4   5
ATOM      5  O   UNL A   1      32.219  22.760  27.723  1.00  0.00    -0.460 OA
BRANCH   5   6
ATOM      6  C   UNL A   1      33.294  22.183  27.146  1.00  0.00     0.340 C 
ATOM      7  O   UNL A   1      34.428  22.169  27.602  1.00  0.00    -0.246 OA
BRANCH   6   8
ATOM      8  C   UNL A   1      32.948  21.383  25.942  1.00  0.00     0.084 A 
ATOM      9  C   UNL A   1      33.046  21.776  24.588  1.00  0.00     0.066 A 
ATOM     10  C   UNL A   1      33.174  20.717  23.673  1.00  0.00     0.028 A 
ATOM     11  C   UNL A   1      32.947  19.376  23.995  1.00  0.00     0.002 A 
ATOM     12  C   UNL A   1      32.734  20.017  26.273  1.00  0.00     0.018 A 
ATOM     13  C   UNL A   1      32.671  19.028  25.301  1.00  0.00     0.001 A 
BRANCH   9  14
ATOM     14  N   UNL A   1      32.952  23.134  23.975  1.00  0.00    -0.265 N 
BRANCH  14  15
ATOM     15  C   UNL A   1      31.905  23.315  22.906  1.00  0.00     0.136 C 
BRANCH  15  16
ATOM     16  C   UNL A   1      31.115  24.623  22.968  1.00  0.00     0.022 C 
BRANCH  16  17
ATOM     17  C   UNL A   1      31.497  25.777  22.041  1.00  0.00    -0.002 C 
ATOM     18  C   UNL A   1      32.417  25.412  20.883  1.00  0.00     0.004 C 
ENDBRANCH  16  17
ENDBRANCH  15  16
ENDBRANCH  14  15
BRANCH  14  19
ATOM     19  S   UNL A   1      34.524  23.794  23.443  1.00  0.00     0.264 S 
ATOM     20  O   UNL A   1      34.795  23.287  22.116  1.00  0.00    -0.201 OA
ATOM     21  O   UNL A   1      34.566  25.214  23.706  1.00  0.00    -0.201 OA
BRANCH  19  22
ATOM     22  C   UNL A   1      35.792  23.131  24.505  1.00  0.00     0.091 A 
ATOM     23  C   UNL A   1      36.466  23.997  25.399  1.00  0.00     0.025 A 
ATOM     24  C   UNL A   1      36.135  21.782  24.401  1.00  0.00     0.071 A 
ATOM     25  C   UNL A   1      37.580  23.546  26.116  1.00  0.00     0.032 A 
ATOM     26  C   UNL A   1      37.291  21.398  25.046  1.00  0.00     0.157 A 
ATOM     27  C   UNL A   1      37.996  22.255  25.871  1.00  0.00     0.090 A 
ATOM     28  O   UNL A   1      37.934  20.184  24.857  1.00  0.00    -0.408 OA
ATOM     29  N   UNL A   1      39.118  21.562  26.257  1.00  0.00    -0.277 N 
ATOM     30  C   UNL A   1      39.109  20.347  25.602  1.00  0.00     0.419 A 
ATOM     31  C   UNL A   1      40.166  22.017  27.121  1.00  0.00     0.157 C 
ATOM     32  O   UNL A   1      40.002  19.507  25.630  1.00  0.00    -0.223 OA
ENDBRANCH  19  22
ENDBRANCH  14  19
ENDBRANCH   9  14
ENDBRANCH   6   8
ENDBRANCH   5   6
ENDBRANCH   4   5
ENDBRANCH   3   4
ENDBRANCH   2   3
ENDBRANCH   1   2
BRANCH   1  33
ATOM     33  C   UNL A   1      31.012  27.772  24.896  1.00  0.00     0.188 C 
BRANCH  33  34
ATOM     34  O   UNL A   1      32.384  28.117  24.900  1.00  0.00    -0.376 OA
BRANCH  34  35
ATOM     35  C   UNL A   1      32.658  29.508  24.871  1.00  0.00     0.202 C 
BRANCH  35  36
ATOM     36  C   UNL A   1      31.736  30.360  25.758  1.00  0.00     0.261 C 
BRANCH  36  37
ATOM     37  O   UNL A   1      32.234  30.661  27.077  1.00  0.00    -0.460 OA
BRANCH  37  38
ATOM     38  C   UNL A   1      32.895  31.829  27.248  1.00  0.00     0.338 C 
ATOM     39  O   UNL A   1      32.443  32.954  27.138  1.00  0.00    -0.246 OA
BRANCH  38  40
ATOM     40  C   UNL A   1      34.236  31.515  27.800  1.00  0.00     0.060 A 
ATOM     41  C   UNL A   1      34.558  30.184  28.110  1.00  0.00     0.016 A 
ATOM     42  C   UNL A   1      35.182  32.525  27.990  1.00  0.00     0.016 A 
ATOM     43  C   UNL A   1      35.817  29.868  28.634  1.00  0.00     0.010 A 
ATOM     44  C   UNL A   1      36.432  32.209  28.534  1.00  0.00     0.010 A 
ATOM     45  C   UNL A   1      36.749  30.884  28.888  1.00  0.00    -0.014 A 
BRANCH  45  46
ATOM     46  C   UNL A   1      37.970  30.607  29.689  1.00  0.00     0.031 A 
ATOM     47  C   UNL A   1      39.039  29.734  29.084  1.00  0.00     0.074 A 
ATOM     48  C   UNL A   1      38.139  31.105  30.927  1.00  0.00     0.049 A 
ATOM     49  N   UNL A   1      40.150  29.288  29.611  1.00  0.00    -0.248 NA
ATOM     50  C   UNL A   1      38.816  29.306  27.694  1.00  0.00     0.031 C 
ATOM     51  C   UNL A   1      37.207  31.992  31.620  1.00  0.00     0.029 A 
ATOM     52  N   UNL A   1      39.160  30.918  31.829  1.00  0.00    -0.354 N 
ATOM     53  C   UNL A   1      40.755  28.523  28.622  1.00  0.00     0.074 A 
ATOM     54  C   UNL A   1      39.874  28.539  27.476  1.00  0.00     0.031 C 
ATOM     55  C   UNL A   1      37.692  32.260  32.846  1.00  0.00     0.029 A 
ATOM     56  C   UNL A   1      38.949  31.538  33.038  1.00  0.00     0.049 A 
ATOM     57  H   UNL A   1      39.966  30.390  31.629  1.00  0.00     0.167 HD
ATOM     58  C   UNL A   1      41.944  27.873  28.658  1.00  0.00     0.037 A 
ATOM     59  C   UNL A   1      39.674  31.502  34.175  1.00  0.00     0.037 A 
ATOM     60  C   UNL A   1      42.818  27.843  29.801  1.00  0.00     0.049 A 
ATOM     61  C   UNL A   1      40.948  30.693  34.223  1.00  0.00     0.074 A 
ATOM     62  C   UNL A   1      44.046  27.217  29.930  1.00  0.00     0.029 A 
ATOM     63  N   UNL A   1      42.553  28.457  31.015  1.00  0.00    -0.354 N 
ATOM     64  N   UNL A   1      41.525  29.996  33.274  1.00  0.00    -0.248 NA
ATOM     65  C   UNL A   1      41.672  30.670  35.504  1.00  0.00     0.031 C 
ATOM     66  C   UNL A   1      44.498  27.406  31.240  1.00  0.00     0.029 A 
ATOM     67  C   UNL A   1      43.582  28.204  31.907  1.00  0.00     0.049 A 
ATOM     68  H   UNL A   1      41.753  28.994  31.214  1.00  0.00     0.167 HD
ATOM     69  C   UNL A   1      42.693  29.484  33.831  1.00  0.00     0.074 A 
ATOM     70  C   UNL A   1      42.748  29.960  35.197  1.00  0.00     0.031 C 
ATOM     71  C   UNL A   1      43.636  28.694  33.261  1.00  0.00     0.037 A 
BRANCH  58  72
ATOM     72  C   UNL A   1      42.353  27.117  27.427  1.00  0.00     0.057 A 
ATOM     73  C   UNL A   1      43.114  27.711  26.412  1.00  0.00     0.134 A 
ATOM     74  C   UNL A   1      42.006  25.769  27.268  1.00  0.00     0.134 A 
ATOM     75  F   UNL A   1      43.468  29.003  26.495  1.00  0.00    -0.206 F 
ATOM     76  C   UNL A   1      43.494  27.000  25.272  1.00  0.00     0.040 A 
ATOM     77  C   UNL A   1      42.404  25.040  26.147  1.00  0.00     0.040 A 
ATOM     78  F   UNL A   1      41.282  25.137  28.205  1.00  0.00    -0.206 F 
ATOM     79  C   UNL A   1      43.145  25.657  25.142  1.00  0.00     0.006 A 
ENDBRANCH  58  72
BRANCH  59  80
ATOM     80  C   UNL A   1      39.217  32.240  35.383  1.00  0.00     0.057 A 
ATOM     81  C   UNL A   1      38.363  31.642  36.318  1.00  0.00     0.134 A 
ATOM     82  C   UNL A   1      39.580  33.574  35.605  1.00  0.00     0.134 A 
ATOM     83  F   UNL A   1      37.955  30.376  36.147  1.00  0.00    -0.206 F 
ATOM     84  C   UNL A   1      37.871  32.349  37.418  1.00  0.00     0.040 A 
ATOM     85  C   UNL A   1      39.118  34.284  36.715  1.00  0.00     0.040 A 
ATOM     86  F   UNL A   1      40.389  34.209  34.745  1.00  0.00    -0.206 F 
ATOM     87  C   UNL A   1      38.252  33.673  37.621  1.00  0.00     0.006 A 
ENDBRANCH  59  80
BRANCH  71  88
ATOM     88  C   UNL A   1      44.838  28.335  34.090  1.00  0.00     0.057 A 
ATOM     89  C   UNL A   1      44.934  27.118  34.776  1.00  0.00     0.134 A 
ATOM     90  C   UNL A   1      45.935  29.204  34.163  1.00  0.00     0.134 A 
ATOM     91  F   UNL A   1      43.917  26.244  34.757  1.00  0.00    -0.206 F 
ATOM     92  C   UNL A   1      46.066  26.790  35.526  1.00  0.00     0.040 A 
ATOM     93  C   UNL A   1      47.084  28.875  34.884  1.00  0.00     0.040 A 
ATOM     94  F   UNL A   1      45.916  30.382  33.520  1.00  0.00    -0.206 F 
ATOM     95  C   UNL A   1      47.148  27.667  35.575  1.00  0.00     0.006 A 
ENDBRANCH  71  88
ENDBRANCH  45  46
ENDBRANCH  38  40
ENDBRANCH  37  38
ENDBRANCH  36  37
ENDBRANCH  35  36
ENDBRANCH  34  35
ENDBRANCH  33  34
ENDBRANCH   1  33
TORSDOF 23
ENDMDL
MODEL 2
REMARK VINA RESULT:     -10.1      4.913      8.578
REMARK SMILES CCCCN(c1ccccc1C(=O)OCCOCCOCCOC(=O)c1ccc(-c2c3nc(c(-c4c(F)cccc4F)c4ccc([nH]4)c(-c4c(F)cccc4F)c4nc(c(-c5c(F)cccc5F)c5ccc2[nH]5)C=C4)C=C3)cc1)S(=O)(=O)c1ccc2c(c1)oc(=O)n2C
REMARK SMILES IDX 18 1 17 2 16 3 15 4 14 5 12 6 13 7 11 8 6 9 7 10 8 11 10 12
REMARK SMILES IDX 9 13 5 14 4 15 3 16 2 17 1 18 80 19 81 20 82 21 83 22 84 23
REMARK SMILES IDX 88 24 85 25 87 26 86 27 89 28 92 29 90 30 93 31 91 32 19 33
REMARK SMILES IDX 20 34 21 35 22 36 23 37 24 38 25 39 26 40 27 41 79 42 28 43
REMARK SMILES IDX 78 44 29 45 30 46 31 47 72 48 32 49 77 50 71 51 73 52 33 53
REMARK SMILES IDX 76 54 70 55 69 56 34 58 60 59 43 60 59 61 44 62 47 63 58 64
REMARK SMILES IDX 74 65 45 66 46 67 57 69 75 70 48 71 35 72 36 73 41 74 37 75
REMARK SMILES IDX 38 76 40 77 42 78 39 79 61 80 62 81 67 82 63 83 64 84 66 85
REMARK SMILES IDX 68 86 65 87 49 88 50 89 55 90 51 91 52 92 54 93 56 94 53 95
REMARK H PARENT 73 57 47 68
REMARK Flexibility Score: inf
ROOT
ATOM      1  C   UNL A   1      34.765  33.664  29.881  1.00  0.00     0.188 C 
ENDROOT
BRANCH   1   2
ATOM      2  O   UNL A   1      34.098  32.440  29.593  1.00  0.00    -0.376 OA
BRANCH   2   3
ATOM      3  C   UNL A   1      34.289  31.832  28.318  1.00  0.00     0.202 C 
BRANCH   3   4
ATOM      4  C   UNL A   1      35.724  31.485  27.901  1.00  0.00     0.261 C 
BRANCH   4   5
ATOM      5  O   UNL A   1      36.213  30.277  28.514  1.00  0.00    -0.460 OA
BRANCH   5   6
ATOM      6  C   UNL A   1      37.457  30.329  29.033  1.00  0.00     0.340 C 
ATOM      7  O   UNL A   1      38.243  31.258  28.912  1.00  0.00    -0.246 OA
BRANCH   6   8
ATOM      8  C   UNL A   1      37.755  29.194  29.945  1.00  0.00     0.084 A 
ATOM      9  C   UNL A   1      38.728  28.184  29.776  1.00  0.00     0.066 A 
ATOM     10  C   UNL A   1      39.163  27.577  30.967  1.00  0.00     0.028 A 
ATOM     11  C   UNL A   1      38.520  27.725  32.199  1.00  0.00     0.002 A 
ATOM     12  C   UNL A   1      37.110  29.359  31.201  1.00  0.00     0.018 A 
ATOM     13  C   UNL A   1      37.447  28.586  32.306  1.00  0.00     0.001 A 
BRANCH   9  14
ATOM     14  N   UNL A   1      39.304  27.607  28.525  1.00  0.00    -0.265 N 
BRANCH  14  15
ATOM     15  C   UNL A   1      39.784  26.181  28.604  1.00  0.00     0.136 C 
BRANCH  15  16
ATOM     16  C   UNL A   1      39.186  25.223  27.573  1.00  0.00     0.022 C 
BRANCH  16  17
ATOM     17  C   UNL A   1      39.924  23.928  27.234  1.00  0.00    -0.002 C 
ATOM     18  C   UNL A   1      41.203  23.675  28.022  1.00  0.00     0.004 C 
ENDBRANCH  16  17
ENDBRANCH  15  16
ENDBRANCH  14  15
BRANCH  14  19
ATOM     19  S   UNL A   1      40.531  28.649  27.751  1.00  0.00     0.264 S 
ATOM     20  O   UNL A   1      39.910  29.305  26.621  1.00  0.00    -0.201 OA
ATOM     21  O   UNL A   1      41.214  29.424  28.762  1.00  0.00    -0.201 OA
BRANCH  19  22
ATOM     22  C   UNL A   1      41.810  27.602  27.088  1.00  0.00     0.091 A 
ATOM     23  C   UNL A   1      41.708  27.150  25.750  1.00  0.00     0.025 A 
ATOM     24  C   UNL A   1      42.864  27.202  27.913  1.00  0.00     0.071 A 
ATOM     25  C   UNL A   1      42.601  26.191  25.257  1.00  0.00     0.032 A 
ATOM     26  C   UNL A   1      43.663  26.190  27.428  1.00  0.00     0.157 A 
ATOM     27  C   UNL A   1      43.530  25.694  26.144  1.00  0.00     0.090 A 
ATOM     28  O   UNL A   1      44.587  25.483  28.184  1.00  0.00    -0.408 OA
ATOM     29  N   UNL A   1      44.422  24.652  26.054  1.00  0.00    -0.277 N 
ATOM     30  C   UNL A   1      45.009  24.489  27.292  1.00  0.00     0.419 A 
ATOM     31  C   UNL A   1      44.667  23.815  24.917  1.00  0.00     0.157 C 
ATOM     32  O   UNL A   1      45.783  23.594  27.610  1.00  0.00    -0.223 OA
ENDBRANCH  19  22
ENDBRANCH  14  19
ENDBRANCH   9  14
ENDBRANCH   6   8
ENDBRANCH   5   6
ENDBRANCH   4   5
ENDBRANCH   3   4
ENDBRANCH   2   3
ENDBRANCH   1   2
BRANCH   1  33
ATOM     33  C   UNL A   1      35.736  33.746  31.075  1.00  0.00     0.188 C 
BRANCH  33  34
ATOM     34  O   UNL A   1      35.305  34.618  32.102  1.00  0.00    -0.376 OA
BRANCH  34  35
ATOM     35  C   UNL A   1      36.217  34.784  33.176  1.00  0.00     0.202 C 
BRANCH  35  36
ATOM     36  C   UNL A   1      35.948  33.879  34.389  1.00  0.00     0.261 C 
BRANCH  36  37
ATOM     37  O   UNL A   1      36.968  32.904  34.686  1.00  0.00    -0.460 OA
BRANCH  37  38
ATOM     38  C   UNL A   1      38.190  33.361  35.040  1.00  0.00     0.338 C 
ATOM     39  O   UNL A   1      38.450  34.162  35.920  1.00  0.00    -0.246 OA
BRANCH  38  40
ATOM     40  C   UNL A   1      39.204  32.564  34.306  1.00  0.00     0.060 A 
ATOM     41  C   UNL A   1      40.495  32.431  34.842  1.00  0.00     0.016 A 
ATOM     42  C   UNL A   1      38.878  31.930  33.105  1.00  0.00     0.016 A 
ATOM     43  C   UNL A   1      41.466  31.686  34.164  1.00  0.00     0.010 A 
ATOM     44  C   UNL A   1      39.857  31.204  32.417  1.00  0.00     0.010 A 
ATOM     45  C   UNL A   1      41.165  31.101  32.926  1.00  0.00    -0.014 A 
BRANCH  45  46
ATOM     46  C   UNL A   1      42.248  30.545  32.070  1.00  0.00     0.031 A 
ATOM     47  C   UNL A   1      42.795  29.182  32.405  1.00  0.00     0.074 A 
ATOM     48  C   UNL A   1      42.747  31.224  31.022  1.00  0.00     0.049 A 
ATOM     49  N   UNL A   1      43.784  28.523  31.860  1.00  0.00    -0.248 NA
ATOM     50  C   UNL A   1      42.132  28.470  33.510  1.00  0.00     0.031 C 
ATOM     51  C   UNL A   1      42.288  32.533  30.562  1.00  0.00     0.029 A 
ATOM     52  N   UNL A   1      43.769  30.904  30.161  1.00  0.00    -0.354 N 
ATOM     53  C   UNL A   1      43.868  27.324  32.558  1.00  0.00     0.074 A 
ATOM     54  C   UNL A   1      42.850  27.360  33.585  1.00  0.00     0.031 C 
ATOM     55  C   UNL A   1      43.037  32.911  29.510  1.00  0.00     0.029 A 
ATOM     56  C   UNL A   1      44.050  31.890  29.245  1.00  0.00     0.049 A 
ATOM     57  H   UNL A   1      44.256  30.049  30.196  1.00  0.00     0.167 HD
ATOM     58  C   UNL A   1      44.708  26.280  32.356  1.00  0.00     0.037 A 
ATOM     59  C   UNL A   1      45.027  31.968  28.319  1.00  0.00     0.037 A 
ATOM     60  C   UNL A   1      45.731  26.245  31.344  1.00  0.00     0.049 A 
ATOM     61  C   UNL A   1      46.012  30.834  28.175  1.00  0.00     0.074 A 
ATOM     62  C   UNL A   1      46.626  25.228  31.059  1.00  0.00     0.029 A 
ATOM     63  N   UNL A   1      46.002  27.275  30.459  1.00  0.00    -0.354 N 
ATOM     64  N   UNL A   1      46.065  29.693  28.821  1.00  0.00    -0.248 NA
ATOM     65  C   UNL A   1      47.074  30.998  27.170  1.00  0.00     0.031 C 
ATOM     66  C   UNL A   1      47.474  25.666  30.038  1.00  0.00     0.029 A 
ATOM     67  C   UNL A   1      47.067  26.930  29.643  1.00  0.00     0.049 A 
ATOM     68  H   UNL A   1      45.510  28.127  30.415  1.00  0.00     0.167 HD
ATOM     69  C   UNL A   1      47.138  28.994  28.276  1.00  0.00     0.074 A 
ATOM     70  C   UNL A   1      47.701  29.833  27.240  1.00  0.00     0.031 C 
ATOM     71  C   UNL A   1      47.611  27.766  28.603  1.00  0.00     0.037 A 
BRANCH  58  72
ATOM     72  C   UNL A   1      44.569  25.098  33.271  1.00  0.00     0.057 A 
ATOM     73  C   UNL A   1      44.996  25.140  34.604  1.00  0.00     0.134 A 
ATOM     74  C   UNL A   1      43.975  23.911  32.822  1.00  0.00     0.134 A 
ATOM     75  F   UNL A   1      45.587  26.241  35.095  1.00  0.00    -0.206 F 
ATOM     76  C   UNL A   1      44.861  24.037  35.451  1.00  0.00     0.040 A 
ATOM     77  C   UNL A   1      43.809  22.813  33.665  1.00  0.00     0.040 A 
ATOM     78  F   UNL A   1      43.540  23.805  31.557  1.00  0.00    -0.206 F 
ATOM     79  C   UNL A   1      44.258  22.871  34.982  1.00  0.00     0.006 A 
ENDBRANCH  58  72
BRANCH  59  80
ATOM     80  C   UNL A   1      45.148  33.172  27.453  1.00  0.00     0.057 A 
ATOM     81  C   UNL A   1      44.496  33.243  26.215  1.00  0.00     0.134 A 
ATOM     82  C   UNL A   1      45.956  34.256  27.816  1.00  0.00     0.134 A 
ATOM     83  F   UNL A   1      43.732  32.224  25.796  1.00  0.00    -0.206 F 
ATOM     84  C   UNL A   1      44.660  34.337  25.363  1.00  0.00     0.040 A 
ATOM     85  C   UNL A   1      46.105  35.369  26.986  1.00  0.00     0.040 A 
ATOM     86  F   UNL A   1      46.613  34.250  28.985  1.00  0.00    -0.206 F 
ATOM     87  C   UNL A   1      45.463  35.407  25.750  1.00  0.00     0.006 A 
ENDBRANCH  59  80
BRANCH  71  88
ATOM     88  C   UNL A   1      48.762  27.227  27.800  1.00  0.00     0.057 A 
ATOM     89  C   UNL A   1      50.092  27.358  28.221  1.00  0.00     0.134 A 
ATOM     90  C   UNL A   1      48.530  26.525  26.609  1.00  0.00     0.134 A 
ATOM     91  F   UNL A   1      50.386  28.026  29.346  1.00  0.00    -0.206 F 
ATOM     92  C   UNL A   1      51.150  26.834  27.473  1.00  0.00     0.040 A 
ATOM     93  C   UNL A   1      49.576  25.970  25.870  1.00  0.00     0.040 A 
ATOM     94  F   UNL A   1      47.280  26.351  26.153  1.00  0.00    -0.206 F 
ATOM     95  C   UNL A   1      50.891  26.131  26.298  1.00  0.00     0.006 A 
ENDBRANCH  71  88
ENDBRANCH  45  46
ENDBRANCH  38  40
ENDBRANCH  37  38
ENDBRANCH  36  37
ENDBRANCH  35  36
ENDBRANCH  34  35
ENDBRANCH  33  34
ENDBRANCH   1  33
TORSDOF 23
ENDMDL
MODEL 3
REMARK VINA RESULT:      -9.8      2.370      7.225
REMARK SMILES CCCCN(c1ccccc1C(=O)OCCOCCOCCOC(=O)c1ccc(-c2c3nc(c(-c4c(F)cccc4F)c4ccc([nH]4)c(-c4c(F)cccc4F)c4nc(c(-c5c(F)cccc5F)c5ccc2[nH]5)C=C4)C=C3)cc1)S(=O)(=O)c1ccc2c(c1)oc(=O)n2C
REMARK SMILES IDX 18 1 17 2 16 3 15 4 14 5 12 6 13 7 11 8 6 9 7 10 8 11 10 12
REMARK SMILES IDX 9 13 5 14 4 15 3 16 2 17 1 18 80 19 81 20 82 21 83 22 84 23
REMARK SMILES IDX 88 24 85 25 87 26 86 27 89 28 92 29 90 30 93 31 91 32 19 33
REMARK SMILES IDX 20 34 21 35 22 36 23 37 24 38 25 39 26 40 27 41 79 42 28 43
REMARK SMILES IDX 78 44 29 45 30 46 31 47 72 48 32 49 77 50 71 51 73 52 33 53
REMARK SMILES IDX 76 54 70 55 69 56 34 58 60 59 43 60 59 61 44 62 47 63 58 64
REMARK SMILES IDX 74 65 45 66 46 67 57 69 75 70 48 71 35 72 36 73 41 74 37 75
REMARK SMILES IDX 38 76 40 77 42 78 39 79 61 80 62 81 67 82 63 83 64 84 66 85
REMARK SMILES IDX 68 86 65 87 49 88 50 89 55 90 51 91 52 92 54 93 56 94 53 95
REMARK H PARENT 73 57 47 68
REMARK Flexibility Score: inf
ROOT
ATOM      1  C   UNL A   1      34.128  31.037  27.691  1.00  0.00     0.188 C 
ENDROOT
BRANCH   1   2
ATOM      2  O   UNL A   1      32.850  30.971  27.068  1.00  0.00    -0.376 OA
BRANCH   2   3
ATOM      3  C   UNL A   1      32.144  29.733  27.066  1.00  0.00     0.202 C 
BRANCH   3   4
ATOM      4  C   UNL A   1      32.920  28.469  27.454  1.00  0.00     0.261 C 
BRANCH   4   5
ATOM      5  O   UNL A   1      32.836  27.429  26.461  1.00  0.00    -0.460 OA
BRANCH   5   6
ATOM      6  C   UNL A   1      32.791  27.831  25.174  1.00  0.00     0.340 C 
ATOM      7  O   UNL A   1      33.673  28.436  24.583  1.00  0.00    -0.246 OA
BRANCH   6   8
ATOM      8  C   UNL A   1      31.603  27.313  24.444  1.00  0.00     0.084 A 
ATOM      9  C   UNL A   1      31.265  25.964  24.195  1.00  0.00     0.066 A 
ATOM     10  C   UNL A   1      29.897  25.727  23.978  1.00  0.00     0.028 A 
ATOM     11  C   UNL A   1      28.958  26.736  23.742  1.00  0.00     0.002 A 
ATOM     12  C   UNL A   1      30.646  28.340  24.222  1.00  0.00     0.018 A 
ATOM     13  C   UNL A   1      29.349  28.057  23.813  1.00  0.00     0.001 A 
BRANCH   9  14
ATOM     14  N   UNL A   1      32.146  24.767  24.043  1.00  0.00    -0.265 N 
BRANCH  14  15
ATOM     15  C   UNL A   1      32.007  23.992  22.759  1.00  0.00     0.136 C 
BRANCH  15  16
ATOM     16  C   UNL A   1      32.993  24.364  21.651  1.00  0.00     0.022 C 
BRANCH  16  17
ATOM     17  C   UNL A   1      32.714  25.584  20.774  1.00  0.00    -0.002 C 
ATOM     18  C   UNL A   1      33.219  26.914  21.320  1.00  0.00     0.004 C 
ENDBRANCH  16  17
ENDBRANCH  15  16
ENDBRANCH  14  15
BRANCH  14  19
ATOM     19  S   UNL A   1      32.119  23.672  25.453  1.00  0.00     0.264 S 
ATOM     20  O   UNL A   1      32.940  24.259  26.490  1.00  0.00    -0.201 OA
ATOM     21  O   UNL A   1      30.757  23.280  25.734  1.00  0.00    -0.201 OA
BRANCH  19  22
ATOM     22  C   UNL A   1      32.909  22.145  24.986  1.00  0.00     0.091 A 
ATOM     23  C   UNL A   1      32.116  20.989  24.791  1.00  0.00     0.025 A 
ATOM     24  C   UNL A   1      34.300  22.102  24.873  1.00  0.00     0.071 A 
ATOM     25  C   UNL A   1      32.721  19.742  24.596  1.00  0.00     0.032 A 
ATOM     26  C   UNL A   1      34.862  20.847  24.777  1.00  0.00     0.157 A 
ATOM     27  C   UNL A   1      34.096  19.702  24.651  1.00  0.00     0.090 A 
ATOM     28  O   UNL A   1      36.216  20.576  24.913  1.00  0.00    -0.408 OA
ATOM     29  N   UNL A   1      34.986  18.655  24.673  1.00  0.00    -0.277 N 
ATOM     30  C   UNL A   1      36.246  19.176  24.890  1.00  0.00     0.419 A 
ATOM     31  C   UNL A   1      34.686  17.258  24.568  1.00  0.00     0.157 C 
ATOM     32  O   UNL A   1      37.272  18.529  25.065  1.00  0.00    -0.223 OA
ENDBRANCH  19  22
ENDBRANCH  14  19
ENDBRANCH   9  14
ENDBRANCH   6   8
ENDBRANCH   5   6
ENDBRANCH   4   5
ENDBRANCH   3   4
ENDBRANCH   2   3
ENDBRANCH   1   2
BRANCH   1  33
ATOM     33  C   UNL A   1      34.506  32.266  28.540  1.00  0.00     0.188 C 
BRANCH  33  34
ATOM     34  O   UNL A   1      34.355  33.497  27.860  1.00  0.00    -0.376 OA
BRANCH  34  35
ATOM     35  C   UNL A   1      33.188  34.232  28.193  1.00  0.00     0.202 C 
BRANCH  35  36
ATOM     36  C   UNL A   1      33.376  35.252  29.327  1.00  0.00     0.261 C 
BRANCH  36  37
ATOM     37  O   UNL A   1      32.437  35.162  30.417  1.00  0.00    -0.460 OA
BRANCH  37  38
ATOM     38  C   UNL A   1      32.783  35.732  31.594  1.00  0.00     0.338 C 
ATOM     39  O   UNL A   1      32.184  36.606  32.193  1.00  0.00    -0.246 OA
BRANCH  38  40
ATOM     40  C   UNL A   1      33.924  34.964  32.152  1.00  0.00     0.060 A 
ATOM     41  C   UNL A   1      35.124  35.630  32.444  1.00  0.00     0.016 A 
ATOM     42  C   UNL A   1      33.803  33.596  32.410  1.00  0.00     0.016 A 
ATOM     43  C   UNL A   1      36.213  34.924  32.968  1.00  0.00     0.010 A 
ATOM     44  C   UNL A   1      34.900  32.888  32.914  1.00  0.00     0.010 A 
ATOM     45  C   UNL A   1      36.121  33.540  33.169  1.00  0.00    -0.014 A 
BRANCH  45  46
ATOM     46  C   UNL A   1      37.339  32.736  33.461  1.00  0.00     0.031 A 
ATOM     47  C   UNL A   1      38.083  33.007  34.742  1.00  0.00     0.074 A 
ATOM     48  C   UNL A   1      37.788  31.790  32.617  1.00  0.00     0.049 A 
ATOM     49  N   UNL A   1      39.206  32.497  35.179  1.00  0.00    -0.248 NA
ATOM     50  C   UNL A   1      37.475  33.993  35.650  1.00  0.00     0.031 C 
ATOM     51  C   UNL A   1      37.148  31.398  31.363  1.00  0.00     0.029 A 
ATOM     52  N   UNL A   1      38.907  30.995  32.687  1.00  0.00    -0.354 N 
ATOM     53  C   UNL A   1      39.441  33.103  36.408  1.00  0.00     0.074 A 
ATOM     54  C   UNL A   1      38.363  34.041  36.631  1.00  0.00     0.031 C 
ATOM     55  C   UNL A   1      37.894  30.445  30.774  1.00  0.00     0.029 A 
ATOM     56  C   UNL A   1      39.080  30.186  31.589  1.00  0.00     0.049 A 
ATOM     57  H   UNL A   1      39.527  31.004  33.452  1.00  0.00     0.167 HD
ATOM     58  C   UNL A   1      40.457  32.891  37.279  1.00  0.00     0.037 A 
ATOM     59  C   UNL A   1      40.093  29.354  31.269  1.00  0.00     0.037 A 
ATOM     60  C   UNL A   1      41.539  31.969  37.055  1.00  0.00     0.049 A 
ATOM     61  C   UNL A   1      41.262  29.205  32.211  1.00  0.00     0.074 A 
ATOM     62  C   UNL A   1      42.611  31.681  37.883  1.00  0.00     0.029 A 
ATOM     63  N   UNL A   1      41.693  31.193  35.917  1.00  0.00    -0.354 N 
ATOM     64  N   UNL A   1      41.461  29.761  33.382  1.00  0.00    -0.248 NA
ATOM     65  C   UNL A   1      42.349  28.308  31.785  1.00  0.00     0.031 C 
ATOM     66  C   UNL A   1      43.442  30.772  37.221  1.00  0.00     0.029 A 
ATOM     67  C   UNL A   1      42.856  30.444  36.009  1.00  0.00     0.049 A 
ATOM     68  H   UNL A   1      41.069  31.175  35.156  1.00  0.00     0.167 HD
ATOM     69  C   UNL A   1      42.672  29.255  33.845  1.00  0.00     0.074 A 
ATOM     70  C   UNL A   1      43.156  28.339  32.835  1.00  0.00     0.031 C 
ATOM     71  C   UNL A   1      43.322  29.522  35.005  1.00  0.00     0.037 A 
BRANCH  58  72
ATOM     72  C   UNL A   1      40.457  33.696  38.546  1.00  0.00     0.057 A 
ATOM     73  C   UNL A   1      39.704  33.316  39.664  1.00  0.00     0.134 A 
ATOM     74  C   UNL A   1      41.243  34.850  38.660  1.00  0.00     0.134 A 
ATOM     75  F   UNL A   1      38.918  32.229  39.617  1.00  0.00    -0.206 F 
ATOM     76  C   UNL A   1      39.712  34.068  40.841  1.00  0.00     0.040 A 
ATOM     77  C   UNL A   1      41.282  35.593  39.839  1.00  0.00     0.040 A 
ATOM     78  F   UNL A   1      41.993  35.268  37.628  1.00  0.00    -0.206 F 
ATOM     79  C   UNL A   1      40.510  35.207  40.932  1.00  0.00     0.006 A 
ENDBRANCH  58  72
BRANCH  59  80
ATOM     80  C   UNL A   1      40.069  28.598  29.988  1.00  0.00     0.057 A 
ATOM     81  C   UNL A   1      40.747  29.069  28.856  1.00  0.00     0.134 A 
ATOM     82  C   UNL A   1      39.329  27.418  29.850  1.00  0.00     0.134 A 
ATOM     83  F   UNL A   1      41.448  30.210  28.915  1.00  0.00    -0.206 F 
ATOM     84  C   UNL A   1      40.673  28.404  27.629  1.00  0.00     0.040 A 
ATOM     85  C   UNL A   1      39.270  26.728  28.637  1.00  0.00     0.040 A 
ATOM     86  F   UNL A   1      38.652  26.916  30.892  1.00  0.00    -0.206 F 
ATOM     87  C   UNL A   1      39.936  27.227  27.519  1.00  0.00     0.006 A 
ENDBRANCH  59  80
BRANCH  71  88
ATOM     88  C   UNL A   1      44.601  28.779  35.274  1.00  0.00     0.057 A 
ATOM     89  C   UNL A   1      45.827  29.179  34.728  1.00  0.00     0.134 A 
ATOM     90  C   UNL A   1      44.610  27.671  36.133  1.00  0.00     0.134 A 
ATOM     91  F   UNL A   1      45.888  30.225  33.891  1.00  0.00    -0.206 F 
ATOM     92  C   UNL A   1      47.010  28.490  35.004  1.00  0.00     0.040 A 
ATOM     93  C   UNL A   1      45.790  26.993  36.441  1.00  0.00     0.040 A 
ATOM     94  F   UNL A   1      43.473  27.240  36.702  1.00  0.00    -0.206 F 
ATOM     95  C   UNL A   1      46.994  27.398  35.869  1.00  0.00     0.006 A 
ENDBRANCH  71  88
ENDBRANCH  45  46
ENDBRANCH  38  40
ENDBRANCH  37  38
ENDBRANCH  36  37
ENDBRANCH  35  36
ENDBRANCH  34  35
ENDBRANCH  33  34
ENDBRANCH   1  33
TORSDOF 23
ENDMDL
