MODEL 1
REMARK VINA RESULT:     -10.6      0.000      0.000
REMARK SMILES C[C@@H](C(=O)OCCOCCOCCOC(=O)c1ccc(-c2c3nc(c(-c4c(F)cccc4F)c4ccc([nH]4)c(-c4c(F)cccc4F)c4nc(c(-c5c(F)cccc5F)c5ccc2[nH]5)C=C4)C=C3)cc1)c1ccc(C[C@H]2CCC[C@@H]2O)cc1
REMARK SMILES IDX 9 1 8 2 7 3 6 4 5 5 3 6 4 7 2 8 1 9 71 10 72 11 83 12 73 13
REMARK SMILES IDX 82 14 74 15 75 16 76 17 77 18 80 19 78 20 79 21 81 22 10 24
REMARK SMILES IDX 11 25 12 26 13 27 14 28 15 29 16 30 17 31 18 32 70 33 19 34
REMARK SMILES IDX 69 35 20 36 21 37 22 38 63 39 23 40 68 41 62 42 64 43 24 44
REMARK SMILES IDX 67 45 61 46 60 47 25 49 51 50 34 51 50 52 35 53 38 54 49 55
REMARK SMILES IDX 65 56 36 57 37 58 48 60 66 61 39 62 26 63 27 64 32 65 28 66
REMARK SMILES IDX 29 67 31 68 33 69 30 70 52 71 53 72 58 73 54 74 55 75 57 76
REMARK SMILES IDX 59 77 56 78 40 79 41 80 46 81 42 82 43 83 45 84 47 85 44 86
REMARK H PARENT 81 23 64 48 38 59
REMARK Flexibility Score: inf
ROOT
ATOM      1  C   UNL A   1      34.359  32.818  28.045  1.00  0.00     0.188 C 
ENDROOT
BRANCH   1   2
ATOM      2  O   UNL A   1      33.866  31.495  28.223  1.00  0.00    -0.376 OA
BRANCH   2   3
ATOM      3  C   UNL A   1      33.612  30.699  27.069  1.00  0.00     0.202 C 
BRANCH   3   4
ATOM      4  C   UNL A   1      32.186  30.173  26.851  1.00  0.00     0.261 C 
BRANCH   4   5
ATOM      5  O   UNL A   1      31.936  29.651  25.529  1.00  0.00    -0.463 OA
BRANCH   5   6
ATOM      6  C   UNL A   1      32.234  28.335  25.352  1.00  0.00     0.313 C 
ATOM      7  O   UNL A   1      31.585  27.414  25.844  1.00  0.00    -0.252 OA
BRANCH   6   8
ATOM      8  C   UNL A   1      33.436  28.079  24.433  1.00  0.00     0.126 C 
ATOM      9  C   UNL A   1      33.450  28.869  23.119  1.00  0.00     0.025 C 
BRANCH   8  10
ATOM     10  C   UNL A   1      33.762  26.589  24.333  1.00  0.00    -0.034 A 
ATOM     11  C   UNL A   1      33.451  25.920  23.137  1.00  0.00     0.005 A 
ATOM     12  C   UNL A   1      34.363  25.844  25.355  1.00  0.00     0.005 A 
ATOM     13  C   UNL A   1      33.710  24.557  22.972  1.00  0.00     0.004 A 
ATOM     14  C   UNL A   1      34.618  24.476  25.189  1.00  0.00     0.004 A 
ATOM     15  C   UNL A   1      34.277  23.811  24.007  1.00  0.00    -0.048 A 
BRANCH  15  16
ATOM     16  C   UNL A   1      34.493  22.322  23.853  1.00  0.00     0.041 C 
BRANCH  16  17
ATOM     17  C   UNL A   1      33.402  21.412  24.444  1.00  0.00     0.022 C 
ATOM     18  C   UNL A   1      32.550  20.639  23.419  1.00  0.00     0.007 C 
ATOM     19  C   UNL A   1      33.905  20.351  25.431  1.00  0.00     0.117 C 
ATOM     20  C   UNL A   1      32.478  19.200  23.926  1.00  0.00     0.003 C 
ATOM     21  C   UNL A   1      32.809  19.294  25.404  1.00  0.00     0.032 C 
BRANCH  19  22
ATOM     22  O   UNL A   1      34.071  20.900  26.727  1.00  0.00    -0.393 OA
ATOM     23  H   UNL A   1      34.908  20.587  27.105  1.00  0.00     0.210 HD
ENDBRANCH  19  22
ENDBRANCH  16  17
ENDBRANCH  15  16
ENDBRANCH   8  10
ENDBRANCH   6   8
ENDBRANCH   5   6
ENDBRANCH   4   5
ENDBRANCH   3   4
ENDBRANCH   2   3
ENDBRANCH   1   2
BRANCH   1  24
ATOM     24  C   UNL A   1      33.366  33.994  28.099  1.00  0.00     0.188 C 
BRANCH  24  25
ATOM     25  O   UNL A   1      33.103  34.475  29.401  1.00  0.00    -0.376 OA
BRANCH  25  26
ATOM     26  C   UNL A   1      34.209  34.595  30.279  1.00  0.00     0.202 C 
BRANCH  26  27
ATOM     27  C   UNL A   1      34.065  33.902  31.644  1.00  0.00     0.261 C 
BRANCH  27  28
ATOM     28  O   UNL A   1      34.617  32.575  31.729  1.00  0.00    -0.460 OA
BRANCH  28  29
ATOM     29  C   UNL A   1      35.635  32.389  32.593  1.00  0.00     0.338 C 
ATOM     30  O   UNL A   1      35.621  32.593  33.804  1.00  0.00    -0.246 OA
BRANCH  29  31
ATOM     31  C   UNL A   1      36.719  31.685  31.882  1.00  0.00     0.060 A 
ATOM     32  C   UNL A   1      37.639  30.939  32.631  1.00  0.00     0.016 A 
ATOM     33  C   UNL A   1      36.833  31.750  30.491  1.00  0.00     0.016 A 
ATOM     34  C   UNL A   1      38.679  30.267  31.989  1.00  0.00     0.010 A 
ATOM     35  C   UNL A   1      37.890  31.092  29.851  1.00  0.00     0.010 A 
ATOM     36  C   UNL A   1      38.828  30.360  30.599  1.00  0.00    -0.014 A 
BRANCH  36  37
ATOM     37  C   UNL A   1      40.064  29.837  29.967  1.00  0.00     0.031 A 
ATOM     38  C   UNL A   1      41.249  30.755  29.846  1.00  0.00     0.074 A 
ATOM     39  C   UNL A   1      40.163  28.559  29.563  1.00  0.00     0.049 A 
ATOM     40  N   UNL A   1      42.415  30.540  29.292  1.00  0.00    -0.248 NA
ATOM     41  C   UNL A   1      41.099  32.090  30.443  1.00  0.00     0.031 C 
ATOM     42  C   UNL A   1      39.123  27.542  29.704  1.00  0.00     0.029 A 
ATOM     43  N   UNL A   1      41.201  27.898  28.951  1.00  0.00    -0.354 N 
ATOM     44  C   UNL A   1      43.136  31.713  29.472  1.00  0.00     0.074 A 
ATOM     45  C   UNL A   1      42.273  32.640  30.173  1.00  0.00     0.031 C 
ATOM     46  C   UNL A   1      39.573  26.386  29.182  1.00  0.00     0.029 A 
ATOM     47  C   UNL A   1      40.912  26.593  28.633  1.00  0.00     0.049 A 
ATOM     48  H   UNL A   1      42.069  28.321  28.759  1.00  0.00     0.167 HD
ATOM     49  C   UNL A   1      44.403  31.996  29.087  1.00  0.00     0.037 A 
ATOM     50  C   UNL A   1      41.636  25.685  27.948  1.00  0.00     0.037 A 
ATOM     51  C   UNL A   1      45.255  31.086  28.368  1.00  0.00     0.049 A 
ATOM     52  C   UNL A   1      42.999  26.063  27.424  1.00  0.00     0.074 A 
ATOM     53  C   UNL A   1      46.539  31.297  27.899  1.00  0.00     0.029 A 
ATOM     54  N   UNL A   1      44.902  29.796  28.006  1.00  0.00    -0.354 N 
ATOM     55  N   UNL A   1      43.667  27.181  27.577  1.00  0.00    -0.248 NA
ATOM     56  C   UNL A   1      43.706  25.051  26.621  1.00  0.00     0.031 C 
ATOM     57  C   UNL A   1      46.945  30.151  27.209  1.00  0.00     0.029 A 
ATOM     58  C   UNL A   1      45.935  29.206  27.296  1.00  0.00     0.049 A 
ATOM     59  H   UNL A   1      44.044  29.363  28.219  1.00  0.00     0.167 HD
ATOM     60  C   UNL A   1      44.876  26.999  26.915  1.00  0.00     0.074 A 
ATOM     61  C   UNL A   1      44.858  25.658  26.371  1.00  0.00     0.031 C 
ATOM     62  C   UNL A   1      45.909  27.866  26.768  1.00  0.00     0.037 A 
BRANCH  49  63
ATOM     63  C   UNL A   1      44.916  33.371  29.393  1.00  0.00     0.057 A 
ATOM     64  C   UNL A   1      45.631  33.652  30.564  1.00  0.00     0.134 A 
ATOM     65  C   UNL A   1      44.692  34.427  28.501  1.00  0.00     0.134 A 
ATOM     66  F   UNL A   1      45.861  32.688  31.469  1.00  0.00    -0.206 F 
ATOM     67  C   UNL A   1      46.083  34.942  30.849  1.00  0.00     0.040 A 
ATOM     68  C   UNL A   1      45.160  35.714  28.763  1.00  0.00     0.040 A 
ATOM     69  F   UNL A   1      44.013  34.223  27.362  1.00  0.00    -0.206 F 
ATOM     70  C   UNL A   1      45.852  35.976  29.944  1.00  0.00     0.006 A 
ENDBRANCH  49  63
BRANCH  50  71
ATOM     71  C   UNL A   1      41.076  24.337  27.670  1.00  0.00     0.057 A 
ATOM     72  C   UNL A   1      41.545  23.199  28.339  1.00  0.00     0.134 A 
ATOM     73  C   UNL A   1      40.094  24.147  26.691  1.00  0.00     0.134 A 
ATOM     74  F   UNL A   1      42.511  23.310  29.262  1.00  0.00    -0.206 F 
ATOM     75  C   UNL A   1      41.071  21.922  28.032  1.00  0.00     0.040 A 
ATOM     76  C   UNL A   1      39.591  22.879  26.392  1.00  0.00     0.040 A 
ATOM     77  F   UNL A   1      39.610  25.192  26.005  1.00  0.00    -0.206 F 
ATOM     78  C   UNL A   1      40.087  21.760  27.058  1.00  0.00     0.006 A 
ENDBRANCH  50  71
BRANCH  62  79
ATOM     79  C   UNL A   1      47.122  27.383  26.025  1.00  0.00     0.057 A 
ATOM     80  C   UNL A   1      48.227  26.833  26.686  1.00  0.00     0.134 A 
ATOM     81  C   UNL A   1      47.161  27.420  24.625  1.00  0.00     0.134 A 
ATOM     82  F   UNL A   1      48.260  26.777  28.026  1.00  0.00    -0.206 F 
ATOM     83  C   UNL A   1      49.335  26.355  25.982  1.00  0.00     0.040 A 
ATOM     84  C   UNL A   1      48.251  26.922  23.910  1.00  0.00     0.040 A 
ATOM     85  F   UNL A   1      46.131  27.924  23.927  1.00  0.00    -0.206 F 
ATOM     86  C   UNL A   1      49.345  26.391  24.590  1.00  0.00     0.006 A 
ENDBRANCH  62  79
ENDBRANCH  36  37
ENDBRANCH  29  31
ENDBRANCH  28  29
ENDBRANCH  27  28
ENDBRANCH  26  27
ENDBRANCH  25  26
ENDBRANCH  24  25
ENDBRANCH   1  24
TORSDOF 21
ENDMDL
MODEL 2
REMARK VINA RESULT:     -10.6      4.308      9.829
REMARK SMILES C[C@@H](C(=O)OCCOCCOCCOC(=O)c1ccc(-c2c3nc(c(-c4c(F)cccc4F)c4ccc([nH]4)c(-c4c(F)cccc4F)c4nc(c(-c5c(F)cccc5F)c5ccc2[nH]5)C=C4)C=C3)cc1)c1ccc(C[C@H]2CCC[C@@H]2O)cc1
REMARK SMILES IDX 9 1 8 2 7 3 6 4 5 5 3 6 4 7 2 8 1 9 71 10 72 11 83 12 73 13
REMARK SMILES IDX 82 14 74 15 75 16 76 17 77 18 80 19 78 20 79 21 81 22 10 24
REMARK SMILES IDX 11 25 12 26 13 27 14 28 15 29 16 30 17 31 18 32 70 33 19 34
REMARK SMILES IDX 69 35 20 36 21 37 22 38 63 39 23 40 68 41 62 42 64 43 24 44
REMARK SMILES IDX 67 45 61 46 60 47 25 49 51 50 34 51 50 52 35 53 38 54 49 55
REMARK SMILES IDX 65 56 36 57 37 58 48 60 66 61 39 62 26 63 27 64 32 65 28 66
REMARK SMILES IDX 29 67 31 68 33 69 30 70 52 71 53 72 58 73 54 74 55 75 57 76
REMARK SMILES IDX 59 77 56 78 40 79 41 80 46 81 42 82 43 83 45 84 47 85 44 86
REMARK H PARENT 81 23 64 48 38 59
REMARK Flexibility Score: inf
ROOT
ATOM      1  C   UNL A   1      38.980  22.326  26.125  1.00  0.00     0.188 C 
ENDROOT
BRANCH   1   2
ATOM      2  O   UNL A   1      37.804  22.414  25.327  1.00  0.00    -0.376 OA
BRANCH   2   3
ATOM      3  C   UNL A   1      36.820  21.390  25.445  1.00  0.00     0.202 C 
BRANCH   3   4
ATOM      4  C   UNL A   1      35.360  21.812  25.666  1.00  0.00     0.261 C 
BRANCH   4   5
ATOM      5  O   UNL A   1      34.480  21.525  24.559  1.00  0.00    -0.463 OA
BRANCH   5   6
ATOM      6  C   UNL A   1      33.367  20.804  24.866  1.00  0.00     0.313 C 
ATOM      7  O   UNL A   1      33.334  19.928  25.727  1.00  0.00    -0.252 OA
BRANCH   6   8
ATOM      8  C   UNL A   1      32.116  21.211  24.074  1.00  0.00     0.126 C 
ATOM      9  C   UNL A   1      32.151  20.908  22.572  1.00  0.00     0.025 C 
BRANCH   8  10
ATOM     10  C   UNL A   1      31.623  22.601  24.475  1.00  0.00    -0.034 A 
ATOM     11  C   UNL A   1      31.126  23.446  23.467  1.00  0.00     0.005 A 
ATOM     12  C   UNL A   1      31.624  23.089  25.787  1.00  0.00     0.005 A 
ATOM     13  C   UNL A   1      30.666  24.733  23.752  1.00  0.00     0.004 A 
ATOM     14  C   UNL A   1      31.166  24.383  26.071  1.00  0.00     0.004 A 
ATOM     15  C   UNL A   1      30.702  25.228  25.058  1.00  0.00    -0.048 A 
BRANCH  15  16
ATOM     16  C   UNL A   1      30.268  26.646  25.355  1.00  0.00     0.041 C 
BRANCH  16  17
ATOM     17  C   UNL A   1      31.393  27.687  25.485  1.00  0.00     0.022 C 
ATOM     18  C   UNL A   1      31.866  27.984  26.921  1.00  0.00     0.007 C 
ATOM     19  C   UNL A   1      32.670  27.368  24.698  1.00  0.00     0.117 C 
ATOM     20  C   UNL A   1      33.393  27.961  26.878  1.00  0.00     0.003 C 
ATOM     21  C   UNL A   1      33.741  28.177  25.417  1.00  0.00     0.032 C 
BRANCH  19  22
ATOM     22  O   UNL A   1      32.543  27.757  23.342  1.00  0.00    -0.393 OA
ATOM     23  H   UNL A   1      31.733  27.373  22.971  1.00  0.00     0.210 HD
ENDBRANCH  19  22
ENDBRANCH  16  17
ENDBRANCH  15  16
ENDBRANCH   8  10
ENDBRANCH   6   8
ENDBRANCH   5   6
ENDBRANCH   4   5
ENDBRANCH   3   4
ENDBRANCH   2   3
ENDBRANCH   1   2
BRANCH   1  24
ATOM     24  C   UNL A   1      39.816  21.034  26.072  1.00  0.00     0.188 C 
BRANCH  24  25
ATOM     25  O   UNL A   1      41.049  21.109  26.760  1.00  0.00    -0.376 OA
BRANCH  25  26
ATOM     26  C   UNL A   1      42.169  20.499  26.142  1.00  0.00     0.202 C 
BRANCH  26  27
ATOM     27  C   UNL A   1      43.214  21.454  25.546  1.00  0.00     0.261 C 
BRANCH  27  28
ATOM     28  O   UNL A   1      42.704  22.708  25.055  1.00  0.00    -0.460 OA
BRANCH  28  29
ATOM     29  C   UNL A   1      43.517  23.779  25.146  1.00  0.00     0.338 C 
ATOM     30  O   UNL A   1      44.494  24.025  24.444  1.00  0.00    -0.246 OA
BRANCH  29  31
ATOM     31  C   UNL A   1      42.914  24.736  26.094  1.00  0.00     0.060 A 
ATOM     32  C   UNL A   1      43.443  26.031  26.168  1.00  0.00     0.016 A 
ATOM     33  C   UNL A   1      41.834  24.369  26.902  1.00  0.00     0.016 A 
ATOM     34  C   UNL A   1      42.898  26.956  27.058  1.00  0.00     0.010 A 
ATOM     35  C   UNL A   1      41.304  25.294  27.810  1.00  0.00     0.010 A 
ATOM     36  C   UNL A   1      41.844  26.588  27.904  1.00  0.00    -0.014 A 
BRANCH  36  37
ATOM     37  C   UNL A   1      41.438  27.504  28.997  1.00  0.00     0.031 A 
ATOM     38  C   UNL A   1      42.219  27.474  30.282  1.00  0.00     0.074 A 
ATOM     39  C   UNL A   1      40.440  28.390  28.840  1.00  0.00     0.049 A 
ATOM     40  N   UNL A   1      42.025  28.143  31.389  1.00  0.00    -0.248 NA
ATOM     41  C   UNL A   1      43.382  26.575  30.313  1.00  0.00     0.031 C 
ATOM     42  C   UNL A   1      39.663  28.586  27.619  1.00  0.00     0.029 A 
ATOM     43  N   UNL A   1      39.913  29.300  29.726  1.00  0.00    -0.354 N 
ATOM     44  C   UNL A   1      43.040  27.746  32.249  1.00  0.00     0.074 A 
ATOM     45  C   UNL A   1      43.839  26.767  31.541  1.00  0.00     0.031 C 
ATOM     46  C   UNL A   1      38.749  29.549  27.835  1.00  0.00     0.029 A 
ATOM     47  C   UNL A   1      38.848  30.006  29.221  1.00  0.00     0.049 A 
ATOM     48  H   UNL A   1      40.265  29.432  30.635  1.00  0.00     0.167 HD
ATOM     49  C   UNL A   1      43.286  28.155  33.516  1.00  0.00     0.037 A 
ATOM     50  C   UNL A   1      38.031  30.894  29.822  1.00  0.00     0.037 A 
ATOM     51  C   UNL A   1      42.481  29.108  34.232  1.00  0.00     0.049 A 
ATOM     52  C   UNL A   1      38.252  31.246  31.272  1.00  0.00     0.074 A 
ATOM     53  C   UNL A   1      42.627  29.556  35.532  1.00  0.00     0.029 A 
ATOM     54  N   UNL A   1      41.371  29.752  33.708  1.00  0.00    -0.354 N 
ATOM     55  N   UNL A   1      39.199  30.849  32.087  1.00  0.00    -0.248 NA
ATOM     56  C   UNL A   1      37.280  32.164  31.888  1.00  0.00     0.031 C 
ATOM     57  C   UNL A   1      41.575  30.434  35.813  1.00  0.00     0.029 A 
ATOM     58  C   UNL A   1      40.807  30.575  34.669  1.00  0.00     0.049 A 
ATOM     59  H   UNL A   1      41.032  29.640  32.791  1.00  0.00     0.167 HD
ATOM     60  C   UNL A   1      38.954  31.485  33.299  1.00  0.00     0.074 A 
ATOM     61  C   UNL A   1      37.777  32.306  33.109  1.00  0.00     0.031 C 
ATOM     62  C   UNL A   1      39.640  31.396  34.465  1.00  0.00     0.037 A 
BRANCH  49  63
ATOM     63  C   UNL A   1      44.449  27.524  34.222  1.00  0.00     0.057 A 
ATOM     64  C   UNL A   1      44.312  26.354  34.980  1.00  0.00     0.134 A 
ATOM     65  C   UNL A   1      45.724  28.097  34.139  1.00  0.00     0.134 A 
ATOM     66  F   UNL A   1      43.113  25.768  35.114  1.00  0.00    -0.206 F 
ATOM     67  C   UNL A   1      45.398  25.791  35.651  1.00  0.00     0.040 A 
ATOM     68  C   UNL A   1      46.822  27.530  34.785  1.00  0.00     0.040 A 
ATOM     69  F   UNL A   1      45.922  29.219  33.430  1.00  0.00    -0.206 F 
ATOM     70  C   UNL A   1      46.659  26.376  35.550  1.00  0.00     0.006 A 
ENDBRANCH  49  63
BRANCH  50  71
ATOM     71  C   UNL A   1      36.890  31.486  29.074  1.00  0.00     0.057 A 
ATOM     72  C   UNL A   1      36.913  32.819  28.644  1.00  0.00     0.134 A 
ATOM     73  C   UNL A   1      35.728  30.749  28.820  1.00  0.00     0.134 A 
ATOM     74  F   UNL A   1      37.983  33.589  28.889  1.00  0.00    -0.206 F 
ATOM     75  C   UNL A   1      35.817  33.400  28.002  1.00  0.00     0.040 A 
ATOM     76  C   UNL A   1      34.634  31.309  28.156  1.00  0.00     0.040 A 
ATOM     77  F   UNL A   1      35.636  29.472  29.217  1.00  0.00    -0.206 F 
ATOM     78  C   UNL A   1      34.674  32.642  27.754  1.00  0.00     0.006 A 
ENDBRANCH  50  71
BRANCH  62  79
ATOM     79  C   UNL A   1      39.165  32.234  35.618  1.00  0.00     0.057 A 
ATOM     80  C   UNL A   1      39.569  33.565  35.785  1.00  0.00     0.134 A 
ATOM     81  C   UNL A   1      38.246  31.718  36.542  1.00  0.00     0.134 A 
ATOM     82  F   UNL A   1      40.454  34.117  34.942  1.00  0.00    -0.206 F 
ATOM     83  C   UNL A   1      39.093  34.345  36.841  1.00  0.00     0.040 A 
ATOM     84  C   UNL A   1      37.744  32.496  37.586  1.00  0.00     0.040 A 
ATOM     85  F   UNL A   1      37.808  30.455  36.435  1.00  0.00    -0.206 F 
ATOM     86  C   UNL A   1      38.171  33.814  37.740  1.00  0.00     0.006 A 
ENDBRANCH  62  79
ENDBRANCH  36  37
ENDBRANCH  29  31
ENDBRANCH  28  29
ENDBRANCH  27  28
ENDBRANCH  26  27
ENDBRANCH  25  26
ENDBRANCH  24  25
ENDBRANCH   1  24
TORSDOF 21
ENDMDL
MODEL 3
REMARK VINA RESULT:     -10.4      4.821     10.418
REMARK SMILES C[C@@H](C(=O)OCCOCCOCCOC(=O)c1ccc(-c2c3nc(c(-c4c(F)cccc4F)c4ccc([nH]4)c(-c4c(F)cccc4F)c4nc(c(-c5c(F)cccc5F)c5ccc2[nH]5)C=C4)C=C3)cc1)c1ccc(C[C@H]2CCC[C@@H]2O)cc1
REMARK SMILES IDX 9 1 8 2 7 3 6 4 5 5 3 6 4 7 2 8 1 9 71 10 72 11 83 12 73 13
REMARK SMILES IDX 82 14 74 15 75 16 76 17 77 18 80 19 78 20 79 21 81 22 10 24
REMARK SMILES IDX 11 25 12 26 13 27 14 28 15 29 16 30 17 31 18 32 70 33 19 34
REMARK SMILES IDX 69 35 20 36 21 37 22 38 63 39 23 40 68 41 62 42 64 43 24 44
REMARK SMILES IDX 67 45 61 46 60 47 25 49 51 50 34 51 50 52 35 53 38 54 49 55
REMARK SMILES IDX 65 56 36 57 37 58 48 60 66 61 39 62 26 63 27 64 32 65 28 66
REMARK SMILES IDX 29 67 31 68 33 69 30 70 52 71 53 72 58 73 54 74 55 75 57 76
REMARK SMILES IDX 59 77 56 78 40 79 41 80 46 81 42 82 43 83 45 84 47 85 44 86
REMARK H PARENT 81 23 64 48 38 59
REMARK Flexibility Score: inf
ROOT
ATOM      1  C   UNL A   1      43.062  18.434  25.640  1.00  0.00     0.188 C 
ENDROOT
BRANCH   1   2
ATOM      2  O   UNL A   1      41.830  19.132  25.792  1.00  0.00    -0.376 OA
BRANCH   2   3
ATOM      3  C   UNL A   1      41.735  20.141  26.793  1.00  0.00     0.202 C 
BRANCH   3   4
ATOM      4  C   UNL A   1      41.151  21.503  26.394  1.00  0.00     0.261 C 
BRANCH   4   5
ATOM      5  O   UNL A   1      39.824  21.758  26.902  1.00  0.00    -0.463 OA
BRANCH   5   6
ATOM      6  C   UNL A   1      38.846  21.862  25.963  1.00  0.00     0.313 C 
ATOM      7  O   UNL A   1      38.388  20.904  25.343  1.00  0.00    -0.252 OA
BRANCH   6   8
ATOM      8  C   UNL A   1      38.311  23.287  25.765  1.00  0.00     0.126 C 
ATOM      9  C   UNL A   1      38.590  24.268  26.910  1.00  0.00     0.025 C 
BRANCH   8  10
ATOM     10  C   UNL A   1      36.888  23.282  25.208  1.00  0.00    -0.034 A 
ATOM     11  C   UNL A   1      35.817  23.303  26.118  1.00  0.00     0.005 A 
ATOM     12  C   UNL A   1      36.577  23.271  23.842  1.00  0.00     0.005 A 
ATOM     13  C   UNL A   1      34.489  23.290  25.686  1.00  0.00     0.004 A 
ATOM     14  C   UNL A   1      35.244  23.254  23.411  1.00  0.00     0.004 A 
ATOM     15  C   UNL A   1      34.185  23.243  24.324  1.00  0.00    -0.048 A 
BRANCH  15  16
ATOM     16  C   UNL A   1      32.748  23.160  23.860  1.00  0.00     0.041 C 
BRANCH  16  17
ATOM     17  C   UNL A   1      32.196  24.400  23.135  1.00  0.00     0.022 C 
ATOM     18  C   UNL A   1      31.858  25.604  24.034  1.00  0.00     0.007 C 
ATOM     19  C   UNL A   1      33.098  24.963  22.030  1.00  0.00     0.117 C 
ATOM     20  C   UNL A   1      32.456  26.829  23.345  1.00  0.00     0.003 C 
ATOM     21  C   UNL A   1      32.638  26.409  21.899  1.00  0.00     0.032 C 
BRANCH  19  22
ATOM     22  O   UNL A   1      32.927  24.248  20.819  1.00  0.00    -0.393 OA
ATOM     23  H   UNL A   1      32.671  24.863  20.114  1.00  0.00     0.210 HD
ENDBRANCH  19  22
ENDBRANCH  16  17
ENDBRANCH  15  16
ENDBRANCH   8  10
ENDBRANCH   6   8
ENDBRANCH   5   6
ENDBRANCH   4   5
ENDBRANCH   3   4
ENDBRANCH   2   3
ENDBRANCH   1   2
BRANCH   1  24
ATOM     24  C   UNL A   1      44.339  19.241  25.341  1.00  0.00     0.188 C 
BRANCH  24  25
ATOM     25  O   UNL A   1      44.182  20.235  24.348  1.00  0.00    -0.376 OA
BRANCH  25  26
ATOM     26  C   UNL A   1      45.004  21.384  24.453  1.00  0.00     0.202 C 
BRANCH  26  27
ATOM     27  C   UNL A   1      44.763  22.276  25.681  1.00  0.00     0.261 C 
BRANCH  27  28
ATOM     28  O   UNL A   1      43.835  23.360  25.491  1.00  0.00    -0.460 OA
BRANCH  28  29
ATOM     29  C   UNL A   1      44.346  24.607  25.471  1.00  0.00     0.338 C 
ATOM     30  O   UNL A   1      45.093  25.085  24.620  1.00  0.00    -0.246 OA
BRANCH  29  31
ATOM     31  C   UNL A   1      43.686  25.393  26.531  1.00  0.00     0.060 A 
ATOM     32  C   UNL A   1      44.141  26.694  26.785  1.00  0.00     0.016 A 
ATOM     33  C   UNL A   1      42.624  24.862  27.268  1.00  0.00     0.016 A 
ATOM     34  C   UNL A   1      43.540  27.459  27.784  1.00  0.00     0.010 A 
ATOM     35  C   UNL A   1      42.038  25.625  28.286  1.00  0.00     0.010 A 
ATOM     36  C   UNL A   1      42.504  26.923  28.559  1.00  0.00    -0.014 A 
BRANCH  36  37
ATOM     37  C   UNL A   1      42.042  27.660  29.761  1.00  0.00     0.031 A 
ATOM     38  C   UNL A   1      40.830  28.540  29.638  1.00  0.00     0.074 A 
ATOM     39  C   UNL A   1      42.642  27.508  30.954  1.00  0.00     0.049 A 
ATOM     40  N   UNL A   1      40.269  29.315  30.531  1.00  0.00    -0.248 NA
ATOM     41  C   UNL A   1      40.154  28.534  28.332  1.00  0.00     0.031 C 
ATOM     42  C   UNL A   1      43.768  26.620  31.232  1.00  0.00     0.029 A 
ATOM     43  N   UNL A   1      42.377  28.105  32.164  1.00  0.00    -0.354 N 
ATOM     44  C   UNL A   1      39.176  29.889  29.896  1.00  0.00     0.074 A 
ATOM     45  C   UNL A   1      39.161  29.385  28.538  1.00  0.00     0.031 C 
ATOM     46  C   UNL A   1      44.105  26.738  32.528  1.00  0.00     0.029 A 
ATOM     47  C   UNL A   1      43.248  27.740  33.161  1.00  0.00     0.049 A 
ATOM     48  H   UNL A   1      41.633  28.735  32.301  1.00  0.00     0.167 HD
ATOM     49  C   UNL A   1      38.267  30.759  30.394  1.00  0.00     0.037 A 
ATOM     50  C   UNL A   1      43.358  28.190  34.427  1.00  0.00     0.037 A 
ATOM     51  C   UNL A   1      38.294  31.281  31.735  1.00  0.00     0.049 A 
ATOM     52  C   UNL A   1      42.407  29.249  34.925  1.00  0.00     0.074 A 
ATOM     53  C   UNL A   1      37.440  32.198  32.320  1.00  0.00     0.029 A 
ATOM     54  N   UNL A   1      39.232  30.937  32.696  1.00  0.00    -0.354 N 
ATOM     55  N   UNL A   1      41.390  29.807  34.312  1.00  0.00    -0.248 NA
ATOM     56  C   UNL A   1      42.627  29.751  36.291  1.00  0.00     0.031 C 
ATOM     57  C   UNL A   1      37.890  32.447  33.620  1.00  0.00     0.029 A 
ATOM     58  C   UNL A   1      38.993  31.644  33.862  1.00  0.00     0.049 A 
ATOM     59  H   UNL A   1      39.961  30.289  32.567  1.00  0.00     0.167 HD
ATOM     60  C   UNL A   1      40.836  30.700  35.223  1.00  0.00     0.074 A 
ATOM     61  C   UNL A   1      41.621  30.602  36.435  1.00  0.00     0.031 C 
ATOM     62  C   UNL A   1      39.775  31.530  35.067  1.00  0.00     0.037 A 
BRANCH  49  63
ATOM     63  C   UNL A   1      37.199  31.239  29.458  1.00  0.00     0.057 A 
ATOM     64  C   UNL A   1      37.261  32.497  28.844  1.00  0.00     0.134 A 
ATOM     65  C   UNL A   1      36.095  30.429  29.167  1.00  0.00     0.134 A 
ATOM     66  F   UNL A   1      38.283  33.328  29.098  1.00  0.00    -0.206 F 
ATOM     67  C   UNL A   1      36.248  32.941  27.993  1.00  0.00     0.040 A 
ATOM     68  C   UNL A   1      35.089  30.852  28.299  1.00  0.00     0.040 A 
ATOM     69  F   UNL A   1      35.976  29.214  29.724  1.00  0.00    -0.206 F 
ATOM     70  C   UNL A   1      35.160  32.116  27.715  1.00  0.00     0.006 A 
ENDBRANCH  49  63
BRANCH  50  71
ATOM     71  C   UNL A   1      44.439  27.681  35.311  1.00  0.00     0.057 A 
ATOM     72  C   UNL A   1      44.247  26.558  36.125  1.00  0.00     0.134 A 
ATOM     73  C   UNL A   1      45.672  28.338  35.403  1.00  0.00     0.134 A 
ATOM     74  F   UNL A   1      43.075  25.906  36.111  1.00  0.00    -0.206 F 
ATOM     75  C   UNL A   1      45.235  26.116  37.008  1.00  0.00     0.040 A 
ATOM     76  C   UNL A   1      46.679  27.892  36.262  1.00  0.00     0.040 A 
ATOM     77  F   UNL A   1      45.916  29.426  34.660  1.00  0.00    -0.206 F 
ATOM     78  C   UNL A   1      46.457  26.783  37.075  1.00  0.00     0.006 A 
ENDBRANCH  50  71
BRANCH  62  79
ATOM     79  C   UNL A   1      39.371  32.370  36.245  1.00  0.00     0.057 A 
ATOM     80  C   UNL A   1      39.937  33.628  36.489  1.00  0.00     0.134 A 
ATOM     81  C   UNL A   1      38.362  31.938  37.116  1.00  0.00     0.134 A 
ATOM     82  F   UNL A   1      40.916  34.097  35.701  1.00  0.00    -0.206 F 
ATOM     83  C   UNL A   1      39.529  34.415  37.568  1.00  0.00     0.040 A 
ATOM     84  C   UNL A   1      37.927  32.727  38.181  1.00  0.00     0.040 A 
ATOM     85  F   UNL A   1      37.768  30.748  36.934  1.00  0.00    -0.206 F 
ATOM     86  C   UNL A   1      38.515  33.969  38.413  1.00  0.00     0.006 A 
ENDBRANCH  62  79
ENDBRANCH  36  37
ENDBRANCH  29  31
ENDBRANCH  28  29
ENDBRANCH  27  28
ENDBRANCH  26  27
ENDBRANCH  25  26
ENDBRANCH  24  25
ENDBRANCH   1  24
TORSDOF 21
ENDMDL
