MODEL 1
REMARK VINA RESULT:      -7.8      0.000      0.000
REMARK SMILES Cc1cccc(S(=O)(=O)Nc2cc(C(=O)OCCOCCOCCOC(=O)c3ccc(-c4c5nc(c(-c6c(F)cccc6F)c6ccc([nH]6)c(-c6c(F)cccc6F)c6nc(c(-c7c(F)cccc7F)c7ccc4[nH]7)C=C6)C=C5)cc3)ccc2N2CCC[C@H](C[NH+]3CCCC3)C2)c1
REMARK SMILES IDX 20 1 19 2 18 3 17 4 16 5 14 6 15 7 13 8 11 9 12 10 84 11
REMARK SMILES IDX 83 12 82 13 10 14 7 16 8 17 9 18 6 19 1 20 2 21 3 22 97 23
REMARK SMILES IDX 4 24 5 25 85 26 86 27 96 28 87 29 89 30 88 31 90 32 91 33
REMARK SMILES IDX 92 34 95 35 93 37 94 38 21 39 22 40 23 41 24 42 25 43 26 44
REMARK SMILES IDX 27 45 28 46 29 47 81 48 30 49 80 50 31 51 32 52 33 53 74 54
REMARK SMILES IDX 34 55 79 56 73 57 75 58 35 59 78 60 72 61 71 62 36 64 62 65
REMARK SMILES IDX 45 66 61 67 46 68 49 69 60 70 76 71 47 72 48 73 59 75 77 76
REMARK SMILES IDX 50 77 37 78 38 79 43 80 39 81 40 82 42 83 44 84 41 85 63 86
REMARK SMILES IDX 64 87 69 88 65 89 66 90 68 91 70 92 67 93 51 94 52 95 57 96
REMARK SMILES IDX 53 97 54 98 56 99 58 100 55 101
REMARK H PARENT 10 15 91 36 75 63 49 74
REMARK Flexibility Score: inf
ROOT
ATOM      1  C   UNL A   1      46.170  39.160  30.653  1.00  0.00     0.188 C 
ENDROOT
BRANCH   1   2
ATOM      2  O   UNL A   1      46.594  38.261  31.670  1.00  0.00    -0.376 OA
BRANCH   2   3
ATOM      3  C   UNL A   1      45.608  37.517  32.423  1.00  0.00     0.202 C 
BRANCH   3   4
ATOM      4  C   UNL A   1      44.132  37.398  31.891  1.00  0.00     0.261 C 
BRANCH   4   5
ATOM      5  O   UNL A   1      43.331  36.143  31.573  1.00  0.00    -0.460 OA
BRANCH   5   6
ATOM      6  C   UNL A   1      42.522  35.479  32.438  1.00  0.00     0.338 C 
ATOM      7  O   UNL A   1      42.610  35.845  33.605  1.00  0.00    -0.246 OA
BRANCH   6   8
ATOM      8  C   UNL A   1      41.547  34.095  31.960  1.00  0.00     0.062 A 
ATOM      9  C   UNL A   1      40.979  31.712  31.656  1.00  0.00     0.073 A 
ATOM     10  C   UNL A   1      41.840  32.777  32.205  1.00  0.00     0.044 A 
ATOM     11  C   UNL A   1      39.939  31.835  30.676  1.00  0.00     0.061 A 
ATOM     12  C   UNL A   1      39.644  33.130  30.411  1.00  0.00     0.029 A 
ATOM     13  C   UNL A   1      40.356  34.135  31.101  1.00  0.00     0.018 A 
BRANCH   9  14
ATOM     14  N   UNL A   1      41.001  30.467  32.302  1.00  0.00    -0.277 N 
ATOM     15  H   UNL A   1      41.468  29.699  31.900  1.00  0.00     0.180 HD
BRANCH  14  16
ATOM     16  S   UNL A   1      40.215  30.316  33.777  1.00  0.00     0.261 S 
ATOM     17  O   UNL A   1      41.277  30.150  34.753  1.00  0.00    -0.201 OA
ATOM     18  O   UNL A   1      39.235  29.273  33.560  1.00  0.00    -0.201 OA
BRANCH  16  19
ATOM     19  C   UNL A   1      39.276  31.762  34.330  1.00  0.00     0.088 A 
ATOM     20  C   UNL A   1      39.316  35.045  36.333  1.00  0.00     0.044 C 
ATOM     21  C   UNL A   1      38.868  33.944  35.398  1.00  0.00    -0.050 A 
ATOM     22  C   UNL A   1      37.512  33.844  35.078  1.00  0.00     0.003 A 
ATOM     23  C   UNL A   1      39.750  32.914  34.978  1.00  0.00     0.025 A 
ATOM     24  C   UNL A   1      37.030  32.714  34.421  1.00  0.00     0.002 A 
ATOM     25  C   UNL A   1      37.900  31.679  34.070  1.00  0.00     0.022 A 
ENDBRANCH  16  19
ENDBRANCH  14  16
ENDBRANCH   9  14
BRANCH  11  26
ATOM     26  N   UNL A   1      39.102  30.860  30.116  1.00  0.00    -0.369 N 
ATOM     27  C   UNL A   1      39.715  29.984  29.094  1.00  0.00     0.116 C 
ATOM     28  C   UNL A   1      37.828  30.407  30.696  1.00  0.00     0.126 C 
ATOM     29  C   UNL A   1      38.690  29.416  28.098  1.00  0.00     0.022 C 
ATOM     30  C   UNL A   1      36.782  29.954  29.645  1.00  0.00     0.064 C 
ATOM     31  C   UNL A   1      37.439  28.876  28.782  1.00  0.00     0.013 C 
BRANCH  30  32
ATOM     32  C   UNL A   1      36.151  31.136  28.851  1.00  0.00     0.267 C 
BRANCH  32  33
ATOM     33  N   UNL A   1      34.807  31.634  29.193  1.00  0.00    -0.335 N 
ATOM     34  C   UNL A   1      33.998  32.117  28.077  1.00  0.00     0.262 C 
ATOM     35  C   UNL A   1      34.692  32.624  30.262  1.00  0.00     0.262 C 
ATOM     36  H   UNL A   1      34.439  30.750  29.545  1.00  0.00     0.348 HD
ATOM     37  C   UNL A   1      34.093  33.629  28.138  1.00  0.00     0.067 C 
ATOM     38  C   UNL A   1      34.217  33.928  29.621  1.00  0.00     0.067 C 
ENDBRANCH  32  33
ENDBRANCH  30  32
ENDBRANCH  11  26
ENDBRANCH   6   8
ENDBRANCH   5   6
ENDBRANCH   4   5
ENDBRANCH   3   4
ENDBRANCH   2   3
ENDBRANCH   1   2
BRANCH   1  39
ATOM     39  C   UNL A   1      46.925  39.284  29.336  1.00  0.00     0.188 C 
BRANCH  39  40
ATOM     40  O   UNL A   1      46.059  38.949  28.272  1.00  0.00    -0.376 OA
BRANCH  40  41
ATOM     41  C   UNL A   1      44.677  39.068  28.556  1.00  0.00     0.202 C 
BRANCH  41  42
ATOM     42  C   UNL A   1      43.858  37.824  28.165  1.00  0.00     0.261 C 
BRANCH  42  43
ATOM     43  O   UNL A   1      44.567  36.612  28.513  1.00  0.00    -0.460 OA
BRANCH  43  44
ATOM     44  C   UNL A   1      44.925  35.754  27.511  1.00  0.00     0.338 C 
ATOM     45  O   UNL A   1      45.714  36.003  26.598  1.00  0.00    -0.246 OA
BRANCH  44  46
ATOM     46  C   UNL A   1      43.978  34.596  27.492  1.00  0.00     0.060 A 
ATOM     47  C   UNL A   1      43.471  33.981  28.636  1.00  0.00     0.016 A 
ATOM     48  C   UNL A   1      44.059  33.794  26.417  1.00  0.00     0.016 A 
ATOM     49  C   UNL A   1      43.510  32.540  28.805  1.00  0.00     0.010 A 
ATOM     50  C   UNL A   1      44.235  32.432  26.699  1.00  0.00     0.010 A 
ATOM     51  C   UNL A   1      44.120  31.674  27.900  1.00  0.00    -0.014 A 
BRANCH  51  52
ATOM     52  C   UNL A   1      44.595  30.053  28.288  1.00  0.00     0.031 A 
ATOM     53  C   UNL A   1      43.940  28.499  28.184  1.00  0.00     0.074 A 
ATOM     54  C   UNL A   1      45.864  29.934  28.756  1.00  0.00     0.049 A 
ATOM     55  N   UNL A   1      44.613  27.364  28.100  1.00  0.00    -0.248 NA
ATOM     56  C   UNL A   1      42.533  28.067  28.141  1.00  0.00     0.031 C 
ATOM     57  C   UNL A   1      46.723  28.751  28.858  1.00  0.00     0.029 A 
ATOM     58  N   UNL A   1      46.622  30.914  29.387  1.00  0.00    -0.354 N 
ATOM     59  C   UNL A   1      43.780  26.296  27.752  1.00  0.00     0.074 A 
ATOM     60  C   UNL A   1      42.490  26.850  27.603  1.00  0.00     0.031 C 
ATOM     61  C   UNL A   1      47.652  28.950  29.794  1.00  0.00     0.029 A 
ATOM     62  C   UNL A   1      47.398  30.248  30.353  1.00  0.00     0.049 A 
ATOM     63  H   UNL A   1      46.617  31.880  29.196  1.00  0.00     0.167 HD
ATOM     64  C   UNL A   1      44.027  24.968  27.949  1.00  0.00     0.037 A 
ATOM     65  C   UNL A   1      47.207  30.525  31.667  1.00  0.00     0.037 A 
ATOM     66  C   UNL A   1      44.934  24.870  29.068  1.00  0.00     0.049 A 
ATOM     67  C   UNL A   1      46.617  29.337  32.394  1.00  0.00     0.074 A 
ATOM     68  C   UNL A   1      46.303  24.866  29.210  1.00  0.00     0.029 A 
ATOM     69  N   UNL A   1      44.405  25.194  30.311  1.00  0.00    -0.354 N 
ATOM     70  N   UNL A   1      46.015  28.320  31.820  1.00  0.00    -0.248 NA
ATOM     71  C   UNL A   1      46.755  29.162  33.833  1.00  0.00     0.031 C 
ATOM     72  C   UNL A   1      46.578  25.385  30.513  1.00  0.00     0.029 A 
ATOM     73  C   UNL A   1      45.380  25.632  31.180  1.00  0.00     0.049 A 
ATOM     74  H   UNL A   1      43.450  25.122  30.542  1.00  0.00     0.167 HD
ATOM     75  C   UNL A   1      45.690  27.381  32.773  1.00  0.00     0.074 A 
ATOM     76  C   UNL A   1      46.207  27.949  34.004  1.00  0.00     0.031 C 
ATOM     77  C   UNL A   1      45.053  26.196  32.499  1.00  0.00     0.037 A 
BRANCH  64  78
ATOM     78  C   UNL A   1      43.215  23.812  27.356  1.00  0.00     0.057 A 
ATOM     79  C   UNL A   1      43.170  23.577  25.967  1.00  0.00     0.134 A 
ATOM     80  C   UNL A   1      42.358  22.964  28.100  1.00  0.00     0.134 A 
ATOM     81  F   UNL A   1      43.862  24.347  25.116  1.00  0.00    -0.206 F 
ATOM     82  C   UNL A   1      42.392  22.556  25.380  1.00  0.00     0.040 A 
ATOM     83  C   UNL A   1      41.617  21.907  27.533  1.00  0.00     0.040 A 
ATOM     84  F   UNL A   1      42.168  23.142  29.415  1.00  0.00    -0.206 F 
ATOM     85  C   UNL A   1      41.630  21.700  26.163  1.00  0.00     0.006 A 
ENDBRANCH  64  78
BRANCH  65  86
ATOM     86  C   UNL A   1      47.043  32.000  31.858  1.00  0.00     0.057 A 
ATOM     87  C   UNL A   1      45.726  32.415  32.192  1.00  0.00     0.134 A 
ATOM     88  C   UNL A   1      48.078  32.860  32.227  1.00  0.00     0.134 A 
ATOM     89  F   UNL A   1      44.677  31.642  31.862  1.00  0.00    -0.206 F 
ATOM     90  C   UNL A   1      45.475  33.485  33.052  1.00  0.00     0.040 A 
ATOM     91  C   UNL A   1      47.822  34.001  33.013  1.00  0.00     0.040 A 
ATOM     92  F   UNL A   1      49.358  32.523  32.014  1.00  0.00    -0.206 F 
ATOM     93  C   UNL A   1      46.531  34.273  33.481  1.00  0.00     0.006 A 
ENDBRANCH  65  86
BRANCH  77  94
ATOM     94  C   UNL A   1      44.197  25.436  33.526  1.00  0.00     0.057 A 
ATOM     95  C   UNL A   1      43.134  26.009  34.253  1.00  0.00     0.134 A 
ATOM     96  C   UNL A   1      44.332  24.046  33.755  1.00  0.00     0.134 A 
ATOM     97  F   UNL A   1      42.675  27.239  33.996  1.00  0.00    -0.206 F 
ATOM     98  C   UNL A   1      42.408  25.326  35.240  1.00  0.00     0.040 A 
ATOM     99  C   UNL A   1      43.564  23.332  34.691  1.00  0.00     0.040 A 
ATOM    100  F   UNL A   1      45.160  23.278  33.035  1.00  0.00    -0.206 F 
ATOM    101  C   UNL A   1      42.627  23.981  35.473  1.00  0.00     0.006 A 
ENDBRANCH  77  94
ENDBRANCH  51  52
ENDBRANCH  44  46
ENDBRANCH  43  44
ENDBRANCH  42  43
ENDBRANCH  41  42
ENDBRANCH  40  41
ENDBRANCH  39  40
ENDBRANCH   1  39
TORSDOF 23
ENDMDL
MODEL 2
REMARK VINA RESULT:      -7.5      9.952     15.976
REMARK SMILES Cc1cccc(S(=O)(=O)Nc2cc(C(=O)OCCOCCOCCOC(=O)c3ccc(-c4c5nc(c(-c6c(F)cccc6F)c6ccc([nH]6)c(-c6c(F)cccc6F)c6nc(c(-c7c(F)cccc7F)c7ccc4[nH]7)C=C6)C=C5)cc3)ccc2N2CCC[C@H](C[NH+]3CCCC3)C2)c1
REMARK SMILES IDX 20 1 19 2 18 3 17 4 16 5 14 6 15 7 13 8 11 9 12 10 84 11
REMARK SMILES IDX 83 12 82 13 10 14 7 16 8 17 9 18 6 19 1 20 2 21 3 22 97 23
REMARK SMILES IDX 4 24 5 25 85 26 86 27 96 28 87 29 89 30 88 31 90 32 91 33
REMARK SMILES IDX 92 34 95 35 93 37 94 38 21 39 22 40 23 41 24 42 25 43 26 44
REMARK SMILES IDX 27 45 28 46 29 47 81 48 30 49 80 50 31 51 32 52 33 53 74 54
REMARK SMILES IDX 34 55 79 56 73 57 75 58 35 59 78 60 72 61 71 62 36 64 62 65
REMARK SMILES IDX 45 66 61 67 46 68 49 69 60 70 76 71 47 72 48 73 59 75 77 76
REMARK SMILES IDX 50 77 37 78 38 79 43 80 39 81 40 82 42 83 44 84 41 85 63 86
REMARK SMILES IDX 64 87 69 88 65 89 66 90 68 91 70 92 67 93 51 94 52 95 57 96
REMARK SMILES IDX 53 97 54 98 56 99 58 100 55 101
REMARK H PARENT 10 15 91 36 75 63 49 74
REMARK Flexibility Score: inf
ROOT
ATOM      1  C   UNL A   1      45.473  21.653  34.650  1.00  0.00     0.188 C 
ENDROOT
BRANCH   1   2
ATOM      2  O   UNL A   1      44.943  20.351  34.862  1.00  0.00    -0.376 OA
BRANCH   2   3
ATOM      3  C   UNL A   1      45.476  19.524  35.922  1.00  0.00     0.202 C 
BRANCH   3   4
ATOM      4  C   UNL A   1      46.949  19.745  36.430  1.00  0.00     0.261 C 
BRANCH   4   5
ATOM      5  O   UNL A   1      47.429  20.146  37.818  1.00  0.00    -0.460 OA
BRANCH   5   6
ATOM      6  C   UNL A   1      48.121  19.354  38.678  1.00  0.00     0.338 C 
ATOM      7  O   UNL A   1      49.289  19.156  38.363  1.00  0.00    -0.246 OA
BRANCH   6   8
ATOM      8  C   UNL A   1      47.366  18.542  40.043  1.00  0.00     0.062 A 
ATOM      9  C   UNL A   1      45.555  17.933  41.606  1.00  0.00     0.073 A 
ATOM     10  C   UNL A   1      46.034  18.583  40.372  1.00  0.00     0.044 A 
ATOM     11  C   UNL A   1      46.337  17.409  42.688  1.00  0.00     0.061 A 
ATOM     12  C   UNL A   1      47.657  17.373  42.388  1.00  0.00     0.029 A 
ATOM     13  C   UNL A   1      48.068  17.824  41.115  1.00  0.00     0.018 A 
BRANCH   9  14
ATOM     14  N   UNL A   1      44.201  17.569  41.661  1.00  0.00    -0.277 N 
ATOM     15  H   UNL A   1      43.612  17.927  42.363  1.00  0.00     0.180 HD
BRANCH  14  16
ATOM     16  S   UNL A   1      43.609  16.511  40.500  1.00  0.00     0.261 S 
ATOM     17  O   UNL A   1      44.787  15.896  39.917  1.00  0.00    -0.201 OA
ATOM     18  O   UNL A   1      42.717  17.320  39.696  1.00  0.00    -0.201 OA
BRANCH  16  19
ATOM     19  C   UNL A   1      42.602  15.138  41.115  1.00  0.00     0.088 A 
ATOM     20  C   UNL A   1      40.800  13.575  44.132  1.00  0.00     0.044 C 
ATOM     21  C   UNL A   1      41.251  13.838  42.712  1.00  0.00    -0.050 A 
ATOM     22  C   UNL A   1      41.110  12.823  41.763  1.00  0.00     0.003 A 
ATOM     23  C   UNL A   1      41.963  15.013  42.359  1.00  0.00     0.025 A 
ATOM     24  C   UNL A   1      41.725  12.939  40.519  1.00  0.00     0.002 A 
ATOM     25  C   UNL A   1      42.478  14.075  40.209  1.00  0.00     0.022 A 
ENDBRANCH  16  19
ENDBRANCH  14  16
ENDBRANCH   9  14
BRANCH  11  26
ATOM     26  N   UNL A   1      45.935  16.793  43.882  1.00  0.00    -0.369 N 
ATOM     27  C   UNL A   1      46.911  16.826  44.993  1.00  0.00     0.116 C 
ATOM     28  C   UNL A   1      44.546  16.459  44.233  1.00  0.00     0.126 C 
ATOM     29  C   UNL A   1      46.733  15.663  45.983  1.00  0.00     0.022 C 
ATOM     30  C   UNL A   1      44.408  15.207  45.138  1.00  0.00     0.064 C 
ATOM     31  C   UNL A   1      45.277  15.440  46.375  1.00  0.00     0.013 C 
BRANCH  30  32
ATOM     32  C   UNL A   1      44.681  13.869  44.389  1.00  0.00     0.267 C 
BRANCH  32  33
ATOM     33  N   UNL A   1      44.902  12.622  45.142  1.00  0.00    -0.335 N 
ATOM     34  C   UNL A   1      45.592  11.552  44.425  1.00  0.00     0.262 C 
ATOM     35  C   UNL A   1      43.757  12.013  45.816  1.00  0.00     0.262 C 
ATOM     36  H   UNL A   1      45.509  13.021  45.858  1.00  0.00     0.348 HD
ATOM     37  C   UNL A   1      44.502  10.586  44.003  1.00  0.00     0.067 C 
ATOM     38  C   UNL A   1      43.476  10.683  45.116  1.00  0.00     0.067 C 
ENDBRANCH  32  33
ENDBRANCH  30  32
ENDBRANCH  11  26
ENDBRANCH   6   8
ENDBRANCH   5   6
ENDBRANCH   4   5
ENDBRANCH   3   4
ENDBRANCH   2   3
ENDBRANCH   1   2
BRANCH   1  39
ATOM     39  C   UNL A   1      45.068  22.829  35.528  1.00  0.00     0.188 C 
BRANCH  39  40
ATOM     40  O   UNL A   1      43.669  23.006  35.450  1.00  0.00    -0.376 OA
BRANCH  40  41
ATOM     41  C   UNL A   1      43.212  23.731  34.322  1.00  0.00     0.202 C 
BRANCH  41  42
ATOM     42  C   UNL A   1      44.083  24.953  33.982  1.00  0.00     0.261 C 
BRANCH  42  43
ATOM     43  O   UNL A   1      43.349  26.182  34.189  1.00  0.00    -0.460 OA
BRANCH  43  44
ATOM     44  C   UNL A   1      42.767  26.398  35.407  1.00  0.00     0.338 C 
ATOM     45  O   UNL A   1      41.557  26.373  35.641  1.00  0.00    -0.246 OA
BRANCH  44  46
ATOM     46  C   UNL A   1      43.776  26.991  36.338  1.00  0.00     0.060 A 
ATOM     47  C   UNL A   1      44.841  27.793  35.929  1.00  0.00     0.016 A 
ATOM     48  C   UNL A   1      43.997  26.306  37.473  1.00  0.00     0.016 A 
ATOM     49  C   UNL A   1      46.200  27.534  36.370  1.00  0.00     0.010 A 
ATOM     50  C   UNL A   1      45.338  25.990  37.729  1.00  0.00     0.010 A 
ATOM     51  C   UNL A   1      46.561  26.439  37.152  1.00  0.00    -0.014 A 
BRANCH  51  52
ATOM     52  C   UNL A   1      48.185  25.850  37.293  1.00  0.00     0.031 A 
ATOM     53  C   UNL A   1      49.080  24.513  36.776  1.00  0.00     0.074 A 
ATOM     54  C   UNL A   1      49.035  26.687  37.942  1.00  0.00     0.049 A 
ATOM     55  N   UNL A   1      50.388  24.465  36.591  1.00  0.00    -0.248 NA
ATOM     56  C   UNL A   1      48.631  23.161  36.406  1.00  0.00     0.031 C 
ATOM     57  C   UNL A   1      50.500  26.714  37.959  1.00  0.00     0.029 A 
ATOM     58  N   UNL A   1      48.702  27.664  38.874  1.00  0.00    -0.354 N 
ATOM     59  C   UNL A   1      50.768  23.307  35.903  1.00  0.00     0.074 A 
ATOM     60  C   UNL A   1      49.570  22.607  35.642  1.00  0.00     0.031 C 
ATOM     61  C   UNL A   1      50.925  27.331  39.063  1.00  0.00     0.029 A 
ATOM     62  C   UNL A   1      49.751  27.685  39.812  1.00  0.00     0.049 A 
ATOM     63  H   UNL A   1      47.895  28.228  38.877  1.00  0.00     0.167 HD
ATOM     64  C   UNL A   1      52.009  22.741  35.877  1.00  0.00     0.037 A 
ATOM     65  C   UNL A   1      49.498  27.347  41.100  1.00  0.00     0.037 A 
ATOM     66  C   UNL A   1      52.676  23.133  37.096  1.00  0.00     0.049 A 
ATOM     67  C   UNL A   1      50.182  26.049  41.469  1.00  0.00     0.074 A 
ATOM     68  C   UNL A   1      53.467  24.195  37.470  1.00  0.00     0.029 A 
ATOM     69  N   UNL A   1      52.187  22.568  38.266  1.00  0.00    -0.354 N 
ATOM     70  N   UNL A   1      50.637  25.163  40.612  1.00  0.00    -0.248 NA
ATOM     71  C   UNL A   1      50.494  25.702  42.848  1.00  0.00     0.031 C 
ATOM     72  C   UNL A   1      53.281  24.365  38.876  1.00  0.00     0.029 A 
ATOM     73  C   UNL A   1      52.438  23.367  39.360  1.00  0.00     0.049 A 
ATOM     74  H   UNL A   1      51.718  21.704  38.309  1.00  0.00     0.167 HD
ATOM     75  C   UNL A   1      51.281  24.155  41.293  1.00  0.00     0.074 A 
ATOM     76  C   UNL A   1      51.187  24.564  42.681  1.00  0.00     0.031 C 
ATOM     77  C   UNL A   1      51.873  23.074  40.686  1.00  0.00     0.037 A 
BRANCH  64  78
ATOM     78  C   UNL A   1      52.457  21.616  34.938  1.00  0.00     0.057 A 
ATOM     79  C   UNL A   1      52.509  20.274  35.363  1.00  0.00     0.134 A 
ATOM     80  C   UNL A   1      52.963  21.813  33.629  1.00  0.00     0.134 A 
ATOM     81  F   UNL A   1      52.140  19.932  36.606  1.00  0.00    -0.206 F 
ATOM     82  C   UNL A   1      52.966  19.219  34.545  1.00  0.00     0.040 A 
ATOM     83  C   UNL A   1      53.372  20.763  32.782  1.00  0.00     0.040 A 
ATOM     84  F   UNL A   1      53.120  23.043  33.117  1.00  0.00    -0.206 F 
ATOM     85  C   UNL A   1      53.377  19.456  33.240  1.00  0.00     0.006 A 
ENDBRANCH  64  78
BRANCH  65  86
ATOM     86  C   UNL A   1      48.207  27.962  41.544  1.00  0.00     0.057 A 
ATOM     87  C   UNL A   1      48.286  29.340  41.876  1.00  0.00     0.134 A 
ATOM     88  C   UNL A   1      46.948  27.481  41.183  1.00  0.00     0.134 A 
ATOM     89  F   UNL A   1      49.465  29.874  42.241  1.00  0.00    -0.206 F 
ATOM     90  C   UNL A   1      47.242  30.231  41.626  1.00  0.00     0.040 A 
ATOM     91  C   UNL A   1      45.858  28.361  41.024  1.00  0.00     0.040 A 
ATOM     92  F   UNL A   1      46.787  26.210  40.788  1.00  0.00    -0.206 F 
ATOM     93  C   UNL A   1      46.026  29.742  41.179  1.00  0.00     0.006 A 
ENDBRANCH  65  86
BRANCH  77  94
ATOM     94  C   UNL A   1      52.073  21.718  41.381  1.00  0.00     0.057 A 
ATOM     95  C   UNL A   1      51.063  20.746  41.532  1.00  0.00     0.134 A 
ATOM     96  C   UNL A   1      53.336  21.272  41.840  1.00  0.00     0.134 A 
ATOM     97  F   UNL A   1      49.869  20.859  40.941  1.00  0.00    -0.206 F 
ATOM     98  C   UNL A   1      51.238  19.542  42.232  1.00  0.00     0.040 A 
ATOM     99  C   UNL A   1      53.542  20.038  42.481  1.00  0.00     0.040 A 
ATOM    100  F   UNL A   1      54.460  21.967  41.629  1.00  0.00    -0.206 F 
ATOM    101  C   UNL A   1      52.481  19.186  42.722  1.00  0.00     0.006 A 
ENDBRANCH  77  94
ENDBRANCH  51  52
ENDBRANCH  44  46
ENDBRANCH  43  44
ENDBRANCH  42  43
ENDBRANCH  41  42
ENDBRANCH  40  41
ENDBRANCH  39  40
ENDBRANCH   1  39
TORSDOF 23
ENDMDL
MODEL 3
REMARK VINA RESULT:      -7.4      4.913     10.621
REMARK SMILES Cc1cccc(S(=O)(=O)Nc2cc(C(=O)OCCOCCOCCOC(=O)c3ccc(-c4c5nc(c(-c6c(F)cccc6F)c6ccc([nH]6)c(-c6c(F)cccc6F)c6nc(c(-c7c(F)cccc7F)c7ccc4[nH]7)C=C6)C=C5)cc3)ccc2N2CCC[C@H](C[NH+]3CCCC3)C2)c1
REMARK SMILES IDX 20 1 19 2 18 3 17 4 16 5 14 6 15 7 13 8 11 9 12 10 84 11
REMARK SMILES IDX 83 12 82 13 10 14 7 16 8 17 9 18 6 19 1 20 2 21 3 22 97 23
REMARK SMILES IDX 4 24 5 25 85 26 86 27 96 28 87 29 89 30 88 31 90 32 91 33
REMARK SMILES IDX 92 34 95 35 93 37 94 38 21 39 22 40 23 41 24 42 25 43 26 44
REMARK SMILES IDX 27 45 28 46 29 47 81 48 30 49 80 50 31 51 32 52 33 53 74 54
REMARK SMILES IDX 34 55 79 56 73 57 75 58 35 59 78 60 72 61 71 62 36 64 62 65
REMARK SMILES IDX 45 66 61 67 46 68 49 69 60 70 76 71 47 72 48 73 59 75 77 76
REMARK SMILES IDX 50 77 37 78 38 79 43 80 39 81 40 82 42 83 44 84 41 85 63 86
REMARK SMILES IDX 64 87 69 88 65 89 66 90 68 91 70 92 67 93 51 94 52 95 57 96
REMARK SMILES IDX 53 97 54 98 56 99 58 100 55 101
REMARK H PARENT 10 15 91 36 75 63 49 74
REMARK Flexibility Score: inf
ROOT
ATOM      1  C   UNL A   1      52.736  31.895  24.979  1.00  0.00     0.188 C 
ENDROOT
BRANCH   1   2
ATOM      2  O   UNL A   1      53.217  31.929  23.641  1.00  0.00    -0.376 OA
BRANCH   2   3
ATOM      3  C   UNL A   1      52.438  31.321  22.585  1.00  0.00     0.202 C 
BRANCH   3   4
ATOM      4  C   UNL A   1      52.027  29.805  22.679  1.00  0.00     0.261 C 
BRANCH   4   5
ATOM      5  O   UNL A   1      50.826  29.102  22.061  1.00  0.00    -0.460 OA
BRANCH   5   6
ATOM      6  C   UNL A   1      50.429  27.830  22.325  1.00  0.00     0.338 C 
ATOM      7  O   UNL A   1      50.688  27.020  21.443  1.00  0.00    -0.246 OA
BRANCH   6   8
ATOM      8  C   UNL A   1      49.475  27.404  23.740  1.00  0.00     0.062 A 
ATOM      9  C   UNL A   1      49.050  26.608  26.038  1.00  0.00     0.073 A 
ATOM     10  C   UNL A   1      49.969  27.038  24.967  1.00  0.00     0.044 A 
ATOM     11  C   UNL A   1      47.654  26.296  25.930  1.00  0.00     0.061 A 
ATOM     12  C   UNL A   1      47.151  26.638  24.721  1.00  0.00     0.029 A 
ATOM     13  C   UNL A   1      48.017  27.231  23.777  1.00  0.00     0.018 A 
BRANCH   9  14
ATOM     14  N   UNL A   1      49.502  26.721  27.361  1.00  0.00    -0.277 N 
ATOM     15  H   UNL A   1      49.133  27.407  27.963  1.00  0.00     0.180 HD
BRANCH  14  16
ATOM     16  S   UNL A   1      50.686  25.658  27.896  1.00  0.00     0.261 S 
ATOM     17  O   UNL A   1      50.166  24.337  27.599  1.00  0.00    -0.201 OA
ATOM     18  O   UNL A   1      50.947  26.065  29.261  1.00  0.00    -0.201 OA
BRANCH  16  19
ATOM     19  C   UNL A   1      52.281  25.751  27.045  1.00  0.00     0.088 A 
ATOM     20  C   UNL A   1      55.589  27.667  26.619  1.00  0.00     0.044 C 
ATOM     21  C   UNL A   1      54.538  26.584  26.516  1.00  0.00    -0.050 A 
ATOM     22  C   UNL A   1      54.642  25.643  25.488  1.00  0.00     0.003 A 
ATOM     23  C   UNL A   1      53.368  26.597  27.318  1.00  0.00     0.025 A 
ATOM     24  C   UNL A   1      53.578  24.785  25.217  1.00  0.00     0.002 A 
ATOM     25  C   UNL A   1      52.406  24.854  25.974  1.00  0.00     0.022 A 
ENDBRANCH  16  19
ENDBRANCH  14  16
ENDBRANCH   9  14
BRANCH  11  26
ATOM     26  N   UNL A   1      46.741  25.877  26.908  1.00  0.00    -0.369 N 
ATOM     27  C   UNL A   1      46.858  24.469  27.347  1.00  0.00     0.116 C 
ATOM     28  C   UNL A   1      45.955  26.774  27.770  1.00  0.00     0.126 C 
ATOM     29  C   UNL A   1      45.534  23.895  27.881  1.00  0.00     0.022 C 
ATOM     30  C   UNL A   1      44.576  26.200  28.186  1.00  0.00     0.064 C 
ATOM     31  C   UNL A   1      44.826  24.842  28.843  1.00  0.00     0.013 C 
BRANCH  30  32
ATOM     32  C   UNL A   1      43.536  26.186  27.026  1.00  0.00     0.267 C 
BRANCH  32  33
ATOM     33  N   UNL A   1      42.179  26.722  27.232  1.00  0.00    -0.335 N 
ATOM     34  C   UNL A   1      41.551  26.403  28.513  1.00  0.00     0.262 C 
ATOM     35  C   UNL A   1      41.178  26.479  26.195  1.00  0.00     0.262 C 
ATOM     36  H   UNL A   1      42.434  27.709  27.195  1.00  0.00     0.348 HD
ATOM     37  C   UNL A   1      40.584  25.274  28.214  1.00  0.00     0.067 C 
ATOM     38  C   UNL A   1      40.118  25.556  26.797  1.00  0.00     0.067 C 
ENDBRANCH  32  33
ENDBRANCH  30  32
ENDBRANCH  11  26
ENDBRANCH   6   8
ENDBRANCH   5   6
ENDBRANCH   4   5
ENDBRANCH   3   4
ENDBRANCH   2   3
ENDBRANCH   1   2
BRANCH   1  39
ATOM     39  C   UNL A   1      51.712  32.903  25.482  1.00  0.00     0.188 C 
BRANCH  39  40
ATOM     40  O   UNL A   1      50.492  32.238  25.736  1.00  0.00    -0.376 OA
BRANCH  40  41
ATOM     41  C   UNL A   1      50.461  31.462  26.920  1.00  0.00     0.202 C 
BRANCH  41  42
ATOM     42  C   UNL A   1      49.101  30.788  27.179  1.00  0.00     0.261 C 
BRANCH  42  43
ATOM     43  O   UNL A   1      48.130  31.752  27.644  1.00  0.00    -0.460 OA
BRANCH  43  44
ATOM     44  C   UNL A   1      47.163  31.337  28.517  1.00  0.00     0.338 C 
ATOM     45  O   UNL A   1      47.253  30.378  29.286  1.00  0.00    -0.246 OA
BRANCH  44  46
ATOM     46  C   UNL A   1      45.868  32.001  28.173  1.00  0.00     0.060 A 
ATOM     47  C   UNL A   1      45.257  32.978  28.959  1.00  0.00     0.016 A 
ATOM     48  C   UNL A   1      45.019  31.275  27.427  1.00  0.00     0.016 A 
ATOM     49  C   UNL A   1      43.856  32.890  29.328  1.00  0.00     0.010 A 
ATOM     50  C   UNL A   1      43.727  31.140  27.951  1.00  0.00     0.010 A 
ATOM     51  C   UNL A   1      43.042  31.805  29.009  1.00  0.00    -0.014 A 
BRANCH  51  52
ATOM     52  C   UNL A   1      41.549  31.451  29.816  1.00  0.00     0.031 A 
ATOM     53  C   UNL A   1      40.107  32.249  30.185  1.00  0.00     0.074 A 
ATOM     54  C   UNL A   1      41.428  30.166  30.239  1.00  0.00     0.049 A 
ATOM     55  N   UNL A   1      38.927  31.689  30.393  1.00  0.00    -0.248 NA
ATOM     56  C   UNL A   1      39.834  33.688  30.331  1.00  0.00     0.031 C 
ATOM     57  C   UNL A   1      40.233  29.412  30.630  1.00  0.00     0.029 A 
ATOM     58  N   UNL A   1      42.457  29.278  30.532  1.00  0.00    -0.354 N 
ATOM     59  C   UNL A   1      37.901  32.639  30.400  1.00  0.00     0.074 A 
ATOM     60  C   UNL A   1      38.527  33.881  30.160  1.00  0.00     0.031 C 
ATOM     61  C   UNL A   1      40.582  28.401  31.428  1.00  0.00     0.029 A 
ATOM     62  C   UNL A   1      42.003  28.494  31.610  1.00  0.00     0.049 A 
ATOM     63  H   UNL A   1      43.327  29.210  30.077  1.00  0.00     0.167 HD
ATOM     64  C   UNL A   1      36.660  32.500  30.951  1.00  0.00     0.037 A 
ATOM     65  C   UNL A   1      42.651  28.561  32.799  1.00  0.00     0.037 A 
ATOM     66  C   UNL A   1      36.777  31.524  32.009  1.00  0.00     0.049 A 
ATOM     67  C   UNL A   1      41.780  29.200  33.859  1.00  0.00     0.074 A 
ATOM     68  C   UNL A   1      36.666  30.154  32.083  1.00  0.00     0.029 A 
ATOM     69  N   UNL A   1      37.487  31.927  33.133  1.00  0.00    -0.354 N 
ATOM     70  N   UNL A   1      40.715  29.933  33.624  1.00  0.00    -0.248 NA
ATOM     71  C   UNL A   1      41.995  28.971  35.281  1.00  0.00     0.031 C 
ATOM     72  C   UNL A   1      37.490  29.737  33.172  1.00  0.00     0.029 A 
ATOM     73  C   UNL A   1      38.039  30.854  33.797  1.00  0.00     0.049 A 
ATOM     74  H   UNL A   1      37.584  32.864  33.419  1.00  0.00     0.167 HD
ATOM     75  C   UNL A   1      40.116  30.268  34.816  1.00  0.00     0.074 A 
ATOM     76  C   UNL A   1      40.943  29.612  35.812  1.00  0.00     0.031 C 
ATOM     77  C   UNL A   1      38.977  31.029  34.917  1.00  0.00     0.037 A 
BRANCH  64  78
ATOM     78  C   UNL A   1      35.480  33.455  30.746  1.00  0.00     0.057 A 
ATOM     79  C   UNL A   1      34.812  33.550  29.509  1.00  0.00     0.134 A 
ATOM     80  C   UNL A   1      35.030  34.396  31.705  1.00  0.00     0.134 A 
ATOM     81  F   UNL A   1      35.174  32.782  28.471  1.00  0.00    -0.206 F 
ATOM     82  C   UNL A   1      33.757  34.455  29.267  1.00  0.00     0.040 A 
ATOM     83  C   UNL A   1      33.942  35.268  31.494  1.00  0.00     0.040 A 
ATOM     84  F   UNL A   1      35.647  34.543  32.885  1.00  0.00    -0.206 F 
ATOM     85  C   UNL A   1      33.300  35.303  30.266  1.00  0.00     0.006 A 
ENDBRANCH  64  78
BRANCH  65  86
ATOM     86  C   UNL A   1      44.130  28.576  32.574  1.00  0.00     0.057 A 
ATOM     87  C   UNL A   1      44.768  29.807  32.884  1.00  0.00     0.134 A 
ATOM     88  C   UNL A   1      44.936  27.437  32.595  1.00  0.00     0.134 A 
ATOM     89  F   UNL A   1      44.057  30.949  32.877  1.00  0.00    -0.206 F 
ATOM     90  C   UNL A   1      46.054  29.869  33.420  1.00  0.00     0.040 A 
ATOM     91  C   UNL A   1      46.271  27.506  33.041  1.00  0.00     0.040 A 
ATOM     92  F   UNL A   1      44.410  26.222  32.383  1.00  0.00    -0.206 F 
ATOM     93  C   UNL A   1      46.805  28.709  33.518  1.00  0.00     0.006 A 
ENDBRANCH  65  86
BRANCH  77  94
ATOM     94  C   UNL A   1      38.627  31.870  36.156  1.00  0.00     0.057 A 
ATOM     95  C   UNL A   1      37.873  31.399  37.250  1.00  0.00     0.134 A 
ATOM     96  C   UNL A   1      39.133  33.177  36.360  1.00  0.00     0.134 A 
ATOM     97  F   UNL A   1      37.522  30.115  37.374  1.00  0.00    -0.206 F 
ATOM     98  C   UNL A   1      37.499  32.198  38.341  1.00  0.00     0.040 A 
ATOM     99  C   UNL A   1      38.824  33.966  37.481  1.00  0.00     0.040 A 
ATOM    100  F   UNL A   1      40.015  33.742  35.527  1.00  0.00    -0.206 F 
ATOM    101  C   UNL A   1      37.965  33.495  38.457  1.00  0.00     0.006 A 
ENDBRANCH  77  94
ENDBRANCH  51  52
ENDBRANCH  44  46
ENDBRANCH  43  44
ENDBRANCH  42  43
ENDBRANCH  41  42
ENDBRANCH  40  41
ENDBRANCH  39  40
ENDBRANCH   1  39
TORSDOF 23
ENDMDL
