MODEL 1
REMARK VINA RESULT:     -10.9      0.000      0.000
REMARK SMILES Cc1ccccc1[C@H](C(=O)NC[C@H]1CC[C@@H](C(=O)OCCOCCOCCOC(=O)c2ccc(-c3c4nc(c(-c5c(F)cccc5F)c5ccc([nH]5)c(-c5c(F)cccc5F)c5nc(c(-c6c(F)cccc6F)c6ccc3[nH]6)C=C5)C=C4)cc2)CC1)[NH+](C)C
REMARK SMILES IDX 23 1 22 2 21 3 20 4 19 5 17 6 18 7 16 8 13 9 14 10 86 11
REMARK SMILES IDX 15 12 85 13 12 14 11 15 9 16 10 17 8 19 7 20 1 21 2 22 3 23
REMARK SMILES IDX 4 24 6 25 5 26 87 27 88 28 89 29 24 31 25 32 26 33 27 34
REMARK SMILES IDX 28 35 29 36 30 37 31 38 32 39 84 40 33 41 83 42 34 43 35 44
REMARK SMILES IDX 36 45 77 46 37 47 82 48 76 49 78 50 38 51 81 52 75 53 74 54
REMARK SMILES IDX 39 56 65 57 48 58 64 59 49 60 52 61 63 62 79 63 50 64 51 65
REMARK SMILES IDX 62 67 80 68 53 69 40 70 41 71 46 72 42 73 43 74 45 75 47 76
REMARK SMILES IDX 44 77 66 78 67 79 72 80 68 81 69 82 71 83 73 84 70 85 54 86
REMARK SMILES IDX 55 87 60 88 56 89 57 90 59 91 61 92 58 93
REMARK H PARENT 11 18 87 30 78 55 52 66
REMARK Flexibility Score: inf
ROOT
ATOM      1  C   UNL A   1      33.130  27.466  25.299  1.00  0.00     0.188 C 
ENDROOT
BRANCH   1   2
ATOM      2  O   UNL A   1      34.058  28.126  26.128  1.00  0.00    -0.376 OA
BRANCH   2   3
ATOM      3  C   UNL A   1      33.522  28.920  27.189  1.00  0.00     0.202 C 
BRANCH   3   4
ATOM      4  C   UNL A   1      32.861  30.319  26.878  1.00  0.00     0.261 C 
BRANCH   4   5
ATOM      5  O   UNL A   1      33.432  31.799  27.460  1.00  0.00    -0.463 OA
BRANCH   5   6
ATOM      6  C   UNL A   1      33.429  33.033  28.139  1.00  0.00     0.309 C 
ATOM      7  O   UNL A   1      32.525  33.796  27.761  1.00  0.00    -0.252 OA
BRANCH   6   8
ATOM      8  C   UNL A   1      34.400  33.727  29.401  1.00  0.00     0.099 C 
ATOM      9  C   UNL A   1      35.767  33.494  32.359  1.00  0.00     0.008 C 
ATOM     10  C   UNL A   1      36.533  33.225  31.026  1.00  0.00     0.006 C 
ATOM     11  C   UNL A   1      34.376  34.074  32.096  1.00  0.00     0.006 C 
ATOM     12  C   UNL A   1      35.810  33.103  29.629  1.00  0.00     0.015 C 
ATOM     13  C   UNL A   1      34.111  34.636  30.654  1.00  0.00     0.015 C 
BRANCH   9  14
ATOM     14  C   UNL A   1      35.972  32.466  33.622  1.00  0.00     0.119 C 
BRANCH  14  15
ATOM     15  N   UNL A   1      36.927  31.322  33.494  1.00  0.00    -0.350 N 
ATOM     16  C   UNL A   1      38.237  30.976  33.731  1.00  0.00     0.283 C 
ATOM     17  O   UNL A   1      38.313  29.743  33.944  1.00  0.00    -0.268 OA
ATOM     18  H   UNL A   1      36.454  30.550  33.107  1.00  0.00     0.163 HD
BRANCH  16  19
ATOM     19  C   UNL A   1      39.642  31.777  33.744  1.00  0.00     0.305 C 
BRANCH  19  20
ATOM     20  C   UNL A   1      40.515  31.881  32.464  1.00  0.00     0.022 A 
ATOM     21  C   UNL A   1      42.726  32.084  33.777  1.00  0.00     0.045 C 
ATOM     22  C   UNL A   1      41.932  31.948  32.502  1.00  0.00    -0.041 A 
ATOM     23  C   UNL A   1      42.685  31.889  31.307  1.00  0.00     0.004 A 
ATOM     24  C   UNL A   1      42.064  31.906  30.068  1.00  0.00     0.000 A 
ATOM     25  C   UNL A   1      39.929  31.990  31.186  1.00  0.00     0.011 A 
ATOM     26  C   UNL A   1      40.686  32.005  30.007  1.00  0.00     0.001 A 
ENDBRANCH  19  20
BRANCH  19  27
ATOM     27  N   UNL A   1      39.778  32.833  34.785  1.00  0.00    -0.326 N 
ATOM     28  C   UNL A   1      39.367  34.177  34.375  1.00  0.00     0.333 C 
ATOM     29  C   UNL A   1      39.389  32.496  36.131  1.00  0.00     0.333 C 
ATOM     30  H   UNL A   1      40.794  32.872  34.857  1.00  0.00     0.348 HD
ENDBRANCH  19  27
ENDBRANCH  16  19
ENDBRANCH  14  15
ENDBRANCH   9  14
ENDBRANCH   6   8
ENDBRANCH   5   6
ENDBRANCH   4   5
ENDBRANCH   3   4
ENDBRANCH   2   3
ENDBRANCH   1   2
BRANCH   1  31
ATOM     31  C   UNL A   1      32.414  26.346  26.056  1.00  0.00     0.188 C 
BRANCH  31  32
ATOM     32  O   UNL A   1      31.768  25.454  25.151  1.00  0.00    -0.376 OA
BRANCH  32  33
ATOM     33  C   UNL A   1      31.072  24.373  25.764  1.00  0.00     0.202 C 
BRANCH  33  34
ATOM     34  C   UNL A   1      31.366  23.067  25.018  1.00  0.00     0.261 C 
BRANCH  34  35
ATOM     35  O   UNL A   1      32.018  22.163  25.934  1.00  0.00    -0.460 OA
BRANCH  35  36
ATOM     36  C   UNL A   1      33.205  21.685  25.460  1.00  0.00     0.338 C 
ATOM     37  O   UNL A   1      33.438  20.552  25.157  1.00  0.00    -0.246 OA
BRANCH  36  38
ATOM     38  C   UNL A   1      34.260  22.723  25.706  1.00  0.00     0.060 A 
ATOM     39  C   UNL A   1      34.992  23.107  24.628  1.00  0.00     0.016 A 
ATOM     40  C   UNL A   1      34.747  23.110  26.943  1.00  0.00     0.016 A 
ATOM     41  C   UNL A   1      36.275  23.674  24.849  1.00  0.00     0.010 A 
ATOM     42  C   UNL A   1      36.062  23.664  27.099  1.00  0.00     0.010 A 
ATOM     43  C   UNL A   1      36.971  23.885  26.075  1.00  0.00    -0.014 A 
BRANCH  43  44
ATOM     44  C   UNL A   1      38.525  24.129  26.460  1.00  0.00     0.031 A 
ATOM     45  C   UNL A   1      39.521  22.992  26.577  1.00  0.00     0.074 A 
ATOM     46  C   UNL A   1      39.278  25.262  26.690  1.00  0.00     0.049 A 
ATOM     47  N   UNL A   1      40.640  22.954  27.256  1.00  0.00    -0.248 NA
ATOM     48  C   UNL A   1      39.234  21.729  25.981  1.00  0.00     0.031 C 
ATOM     49  C   UNL A   1      40.681  25.469  26.266  1.00  0.00     0.029 A 
ATOM     50  N   UNL A   1      39.050  26.444  27.375  1.00  0.00    -0.354 N 
ATOM     51  C   UNL A   1      41.309  21.793  26.911  1.00  0.00     0.074 A 
ATOM     52  C   UNL A   1      40.309  20.996  26.267  1.00  0.00     0.031 C 
ATOM     53  C   UNL A   1      41.145  26.656  26.687  1.00  0.00     0.029 A 
ATOM     54  C   UNL A   1      40.140  27.286  27.519  1.00  0.00     0.049 A 
ATOM     55  H   UNL A   1      38.165  26.673  27.738  1.00  0.00     0.167 HD
ATOM     56  C   UNL A   1      42.672  21.667  26.961  1.00  0.00     0.037 A 
ATOM     57  C   UNL A   1      40.304  28.229  28.491  1.00  0.00     0.037 A 
ATOM     58  C   UNL A   1      43.319  22.890  27.428  1.00  0.00     0.049 A 
ATOM     59  C   UNL A   1      41.485  27.847  29.332  1.00  0.00     0.074 A 
ATOM     60  C   UNL A   1      44.015  23.881  26.755  1.00  0.00     0.029 A 
ATOM     61  N   UNL A   1      43.107  23.374  28.716  1.00  0.00    -0.354 N 
ATOM     62  N   UNL A   1      42.240  26.830  29.042  1.00  0.00    -0.248 NA
ATOM     63  C   UNL A   1      41.858  28.471  30.595  1.00  0.00     0.031 C 
ATOM     64  C   UNL A   1      44.261  24.944  27.650  1.00  0.00     0.029 A 
ATOM     65  C   UNL A   1      43.705  24.614  28.872  1.00  0.00     0.049 A 
ATOM     66  H   UNL A   1      42.603  22.901  29.417  1.00  0.00     0.167 HD
ATOM     67  C   UNL A   1      43.018  26.523  30.114  1.00  0.00     0.074 A 
ATOM     68  C   UNL A   1      42.820  27.634  31.023  1.00  0.00     0.031 C 
ATOM     69  C   UNL A   1      43.677  25.330  30.146  1.00  0.00     0.037 A 
BRANCH  56  70
ATOM     70  C   UNL A   1      43.413  20.572  26.174  1.00  0.00     0.057 A 
ATOM     71  C   UNL A   1      43.354  19.214  26.552  1.00  0.00     0.134 A 
ATOM     72  C   UNL A   1      44.280  20.808  25.091  1.00  0.00     0.134 A 
ATOM     73  F   UNL A   1      42.432  18.756  27.405  1.00  0.00    -0.206 F 
ATOM     74  C   UNL A   1      44.232  18.237  26.057  1.00  0.00     0.040 A 
ATOM     75  C   UNL A   1      45.208  19.859  24.625  1.00  0.00     0.040 A 
ATOM     76  F   UNL A   1      44.237  21.959  24.405  1.00  0.00    -0.206 F 
ATOM     77  C   UNL A   1      45.210  18.572  25.135  1.00  0.00     0.006 A 
ENDBRANCH  56  70
BRANCH  57  78
ATOM     78  C   UNL A   1      39.098  28.948  29.000  1.00  0.00     0.057 A 
ATOM     79  C   UNL A   1      38.302  29.684  28.104  1.00  0.00     0.134 A 
ATOM     80  C   UNL A   1      38.532  28.680  30.247  1.00  0.00     0.134 A 
ATOM     81  F   UNL A   1      38.769  29.989  26.883  1.00  0.00    -0.206 F 
ATOM     82  C   UNL A   1      36.949  29.968  28.365  1.00  0.00     0.040 A 
ATOM     83  C   UNL A   1      37.177  28.932  30.515  1.00  0.00     0.040 A 
ATOM     84  F   UNL A   1      39.269  28.104  31.203  1.00  0.00    -0.206 F 
ATOM     85  C   UNL A   1      36.368  29.536  29.554  1.00  0.00     0.006 A 
ENDBRANCH  57  78
BRANCH  69  86
ATOM     86  C   UNL A   1      44.417  24.782  31.328  1.00  0.00     0.057 A 
ATOM     87  C   UNL A   1      44.067  23.610  32.010  1.00  0.00     0.134 A 
ATOM     88  C   UNL A   1      45.606  25.404  31.764  1.00  0.00     0.134 A 
ATOM     89  F   UNL A   1      43.035  22.849  31.624  1.00  0.00    -0.206 F 
ATOM     90  C   UNL A   1      44.803  23.132  33.101  1.00  0.00     0.040 A 
ATOM     91  C   UNL A   1      46.378  24.906  32.814  1.00  0.00     0.040 A 
ATOM     92  F   UNL A   1      46.078  26.516  31.178  1.00  0.00    -0.206 F 
ATOM     93  C   UNL A   1      45.965  23.777  33.503  1.00  0.00     0.006 A 
ENDBRANCH  69  86
ENDBRANCH  43  44
ENDBRANCH  36  38
ENDBRANCH  35  36
ENDBRANCH  34  35
ENDBRANCH  33  34
ENDBRANCH  32  33
ENDBRANCH  31  32
ENDBRANCH   1  31
TORSDOF 22
ENDMDL
MODEL 2
REMARK VINA RESULT:     -10.9      1.671      2.744
REMARK SMILES Cc1ccccc1[C@H](C(=O)NC[C@H]1CC[C@@H](C(=O)OCCOCCOCCOC(=O)c2ccc(-c3c4nc(c(-c5c(F)cccc5F)c5ccc([nH]5)c(-c5c(F)cccc5F)c5nc(c(-c6c(F)cccc6F)c6ccc3[nH]6)C=C5)C=C4)cc2)CC1)[NH+](C)C
REMARK SMILES IDX 23 1 22 2 21 3 20 4 19 5 17 6 18 7 16 8 13 9 14 10 86 11
REMARK SMILES IDX 15 12 85 13 12 14 11 15 9 16 10 17 8 19 7 20 1 21 2 22 3 23
REMARK SMILES IDX 4 24 6 25 5 26 87 27 88 28 89 29 24 31 25 32 26 33 27 34
REMARK SMILES IDX 28 35 29 36 30 37 31 38 32 39 84 40 33 41 83 42 34 43 35 44
REMARK SMILES IDX 36 45 77 46 37 47 82 48 76 49 78 50 38 51 81 52 75 53 74 54
REMARK SMILES IDX 39 56 65 57 48 58 64 59 49 60 52 61 63 62 79 63 50 64 51 65
REMARK SMILES IDX 62 67 80 68 53 69 40 70 41 71 46 72 42 73 43 74 45 75 47 76
REMARK SMILES IDX 44 77 66 78 67 79 72 80 68 81 69 82 71 83 73 84 70 85 54 86
REMARK SMILES IDX 55 87 60 88 56 89 57 90 59 91 61 92 58 93
REMARK H PARENT 11 18 87 30 78 55 52 66
REMARK Flexibility Score: inf
ROOT
ATOM      1  C   UNL A   1      32.236  29.666  25.759  1.00  0.00     0.188 C 
ENDROOT
BRANCH   1   2
ATOM      2  O   UNL A   1      33.580  29.894  26.114  1.00  0.00    -0.376 OA
BRANCH   2   3
ATOM      3  C   UNL A   1      33.825  30.348  27.446  1.00  0.00     0.202 C 
BRANCH   3   4
ATOM      4  C   UNL A   1      34.011  31.888  27.740  1.00  0.00     0.261 C 
BRANCH   4   5
ATOM      5  O   UNL A   1      34.286  32.545  29.272  1.00  0.00    -0.463 OA
BRANCH   5   6
ATOM      6  C   UNL A   1      34.882  33.334  30.276  1.00  0.00     0.309 C 
ATOM      7  O   UNL A   1      34.069  33.746  31.119  1.00  0.00    -0.252 OA
BRANCH   6   8
ATOM      8  C   UNL A   1      36.506  33.850  30.611  1.00  0.00     0.099 C 
ATOM      9  C   UNL A   1      39.711  33.219  30.669  1.00  0.00     0.008 C 
ATOM     10  C   UNL A   1      39.003  34.008  29.523  1.00  0.00     0.006 C 
ATOM     11  C   UNL A   1      38.762  32.966  31.841  1.00  0.00     0.006 C 
ATOM     12  C   UNL A   1      37.435  34.096  29.383  1.00  0.00     0.015 C 
ATOM     13  C   UNL A   1      37.445  33.819  31.875  1.00  0.00     0.015 C 
BRANCH   9  14
ATOM     14  C   UNL A   1      40.820  32.072  30.285  1.00  0.00     0.119 C 
BRANCH  14  15
ATOM     15  N   UNL A   1      42.179  32.122  30.908  1.00  0.00    -0.350 N 
ATOM     16  C   UNL A   1      42.905  31.612  31.960  1.00  0.00     0.283 C 
ATOM     17  O   UNL A   1      44.119  31.574  31.651  1.00  0.00    -0.268 OA
ATOM     18  H   UNL A   1      42.751  32.728  30.385  1.00  0.00     0.163 HD
BRANCH  16  19
ATOM     19  C   UNL A   1      42.547  31.119  33.458  1.00  0.00     0.305 C 
BRANCH  19  20
ATOM     20  C   UNL A   1      42.665  29.623  33.856  1.00  0.00     0.022 A 
ATOM     21  C   UNL A   1      40.143  29.370  34.332  1.00  0.00     0.045 C 
ATOM     22  C   UNL A   1      41.539  28.822  34.184  1.00  0.00    -0.041 A 
ATOM     23  C   UNL A   1      41.684  27.431  34.391  1.00  0.00     0.004 A 
ATOM     24  C   UNL A   1      42.937  26.838  34.420  1.00  0.00     0.000 A 
ATOM     25  C   UNL A   1      43.922  28.997  33.985  1.00  0.00     0.011 A 
ATOM     26  C   UNL A   1      44.060  27.630  34.265  1.00  0.00     0.001 A 
ENDBRANCH  19  20
BRANCH  19  27
ATOM     27  N   UNL A   1      42.661  32.150  34.526  1.00  0.00    -0.326 N 
ATOM     28  C   UNL A   1      44.025  32.471  34.948  1.00  0.00     0.333 C 
ATOM     29  C   UNL A   1      41.798  33.301  34.435  1.00  0.00     0.333 C 
ATOM     30  H   UNL A   1      42.252  31.634  35.305  1.00  0.00     0.348 HD
ENDBRANCH  19  27
ENDBRANCH  16  19
ENDBRANCH  14  15
ENDBRANCH   9  14
ENDBRANCH   6   8
ENDBRANCH   5   6
ENDBRANCH   4   5
ENDBRANCH   3   4
ENDBRANCH   2   3
ENDBRANCH   1   2
BRANCH   1  31
ATOM     31  C   UNL A   1      32.137  28.869  24.458  1.00  0.00     0.188 C 
BRANCH  31  32
ATOM     32  O   UNL A   1      32.903  27.670  24.537  1.00  0.00    -0.376 OA
BRANCH  32  33
ATOM     33  C   UNL A   1      33.124  27.011  23.294  1.00  0.00     0.202 C 
BRANCH  33  34
ATOM     34  C   UNL A   1      32.405  25.658  23.280  1.00  0.00     0.261 C 
BRANCH  34  35
ATOM     35  O   UNL A   1      33.404  24.618  23.223  1.00  0.00    -0.460 OA
BRANCH  35  36
ATOM     36  C   UNL A   1      33.096  23.537  23.996  1.00  0.00     0.338 C 
ATOM     37  O   UNL A   1      31.995  23.159  24.274  1.00  0.00    -0.246 OA
BRANCH  36  38
ATOM     38  C   UNL A   1      34.338  23.108  24.719  1.00  0.00     0.060 A 
ATOM     39  C   UNL A   1      34.462  23.521  26.008  1.00  0.00     0.016 A 
ATOM     40  C   UNL A   1      35.481  22.588  24.133  1.00  0.00     0.016 A 
ATOM     41  C   UNL A   1      35.761  23.588  26.575  1.00  0.00     0.010 A 
ATOM     42  C   UNL A   1      36.770  22.705  24.756  1.00  0.00     0.010 A 
ATOM     43  C   UNL A   1      37.025  23.314  25.975  1.00  0.00    -0.014 A 
BRANCH  43  44
ATOM     44  C   UNL A   1      38.552  23.713  26.335  1.00  0.00     0.031 A 
ATOM     45  C   UNL A   1      39.659  22.683  26.441  1.00  0.00     0.074 A 
ATOM     46  C   UNL A   1      39.192  24.917  26.552  1.00  0.00     0.049 A 
ATOM     47  N   UNL A   1      40.785  22.759  27.103  1.00  0.00    -0.248 NA
ATOM     48  C   UNL A   1      39.491  21.394  25.852  1.00  0.00     0.031 C 
ATOM     49  C   UNL A   1      40.561  25.262  26.106  1.00  0.00     0.029 A 
ATOM     50  N   UNL A   1      38.857  26.073  27.237  1.00  0.00    -0.354 N 
ATOM     51  C   UNL A   1      41.562  21.669  26.752  1.00  0.00     0.074 A 
ATOM     52  C   UNL A   1      40.638  20.774  26.124  1.00  0.00     0.031 C 
ATOM     53  C   UNL A   1      40.910  26.491  26.518  1.00  0.00     0.029 A 
ATOM     54  C   UNL A   1      39.859  27.021  27.363  1.00  0.00     0.049 A 
ATOM     55  H   UNL A   1      37.958  26.213  27.612  1.00  0.00     0.167 HD
ATOM     56  C   UNL A   1      42.931  21.681  26.781  1.00  0.00     0.037 A 
ATOM     57  C   UNL A   1      39.942  27.979  28.330  1.00  0.00     0.037 A 
ATOM     58  C   UNL A   1      43.459  22.964  27.236  1.00  0.00     0.049 A 
ATOM     59  C   UNL A   1      41.167  27.720  29.154  1.00  0.00     0.074 A 
ATOM     60  C   UNL A   1      44.044  24.017  26.550  1.00  0.00     0.029 A 
ATOM     61  N   UNL A   1      43.219  23.429  28.526  1.00  0.00    -0.354 N 
ATOM     62  N   UNL A   1      42.016  26.783  28.856  1.00  0.00    -0.248 NA
ATOM     63  C   UNL A   1      41.494  28.384  30.410  1.00  0.00     0.031 C 
ATOM     64  C   UNL A   1      44.195  25.102  27.438  1.00  0.00     0.029 A 
ATOM     65  C   UNL A   1      43.692  24.723  28.670  1.00  0.00     0.049 A 
ATOM     66  H   UNL A   1      42.776  22.911  29.235  1.00  0.00     0.167 HD
ATOM     67  C   UNL A   1      42.836  26.560  29.916  1.00  0.00     0.074 A 
ATOM     68  C   UNL A   1      42.541  27.648  30.826  1.00  0.00     0.031 C 
ATOM     69  C   UNL A   1      43.611  25.438  29.942  1.00  0.00     0.037 A 
BRANCH  56  70
ATOM     70  C   UNL A   1      43.767  20.662  25.986  1.00  0.00     0.057 A 
ATOM     71  C   UNL A   1      43.768  19.288  26.305  1.00  0.00     0.134 A 
ATOM     72  C   UNL A   1      44.666  20.991  24.955  1.00  0.00     0.134 A 
ATOM     73  F   UNL A   1      42.836  18.744  27.096  1.00  0.00    -0.206 F 
ATOM     74  C   UNL A   1      44.720  18.382  25.813  1.00  0.00     0.040 A 
ATOM     75  C   UNL A   1      45.666  20.115  24.494  1.00  0.00     0.040 A 
ATOM     76  F   UNL A   1      44.590  22.166  24.314  1.00  0.00    -0.206 F 
ATOM     77  C   UNL A   1      45.718  18.808  24.952  1.00  0.00     0.006 A 
ENDBRANCH  56  70
BRANCH  57  78
ATOM     78  C   UNL A   1      38.677  28.575  28.855  1.00  0.00     0.057 A 
ATOM     79  C   UNL A   1      38.193  28.173  30.113  1.00  0.00     0.134 A 
ATOM     80  C   UNL A   1      38.112  29.734  28.321  1.00  0.00     0.134 A 
ATOM     81  F   UNL A   1      38.679  27.068  30.699  1.00  0.00    -0.206 F 
ATOM     82  C   UNL A   1      37.337  28.985  30.879  1.00  0.00     0.040 A 
ATOM     83  C   UNL A   1      37.279  30.569  29.082  1.00  0.00     0.040 A 
ATOM     84  F   UNL A   1      38.418  30.110  27.075  1.00  0.00    -0.206 F 
ATOM     85  C   UNL A   1      36.926  30.219  30.384  1.00  0.00     0.006 A 
ENDBRANCH  57  78
BRANCH  69  86
ATOM     86  C   UNL A   1      44.419  24.972  31.114  1.00  0.00     0.057 A 
ATOM     87  C   UNL A   1      44.178  23.790  31.825  1.00  0.00     0.134 A 
ATOM     88  C   UNL A   1      45.568  25.691  31.509  1.00  0.00     0.134 A 
ATOM     89  F   UNL A   1      43.198  22.944  31.479  1.00  0.00    -0.206 F 
ATOM     90  C   UNL A   1      44.974  23.391  32.906  1.00  0.00     0.040 A 
ATOM     91  C   UNL A   1      46.400  25.274  32.548  1.00  0.00     0.040 A 
ATOM     92  F   UNL A   1      45.938  26.824  30.891  1.00  0.00    -0.206 F 
ATOM     93  C   UNL A   1      46.093  24.131  33.266  1.00  0.00     0.006 A 
ENDBRANCH  69  86
ENDBRANCH  43  44
ENDBRANCH  36  38
ENDBRANCH  35  36
ENDBRANCH  34  35
ENDBRANCH  33  34
ENDBRANCH  32  33
ENDBRANCH  31  32
ENDBRANCH   1  31
TORSDOF 22
ENDMDL
MODEL 3
REMARK VINA RESULT:     -10.2      3.731      6.634
REMARK SMILES Cc1ccccc1[C@H](C(=O)NC[C@H]1CC[C@@H](C(=O)OCCOCCOCCOC(=O)c2ccc(-c3c4nc(c(-c5c(F)cccc5F)c5ccc([nH]5)c(-c5c(F)cccc5F)c5nc(c(-c6c(F)cccc6F)c6ccc3[nH]6)C=C5)C=C4)cc2)CC1)[NH+](C)C
REMARK SMILES IDX 23 1 22 2 21 3 20 4 19 5 17 6 18 7 16 8 13 9 14 10 86 11
REMARK SMILES IDX 15 12 85 13 12 14 11 15 9 16 10 17 8 19 7 20 1 21 2 22 3 23
REMARK SMILES IDX 4 24 6 25 5 26 87 27 88 28 89 29 24 31 25 32 26 33 27 34
REMARK SMILES IDX 28 35 29 36 30 37 31 38 32 39 84 40 33 41 83 42 34 43 35 44
REMARK SMILES IDX 36 45 77 46 37 47 82 48 76 49 78 50 38 51 81 52 75 53 74 54
REMARK SMILES IDX 39 56 65 57 48 58 64 59 49 60 52 61 63 62 79 63 50 64 51 65
REMARK SMILES IDX 62 67 80 68 53 69 40 70 41 71 46 72 42 73 43 74 45 75 47 76
REMARK SMILES IDX 44 77 66 78 67 79 72 80 68 81 69 82 71 83 73 84 70 85 54 86
REMARK SMILES IDX 55 87 60 88 56 89 57 90 59 91 61 92 58 93
REMARK H PARENT 11 18 87 30 78 55 52 66
REMARK Flexibility Score: inf
ROOT
ATOM      1  C   UNL A   1      33.047  36.735  31.837  1.00  0.00     0.188 C 
ENDROOT
BRANCH   1   2
ATOM      2  O   UNL A   1      33.247  35.721  32.795  1.00  0.00    -0.376 OA
BRANCH   2   3
ATOM      3  C   UNL A   1      34.415  35.830  33.611  1.00  0.00     0.202 C 
BRANCH   3   4
ATOM      4  C   UNL A   1      34.945  34.577  34.411  1.00  0.00     0.261 C 
BRANCH   4   5
ATOM      5  O   UNL A   1      36.458  33.861  34.180  1.00  0.00    -0.463 OA
BRANCH   5   6
ATOM      6  C   UNL A   1      37.409  32.866  33.884  1.00  0.00     0.309 C 
ATOM      7  O   UNL A   1      37.179  31.786  34.453  1.00  0.00    -0.252 OA
BRANCH   6   8
ATOM      8  C   UNL A   1      38.830  32.800  32.886  1.00  0.00     0.099 C 
ATOM      9  C   UNL A   1      40.471  33.805  30.247  1.00  0.00     0.008 C 
ATOM     10  C   UNL A   1      40.712  34.365  31.683  1.00  0.00     0.006 C 
ATOM     11  C   UNL A   1      39.531  32.598  30.269  1.00  0.00     0.006 C 
ATOM     12  C   UNL A   1      39.757  34.053  32.899  1.00  0.00     0.015 C 
ATOM     13  C   UNL A   1      39.292  31.921  31.665  1.00  0.00     0.015 C 
BRANCH   9  14
ATOM     14  C   UNL A   1      40.392  34.849  28.983  1.00  0.00     0.119 C 
BRANCH  14  15
ATOM     15  N   UNL A   1      41.447  35.898  28.825  1.00  0.00    -0.350 N 
ATOM     16  C   UNL A   1      42.709  36.092  28.315  1.00  0.00     0.283 C 
ATOM     17  O   UNL A   1      42.846  37.293  27.983  1.00  0.00    -0.268 OA
ATOM     18  H   UNL A   1      41.127  36.739  29.224  1.00  0.00     0.163 HD
BRANCH  16  19
ATOM     19  C   UNL A   1      44.011  35.155  28.108  1.00  0.00     0.305 C 
BRANCH  19  20
ATOM     20  C   UNL A   1      44.694  34.458  29.316  1.00  0.00     0.022 A 
ATOM     21  C   UNL A   1      43.303  32.299  29.079  1.00  0.00     0.045 C 
ATOM     22  C   UNL A   1      44.403  33.122  29.698  1.00  0.00    -0.041 A 
ATOM     23  C   UNL A   1      45.159  32.485  30.710  1.00  0.00     0.004 A 
ATOM     24  C   UNL A   1      46.101  33.184  31.447  1.00  0.00     0.000 A 
ATOM     25  C   UNL A   1      45.593  35.154  30.150  1.00  0.00     0.011 A 
ATOM     26  C   UNL A   1      46.284  34.533  31.200  1.00  0.00     0.001 A 
ENDBRANCH  19  20
BRANCH  19  27
ATOM     27  N   UNL A   1      44.168  34.551  26.756  1.00  0.00    -0.326 N 
ATOM     28  C   UNL A   1      43.119  34.885  25.792  1.00  0.00     0.333 C 
ATOM     29  C   UNL A   1      45.491  34.529  26.186  1.00  0.00     0.333 C 
ATOM     30  H   UNL A   1      44.017  33.569  26.990  1.00  0.00     0.348 HD
ENDBRANCH  19  27
ENDBRANCH  16  19
ENDBRANCH  14  15
ENDBRANCH   9  14
ENDBRANCH   6   8
ENDBRANCH   5   6
ENDBRANCH   4   5
ENDBRANCH   3   4
ENDBRANCH   2   3
ENDBRANCH   1   2
BRANCH   1  31
ATOM     31  C   UNL A   1      32.937  36.148  30.429  1.00  0.00     0.188 C 
BRANCH  31  32
ATOM     32  O   UNL A   1      33.212  34.750  30.439  1.00  0.00    -0.376 OA
BRANCH  32  33
ATOM     33  C   UNL A   1      34.488  34.382  29.923  1.00  0.00     0.202 C 
BRANCH  33  34
ATOM     34  C   UNL A   1      34.688  32.868  30.043  1.00  0.00     0.261 C 
BRANCH  34  35
ATOM     35  O   UNL A   1      35.865  32.509  29.289  1.00  0.00    -0.460 OA
BRANCH  35  36
ATOM     36  C   UNL A   1      35.585  31.751  28.189  1.00  0.00     0.338 C 
ATOM     37  O   UNL A   1      34.632  31.868  27.476  1.00  0.00    -0.246 OA
BRANCH  36  38
ATOM     38  C   UNL A   1      36.469  30.539  28.217  1.00  0.00     0.060 A 
ATOM     39  C   UNL A   1      36.438  29.794  29.353  1.00  0.00     0.016 A 
ATOM     40  C   UNL A   1      37.505  30.269  27.338  1.00  0.00     0.016 A 
ATOM     41  C   UNL A   1      37.554  28.967  29.649  1.00  0.00     0.010 A 
ATOM     42  C   UNL A   1      38.613  29.434  27.709  1.00  0.00     0.010 A 
ATOM     43  C   UNL A   1      38.777  28.809  28.935  1.00  0.00    -0.014 A 
BRANCH  43  44
ATOM     44  C   UNL A   1      40.245  28.250  29.328  1.00  0.00     0.031 A 
ATOM     45  C   UNL A   1      40.766  26.916  28.831  1.00  0.00     0.074 A 
ATOM     46  C   UNL A   1      41.295  28.771  30.056  1.00  0.00     0.049 A 
ATOM     47  N   UNL A   1      41.690  26.152  29.359  1.00  0.00    -0.248 NA
ATOM     48  C   UNL A   1      40.160  26.290  27.702  1.00  0.00     0.031 C 
ATOM     49  C   UNL A   1      42.732  28.618  29.734  1.00  0.00     0.029 A 
ATOM     50  N   UNL A   1      41.382  29.480  31.242  1.00  0.00    -0.354 N 
ATOM     51  C   UNL A   1      41.968  25.137  28.461  1.00  0.00     0.074 A 
ATOM     52  C   UNL A   1      40.866  25.171  27.548  1.00  0.00     0.031 C 
ATOM     53  C   UNL A   1      43.503  29.200  30.666  1.00  0.00     0.029 A 
ATOM     54  C   UNL A   1      42.659  29.685  31.740  1.00  0.00     0.049 A 
ATOM     55  H   UNL A   1      40.584  29.820  31.706  1.00  0.00     0.167 HD
ATOM     56  C   UNL A   1      43.184  24.509  28.388  1.00  0.00     0.037 A 
ATOM     57  C   UNL A   1      42.985  29.922  33.042  1.00  0.00     0.037 A 
ATOM     58  C   UNL A   1      44.130  25.030  29.371  1.00  0.00     0.049 A 
ATOM     59  C   UNL A   1      43.826  28.784  33.539  1.00  0.00     0.074 A 
ATOM     60  C   UNL A   1      45.214  25.884  29.246  1.00  0.00     0.029 A 
ATOM     61  N   UNL A   1      43.904  24.890  30.738  1.00  0.00    -0.354 N 
ATOM     62  N   UNL A   1      44.225  27.827  32.757  1.00  0.00    -0.248 NA
ATOM     63  C   UNL A   1      44.194  28.553  34.930  1.00  0.00     0.031 C 
ATOM     64  C   UNL A   1      45.669  26.224  30.537  1.00  0.00     0.029 A 
ATOM     65  C   UNL A   1      44.857  25.590  31.460  1.00  0.00     0.049 A 
ATOM     66  H   UNL A   1      43.171  24.367  31.134  1.00  0.00     0.167 HD
ATOM     67  C   UNL A   1      44.682  26.790  33.507  1.00  0.00     0.074 A 
ATOM     68  C   UNL A   1      44.738  27.325  34.852  1.00  0.00     0.031 C 
ATOM     69  C   UNL A   1      44.883  25.575  32.921  1.00  0.00     0.037 A 
BRANCH  56  70
ATOM     70  C   UNL A   1      43.619  23.728  27.136  1.00  0.00     0.057 A 
ATOM     71  C   UNL A   1      44.281  24.354  26.060  1.00  0.00     0.134 A 
ATOM     72  C   UNL A   1      43.328  22.372  26.894  1.00  0.00     0.134 A 
ATOM     73  F   UNL A   1      44.835  25.566  26.177  1.00  0.00    -0.206 F 
ATOM     74  C   UNL A   1      44.430  23.762  24.795  1.00  0.00     0.040 A 
ATOM     75  C   UNL A   1      43.413  21.781  25.620  1.00  0.00     0.040 A 
ATOM     76  F   UNL A   1      42.986  21.546  27.892  1.00  0.00    -0.206 F 
ATOM     77  C   UNL A   1      43.936  22.491  24.551  1.00  0.00     0.006 A 
ENDBRANCH  56  70
BRANCH  57  78
ATOM     78  C   UNL A   1      42.033  30.705  33.887  1.00  0.00     0.057 A 
ATOM     79  C   UNL A   1      40.975  30.040  34.532  1.00  0.00     0.134 A 
ATOM     80  C   UNL A   1      42.307  31.998  34.330  1.00  0.00     0.134 A 
ATOM     81  F   UNL A   1      40.641  28.793  34.166  1.00  0.00    -0.206 F 
ATOM     82  C   UNL A   1      40.355  30.562  35.682  1.00  0.00     0.040 A 
ATOM     83  C   UNL A   1      41.718  32.524  35.491  1.00  0.00     0.040 A 
ATOM     84  F   UNL A   1      43.206  32.748  33.683  1.00  0.00    -0.206 F 
ATOM     85  C   UNL A   1      40.772  31.785  36.199  1.00  0.00     0.006 A 
ENDBRANCH  57  78
BRANCH  69  86
ATOM     86  C   UNL A   1      45.207  24.306  33.650  1.00  0.00     0.057 A 
ATOM     87  C   UNL A   1      44.272  23.313  33.968  1.00  0.00     0.134 A 
ATOM     88  C   UNL A   1      46.546  24.005  33.979  1.00  0.00     0.134 A 
ATOM     89  F   UNL A   1      42.987  23.409  33.603  1.00  0.00    -0.206 F 
ATOM     90  C   UNL A   1      44.630  22.137  34.638  1.00  0.00     0.040 A 
ATOM     91  C   UNL A   1      46.922  22.811  34.596  1.00  0.00     0.040 A 
ATOM     92  F   UNL A   1      47.549  24.852  33.700  1.00  0.00    -0.206 F 
ATOM     93  C   UNL A   1      45.959  21.881  34.949  1.00  0.00     0.006 A 
ENDBRANCH  69  86
ENDBRANCH  43  44
ENDBRANCH  36  38
ENDBRANCH  35  36
ENDBRANCH  34  35
ENDBRANCH  33  34
ENDBRANCH  32  33
ENDBRANCH  31  32
ENDBRANCH   1  31
TORSDOF 22
ENDMDL
