MODEL 1
REMARK VINA RESULT:     -10.8      0.000      0.000
REMARK SMILES CC[C@@H]1CCC[C@@](C[C@@H]2CSc3ccccc32)(C(=O)OCCOCCOCCOC(=O)c2ccc(-c3c4nc(c(-c5c(F)cccc5F)c5ccc([nH]5)c(-c5c(F)cccc5F)c5nc(c(-c6c(F)cccc6F)c6ccc3[nH]6)C=C5)C=C4)cc2)C1
REMARK SMILES IDX 24 1 23 2 22 3 21 4 20 5 18 6 19 7 7 8 3 9 4 10 86 11 5 12
REMARK SMILES IDX 6 13 2 14 1 15 8 16 9 17 10 18 17 19 11 20 12 21 16 22 13 23
REMARK SMILES IDX 15 24 14 25 25 26 26 27 27 28 28 29 29 30 30 31 31 32 32 33
REMARK SMILES IDX 33 34 85 35 34 36 84 37 35 38 36 39 37 40 78 41 38 42 83 43
REMARK SMILES IDX 77 44 79 45 39 46 82 47 76 48 75 49 40 51 66 52 49 53 65 54
REMARK SMILES IDX 50 55 53 56 64 57 80 58 51 59 52 60 63 62 81 63 54 64 41 65
REMARK SMILES IDX 42 66 47 67 43 68 44 69 46 70 48 71 45 72 67 73 68 74 73 75
REMARK SMILES IDX 69 76 70 77 72 78 74 79 71 80 55 81 56 82 61 83 57 84 58 85
REMARK SMILES IDX 60 86 62 87 59 88
REMARK H PARENT 79 50 53 61
REMARK Flexibility Score: inf
ROOT
ATOM      1  C   UNL A   1      33.576  33.452  28.189  1.00  0.00     0.188 C 
ENDROOT
BRANCH   1   2
ATOM      2  O   UNL A   1      33.389  32.248  27.458  1.00  0.00    -0.376 OA
BRANCH   2   3
ATOM      3  C   UNL A   1      34.009  31.055  27.926  1.00  0.00     0.202 C 
BRANCH   3   4
ATOM      4  C   UNL A   1      34.329  29.981  26.883  1.00  0.00     0.261 C 
BRANCH   4   5
ATOM      5  O   UNL A   1      34.048  28.614  27.282  1.00  0.00    -0.463 OA
BRANCH   5   6
ATOM      6  C   UNL A   1      32.980  28.013  26.697  1.00  0.00     0.312 C 
ATOM      7  O   UNL A   1      31.884  27.937  27.247  1.00  0.00    -0.252 OA
BRANCH   6   8
ATOM      8  C   UNL A   1      33.274  27.312  25.338  1.00  0.00     0.069 C 
ATOM      9  C   UNL A   1      31.143  28.023  24.020  1.00  0.00    -0.010 C 
ATOM     10  C   UNL A   1      31.948  28.373  22.771  1.00  0.00     0.003 C 
ATOM     11  C   UNL A   1      31.873  26.886  24.763  1.00  0.00     0.022 C 
ATOM     12  C   UNL A   1      33.309  28.904  23.154  1.00  0.00     0.001 C 
ATOM     13  C   UNL A   1      34.034  28.084  24.227  1.00  0.00     0.019 C 
BRANCH   9  14
ATOM     14  C   UNL A   1      29.713  27.640  23.604  1.00  0.00     0.000 C 
ATOM     15  C   UNL A   1      29.306  26.265  24.106  1.00  0.00     0.004 C 
ENDBRANCH   9  14
BRANCH   8  16
ATOM     16  C   UNL A   1      34.054  25.983  25.723  1.00  0.00     0.028 C 
BRANCH  16  17
ATOM     17  C   UNL A   1      33.528  24.542  25.402  1.00  0.00     0.032 C 
ATOM     18  C   UNL A   1      32.764  23.819  26.527  1.00  0.00     0.083 C 
ATOM     19  C   UNL A   1      34.565  23.576  24.880  1.00  0.00    -0.030 A 
ATOM     20  S   UNL A   1      33.790  22.447  27.141  1.00  0.00    -0.125 SA
ATOM     21  C   UNL A   1      34.863  22.516  25.741  1.00  0.00     0.011 A 
ATOM     22  C   UNL A   1      35.313  23.763  23.717  1.00  0.00     0.005 A 
ATOM     23  C   UNL A   1      35.967  21.705  25.521  1.00  0.00     0.015 A 
ATOM     24  C   UNL A   1      36.424  22.948  23.489  1.00  0.00     0.000 A 
ATOM     25  C   UNL A   1      36.763  21.939  24.398  1.00  0.00     0.001 A 
ENDBRANCH  16  17
ENDBRANCH   8  16
ENDBRANCH   6   8
ENDBRANCH   5   6
ENDBRANCH   4   5
ENDBRANCH   3   4
ENDBRANCH   2   3
ENDBRANCH   1   2
BRANCH   1  26
ATOM     26  C   UNL A   1      34.413  33.405  29.469  1.00  0.00     0.188 C 
BRANCH  26  27
ATOM     27  O   UNL A   1      33.801  34.029  30.578  1.00  0.00    -0.376 OA
BRANCH  27  28
ATOM     28  C   UNL A   1      34.629  34.242  31.705  1.00  0.00     0.202 C 
BRANCH  28  29
ATOM     29  C   UNL A   1      34.465  33.145  32.761  1.00  0.00     0.261 C 
BRANCH  29  30
ATOM     30  O   UNL A   1      35.385  32.041  32.644  1.00  0.00    -0.460 OA
BRANCH  30  31
ATOM     31  C   UNL A   1      36.540  32.108  33.347  1.00  0.00     0.338 C 
ATOM     32  O   UNL A   1      36.660  32.299  34.544  1.00  0.00    -0.246 OA
BRANCH  31  33
ATOM     33  C   UNL A   1      37.624  31.638  32.448  1.00  0.00     0.060 A 
ATOM     34  C   UNL A   1      37.460  31.646  31.061  1.00  0.00     0.016 A 
ATOM     35  C   UNL A   1      38.790  31.107  33.012  1.00  0.00     0.016 A 
ATOM     36  C   UNL A   1      38.465  31.119  30.242  1.00  0.00     0.010 A 
ATOM     37  C   UNL A   1      39.782  30.559  32.193  1.00  0.00     0.010 A 
ATOM     38  C   UNL A   1      39.631  30.568  30.800  1.00  0.00    -0.014 A 
BRANCH  38  39
ATOM     39  C   UNL A   1      40.760  30.156  29.926  1.00  0.00     0.031 A 
ATOM     40  C   UNL A   1      41.890  31.079  29.577  1.00  0.00     0.074 A 
ATOM     41  C   UNL A   1      40.722  28.918  29.398  1.00  0.00     0.049 A 
ATOM     42  N   UNL A   1      42.975  30.830  28.886  1.00  0.00    -0.248 NA
ATOM     43  C   UNL A   1      41.771  32.469  30.031  1.00  0.00     0.031 C 
ATOM     44  C   UNL A   1      39.633  27.960  29.589  1.00  0.00     0.029 A 
ATOM     45  N   UNL A   1      41.619  28.257  28.602  1.00  0.00    -0.354 N 
ATOM     46  C   UNL A   1      43.672  32.031  28.819  1.00  0.00     0.074 A 
ATOM     47  C   UNL A   1      42.853  33.020  29.494  1.00  0.00     0.031 C 
ATOM     48  C   UNL A   1      39.941  26.818  28.956  1.00  0.00     0.029 A 
ATOM     49  C   UNL A   1      41.244  26.967  28.315  1.00  0.00     0.049 A 
ATOM     50  H   UNL A   1      42.451  28.664  28.268  1.00  0.00     0.167 HD
ATOM     51  C   UNL A   1      44.888  32.277  28.266  1.00  0.00     0.037 A 
ATOM     52  C   UNL A   1      41.890  26.003  27.636  1.00  0.00     0.037 A 
ATOM     53  C   UNL A   1      45.700  31.277  27.611  1.00  0.00     0.049 A 
ATOM     54  C   UNL A   1      43.258  26.282  27.083  1.00  0.00     0.074 A 
ATOM     55  C   UNL A   1      46.985  31.399  27.108  1.00  0.00     0.029 A 
ATOM     56  N   UNL A   1      45.301  29.973  27.359  1.00  0.00    -0.354 N 
ATOM     57  N   UNL A   1      43.964  27.384  27.135  1.00  0.00    -0.248 NA
ATOM     58  C   UNL A   1      43.928  25.169  26.396  1.00  0.00     0.031 C 
ATOM     59  C   UNL A   1      47.346  30.183  26.516  1.00  0.00     0.029 A 
ATOM     60  C   UNL A   1      46.307  29.286  26.694  1.00  0.00     0.049 A 
ATOM     61  H   UNL A   1      44.431  29.589  27.615  1.00  0.00     0.167 HD
ATOM     62  C   UNL A   1      45.171  27.092  26.513  1.00  0.00     0.074 A 
ATOM     63  C   UNL A   1      45.109  25.701  26.115  1.00  0.00     0.031 C 
ATOM     64  C   UNL A   1      46.235  27.903  26.294  1.00  0.00     0.037 A 
BRANCH  51  65
ATOM     65  C   UNL A   1      45.435  33.676  28.363  1.00  0.00     0.057 A 
ATOM     66  C   UNL A   1      45.080  34.660  27.428  1.00  0.00     0.134 A 
ATOM     67  C   UNL A   1      46.370  34.036  29.343  1.00  0.00     0.134 A 
ATOM     68  F   UNL A   1      44.208  34.384  26.447  1.00  0.00    -0.206 F 
ATOM     69  C   UNL A   1      45.630  35.943  27.467  1.00  0.00     0.040 A 
ATOM     70  C   UNL A   1      46.903  35.325  29.413  1.00  0.00     0.040 A 
ATOM     71  F   UNL A   1      46.765  33.146  30.266  1.00  0.00    -0.206 F 
ATOM     72  C   UNL A   1      46.539  36.282  28.468  1.00  0.00     0.006 A 
ENDBRANCH  51  65
BRANCH  52  73
ATOM     73  C   UNL A   1      41.281  24.657  27.511  1.00  0.00     0.057 A 
ATOM     74  C   UNL A   1      40.257  24.396  26.595  1.00  0.00     0.134 A 
ATOM     75  C   UNL A   1      41.719  23.597  28.314  1.00  0.00     0.134 A 
ATOM     76  F   UNL A   1      39.783  25.375  25.811  1.00  0.00    -0.206 F 
ATOM     77  C   UNL A   1      39.690  23.126  26.480  1.00  0.00     0.040 A 
ATOM     78  C   UNL A   1      41.180  22.317  28.190  1.00  0.00     0.040 A 
ATOM     79  F   UNL A   1      42.706  23.787  29.202  1.00  0.00    -0.206 F 
ATOM     80  C   UNL A   1      40.159  22.080  27.272  1.00  0.00     0.006 A 
ENDBRANCH  52  73
BRANCH  64  81
ATOM     81  C   UNL A   1      47.426  27.291  25.611  1.00  0.00     0.057 A 
ATOM     82  C   UNL A   1      47.622  27.456  24.234  1.00  0.00     0.134 A 
ATOM     83  C   UNL A   1      48.380  26.541  26.313  1.00  0.00     0.134 A 
ATOM     84  F   UNL A   1      46.746  28.156  23.499  1.00  0.00    -0.206 F 
ATOM     85  C   UNL A   1      48.728  26.906  23.582  1.00  0.00     0.040 A 
ATOM     86  C   UNL A   1      49.505  26.010  25.678  1.00  0.00     0.040 A 
ATOM     87  F   UNL A   1      48.260  26.357  27.636  1.00  0.00    -0.206 F 
ATOM     88  C   UNL A   1      49.678  26.189  24.306  1.00  0.00     0.006 A 
ENDBRANCH  64  81
ENDBRANCH  38  39
ENDBRANCH  31  33
ENDBRANCH  30  31
ENDBRANCH  29  30
ENDBRANCH  28  29
ENDBRANCH  27  28
ENDBRANCH  26  27
ENDBRANCH   1  26
TORSDOF 20
ENDMDL
MODEL 2
REMARK VINA RESULT:     -10.7      4.852     10.173
REMARK SMILES CC[C@@H]1CCC[C@@](C[C@@H]2CSc3ccccc32)(C(=O)OCCOCCOCCOC(=O)c2ccc(-c3c4nc(c(-c5c(F)cccc5F)c5ccc([nH]5)c(-c5c(F)cccc5F)c5nc(c(-c6c(F)cccc6F)c6ccc3[nH]6)C=C5)C=C4)cc2)C1
REMARK SMILES IDX 24 1 23 2 22 3 21 4 20 5 18 6 19 7 7 8 3 9 4 10 86 11 5 12
REMARK SMILES IDX 6 13 2 14 1 15 8 16 9 17 10 18 17 19 11 20 12 21 16 22 13 23
REMARK SMILES IDX 15 24 14 25 25 26 26 27 27 28 28 29 29 30 30 31 31 32 32 33
REMARK SMILES IDX 33 34 85 35 34 36 84 37 35 38 36 39 37 40 78 41 38 42 83 43
REMARK SMILES IDX 77 44 79 45 39 46 82 47 76 48 75 49 40 51 66 52 49 53 65 54
REMARK SMILES IDX 50 55 53 56 64 57 80 58 51 59 52 60 63 62 81 63 54 64 41 65
REMARK SMILES IDX 42 66 47 67 43 68 44 69 46 70 48 71 45 72 67 73 68 74 73 75
REMARK SMILES IDX 69 76 70 77 72 78 74 79 71 80 55 81 56 82 61 83 57 84 58 85
REMARK SMILES IDX 60 86 62 87 59 88
REMARK H PARENT 79 50 53 61
REMARK Flexibility Score: inf
ROOT
ATOM      1  C   UNL A   1      39.996  21.065  26.497  1.00  0.00     0.188 C 
ENDROOT
BRANCH   1   2
ATOM      2  O   UNL A   1      39.160  20.804  25.377  1.00  0.00    -0.376 OA
BRANCH   2   3
ATOM      3  C   UNL A   1      37.855  21.373  25.346  1.00  0.00     0.202 C 
BRANCH   3   4
ATOM      4  C   UNL A   1      37.723  22.833  25.789  1.00  0.00     0.261 C 
BRANCH   4   5
ATOM      5  O   UNL A   1      37.183  23.744  24.797  1.00  0.00    -0.463 OA
BRANCH   5   6
ATOM      6  C   UNL A   1      36.185  23.269  24.008  1.00  0.00     0.312 C 
ATOM      7  O   UNL A   1      36.387  22.842  22.875  1.00  0.00    -0.252 OA
BRANCH   6   8
ATOM      8  C   UNL A   1      34.748  23.423  24.590  1.00  0.00     0.069 C 
ATOM      9  C   UNL A   1      34.276  20.942  25.228  1.00  0.00    -0.010 C 
ATOM     10  C   UNL A   1      33.690  21.329  26.582  1.00  0.00     0.003 C 
ATOM     11  C   UNL A   1      33.996  22.088  24.235  1.00  0.00     0.022 C 
ATOM     12  C   UNL A   1      34.384  22.557  27.124  1.00  0.00     0.001 C 
ATOM     13  C   UNL A   1      34.561  23.690  26.107  1.00  0.00     0.019 C 
BRANCH   9  14
ATOM     14  C   UNL A   1      33.664  19.604  24.780  1.00  0.00     0.000 C 
ATOM     15  C   UNL A   1      34.717  18.577  24.399  1.00  0.00     0.004 C 
ENDBRANCH   9  14
BRANCH   8  16
ATOM     16  C   UNL A   1      34.083  24.585  23.736  1.00  0.00     0.028 C 
BRANCH  16  17
ATOM     17  C   UNL A   1      32.708  25.249  24.091  1.00  0.00     0.032 C 
ATOM     18  C   UNL A   1      31.647  25.278  22.976  1.00  0.00     0.083 C 
ATOM     19  C   UNL A   1      32.792  26.646  24.660  1.00  0.00    -0.030 A 
ATOM     20  S   UNL A   1      31.431  26.998  22.421  1.00  0.00    -0.125 SA
ATOM     21  C   UNL A   1      32.265  27.645  23.836  1.00  0.00     0.011 A 
ATOM     22  C   UNL A   1      33.471  26.990  25.828  1.00  0.00     0.005 A 
ATOM     23  C   UNL A   1      32.501  28.986  24.099  1.00  0.00     0.015 A 
ATOM     24  C   UNL A   1      33.710  28.340  26.100  1.00  0.00     0.000 A 
ATOM     25  C   UNL A   1      33.247  29.331  25.227  1.00  0.00     0.001 A 
ENDBRANCH  16  17
ENDBRANCH   8  16
ENDBRANCH   6   8
ENDBRANCH   5   6
ENDBRANCH   4   5
ENDBRANCH   3   4
ENDBRANCH   2   3
ENDBRANCH   1   2
BRANCH   1  26
ATOM     26  C   UNL A   1      40.995  19.989  26.928  1.00  0.00     0.188 C 
BRANCH  26  27
ATOM     27  O   UNL A   1      42.329  20.445  27.008  1.00  0.00    -0.376 OA
BRANCH  27  28
ATOM     28  C   UNL A   1      43.119  20.263  25.849  1.00  0.00     0.202 C 
BRANCH  28  29
ATOM     29  C   UNL A   1      43.568  21.594  25.238  1.00  0.00     0.261 C 
BRANCH  29  30
ATOM     30  O   UNL A   1      42.985  22.769  25.836  1.00  0.00    -0.460 OA
BRANCH  30  31
ATOM     31  C   UNL A   1      43.599  23.956  25.618  1.00  0.00     0.338 C 
ATOM     32  O   UNL A   1      44.253  24.274  24.640  1.00  0.00    -0.246 OA
BRANCH  31  33
ATOM     33  C   UNL A   1      43.111  24.895  26.658  1.00  0.00     0.060 A 
ATOM     34  C   UNL A   1      42.084  24.529  27.531  1.00  0.00     0.016 A 
ATOM     35  C   UNL A   1      43.639  26.192  26.702  1.00  0.00     0.016 A 
ATOM     36  C   UNL A   1      41.586  25.465  28.445  1.00  0.00     0.010 A 
ATOM     37  C   UNL A   1      43.123  27.131  27.601  1.00  0.00     0.010 A 
ATOM     38  C   UNL A   1      42.098  26.773  28.486  1.00  0.00    -0.014 A 
BRANCH  38  39
ATOM     39  C   UNL A   1      41.680  27.711  29.559  1.00  0.00     0.031 A 
ATOM     40  C   UNL A   1      40.489  28.613  29.424  1.00  0.00     0.074 A 
ATOM     41  C   UNL A   1      42.441  27.771  30.668  1.00  0.00     0.049 A 
ATOM     42  N   UNL A   1      39.967  29.428  30.308  1.00  0.00    -0.248 NA
ATOM     43  C   UNL A   1      39.818  28.632  28.119  1.00  0.00     0.031 C 
ATOM     44  C   UNL A   1      43.673  27.011  30.879  1.00  0.00     0.029 A 
ATOM     45  N   UNL A   1      42.290  28.498  31.819  1.00  0.00    -0.354 N 
ATOM     46  C   UNL A   1      38.906  30.059  29.670  1.00  0.00     0.074 A 
ATOM     47  C   UNL A   1      38.898  29.571  28.304  1.00  0.00     0.031 C 
ATOM     48  C   UNL A   1      44.149  27.284  32.103  1.00  0.00     0.029 A 
ATOM     49  C   UNL A   1      43.259  28.239  32.757  1.00  0.00     0.049 A 
ATOM     50  H   UNL A   1      41.560  29.143  31.961  1.00  0.00     0.167 HD
ATOM     51  C   UNL A   1      38.012  30.944  30.183  1.00  0.00     0.037 A 
ATOM     52  C   UNL A   1      43.400  28.697  34.013  1.00  0.00     0.037 A 
ATOM     53  C   UNL A   1      38.023  31.410  31.551  1.00  0.00     0.049 A 
ATOM     54  C   UNL A   1      42.367  29.631  34.576  1.00  0.00     0.074 A 
ATOM     55  C   UNL A   1      37.107  32.225  32.195  1.00  0.00     0.029 A 
ATOM     56  N   UNL A   1      39.005  31.108  32.483  1.00  0.00    -0.354 N 
ATOM     57  N   UNL A   1      41.296  30.123  34.006  1.00  0.00    -0.248 NA
ATOM     58  C   UNL A   1      42.555  30.052  35.972  1.00  0.00     0.031 C 
ATOM     59  C   UNL A   1      37.556  32.450  33.502  1.00  0.00     0.029 A 
ATOM     60  C   UNL A   1      38.726  31.734  33.690  1.00  0.00     0.049 A 
ATOM     61  H   UNL A   1      39.786  30.533  32.314  1.00  0.00     0.167 HD
ATOM     62  C   UNL A   1      40.666  30.890  34.977  1.00  0.00     0.074 A 
ATOM     63  C   UNL A   1      41.465  30.776  36.181  1.00  0.00     0.031 C 
ATOM     64  C   UNL A   1      39.529  31.622  34.882  1.00  0.00     0.037 A 
BRANCH  51  65
ATOM     65  C   UNL A   1      36.927  31.456  29.273  1.00  0.00     0.057 A 
ATOM     66  C   UNL A   1      36.950  32.770  28.784  1.00  0.00     0.134 A 
ATOM     67  C   UNL A   1      35.818  30.668  28.933  1.00  0.00     0.134 A 
ATOM     68  F   UNL A   1      37.968  33.591  29.085  1.00  0.00    -0.206 F 
ATOM     69  C   UNL A   1      35.917  33.278  27.993  1.00  0.00     0.040 A 
ATOM     70  C   UNL A   1      34.794  31.153  28.116  1.00  0.00     0.040 A 
ATOM     71  F   UNL A   1      35.722  29.404  29.372  1.00  0.00    -0.206 F 
ATOM     72  C   UNL A   1      34.838  32.465  27.649  1.00  0.00     0.006 A 
ENDBRANCH  51  65
BRANCH  52  73
ATOM     73  C   UNL A   1      44.523  28.214  34.851  1.00  0.00     0.057 A 
ATOM     74  C   UNL A   1      44.409  27.064  35.639  1.00  0.00     0.134 A 
ATOM     75  C   UNL A   1      45.743  28.899  34.878  1.00  0.00     0.134 A 
ATOM     76  F   UNL A   1      43.260  26.374  35.669  1.00  0.00    -0.206 F 
ATOM     77  C   UNL A   1      45.471  26.612  36.424  1.00  0.00     0.040 A 
ATOM     78  C   UNL A   1      46.820  28.444  35.635  1.00  0.00     0.040 A 
ATOM     79  F   UNL A   1      45.913  30.003  34.133  1.00  0.00    -0.206 F 
ATOM     80  C   UNL A   1      46.684  27.296  36.415  1.00  0.00     0.006 A 
ENDBRANCH  52  73
BRANCH  64  81
ATOM     81  C   UNL A   1      39.074  32.334  36.124  1.00  0.00     0.057 A 
ATOM     82  C   UNL A   1      39.481  33.649  36.383  1.00  0.00     0.134 A 
ATOM     83  C   UNL A   1      38.230  31.724  37.062  1.00  0.00     0.134 A 
ATOM     84  F   UNL A   1      40.293  34.292  35.531  1.00  0.00    -0.206 F 
ATOM     85  C   UNL A   1      39.060  34.333  37.525  1.00  0.00     0.040 A 
ATOM     86  C   UNL A   1      37.778  32.408  38.193  1.00  0.00     0.040 A 
ATOM     87  F   UNL A   1      37.789  30.472  36.868  1.00  0.00    -0.206 F 
ATOM     88  C   UNL A   1      38.198  33.716  38.428  1.00  0.00     0.006 A 
ENDBRANCH  64  81
ENDBRANCH  38  39
ENDBRANCH  31  33
ENDBRANCH  30  31
ENDBRANCH  29  30
ENDBRANCH  28  29
ENDBRANCH  27  28
ENDBRANCH  26  27
ENDBRANCH   1  26
TORSDOF 20
ENDMDL
MODEL 3
REMARK VINA RESULT:     -10.7      0.883      1.861
REMARK SMILES CC[C@@H]1CCC[C@@](C[C@@H]2CSc3ccccc32)(C(=O)OCCOCCOCCOC(=O)c2ccc(-c3c4nc(c(-c5c(F)cccc5F)c5ccc([nH]5)c(-c5c(F)cccc5F)c5nc(c(-c6c(F)cccc6F)c6ccc3[nH]6)C=C5)C=C4)cc2)C1
REMARK SMILES IDX 24 1 23 2 22 3 21 4 20 5 18 6 19 7 7 8 3 9 4 10 86 11 5 12
REMARK SMILES IDX 6 13 2 14 1 15 8 16 9 17 10 18 17 19 11 20 12 21 16 22 13 23
REMARK SMILES IDX 15 24 14 25 25 26 26 27 27 28 28 29 29 30 30 31 31 32 32 33
REMARK SMILES IDX 33 34 85 35 34 36 84 37 35 38 36 39 37 40 78 41 38 42 83 43
REMARK SMILES IDX 77 44 79 45 39 46 82 47 76 48 75 49 40 51 66 52 49 53 65 54
REMARK SMILES IDX 50 55 53 56 64 57 80 58 51 59 52 60 63 62 81 63 54 64 41 65
REMARK SMILES IDX 42 66 47 67 43 68 44 69 46 70 48 71 45 72 67 73 68 74 73 75
REMARK SMILES IDX 69 76 70 77 72 78 74 79 71 80 55 81 56 82 61 83 57 84 58 85
REMARK SMILES IDX 60 86 62 87 59 88
REMARK H PARENT 79 50 53 61
REMARK Flexibility Score: inf
ROOT
ATOM      1  C   UNL A   1      33.468  33.813  28.345  1.00  0.00     0.188 C 
ENDROOT
BRANCH   1   2
ATOM      2  O   UNL A   1      33.408  32.588  27.626  1.00  0.00    -0.376 OA
BRANCH   2   3
ATOM      3  C   UNL A   1      34.124  31.463  28.125  1.00  0.00     0.202 C 
BRANCH   3   4
ATOM      4  C   UNL A   1      34.381  30.313  27.148  1.00  0.00     0.261 C 
BRANCH   4   5
ATOM      5  O   UNL A   1      33.759  29.047  27.490  1.00  0.00    -0.463 OA
BRANCH   5   6
ATOM      6  C   UNL A   1      32.594  28.747  26.859  1.00  0.00     0.312 C 
ATOM      7  O   UNL A   1      31.501  29.104  27.289  1.00  0.00    -0.252 OA
BRANCH   6   8
ATOM      8  C   UNL A   1      32.731  27.807  25.624  1.00  0.00     0.069 C 
ATOM      9  C   UNL A   1      31.196  29.078  23.947  1.00  0.00    -0.010 C 
ATOM     10  C   UNL A   1      32.197  28.925  22.806  1.00  0.00     0.003 C 
ATOM     11  C   UNL A   1      31.343  27.864  24.887  1.00  0.00     0.022 C 
ATOM     12  C   UNL A   1      33.610  28.953  23.340  1.00  0.00     0.001 C 
ATOM     13  C   UNL A   1      33.843  28.077  24.576  1.00  0.00     0.019 C 
BRANCH   9  14
ATOM     14  C   UNL A   1      29.780  29.206  23.359  1.00  0.00     0.000 C 
ATOM     15  C   UNL A   1      29.201  30.601  23.525  1.00  0.00     0.004 C 
ENDBRANCH   9  14
BRANCH   8  16
ATOM     16  C   UNL A   1      32.886  26.349  26.235  1.00  0.00     0.028 C 
BRANCH  16  17
ATOM     17  C   UNL A   1      32.009  25.125  25.798  1.00  0.00     0.032 C 
ATOM     18  C   UNL A   1      31.712  24.068  26.877  1.00  0.00     0.083 C 
ATOM     19  C   UNL A   1      32.498  24.385  24.575  1.00  0.00    -0.030 A 
ATOM     20  S   UNL A   1      32.625  22.547  26.470  1.00  0.00    -0.125 SA
ATOM     21  C   UNL A   1      32.944  23.083  24.818  1.00  0.00     0.011 A 
ATOM     22  C   UNL A   1      32.663  24.955  23.312  1.00  0.00     0.005 A 
ATOM     23  C   UNL A   1      33.655  22.379  23.858  1.00  0.00     0.015 A 
ATOM     24  C   UNL A   1      33.376  24.250  22.339  1.00  0.00     0.000 A 
ATOM     25  C   UNL A   1      33.890  22.978  22.619  1.00  0.00     0.001 A 
ENDBRANCH  16  17
ENDBRANCH   8  16
ENDBRANCH   6   8
ENDBRANCH   5   6
ENDBRANCH   4   5
ENDBRANCH   3   4
ENDBRANCH   2   3
ENDBRANCH   1   2
BRANCH   1  26
ATOM     26  C   UNL A   1      34.359  33.887  29.587  1.00  0.00     0.188 C 
BRANCH  26  27
ATOM     27  O   UNL A   1      33.673  34.263  30.763  1.00  0.00    -0.376 OA
BRANCH  27  28
ATOM     28  C   UNL A   1      34.463  34.378  31.931  1.00  0.00     0.202 C 
BRANCH  28  29
ATOM     29  C   UNL A   1      34.361  33.137  32.824  1.00  0.00     0.261 C 
BRANCH  29  30
ATOM     30  O   UNL A   1      35.370  32.133  32.595  1.00  0.00    -0.460 OA
BRANCH  30  31
ATOM     31  C   UNL A   1      36.504  32.203  33.331  1.00  0.00     0.338 C 
ATOM     32  O   UNL A   1      36.588  32.388  34.533  1.00  0.00    -0.246 OA
BRANCH  31  33
ATOM     33  C   UNL A   1      37.616  31.743  32.461  1.00  0.00     0.060 A 
ATOM     34  C   UNL A   1      37.521  31.827  31.071  1.00  0.00     0.016 A 
ATOM     35  C   UNL A   1      38.736  31.146  33.052  1.00  0.00     0.016 A 
ATOM     36  C   UNL A   1      38.548  31.309  30.274  1.00  0.00     0.010 A 
ATOM     37  C   UNL A   1      39.750  30.608  32.254  1.00  0.00     0.010 A 
ATOM     38  C   UNL A   1      39.669  30.692  30.857  1.00  0.00    -0.014 A 
BRANCH  38  39
ATOM     39  C   UNL A   1      40.825  30.288  30.018  1.00  0.00     0.031 A 
ATOM     40  C   UNL A   1      41.950  31.224  29.689  1.00  0.00     0.074 A 
ATOM     41  C   UNL A   1      40.820  29.044  29.503  1.00  0.00     0.049 A 
ATOM     42  N   UNL A   1      43.057  30.984  29.030  1.00  0.00    -0.248 NA
ATOM     43  C   UNL A   1      41.800  32.617  30.125  1.00  0.00     0.031 C 
ATOM     44  C   UNL A   1      39.740  28.072  29.676  1.00  0.00     0.029 A 
ATOM     45  N   UNL A   1      41.747  28.387  28.738  1.00  0.00    -0.354 N 
ATOM     46  C   UNL A   1      43.738  32.194  28.968  1.00  0.00     0.074 A 
ATOM     47  C   UNL A   1      42.887  33.178  29.610  1.00  0.00     0.031 C 
ATOM     48  C   UNL A   1      40.081  26.928  29.064  1.00  0.00     0.029 A 
ATOM     49  C   UNL A   1      41.398  27.089  28.456  1.00  0.00     0.049 A 
ATOM     50  H   UNL A   1      42.581  28.804  28.422  1.00  0.00     0.167 HD
ATOM     51  C   UNL A   1      44.965  32.452  28.444  1.00  0.00     0.037 A 
ATOM     52  C   UNL A   1      42.076  26.128  27.804  1.00  0.00     0.037 A 
ATOM     53  C   UNL A   1      45.808  31.457  27.821  1.00  0.00     0.049 A 
ATOM     54  C   UNL A   1      43.454  26.421  27.285  1.00  0.00     0.074 A 
ATOM     55  C   UNL A   1      47.104  31.593  27.351  1.00  0.00     0.029 A 
ATOM     56  N   UNL A   1      45.435  30.145  27.573  1.00  0.00    -0.354 N 
ATOM     57  N   UNL A   1      44.142  27.534  27.343  1.00  0.00    -0.248 NA
ATOM     58  C   UNL A   1      44.158  25.311  26.628  1.00  0.00     0.031 C 
ATOM     59  C   UNL A   1      47.499  30.376  26.782  1.00  0.00     0.029 A 
ATOM     60  C   UNL A   1      46.469  29.466  26.943  1.00  0.00     0.049 A 
ATOM     61  H   UNL A   1      44.564  29.750  27.811  1.00  0.00     0.167 HD
ATOM     62  C   UNL A   1      45.370  27.254  26.756  1.00  0.00     0.074 A 
ATOM     63  C   UNL A   1      45.338  25.857  26.372  1.00  0.00     0.031 C 
ATOM     64  C   UNL A   1      46.427  28.078  26.556  1.00  0.00     0.037 A 
BRANCH  51  65
ATOM     65  C   UNL A   1      45.488  33.860  28.540  1.00  0.00     0.057 A 
ATOM     66  C   UNL A   1      46.197  34.295  29.669  1.00  0.00     0.134 A 
ATOM     67  C   UNL A   1      45.231  34.812  27.542  1.00  0.00     0.134 A 
ATOM     68  F   UNL A   1      46.462  33.449  30.675  1.00  0.00    -0.206 F 
ATOM     69  C   UNL A   1      46.632  35.616  29.799  1.00  0.00     0.040 A 
ATOM     70  C   UNL A   1      45.688  36.128  27.646  1.00  0.00     0.040 A 
ATOM     71  F   UNL A   1      44.550  34.472  26.438  1.00  0.00    -0.206 F 
ATOM     72  C   UNL A   1      46.385  36.535  28.781  1.00  0.00     0.006 A 
ENDBRANCH  51  65
BRANCH  52  73
ATOM     73  C   UNL A   1      41.491  24.771  27.679  1.00  0.00     0.057 A 
ATOM     74  C   UNL A   1      41.910  23.713  28.492  1.00  0.00     0.134 A 
ATOM     75  C   UNL A   1      40.492  24.508  26.734  1.00  0.00     0.134 A 
ATOM     76  F   UNL A   1      42.875  23.900  29.403  1.00  0.00    -0.206 F 
ATOM     77  C   UNL A   1      41.353  22.439  28.372  1.00  0.00     0.040 A 
ATOM     78  C   UNL A   1      39.909  23.247  26.622  1.00  0.00     0.040 A 
ATOM     79  F   UNL A   1      40.044  25.488  25.935  1.00  0.00    -0.206 F 
ATOM     80  C   UNL A   1      40.342  22.206  27.441  1.00  0.00     0.006 A 
ENDBRANCH  52  73
BRANCH  64  81
ATOM     81  C   UNL A   1      47.644  27.476  25.912  1.00  0.00     0.057 A 
ATOM     82  C   UNL A   1      48.650  26.891  26.692  1.00  0.00     0.134 A 
ATOM     83  C   UNL A   1      47.822  27.469  24.521  1.00  0.00     0.134 A 
ATOM     84  F   UNL A   1      48.548  26.867  28.029  1.00  0.00    -0.206 F 
ATOM     85  C   UNL A   1      49.783  26.316  26.113  1.00  0.00     0.040 A 
ATOM     86  C   UNL A   1      48.936  26.871  23.929  1.00  0.00     0.040 A 
ATOM     87  F   UNL A   1      46.889  27.999  23.714  1.00  0.00    -0.206 F 
ATOM     88  C   UNL A   1      49.922  26.296  24.727  1.00  0.00     0.006 A 
ENDBRANCH  64  81
ENDBRANCH  38  39
ENDBRANCH  31  33
ENDBRANCH  30  31
ENDBRANCH  29  30
ENDBRANCH  28  29
ENDBRANCH  27  28
ENDBRANCH  26  27
ENDBRANCH   1  26
TORSDOF 20
ENDMDL
