MODEL 1
REMARK VINA RESULT:     -10.6      0.000      0.000
REMARK SMILES Cc1cccc(C)c1Nc1ccccc1CC(=O)OCCOCCOCCOC(=O)c1ccc(-c2c3nc(c(-c4c(F)cccc4F)c4ccc([nH]4)c(-c4c(F)cccc4F)c4nc(c(-c5c(F)cccc5F)c5ccc2[nH]5)C=C4)C=C3)cc1
REMARK SMILES IDX 23 1 22 2 21 3 20 4 19 5 17 6 18 7 16 8 15 9 10 10 11 11
REMARK SMILES IDX 12 12 14 13 13 14 9 15 8 17 1 18 2 19 3 20 4 21 6 22 5 23
REMARK SMILES IDX 7 24 24 25 25 26 26 27 27 28 28 29 29 30 30 31 31 32 32 33
REMARK SMILES IDX 84 34 33 35 83 36 34 37 35 38 36 39 77 40 37 41 82 42 76 43
REMARK SMILES IDX 78 44 38 45 81 46 75 47 74 48 39 50 65 51 48 52 64 53 49 54
REMARK SMILES IDX 52 55 63 56 79 57 50 58 51 59 62 61 80 62 53 63 40 64 41 65
REMARK SMILES IDX 46 66 42 67 43 68 45 69 47 70 44 71 66 72 67 73 72 74 68 75
REMARK SMILES IDX 69 76 71 77 73 78 70 79 54 80 55 81 60 82 56 83 57 84 59 85
REMARK SMILES IDX 61 86 58 87
REMARK H PARENT 9 16 78 49 52 60
REMARK Flexibility Score: inf
ROOT
ATOM      1  C   UNL A   1      39.686  21.639  26.059  1.00  0.00     0.188 C 
ENDROOT
BRANCH   1   2
ATOM      2  O   UNL A   1      39.342  22.770  26.855  1.00  0.00    -0.376 OA
BRANCH   2   3
ATOM      3  C   UNL A   1      38.463  23.743  26.306  1.00  0.00     0.202 C 
BRANCH   3   4
ATOM      4  C   UNL A   1      37.065  23.227  25.951  1.00  0.00     0.261 C 
BRANCH   4   5
ATOM      5  O   UNL A   1      36.689  23.555  24.596  1.00  0.00    -0.463 OA
BRANCH   5   6
ATOM      6  C   UNL A   1      35.435  24.042  24.418  1.00  0.00     0.310 C 
ATOM      7  O   UNL A   1      34.826  23.977  23.354  1.00  0.00    -0.252 OA
BRANCH   6   8
ATOM      8  C   UNL A   1      34.750  24.459  25.703  1.00  0.00     0.160 C 
BRANCH   8   9
ATOM      9  C   UNL A   1      33.257  24.244  25.905  1.00  0.00    -0.013 A 
ATOM     10  C   UNL A   1      32.272  25.220  25.664  1.00  0.00     0.042 A 
ATOM     11  C   UNL A   1      30.920  24.930  25.957  1.00  0.00     0.026 A 
ATOM     12  C   UNL A   1      30.519  23.659  26.360  1.00  0.00     0.002 A 
ATOM     13  C   UNL A   1      32.814  22.952  26.242  1.00  0.00     0.006 A 
ATOM     14  C   UNL A   1      31.467  22.655  26.466  1.00  0.00     0.000 A 
BRANCH  10  15
ATOM     15  N   UNL A   1      32.512  26.404  24.948  1.00  0.00    -0.355 N 
ATOM     16  H   UNL A   1      33.219  26.332  24.268  1.00  0.00     0.167 HD
BRANCH  15  17
ATOM     17  C   UNL A   1      31.913  27.683  25.035  1.00  0.00     0.044 A 
ATOM     18  C   UNL A   1      33.541  28.168  26.935  1.00  0.00     0.046 C 
ATOM     19  C   UNL A   1      32.472  28.596  25.964  1.00  0.00    -0.027 A 
ATOM     20  C   UNL A   1      32.068  29.940  25.959  1.00  0.00     0.005 A 
ATOM     21  C   UNL A   1      31.115  30.389  25.053  1.00  0.00     0.001 A 
ATOM     22  C   UNL A   1      30.870  28.130  24.181  1.00  0.00    -0.027 A 
ATOM     23  C   UNL A   1      30.515  29.491  24.180  1.00  0.00     0.005 A 
ATOM     24  C   UNL A   1      30.117  27.251  23.213  1.00  0.00     0.046 C 
ENDBRANCH  15  17
ENDBRANCH  10  15
ENDBRANCH   8   9
ENDBRANCH   6   8
ENDBRANCH   5   6
ENDBRANCH   4   5
ENDBRANCH   3   4
ENDBRANCH   2   3
ENDBRANCH   1   2
BRANCH   1  25
ATOM     25  C   UNL A   1      40.613  20.556  26.623  1.00  0.00     0.188 C 
BRANCH  25  26
ATOM     26  O   UNL A   1      41.720  20.306  25.768  1.00  0.00    -0.376 OA
BRANCH  26  27
ATOM     27  C   UNL A   1      42.940  20.817  26.287  1.00  0.00     0.202 C 
BRANCH  27  28
ATOM     28  C   UNL A   1      43.646  21.580  25.165  1.00  0.00     0.261 C 
BRANCH  28  29
ATOM     29  O   UNL A   1      43.028  22.846  24.839  1.00  0.00    -0.460 OA
BRANCH  29  30
ATOM     30  C   UNL A   1      43.788  23.948  24.992  1.00  0.00     0.338 C 
ATOM     31  O   UNL A   1      44.818  24.219  24.378  1.00  0.00    -0.246 OA
BRANCH  30  32
ATOM     32  C   UNL A   1      43.107  24.896  25.898  1.00  0.00     0.060 A 
ATOM     33  C   UNL A   1      43.474  26.246  25.859  1.00  0.00     0.016 A 
ATOM     34  C   UNL A   1      42.150  24.462  26.818  1.00  0.00     0.016 A 
ATOM     35  C   UNL A   1      42.904  27.165  26.742  1.00  0.00     0.010 A 
ATOM     36  C   UNL A   1      41.599  25.377  27.724  1.00  0.00     0.010 A 
ATOM     37  C   UNL A   1      41.992  26.728  27.710  1.00  0.00    -0.014 A 
BRANCH  37  38
ATOM     38  C   UNL A   1      41.589  27.630  28.820  1.00  0.00     0.031 A 
ATOM     39  C   UNL A   1      42.363  27.570  30.111  1.00  0.00     0.074 A 
ATOM     40  C   UNL A   1      40.574  28.504  28.692  1.00  0.00     0.049 A 
ATOM     41  N   UNL A   1      42.124  28.160  31.255  1.00  0.00    -0.248 NA
ATOM     42  C   UNL A   1      43.572  26.731  30.107  1.00  0.00     0.031 C 
ATOM     43  C   UNL A   1      39.792  28.725  27.477  1.00  0.00     0.029 A 
ATOM     44  N   UNL A   1      40.022  29.365  29.609  1.00  0.00    -0.354 N 
ATOM     45  C   UNL A   1      43.144  27.754  32.108  1.00  0.00     0.074 A 
ATOM     46  C   UNL A   1      43.990  26.851  31.358  1.00  0.00     0.031 C 
ATOM     47  C   UNL A   1      38.850  29.651  27.729  1.00  0.00     0.029 A 
ATOM     48  C   UNL A   1      38.933  30.054  29.132  1.00  0.00     0.049 A 
ATOM     49  H   UNL A   1      40.374  29.478  30.522  1.00  0.00     0.167 HD
ATOM     50  C   UNL A   1      43.360  28.106  33.398  1.00  0.00     0.037 A 
ATOM     51  C   UNL A   1      38.081  30.884  29.767  1.00  0.00     0.037 A 
ATOM     52  C   UNL A   1      42.522  29.003  34.147  1.00  0.00     0.049 A 
ATOM     53  C   UNL A   1      38.278  31.172  31.235  1.00  0.00     0.074 A 
ATOM     54  C   UNL A   1      42.646  29.402  35.466  1.00  0.00     0.029 A 
ATOM     55  N   UNL A   1      41.402  29.644  33.640  1.00  0.00    -0.354 N 
ATOM     56  N   UNL A   1      39.228  30.765  32.041  1.00  0.00    -0.248 NA
ATOM     57  C   UNL A   1      37.275  32.030  31.883  1.00  0.00     0.031 C 
ATOM     58  C   UNL A   1      41.579  30.253  35.770  1.00  0.00     0.029 A 
ATOM     59  C   UNL A   1      40.817  30.422  34.625  1.00  0.00     0.049 A 
ATOM     60  H   UNL A   1      41.070  29.556  32.717  1.00  0.00     0.167 HD
ATOM     61  C   UNL A   1      38.957  31.345  33.275  1.00  0.00     0.074 A 
ATOM     62  C   UNL A   1      37.761  32.142  33.110  1.00  0.00     0.031 C 
ATOM     63  C   UNL A   1      39.639  31.229  34.441  1.00  0.00     0.037 A 
BRANCH  50  64
ATOM     64  C   UNL A   1      44.542  27.495  34.091  1.00  0.00     0.057 A 
ATOM     65  C   UNL A   1      44.463  26.252  34.730  1.00  0.00     0.134 A 
ATOM     66  C   UNL A   1      45.783  28.144  34.089  1.00  0.00     0.134 A 
ATOM     67  F   UNL A   1      43.299  25.588  34.783  1.00  0.00    -0.206 F 
ATOM     68  C   UNL A   1      45.573  25.683  35.359  1.00  0.00     0.040 A 
ATOM     69  C   UNL A   1      46.907  27.574  34.691  1.00  0.00     0.040 A 
ATOM     70  F   UNL A   1      45.928  29.336  33.491  1.00  0.00    -0.206 F 
ATOM     71  C   UNL A   1      46.802  26.342  35.334  1.00  0.00     0.006 A 
ENDBRANCH  50  64
BRANCH  51  72
ATOM     72  C   UNL A   1      36.931  31.486  29.041  1.00  0.00     0.057 A 
ATOM     73  C   UNL A   1      36.968  32.813  28.597  1.00  0.00     0.134 A 
ATOM     74  C   UNL A   1      35.745  30.771  28.833  1.00  0.00     0.134 A 
ATOM     75  F   UNL A   1      38.064  33.560  28.796  1.00  0.00    -0.206 F 
ATOM     76  C   UNL A   1      35.862  33.415  27.994  1.00  0.00     0.040 A 
ATOM     77  C   UNL A   1      34.641  31.352  28.205  1.00  0.00     0.040 A 
ATOM     78  F   UNL A   1      35.640  29.498  29.242  1.00  0.00    -0.206 F 
ATOM     79  C   UNL A   1      34.694  32.681  27.794  1.00  0.00     0.006 A 
ENDBRANCH  51  72
BRANCH  63  80
ATOM     80  C   UNL A   1      39.144  32.024  35.615  1.00  0.00     0.057 A 
ATOM     81  C   UNL A   1      38.315  31.464  36.596  1.00  0.00     0.134 A 
ATOM     82  C   UNL A   1      39.537  33.358  35.787  1.00  0.00     0.134 A 
ATOM     83  F   UNL A   1      37.892  30.196  36.486  1.00  0.00    -0.206 F 
ATOM     84  C   UNL A   1      37.875  32.210  37.691  1.00  0.00     0.040 A 
ATOM     85  C   UNL A   1      39.126  34.105  36.892  1.00  0.00     0.040 A 
ATOM     86  F   UNL A   1      40.339  33.952  34.891  1.00  0.00    -0.206 F 
ATOM     87  C   UNL A   1      38.287  33.533  37.845  1.00  0.00     0.006 A 
ENDBRANCH  63  80
ENDBRANCH  37  38
ENDBRANCH  30  32
ENDBRANCH  29  30
ENDBRANCH  28  29
ENDBRANCH  27  28
ENDBRANCH  26  27
ENDBRANCH  25  26
ENDBRANCH   1  25
TORSDOF 20
ENDMDL
MODEL 2
REMARK VINA RESULT:     -10.3      2.852      8.264
REMARK SMILES Cc1cccc(C)c1Nc1ccccc1CC(=O)OCCOCCOCCOC(=O)c1ccc(-c2c3nc(c(-c4c(F)cccc4F)c4ccc([nH]4)c(-c4c(F)cccc4F)c4nc(c(-c5c(F)cccc5F)c5ccc2[nH]5)C=C4)C=C3)cc1
REMARK SMILES IDX 23 1 22 2 21 3 20 4 19 5 17 6 18 7 16 8 15 9 10 10 11 11
REMARK SMILES IDX 12 12 14 13 13 14 9 15 8 17 1 18 2 19 3 20 4 21 6 22 5 23
REMARK SMILES IDX 7 24 24 25 25 26 26 27 27 28 28 29 29 30 30 31 31 32 32 33
REMARK SMILES IDX 84 34 33 35 83 36 34 37 35 38 36 39 77 40 37 41 82 42 76 43
REMARK SMILES IDX 78 44 38 45 81 46 75 47 74 48 39 50 65 51 48 52 64 53 49 54
REMARK SMILES IDX 52 55 63 56 79 57 50 58 51 59 62 61 80 62 53 63 40 64 41 65
REMARK SMILES IDX 46 66 42 67 43 68 45 69 47 70 44 71 66 72 67 73 72 74 68 75
REMARK SMILES IDX 69 76 71 77 73 78 70 79 54 80 55 81 60 82 56 83 57 84 59 85
REMARK SMILES IDX 61 86 58 87
REMARK H PARENT 9 16 78 49 52 60
REMARK Flexibility Score: inf
ROOT
ATOM      1  C   UNL A   1      30.481  26.951  23.853  1.00  0.00     0.188 C 
ENDROOT
BRANCH   1   2
ATOM      2  O   UNL A   1      31.183  25.907  23.182  1.00  0.00    -0.376 OA
BRANCH   2   3
ATOM      3  C   UNL A   1      31.299  24.646  23.826  1.00  0.00     0.202 C 
BRANCH   3   4
ATOM      4  C   UNL A   1      31.339  24.701  25.357  1.00  0.00     0.261 C 
BRANCH   4   5
ATOM      5  O   UNL A   1      32.573  24.174  25.891  1.00  0.00    -0.463 OA
BRANCH   5   6
ATOM      6  C   UNL A   1      32.467  23.386  26.991  1.00  0.00     0.310 C 
ATOM      7  O   UNL A   1      31.406  23.166  27.568  1.00  0.00    -0.252 OA
BRANCH   6   8
ATOM      8  C   UNL A   1      33.725  22.605  27.310  1.00  0.00     0.160 C 
BRANCH   8   9
ATOM      9  C   UNL A   1      34.863  22.501  26.305  1.00  0.00    -0.013 A 
ATOM     10  C   UNL A   1      35.233  21.317  25.640  1.00  0.00     0.042 A 
ATOM     11  C   UNL A   1      36.355  21.324  24.781  1.00  0.00     0.026 A 
ATOM     12  C   UNL A   1      37.031  22.502  24.476  1.00  0.00     0.002 A 
ATOM     13  C   UNL A   1      35.518  23.686  25.922  1.00  0.00     0.006 A 
ATOM     14  C   UNL A   1      36.585  23.695  25.020  1.00  0.00     0.000 A 
BRANCH  10  15
ATOM     15  N   UNL A   1      34.432  20.164  25.606  1.00  0.00    -0.355 N 
ATOM     16  H   UNL A   1      34.211  19.795  26.492  1.00  0.00     0.167 HD
BRANCH  15  17
ATOM     17  C   UNL A   1      33.886  19.440  24.520  1.00  0.00     0.044 A 
ATOM     18  C   UNL A   1      35.642  17.656  25.002  1.00  0.00     0.046 C 
ATOM     19  C   UNL A   1      34.428  18.155  24.263  1.00  0.00    -0.027 A 
ATOM     20  C   UNL A   1      33.803  17.301  23.342  1.00  0.00     0.005 A 
ATOM     21  C   UNL A   1      32.657  17.703  22.668  1.00  0.00     0.001 A 
ATOM     22  C   UNL A   1      32.773  19.878  23.754  1.00  0.00    -0.027 A 
ATOM     23  C   UNL A   1      32.153  18.982  22.864  1.00  0.00     0.005 A 
ATOM     24  C   UNL A   1      32.153  21.250  23.849  1.00  0.00     0.046 C 
ENDBRANCH  15  17
ENDBRANCH  10  15
ENDBRANCH   8   9
ENDBRANCH   6   8
ENDBRANCH   5   6
ENDBRANCH   4   5
ENDBRANCH   3   4
ENDBRANCH   2   3
ENDBRANCH   1   2
BRANCH   1  25
ATOM     25  C   UNL A   1      30.071  28.215  23.089  1.00  0.00     0.188 C 
BRANCH  25  26
ATOM     26  O   UNL A   1      30.669  29.383  23.636  1.00  0.00    -0.376 OA
BRANCH  26  27
ATOM     27  C   UNL A   1      31.404  29.119  24.824  1.00  0.00     0.202 C 
BRANCH  27  28
ATOM     28  C   UNL A   1      31.544  30.433  25.592  1.00  0.00     0.261 C 
BRANCH  28  29
ATOM     29  O   UNL A   1      32.400  30.344  26.754  1.00  0.00    -0.460 OA
BRANCH  29  30
ATOM     30  C   UNL A   1      32.994  31.483  27.158  1.00  0.00     0.338 C 
ATOM     31  O   UNL A   1      32.475  32.596  27.225  1.00  0.00    -0.246 OA
BRANCH  30  32
ATOM     32  C   UNL A   1      34.340  31.179  27.687  1.00  0.00     0.060 A 
ATOM     33  C   UNL A   1      34.684  29.841  27.922  1.00  0.00     0.016 A 
ATOM     34  C   UNL A   1      35.244  32.195  28.000  1.00  0.00     0.016 A 
ATOM     35  C   UNL A   1      35.919  29.512  28.482  1.00  0.00     0.010 A 
ATOM     36  C   UNL A   1      36.472  31.868  28.590  1.00  0.00     0.010 A 
ATOM     37  C   UNL A   1      36.807  30.528  28.859  1.00  0.00    -0.014 A 
BRANCH  37  38
ATOM     38  C   UNL A   1      37.993  30.213  29.697  1.00  0.00     0.031 A 
ATOM     39  C   UNL A   1      39.049  29.299  29.133  1.00  0.00     0.074 A 
ATOM     40  C   UNL A   1      38.153  30.738  30.926  1.00  0.00     0.049 A 
ATOM     41  N   UNL A   1      40.101  28.780  29.714  1.00  0.00    -0.248 NA
ATOM     42  C   UNL A   1      38.895  28.922  27.719  1.00  0.00     0.031 C 
ATOM     43  C   UNL A   1      37.253  31.696  31.564  1.00  0.00     0.029 A 
ATOM     44  N   UNL A   1      39.136  30.523  31.862  1.00  0.00    -0.354 N 
ATOM     45  C   UNL A   1      40.726  28.008  28.743  1.00  0.00     0.074 A 
ATOM     46  C   UNL A   1      39.924  28.107  27.542  1.00  0.00     0.031 C 
ATOM     47  C   UNL A   1      37.718  31.976  32.795  1.00  0.00     0.029 A 
ATOM     48  C   UNL A   1      38.920  31.183  33.047  1.00  0.00     0.049 A 
ATOM     49  H   UNL A   1      39.920  29.952  31.698  1.00  0.00     0.167 HD
ATOM     50  C   UNL A   1      41.867  27.286  28.839  1.00  0.00     0.037 A 
ATOM     51  C   UNL A   1      39.595  31.124  34.213  1.00  0.00     0.037 A 
ATOM     52  C   UNL A   1      42.667  27.185  30.030  1.00  0.00     0.049 A 
ATOM     53  C   UNL A   1      40.801  30.224  34.329  1.00  0.00     0.074 A 
ATOM     54  C   UNL A   1      43.828  26.459  30.232  1.00  0.00     0.029 A 
ATOM     55  N   UNL A   1      42.389  27.833  31.224  1.00  0.00    -0.354 N 
ATOM     56  N   UNL A   1      41.372  29.477  33.414  1.00  0.00    -0.248 NA
ATOM     57  C   UNL A   1      41.452  30.153  35.646  1.00  0.00     0.031 C 
ATOM     58  C   UNL A   1      44.231  26.636  31.560  1.00  0.00     0.029 A 
ATOM     59  C   UNL A   1      43.347  27.511  32.170  1.00  0.00     0.049 A 
ATOM     60  H   UNL A   1      41.622  28.432  31.376  1.00  0.00     0.167 HD
ATOM     61  C   UNL A   1      42.463  28.880  34.034  1.00  0.00     0.074 A 
ATOM     62  C   UNL A   1      42.483  29.360  35.400  1.00  0.00     0.031 C 
ATOM     63  C   UNL A   1      43.369  28.013  33.520  1.00  0.00     0.037 A 
BRANCH  50  64
ATOM     64  C   UNL A   1      42.307  26.525  27.623  1.00  0.00     0.057 A 
ATOM     65  C   UNL A   1      43.093  27.117  26.626  1.00  0.00     0.134 A 
ATOM     66  C   UNL A   1      41.969  25.176  27.465  1.00  0.00     0.134 A 
ATOM     67  F   UNL A   1      43.437  28.410  26.709  1.00  0.00    -0.206 F 
ATOM     68  C   UNL A   1      43.513  26.396  25.505  1.00  0.00     0.040 A 
ATOM     69  C   UNL A   1      42.404  24.438  26.361  1.00  0.00     0.040 A 
ATOM     70  F   UNL A   1      41.221  24.548  28.385  1.00  0.00    -0.206 F 
ATOM     71  C   UNL A   1      43.173  25.050  25.375  1.00  0.00     0.006 A 
ENDBRANCH  50  64
BRANCH  51  72
ATOM     72  C   UNL A   1      39.141  31.909  35.391  1.00  0.00     0.057 A 
ATOM     73  C   UNL A   1      38.282  31.351  36.346  1.00  0.00     0.134 A 
ATOM     74  C   UNL A   1      39.500  33.252  35.556  1.00  0.00     0.134 A 
ATOM     75  F   UNL A   1      37.875  30.079  36.227  1.00  0.00    -0.206 F 
ATOM     76  C   UNL A   1      37.778  32.106  37.407  1.00  0.00     0.040 A 
ATOM     77  C   UNL A   1      39.027  34.011  36.629  1.00  0.00     0.040 A 
ATOM     78  F   UNL A   1      40.313  33.849  34.672  1.00  0.00    -0.206 F 
ATOM     79  C   UNL A   1      38.154  33.440  37.552  1.00  0.00     0.006 A 
ENDBRANCH  51  72
BRANCH  63  80
ATOM     80  C   UNL A   1      44.490  27.569  34.414  1.00  0.00     0.057 A 
ATOM     81  C   UNL A   1      44.408  26.406  35.189  1.00  0.00     0.134 A 
ATOM     82  C   UNL A   1      45.686  28.298  34.469  1.00  0.00     0.134 A 
ATOM     83  F   UNL A   1      43.287  25.669  35.192  1.00  0.00    -0.206 F 
ATOM     84  C   UNL A   1      45.465  25.996  36.005  1.00  0.00     0.040 A 
ATOM     85  C   UNL A   1      46.760  27.883  35.258  1.00  0.00     0.040 A 
ATOM     86  F   UNL A   1      45.836  29.416  33.743  1.00  0.00    -0.206 F 
ATOM     87  C   UNL A   1      46.648  26.733  36.035  1.00  0.00     0.006 A 
ENDBRANCH  63  80
ENDBRANCH  37  38
ENDBRANCH  30  32
ENDBRANCH  29  30
ENDBRANCH  28  29
ENDBRANCH  27  28
ENDBRANCH  26  27
ENDBRANCH  25  26
ENDBRANCH   1  25
TORSDOF 20
ENDMDL
MODEL 3
REMARK VINA RESULT:     -10.2      4.053      9.099
REMARK SMILES Cc1cccc(C)c1Nc1ccccc1CC(=O)OCCOCCOCCOC(=O)c1ccc(-c2c3nc(c(-c4c(F)cccc4F)c4ccc([nH]4)c(-c4c(F)cccc4F)c4nc(c(-c5c(F)cccc5F)c5ccc2[nH]5)C=C4)C=C3)cc1
REMARK SMILES IDX 23 1 22 2 21 3 20 4 19 5 17 6 18 7 16 8 15 9 10 10 11 11
REMARK SMILES IDX 12 12 14 13 13 14 9 15 8 17 1 18 2 19 3 20 4 21 6 22 5 23
REMARK SMILES IDX 7 24 24 25 25 26 26 27 27 28 28 29 29 30 30 31 31 32 32 33
REMARK SMILES IDX 84 34 33 35 83 36 34 37 35 38 36 39 77 40 37 41 82 42 76 43
REMARK SMILES IDX 78 44 38 45 81 46 75 47 74 48 39 50 65 51 48 52 64 53 49 54
REMARK SMILES IDX 52 55 63 56 79 57 50 58 51 59 62 61 80 62 53 63 40 64 41 65
REMARK SMILES IDX 46 66 42 67 43 68 45 69 47 70 44 71 66 72 67 73 72 74 68 75
REMARK SMILES IDX 69 76 71 77 73 78 70 79 54 80 55 81 60 82 56 83 57 84 59 85
REMARK SMILES IDX 61 86 58 87
REMARK H PARENT 9 16 78 49 52 60
REMARK Flexibility Score: inf
ROOT
ATOM      1  C   UNL A   1      31.223  27.445  24.973  1.00  0.00     0.188 C 
ENDROOT
BRANCH   1   2
ATOM      2  O   UNL A   1      31.323  26.518  23.895  1.00  0.00    -0.376 OA
BRANCH   2   3
ATOM      3  C   UNL A   1      30.456  25.392  23.887  1.00  0.00     0.202 C 
BRANCH   3   4
ATOM      4  C   UNL A   1      31.019  24.143  23.201  1.00  0.00     0.261 C 
BRANCH   4   5
ATOM      5  O   UNL A   1      32.388  24.323  22.778  1.00  0.00    -0.463 OA
BRANCH   5   6
ATOM      6  C   UNL A   1      33.222  23.269  22.967  1.00  0.00     0.310 C 
ATOM      7  O   UNL A   1      34.316  23.163  22.420  1.00  0.00    -0.252 OA
BRANCH   6   8
ATOM      8  C   UNL A   1      32.801  22.347  24.092  1.00  0.00     0.160 C 
BRANCH   8   9
ATOM      9  C   UNL A   1      33.114  20.858  24.049  1.00  0.00    -0.013 A 
ATOM     10  C   UNL A   1      34.192  20.250  24.718  1.00  0.00     0.042 A 
ATOM     11  C   UNL A   1      34.427  18.868  24.545  1.00  0.00     0.026 A 
ATOM     12  C   UNL A   1      33.545  18.063  23.828  1.00  0.00     0.002 A 
ATOM     13  C   UNL A   1      32.203  20.010  23.392  1.00  0.00     0.006 A 
ATOM     14  C   UNL A   1      32.407  18.632  23.281  1.00  0.00     0.000 A 
BRANCH  10  15
ATOM     15  N   UNL A   1      34.936  20.885  25.726  1.00  0.00    -0.355 N 
ATOM     16  H   UNL A   1      34.563  20.786  26.631  1.00  0.00     0.167 HD
BRANCH  15  17
ATOM     17  C   UNL A   1      36.129  21.643  25.665  1.00  0.00     0.044 A 
ATOM     18  C   UNL A   1      34.707  23.679  26.240  1.00  0.00     0.046 C 
ATOM     19  C   UNL A   1      36.039  23.018  26.000  1.00  0.00    -0.027 A 
ATOM     20  C   UNL A   1      37.206  23.779  26.163  1.00  0.00     0.005 A 
ATOM     21  C   UNL A   1      38.458  23.202  25.992  1.00  0.00     0.001 A 
ATOM     22  C   UNL A   1      37.409  21.088  25.398  1.00  0.00    -0.027 A 
ATOM     23  C   UNL A   1      38.558  21.872  25.603  1.00  0.00     0.005 A 
ATOM     24  C   UNL A   1      37.650  19.671  24.938  1.00  0.00     0.046 C 
ENDBRANCH  15  17
ENDBRANCH  10  15
ENDBRANCH   8   9
ENDBRANCH   6   8
ENDBRANCH   5   6
ENDBRANCH   4   5
ENDBRANCH   3   4
ENDBRANCH   2   3
ENDBRANCH   1   2
BRANCH   1  25
ATOM     25  C   UNL A   1      32.331  28.479  25.202  1.00  0.00     0.188 C 
BRANCH  25  26
ATOM     26  O   UNL A   1      31.808  29.792  25.354  1.00  0.00    -0.376 OA
BRANCH  26  27
ATOM     27  C   UNL A   1      31.896  30.267  26.691  1.00  0.00     0.202 C 
BRANCH  27  28
ATOM     28  C   UNL A   1      33.281  29.907  27.229  1.00  0.00     0.261 C 
BRANCH  28  29
ATOM     29  O   UNL A   1      34.205  31.018  27.257  1.00  0.00    -0.460 OA
BRANCH  29  30
ATOM     30  C   UNL A   1      34.818  31.267  28.430  1.00  0.00     0.338 C 
ATOM     31  O   UNL A   1      34.357  31.901  29.378  1.00  0.00    -0.246 OA
BRANCH  30  32
ATOM     32  C   UNL A   1      36.086  30.511  28.497  1.00  0.00     0.060 A 
ATOM     33  C   UNL A   1      36.462  29.933  29.716  1.00  0.00     0.016 A 
ATOM     34  C   UNL A   1      36.929  30.407  27.389  1.00  0.00     0.016 A 
ATOM     35  C   UNL A   1      37.682  29.266  29.841  1.00  0.00     0.010 A 
ATOM     36  C   UNL A   1      38.166  29.764  27.521  1.00  0.00     0.010 A 
ATOM     37  C   UNL A   1      38.562  29.213  28.754  1.00  0.00    -0.014 A 
BRANCH  37  38
ATOM     38  C   UNL A   1      39.962  28.753  28.945  1.00  0.00     0.031 A 
ATOM     39  C   UNL A   1      40.962  29.716  29.531  1.00  0.00     0.074 A 
ATOM     40  C   UNL A   1      40.348  27.503  28.631  1.00  0.00     0.049 A 
ATOM     41  N   UNL A   1      42.256  29.591  29.674  1.00  0.00    -0.248 NA
ATOM     42  C   UNL A   1      40.422  30.994  30.024  1.00  0.00     0.031 C 
ATOM     43  C   UNL A   1      39.473  26.445  28.132  1.00  0.00     0.029 A 
ATOM     44  N   UNL A   1      41.590  26.918  28.679  1.00  0.00    -0.354 N 
ATOM     45  C   UNL A   1      42.687  30.776  30.260  1.00  0.00     0.074 A 
ATOM     46  C   UNL A   1      41.520  31.615  30.426  1.00  0.00     0.031 C 
ATOM     47  C   UNL A   1      40.209  25.342  27.905  1.00  0.00     0.029 A 
ATOM     48  C   UNL A   1      41.612  25.631  28.198  1.00  0.00     0.049 A 
ATOM     49  H   UNL A   1      42.389  27.378  29.025  1.00  0.00     0.167 HD
ATOM     50  C   UNL A   1      43.939  31.130  30.633  1.00  0.00     0.037 A 
ATOM     51  C   UNL A   1      42.650  24.798  27.986  1.00  0.00     0.037 A 
ATOM     52  C   UNL A   1      45.101  30.299  30.471  1.00  0.00     0.049 A 
ATOM     53  C   UNL A   1      44.051  25.258  28.306  1.00  0.00     0.074 A 
ATOM     54  C   UNL A   1      46.417  30.580  30.798  1.00  0.00     0.029 A 
ATOM     55  N   UNL A   1      45.087  29.019  29.938  1.00  0.00    -0.354 N 
ATOM     56  N   UNL A   1      44.454  26.388  28.835  1.00  0.00    -0.248 NA
ATOM     57  C   UNL A   1      45.145  24.328  27.987  1.00  0.00     0.031 C 
ATOM     58  C   UNL A   1      47.205  29.485  30.424  1.00  0.00     0.029 A 
ATOM     59  C   UNL A   1      46.372  28.504  29.911  1.00  0.00     0.049 A 
ATOM     60  H   UNL A   1      44.282  28.547  29.623  1.00  0.00     0.167 HD
ATOM     61  C   UNL A   1      45.836  26.288  28.946  1.00  0.00     0.074 A 
ATOM     62  C   UNL A   1      46.203  24.983  28.440  1.00  0.00     0.031 C 
ATOM     63  C   UNL A   1      46.722  27.194  29.425  1.00  0.00     0.037 A 
BRANCH  50  64
ATOM     64  C   UNL A   1      44.121  32.493  31.234  1.00  0.00     0.057 A 
ATOM     65  C   UNL A   1      44.073  32.702  32.618  1.00  0.00     0.134 A 
ATOM     66  C   UNL A   1      44.380  33.603  30.420  1.00  0.00     0.134 A 
ATOM     67  F   UNL A   1      43.812  31.684  33.451  1.00  0.00    -0.206 F 
ATOM     68  C   UNL A   1      44.260  33.971  33.170  1.00  0.00     0.040 A 
ATOM     69  C   UNL A   1      44.593  34.872  30.962  1.00  0.00     0.040 A 
ATOM     70  F   UNL A   1      44.441  33.470  29.087  1.00  0.00    -0.206 F 
ATOM     71  C   UNL A   1      44.528  35.059  32.341  1.00  0.00     0.006 A 
ENDBRANCH  50  64
BRANCH  51  72
ATOM     72  C   UNL A   1      42.429  23.446  27.407  1.00  0.00     0.057 A 
ATOM     73  C   UNL A   1      42.172  22.340  28.226  1.00  0.00     0.134 A 
ATOM     74  C   UNL A   1      42.533  23.216  26.030  1.00  0.00     0.134 A 
ATOM     75  F   UNL A   1      42.093  22.489  29.557  1.00  0.00    -0.206 F 
ATOM     76  C   UNL A   1      42.051  21.052  27.700  1.00  0.00     0.040 A 
ATOM     77  C   UNL A   1      42.385  21.938  25.488  1.00  0.00     0.040 A 
ATOM     78  F   UNL A   1      42.786  24.231  25.191  1.00  0.00    -0.206 F 
ATOM     79  C   UNL A   1      42.154  20.849  26.325  1.00  0.00     0.006 A 
ENDBRANCH  51  72
BRANCH  63  80
ATOM     80  C   UNL A   1      48.167  26.790  29.479  1.00  0.00     0.057 A 
ATOM     81  C   UNL A   1      49.074  27.132  28.468  1.00  0.00     0.134 A 
ATOM     82  C   UNL A   1      48.666  26.081  30.581  1.00  0.00     0.134 A 
ATOM     83  F   UNL A   1      48.660  27.800  27.381  1.00  0.00    -0.206 F 
ATOM     84  C   UNL A   1      50.419  26.763  28.539  1.00  0.00     0.040 A 
ATOM     85  C   UNL A   1      50.014  25.731  30.676  1.00  0.00     0.040 A 
ATOM     86  F   UNL A   1      47.854  25.731  31.590  1.00  0.00    -0.206 F 
ATOM     87  C   UNL A   1      50.893  26.066  29.650  1.00  0.00     0.006 A 
ENDBRANCH  63  80
ENDBRANCH  37  38
ENDBRANCH  30  32
ENDBRANCH  29  30
ENDBRANCH  28  29
ENDBRANCH  27  28
ENDBRANCH  26  27
ENDBRANCH  25  26
ENDBRANCH   1  25
TORSDOF 20
ENDMDL
