MODEL 1
REMARK VINA RESULT:     -14.2      0.000      0.000
REMARK SMILES Cc1ccc(-c2cc(Cl)cc3c2O[C@H](C(F)(F)F)C(C(=O)OCCOCCOCCOC(=O)c2ccc(-c4c5nc(c(-c6c(F)cccc6F)c6ccc([nH]6)c(-c6c(F)cccc6F)c6nc(c(-c7c(F)cccc7F)c7ccc4[nH]7)C=C6)C=C5)cc2)=C3)cc1F
REMARK SMILES IDX 27 1 26 2 25 3 24 4 23 5 22 6 20 7 21 8 19 9 6 10 7 11 12 12
REMARK SMILES IDX 8 13 11 14 13 15 9 16 10 17 88 18 14 19 5 20 1 21 2 22 3 23
REMARK SMILES IDX 90 24 4 25 89 26 91 27 15 28 16 29 17 30 18 31 28 32 29 33
REMARK SMILES IDX 30 34 31 35 32 36 33 37 34 38 35 39 87 40 36 41 86 42 37 43
REMARK SMILES IDX 38 44 39 45 80 46 40 47 85 48 79 49 81 50 41 51 84 52 78 53
REMARK SMILES IDX 77 54 42 56 68 57 51 58 67 59 52 60 55 61 66 62 82 63 53 64
REMARK SMILES IDX 54 65 65 67 83 68 56 69 43 70 44 71 49 72 45 73 46 74 48 75
REMARK SMILES IDX 50 76 47 77 69 78 70 79 75 80 71 81 72 82 74 83 76 84 73 85
REMARK SMILES IDX 57 86 58 87 63 88 59 89 60 90 62 91 64 92 61 93
REMARK H PARENT 81 55 55 66
REMARK Flexibility Score: inf
ROOT
ATOM      1  C   UNL A   1      35.423  29.915  27.647  1.00  0.00     0.188 C 
ENDROOT
BRANCH   1   2
ATOM      2  C   UNL A   1      34.174  29.063  26.752  1.00  0.00     0.188 C 
BRANCH   2   3
ATOM      3  O   UNL A   1      33.026  29.680  25.196  1.00  0.00    -0.376 OA
BRANCH   3   4
ATOM      4  C   UNL A   1      31.569  28.923  24.485  1.00  0.00     0.202 C 
BRANCH   4   5
ATOM      5  C   UNL A   1      31.474  28.239  22.767  1.00  0.00     0.261 C 
BRANCH   5   6
ATOM      6  O   UNL A   1      31.926  26.700  22.342  1.00  0.00    -0.460 OA
BRANCH   6   7
ATOM      7  C   UNL A   1      31.551  25.485  22.903  1.00  0.00     0.338 C 
ATOM      8  O   UNL A   1      30.467  25.275  23.442  1.00  0.00    -0.246 OA
BRANCH   7   9
ATOM      9  C   UNL A   1      32.514  24.290  22.899  1.00  0.00     0.087 C 
ATOM     10  C   UNL A   1      35.025  21.310  24.644  1.00  0.00     0.026 A 
ATOM     11  C   UNL A   1      34.504  20.059  25.011  1.00  0.00     0.033 A 
ATOM     12  C   UNL A   1      34.218  22.251  23.953  1.00  0.00     0.135 A 
ATOM     13  C   UNL A   1      33.184  19.767  24.719  1.00  0.00     0.042 A 
ATOM     14  C   UNL A   1      32.913  21.952  23.626  1.00  0.00     0.019 A 
ATOM     15  O   UNL A   1      34.771  23.446  23.554  1.00  0.00    -0.475 OA
ATOM     16  Cl  UNL A   1      32.522  18.241  25.181  1.00  0.00    -0.084 Cl
ATOM     17  C   UNL A   1      32.393  20.708  24.050  1.00  0.00     0.032 A 
ATOM     18  C   UNL A   1      32.149  22.985  22.894  1.00  0.00     0.027 C 
ATOM     19  C   UNL A   1      33.885  24.604  23.435  1.00  0.00     0.316 C 
BRANCH  10  20
ATOM     20  C   UNL A   1      36.388  21.675  25.006  1.00  0.00    -0.012 A 
ATOM     21  C   UNL A   1      40.198  22.361  26.842  1.00  0.00     0.047 C 
ATOM     22  C   UNL A   1      38.898  22.174  26.129  1.00  0.00    -0.015 A 
ATOM     23  C   UNL A   1      37.942  23.195  26.067  1.00  0.00     0.007 A 
ATOM     24  C   UNL A   1      38.610  20.935  25.559  1.00  0.00     0.126 A 
ATOM     25  C   UNL A   1      36.691  22.949  25.504  1.00  0.00     0.009 A 
ATOM     26  C   UNL A   1      37.379  20.687  24.982  1.00  0.00     0.048 A 
ATOM     27  F   UNL A   1      39.507  19.942  25.613  1.00  0.00    -0.207 F 
ENDBRANCH  10  20
BRANCH  19  28
ATOM     28  C   UNL A   1      33.880  25.401  24.742  1.00  0.00     0.430 C 
ATOM     29  F   UNL A   1      32.713  25.219  25.405  1.00  0.00    -0.167 F 
ATOM     30  F   UNL A   1      34.856  24.982  25.580  1.00  0.00    -0.167 F 
ATOM     31  F   UNL A   1      34.025  26.729  24.537  1.00  0.00    -0.167 F 
ENDBRANCH  19  28
ENDBRANCH   7   9
ENDBRANCH   6   7
ENDBRANCH   5   6
ENDBRANCH   4   5
ENDBRANCH   3   4
ENDBRANCH   2   3
ENDBRANCH   1   2
BRANCH   1  32
ATOM     32  O   UNL A   1      35.455  30.962  28.607  1.00  0.00    -0.376 OA
BRANCH  32  33
ATOM     33  C   UNL A   1      34.890  32.245  28.369  1.00  0.00     0.202 C 
BRANCH  33  34
ATOM     34  C   UNL A   1      34.483  33.225  29.502  1.00  0.00     0.261 C 
BRANCH  34  35
ATOM     35  O   UNL A   1      34.377  32.691  30.832  1.00  0.00    -0.460 OA
BRANCH  35  36
ATOM     36  C   UNL A   1      34.709  33.539  31.853  1.00  0.00     0.338 C 
ATOM     37  O   UNL A   1      33.922  34.151  32.553  1.00  0.00    -0.246 OA
BRANCH  36  38
ATOM     38  C   UNL A   1      36.131  33.253  32.257  1.00  0.00     0.060 A 
ATOM     39  C   UNL A   1      37.229  33.978  31.751  1.00  0.00     0.016 A 
ATOM     40  C   UNL A   1      36.328  31.948  32.729  1.00  0.00     0.016 A 
ATOM     41  C   UNL A   1      38.481  33.344  31.596  1.00  0.00     0.010 A 
ATOM     42  C   UNL A   1      37.549  31.317  32.517  1.00  0.00     0.010 A 
ATOM     43  C   UNL A   1      38.612  31.978  31.886  1.00  0.00    -0.014 A 
BRANCH  43  44
ATOM     44  C   UNL A   1      39.867  31.215  31.752  1.00  0.00     0.031 A 
ATOM     45  C   UNL A   1      39.793  30.097  30.798  1.00  0.00     0.074 A 
ATOM     46  C   UNL A   1      41.061  31.525  32.329  1.00  0.00     0.049 A 
ATOM     47  N   UNL A   1      40.513  29.041  30.866  1.00  0.00    -0.248 NA
ATOM     48  C   UNL A   1      38.847  30.079  29.681  1.00  0.00     0.031 C 
ATOM     49  C   UNL A   1      42.418  31.017  32.132  1.00  0.00     0.029 A 
ATOM     50  N   UNL A   1      41.302  32.372  33.391  1.00  0.00    -0.354 N 
ATOM     51  C   UNL A   1      40.442  28.453  29.625  1.00  0.00     0.074 A 
ATOM     52  C   UNL A   1      39.269  29.009  29.002  1.00  0.00     0.031 C 
ATOM     53  C   UNL A   1      43.126  31.178  33.276  1.00  0.00     0.029 A 
ATOM     54  C   UNL A   1      42.208  31.755  34.240  1.00  0.00     0.049 A 
ATOM     55  H   UNL A   1      40.900  33.260  33.523  1.00  0.00     0.167 HD
ATOM     56  C   UNL A   1      41.522  27.752  29.183  1.00  0.00     0.037 A 
ATOM     57  C   UNL A   1      41.819  31.402  35.488  1.00  0.00     0.037 A 
ATOM     58  C   UNL A   1      42.582  27.779  30.190  1.00  0.00     0.049 A 
ATOM     59  C   UNL A   1      42.161  29.956  35.589  1.00  0.00     0.074 A 
ATOM     60  C   UNL A   1      43.732  28.543  30.308  1.00  0.00     0.029 A 
ATOM     61  N   UNL A   1      42.343  27.233  31.446  1.00  0.00    -0.354 N 
ATOM     62  N   UNL A   1      41.976  29.137  34.580  1.00  0.00    -0.248 NA
ATOM     63  C   UNL A   1      43.041  29.416  36.625  1.00  0.00     0.031 C 
ATOM     64  C   UNL A   1      44.173  28.462  31.657  1.00  0.00     0.029 A 
ATOM     65  C   UNL A   1      43.253  27.706  32.368  1.00  0.00     0.049 A 
ATOM     66  H   UNL A   1      41.621  26.595  31.649  1.00  0.00     0.167 HD
ATOM     67  C   UNL A   1      42.856  28.097  34.725  1.00  0.00     0.074 A 
ATOM     68  C   UNL A   1      43.446  28.274  36.045  1.00  0.00     0.031 C 
ATOM     69  C   UNL A   1      43.215  27.229  33.737  1.00  0.00     0.037 A 
BRANCH  56  70
ATOM     70  C   UNL A   1      41.742  27.322  27.756  1.00  0.00     0.057 A 
ATOM     71  C   UNL A   1      42.068  28.267  26.761  1.00  0.00     0.134 A 
ATOM     72  C   UNL A   1      41.682  25.994  27.301  1.00  0.00     0.134 A 
ATOM     73  F   UNL A   1      42.204  29.569  27.033  1.00  0.00    -0.206 F 
ATOM     74  C   UNL A   1      42.283  27.928  25.422  1.00  0.00     0.040 A 
ATOM     75  C   UNL A   1      41.861  25.645  25.953  1.00  0.00     0.040 A 
ATOM     76  F   UNL A   1      41.503  24.970  28.144  1.00  0.00    -0.206 F 
ATOM     77  C   UNL A   1      42.169  26.613  25.008  1.00  0.00     0.006 A 
ENDBRANCH  56  70
BRANCH  57  78
ATOM     78  C   UNL A   1      40.686  32.281  35.967  1.00  0.00     0.057 A 
ATOM     79  C   UNL A   1      39.151  31.378  36.088  1.00  0.00     0.134 A 
ATOM     80  C   UNL A   1      40.749  33.846  36.667  1.00  0.00     0.134 A 
ATOM     81  F   UNL A   1      39.110  30.527  35.060  1.00  0.00    -0.206 F 
ATOM     82  C   UNL A   1      37.636  32.113  36.953  1.00  0.00     0.040 A 
ATOM     83  C   UNL A   1      39.366  34.625  37.453  1.00  0.00     0.040 A 
ATOM     84  F   UNL A   1      41.956  34.407  36.857  1.00  0.00    -0.206 F 
ATOM     85  C   UNL A   1      37.798  33.816  37.591  1.00  0.00     0.006 A 
ENDBRANCH  57  78
BRANCH  69  86
ATOM     86  C   UNL A   1      43.612  25.811  34.020  1.00  0.00     0.057 A 
ATOM     87  C   UNL A   1      44.908  25.330  33.785  1.00  0.00     0.134 A 
ATOM     88  C   UNL A   1      42.766  24.951  34.753  1.00  0.00     0.134 A 
ATOM     89  F   UNL A   1      45.859  26.093  33.228  1.00  0.00    -0.206 F 
ATOM     90  C   UNL A   1      45.312  24.057  34.178  1.00  0.00     0.040 A 
ATOM     91  C   UNL A   1      43.185  23.706  35.215  1.00  0.00     0.040 A 
ATOM     92  F   UNL A   1      41.518  25.296  35.101  1.00  0.00    -0.206 F 
ATOM     93  C   UNL A   1      44.455  23.246  34.908  1.00  0.00     0.006 A 
ENDBRANCH  69  86
ENDBRANCH  43  44
ENDBRANCH  36  38
ENDBRANCH  35  36
ENDBRANCH  34  35
ENDBRANCH  33  34
ENDBRANCH  32  33
ENDBRANCH   1  32
TORSDOF 19
ENDMDL
MODEL 2
REMARK VINA RESULT:     -13.8      4.272      9.852
REMARK SMILES Cc1ccc(-c2cc(Cl)cc3c2O[C@H](C(F)(F)F)C(C(=O)OCCOCCOCCOC(=O)c2ccc(-c4c5nc(c(-c6c(F)cccc6F)c6ccc([nH]6)c(-c6c(F)cccc6F)c6nc(c(-c7c(F)cccc7F)c7ccc4[nH]7)C=C6)C=C5)cc2)=C3)cc1F
REMARK SMILES IDX 27 1 26 2 25 3 24 4 23 5 22 6 20 7 21 8 19 9 6 10 7 11 12 12
REMARK SMILES IDX 8 13 11 14 13 15 9 16 10 17 88 18 14 19 5 20 1 21 2 22 3 23
REMARK SMILES IDX 90 24 4 25 89 26 91 27 15 28 16 29 17 30 18 31 28 32 29 33
REMARK SMILES IDX 30 34 31 35 32 36 33 37 34 38 35 39 87 40 36 41 86 42 37 43
REMARK SMILES IDX 38 44 39 45 80 46 40 47 85 48 79 49 81 50 41 51 84 52 78 53
REMARK SMILES IDX 77 54 42 56 68 57 51 58 67 59 52 60 55 61 66 62 82 63 53 64
REMARK SMILES IDX 54 65 65 67 83 68 56 69 43 70 44 71 49 72 45 73 46 74 48 75
REMARK SMILES IDX 50 76 47 77 69 78 70 79 75 80 71 81 72 82 74 83 76 84 73 85
REMARK SMILES IDX 57 86 58 87 63 88 59 89 60 90 62 91 64 92 61 93
REMARK H PARENT 81 55 55 66
REMARK Flexibility Score: inf
ROOT
ATOM      1  C   UNL A   1      38.895  21.386  25.840  1.00  0.00     0.188 C 
ENDROOT
BRANCH   1   2
ATOM      2  C   UNL A   1      37.356  22.203  25.614  1.00  0.00     0.188 C 
BRANCH   2   3
ATOM      3  O   UNL A   1      35.818  21.776  24.360  1.00  0.00    -0.376 OA
BRANCH   3   4
ATOM      4  C   UNL A   1      34.325  20.840  24.667  1.00  0.00     0.202 C 
BRANCH   4   5
ATOM      5  C   UNL A   1      33.155  21.159  26.067  1.00  0.00     0.261 C 
BRANCH   5   6
ATOM      6  O   UNL A   1      31.864  22.199  25.995  1.00  0.00    -0.460 OA
BRANCH   6   7
ATOM      7  C   UNL A   1      31.513  23.100  24.996  1.00  0.00     0.338 C 
ATOM      8  O   UNL A   1      31.474  22.827  23.798  1.00  0.00    -0.246 OA
BRANCH   7   9
ATOM      9  C   UNL A   1      31.156  24.552  25.340  1.00  0.00     0.087 C 
ATOM     10  C   UNL A   1      31.607  28.796  25.247  1.00  0.00     0.026 A 
ATOM     11  C   UNL A   1      30.981  29.562  24.251  1.00  0.00     0.033 A 
ATOM     12  C   UNL A   1      31.356  27.404  25.348  1.00  0.00     0.135 A 
ATOM     13  C   UNL A   1      30.140  28.936  23.348  1.00  0.00     0.042 A 
ATOM     14  C   UNL A   1      30.490  26.779  24.476  1.00  0.00     0.019 A 
ATOM     15  O   UNL A   1      31.937  26.689  26.370  1.00  0.00    -0.475 OA
ATOM     16  Cl  UNL A   1      29.377  29.858  22.105  1.00  0.00    -0.084 Cl
ATOM     17  C   UNL A   1      29.911  27.558  23.449  1.00  0.00     0.032 A 
ATOM     18  C   UNL A   1      30.277  25.328  24.663  1.00  0.00     0.027 C 
ATOM     19  C   UNL A   1      32.208  25.268  26.144  1.00  0.00     0.316 C 
BRANCH  10  20
ATOM     20  C   UNL A   1      32.556  29.414  26.163  1.00  0.00    -0.012 A 
ATOM     21  C   UNL A   1      35.541  31.749  28.163  1.00  0.00     0.047 C 
ATOM     22  C   UNL A   1      34.496  30.881  27.542  1.00  0.00    -0.015 A 
ATOM     23  C   UNL A   1      34.800  29.607  27.046  1.00  0.00     0.007 A 
ATOM     24  C   UNL A   1      33.199  31.372  27.405  1.00  0.00     0.126 A 
ATOM     25  C   UNL A   1      33.833  28.873  26.361  1.00  0.00     0.009 A 
ATOM     26  C   UNL A   1      32.228  30.645  26.744  1.00  0.00     0.048 A 
ATOM     27  F   UNL A   1      32.888  32.591  27.867  1.00  0.00    -0.207 F 
ENDBRANCH  10  20
BRANCH  19  28
ATOM     28  C   UNL A   1      33.634  25.080  25.620  1.00  0.00     0.430 C 
ATOM     29  F   UNL A   1      34.420  26.117  25.998  1.00  0.00    -0.167 F 
ATOM     30  F   UNL A   1      34.207  23.968  26.135  1.00  0.00    -0.167 F 
ATOM     31  F   UNL A   1      33.683  25.008  24.272  1.00  0.00    -0.167 F 
ENDBRANCH  19  28
ENDBRANCH   7   9
ENDBRANCH   6   7
ENDBRANCH   5   6
ENDBRANCH   4   5
ENDBRANCH   3   4
ENDBRANCH   2   3
ENDBRANCH   1   2
BRANCH   1  32
ATOM     32  O   UNL A   1      39.960  21.459  26.776  1.00  0.00    -0.376 OA
BRANCH  32  33
ATOM     33  C   UNL A   1      41.287  21.048  26.470  1.00  0.00     0.202 C 
BRANCH  33  34
ATOM     34  C   UNL A   1      42.309  21.943  25.718  1.00  0.00     0.261 C 
BRANCH  34  35
ATOM     35  O   UNL A   1      43.655  21.453  25.599  1.00  0.00    -0.460 OA
BRANCH  35  36
ATOM     36  C   UNL A   1      44.490  22.170  24.786  1.00  0.00     0.338 C 
ATOM     37  O   UNL A   1      44.541  22.090  23.571  1.00  0.00    -0.246 OA
BRANCH  36  38
ATOM     38  C   UNL A   1      44.995  23.357  25.562  1.00  0.00     0.060 A 
ATOM     39  C   UNL A   1      45.330  23.290  26.930  1.00  0.00     0.016 A 
ATOM     40  C   UNL A   1      44.624  24.589  25.005  1.00  0.00     0.016 A 
ATOM     41  C   UNL A   1      45.158  24.423  27.754  1.00  0.00     0.010 A 
ATOM     42  C   UNL A   1      44.404  25.681  25.838  1.00  0.00     0.010 A 
ATOM     43  C   UNL A   1      44.596  25.593  27.224  1.00  0.00    -0.014 A 
BRANCH  43  44
ATOM     44  C   UNL A   1      44.365  26.830  27.994  1.00  0.00     0.031 A 
ATOM     45  C   UNL A   1      42.950  27.218  28.097  1.00  0.00     0.074 A 
ATOM     46  C   UNL A   1      45.306  27.536  28.680  1.00  0.00     0.049 A 
ATOM     47  N   UNL A   1      42.541  28.422  28.250  1.00  0.00    -0.248 NA
ATOM     48  C   UNL A   1      41.859  26.247  27.999  1.00  0.00     0.031 C 
ATOM     49  C   UNL A   1      45.213  28.628  29.648  1.00  0.00     0.029 A 
ATOM     50  N   UNL A   1      46.678  27.479  28.552  1.00  0.00    -0.354 N 
ATOM     51  C   UNL A   1      41.243  28.327  28.694  1.00  0.00     0.074 A 
ATOM     52  C   UNL A   1      40.810  27.001  28.340  1.00  0.00     0.031 C 
ATOM     53  C   UNL A   1      46.348  29.367  29.599  1.00  0.00     0.029 A 
ATOM     54  C   UNL A   1      47.168  28.776  28.557  1.00  0.00     0.049 A 
ATOM     55  H   UNL A   1      47.216  26.660  28.471  1.00  0.00     0.167 HD
ATOM     56  C   UNL A   1      40.775  29.299  29.525  1.00  0.00     0.037 A 
ATOM     57  C   UNL A   1      47.764  29.269  27.446  1.00  0.00     0.037 A 
ATOM     58  C   UNL A   1      41.821  30.290  29.774  1.00  0.00     0.049 A 
ATOM     59  C   UNL A   1      47.036  30.537  27.164  1.00  0.00     0.074 A 
ATOM     60  C   UNL A   1      42.693  30.475  30.835  1.00  0.00     0.029 A 
ATOM     61  N   UNL A   1      42.344  31.011  28.707  1.00  0.00    -0.354 N 
ATOM     62  N   UNL A   1      45.735  30.628  27.314  1.00  0.00    -0.248 NA
ATOM     63  C   UNL A   1      47.704  31.835  27.070  1.00  0.00     0.031 C 
ATOM     64  C   UNL A   1      43.756  31.304  30.388  1.00  0.00     0.029 A 
ATOM     65  C   UNL A   1      43.563  31.565  29.039  1.00  0.00     0.049 A 
ATOM     66  H   UNL A   1      41.904  31.113  27.833  1.00  0.00     0.167 HD
ATOM     67  C   UNL A   1      45.436  31.943  27.551  1.00  0.00     0.074 A 
ATOM     68  C   UNL A   1      46.679  32.667  27.319  1.00  0.00     0.031 C 
ATOM     69  C   UNL A   1      44.268  32.399  28.085  1.00  0.00     0.037 A 
BRANCH  56  70
ATOM     70  C   UNL A   1      39.517  29.195  30.346  1.00  0.00     0.057 A 
ATOM     71  C   UNL A   1      39.567  28.784  31.694  1.00  0.00     0.134 A 
ATOM     72  C   UNL A   1      38.229  29.516  29.884  1.00  0.00     0.134 A 
ATOM     73  F   UNL A   1      40.719  28.480  32.303  1.00  0.00    -0.206 F 
ATOM     74  C   UNL A   1      38.434  28.669  32.505  1.00  0.00     0.040 A 
ATOM     75  C   UNL A   1      37.079  29.370  30.676  1.00  0.00     0.040 A 
ATOM     76  F   UNL A   1      38.030  30.034  28.666  1.00  0.00    -0.206 F 
ATOM     77  C   UNL A   1      37.180  28.951  31.995  1.00  0.00     0.006 A 
ENDBRANCH  56  70
BRANCH  57  78
ATOM     78  C   UNL A   1      48.354  28.153  26.614  1.00  0.00     0.057 A 
ATOM     79  C   UNL A   1      47.448  27.907  25.095  1.00  0.00     0.134 A 
ATOM     80  C   UNL A   1      49.868  27.363  26.778  1.00  0.00     0.134 A 
ATOM     81  F   UNL A   1      46.155  28.085  25.373  1.00  0.00    -0.206 F 
ATOM     82  C   UNL A   1      48.123  26.809  23.709  1.00  0.00     0.040 A 
ATOM     83  C   UNL A   1      50.549  26.284  25.549  1.00  0.00     0.040 A 
ATOM     84  F   UNL A   1      50.693  27.770  27.758  1.00  0.00    -0.206 F 
ATOM     85  C   UNL A   1      49.706  25.958  24.027  1.00  0.00     0.006 A 
ENDBRANCH  57  78
BRANCH  69  86
ATOM     86  C   UNL A   1      43.706  33.749  27.752  1.00  0.00     0.057 A 
ATOM     87  C   UNL A   1      43.652  34.793  28.686  1.00  0.00     0.134 A 
ATOM     88  C   UNL A   1      43.417  34.108  26.418  1.00  0.00     0.134 A 
ATOM     89  F   UNL A   1      44.038  34.629  29.959  1.00  0.00    -0.206 F 
ATOM     90  C   UNL A   1      43.261  36.083  28.337  1.00  0.00     0.040 A 
ATOM     91  C   UNL A   1      43.099  35.412  26.048  1.00  0.00     0.040 A 
ATOM     92  F   UNL A   1      43.483  33.229  25.407  1.00  0.00    -0.206 F 
ATOM     93  C   UNL A   1      42.997  36.401  27.013  1.00  0.00     0.006 A 
ENDBRANCH  69  86
ENDBRANCH  43  44
ENDBRANCH  36  38
ENDBRANCH  35  36
ENDBRANCH  34  35
ENDBRANCH  33  34
ENDBRANCH  32  33
ENDBRANCH   1  32
TORSDOF 19
ENDMDL
MODEL 3
REMARK VINA RESULT:     -13.8      1.566      2.533
REMARK SMILES Cc1ccc(-c2cc(Cl)cc3c2O[C@H](C(F)(F)F)C(C(=O)OCCOCCOCCOC(=O)c2ccc(-c4c5nc(c(-c6c(F)cccc6F)c6ccc([nH]6)c(-c6c(F)cccc6F)c6nc(c(-c7c(F)cccc7F)c7ccc4[nH]7)C=C6)C=C5)cc2)=C3)cc1F
REMARK SMILES IDX 27 1 26 2 25 3 24 4 23 5 22 6 20 7 21 8 19 9 6 10 7 11 12 12
REMARK SMILES IDX 8 13 11 14 13 15 9 16 10 17 88 18 14 19 5 20 1 21 2 22 3 23
REMARK SMILES IDX 90 24 4 25 89 26 91 27 15 28 16 29 17 30 18 31 28 32 29 33
REMARK SMILES IDX 30 34 31 35 32 36 33 37 34 38 35 39 87 40 36 41 86 42 37 43
REMARK SMILES IDX 38 44 39 45 80 46 40 47 85 48 79 49 81 50 41 51 84 52 78 53
REMARK SMILES IDX 77 54 42 56 68 57 51 58 67 59 52 60 55 61 66 62 82 63 53 64
REMARK SMILES IDX 54 65 65 67 83 68 56 69 43 70 44 71 49 72 45 73 46 74 48 75
REMARK SMILES IDX 50 76 47 77 69 78 70 79 75 80 71 81 72 82 74 83 76 84 73 85
REMARK SMILES IDX 57 86 58 87 63 88 59 89 60 90 62 91 64 92 61 93
REMARK H PARENT 81 55 55 66
REMARK Flexibility Score: inf
ROOT
ATOM      1  C   UNL A   1      33.175  29.483  27.219  1.00  0.00     0.188 C 
ENDROOT
BRANCH   1   2
ATOM      2  C   UNL A   1      31.593  29.749  26.503  1.00  0.00     0.188 C 
BRANCH   2   3
ATOM      3  O   UNL A   1      31.080  30.215  24.594  1.00  0.00    -0.376 OA
BRANCH   3   4
ATOM      4  C   UNL A   1      29.923  29.406  23.496  1.00  0.00     0.202 C 
BRANCH   4   5
ATOM      5  C   UNL A   1      30.354  28.004  22.366  1.00  0.00     0.261 C 
BRANCH   5   6
ATOM      6  O   UNL A   1      31.449  26.810  22.726  1.00  0.00    -0.460 OA
BRANCH   6   7
ATOM      7  C   UNL A   1      31.235  25.557  23.288  1.00  0.00     0.338 C 
ATOM      8  O   UNL A   1      30.215  25.233  23.891  1.00  0.00    -0.246 OA
BRANCH   7   9
ATOM      9  C   UNL A   1      32.310  24.465  23.201  1.00  0.00     0.087 C 
ATOM     10  C   UNL A   1      35.098  21.620  24.737  1.00  0.00     0.026 A 
ATOM     11  C   UNL A   1      34.701  20.299  25.003  1.00  0.00     0.033 A 
ATOM     12  C   UNL A   1      34.203  22.527  24.112  1.00  0.00     0.135 A 
ATOM     13  C   UNL A   1      33.416  19.903  24.677  1.00  0.00     0.042 A 
ATOM     14  C   UNL A   1      32.934  22.129  23.751  1.00  0.00     0.019 A 
ATOM     15  O   UNL A   1      34.638  23.797  23.810  1.00  0.00    -0.475 OA
ATOM     16  Cl  UNL A   1      32.905  18.290  25.016  1.00  0.00    -0.084 Cl
ATOM     17  C   UNL A   1      32.537  20.812  24.075  1.00  0.00     0.032 A 
ATOM     18  C   UNL A   1      32.074  23.136  23.093  1.00  0.00     0.027 C 
ATOM     19  C   UNL A   1      33.642  24.870  23.771  1.00  0.00     0.316 C 
BRANCH  10  20
ATOM     20  C   UNL A   1      36.417  22.087  25.137  1.00  0.00    -0.012 A 
ATOM     21  C   UNL A   1      40.123  23.031  27.070  1.00  0.00     0.047 C 
ATOM     22  C   UNL A   1      38.857  22.758  26.326  1.00  0.00    -0.015 A 
ATOM     23  C   UNL A   1      37.818  23.696  26.277  1.00  0.00     0.007 A 
ATOM     24  C   UNL A   1      38.685  21.520  25.710  1.00  0.00     0.126 A 
ATOM     25  C   UNL A   1      36.602  23.364  25.682  1.00  0.00     0.009 A 
ATOM     26  C   UNL A   1      37.490  21.188  25.101  1.00  0.00     0.048 A 
ATOM     27  F   UNL A   1      39.664  20.606  25.750  1.00  0.00    -0.207 F 
ENDBRANCH  10  20
BRANCH  19  28
ATOM     28  C   UNL A   1      33.558  25.560  25.135  1.00  0.00     0.430 C 
ATOM     29  F   UNL A   1      34.755  25.512  25.767  1.00  0.00    -0.167 F 
ATOM     30  F   UNL A   1      33.255  26.872  25.007  1.00  0.00    -0.167 F 
ATOM     31  F   UNL A   1      32.648  24.983  25.950  1.00  0.00    -0.167 F 
ENDBRANCH  19  28
ENDBRANCH   7   9
ENDBRANCH   6   7
ENDBRANCH   5   6
ENDBRANCH   4   5
ENDBRANCH   3   4
ENDBRANCH   2   3
ENDBRANCH   1   2
BRANCH   1  32
ATOM     32  O   UNL A   1      34.288  30.295  27.564  1.00  0.00    -0.376 OA
BRANCH  32  33
ATOM     33  C   UNL A   1      34.219  31.714  27.624  1.00  0.00     0.202 C 
BRANCH  33  34
ATOM     34  C   UNL A   1      34.878  32.556  28.751  1.00  0.00     0.261 C 
BRANCH  34  35
ATOM     35  O   UNL A   1      35.023  31.937  30.040  1.00  0.00    -0.460 OA
BRANCH  35  36
ATOM     36  C   UNL A   1      36.197  32.179  30.698  1.00  0.00     0.338 C 
ATOM     37  O   UNL A   1      36.318  32.829  31.722  1.00  0.00    -0.246 OA
BRANCH  36  38
ATOM     38  C   UNL A   1      37.214  31.173  30.229  1.00  0.00     0.060 A 
ATOM     39  C   UNL A   1      37.192  29.821  30.630  1.00  0.00     0.016 A 
ATOM     40  C   UNL A   1      38.425  31.748  29.819  1.00  0.00     0.016 A 
ATOM     41  C   UNL A   1      38.401  29.102  30.747  1.00  0.00     0.010 A 
ATOM     42  C   UNL A   1      39.613  31.048  29.995  1.00  0.00     0.010 A 
ATOM     43  C   UNL A   1      39.625  29.751  30.526  1.00  0.00    -0.014 A 
BRANCH  43  44
ATOM     44  C   UNL A   1      40.944  29.099  30.629  1.00  0.00     0.031 A 
ATOM     45  C   UNL A   1      41.088  27.898  29.793  1.00  0.00     0.074 A 
ATOM     46  C   UNL A   1      42.021  29.571  31.316  1.00  0.00     0.049 A 
ATOM     47  N   UNL A   1      41.875  26.924  30.058  1.00  0.00    -0.248 NA
ATOM     48  C   UNL A   1      40.304  27.690  28.574  1.00  0.00     0.031 C 
ATOM     49  C   UNL A   1      43.428  29.176  31.342  1.00  0.00     0.029 A 
ATOM     50  N   UNL A   1      42.049  30.529  32.307  1.00  0.00    -0.354 N 
ATOM     51  C   UNL A   1      42.018  26.222  28.884  1.00  0.00     0.074 A 
ATOM     52  C   UNL A   1      40.897  26.606  28.066  1.00  0.00     0.031 C 
ATOM     53  C   UNL A   1      43.963  29.506  32.543  1.00  0.00     0.029 A 
ATOM     54  C   UNL A   1      42.881  30.080  33.321  1.00  0.00     0.049 A 
ATOM     55  H   UNL A   1      41.562  31.385  32.296  1.00  0.00     0.167 HD
ATOM     56  C   UNL A   1      43.201  25.587  28.654  1.00  0.00     0.037 A 
ATOM     57  C   UNL A   1      42.359  29.807  34.540  1.00  0.00     0.037 A 
ATOM     58  C   UNL A   1      44.112  25.804  29.777  1.00  0.00     0.049 A 
ATOM     59  C   UNL A   1      42.800  28.415  34.831  1.00  0.00     0.074 A 
ATOM     60  C   UNL A   1      45.170  26.680  29.959  1.00  0.00     0.029 A 
ATOM     61  N   UNL A   1      43.752  25.355  31.042  1.00  0.00    -0.354 N 
ATOM     62  N   UNL A   1      42.818  27.493  33.896  1.00  0.00    -0.248 NA
ATOM     63  C   UNL A   1      43.574  28.056  36.018  1.00  0.00     0.031 C 
ATOM     64  C   UNL A   1      45.432  26.763  31.353  1.00  0.00     0.029 A 
ATOM     65  C   UNL A   1      44.489  25.992  32.018  1.00  0.00     0.049 A 
ATOM     66  H   UNL A   1      43.063  24.674  31.218  1.00  0.00     0.167 HD
ATOM     67  C   UNL A   1      43.752  26.558  34.254  1.00  0.00     0.074 A 
ATOM     68  C   UNL A   1      44.144  26.909  35.612  1.00  0.00     0.031 C 
ATOM     69  C   UNL A   1      44.308  25.641  33.413  1.00  0.00     0.037 A 
BRANCH  56  70
ATOM     70  C   UNL A   1      43.643  25.052  27.317  1.00  0.00     0.057 A 
ATOM     71  C   UNL A   1      43.683  23.664  27.073  1.00  0.00     0.134 A 
ATOM     72  C   UNL A   1      44.008  25.846  26.217  1.00  0.00     0.134 A 
ATOM     73  F   UNL A   1      43.328  22.768  28.001  1.00  0.00    -0.206 F 
ATOM     74  C   UNL A   1      44.083  23.109  25.854  1.00  0.00     0.040 A 
ATOM     75  C   UNL A   1      44.446  25.302  24.999  1.00  0.00     0.040 A 
ATOM     76  F   UNL A   1      43.906  27.181  26.250  1.00  0.00    -0.206 F 
ATOM     77  C   UNL A   1      44.479  23.928  24.812  1.00  0.00     0.006 A 
ENDBRANCH  56  70
BRANCH  57  78
ATOM     78  C   UNL A   1      41.105  30.616  34.782  1.00  0.00     0.057 A 
ATOM     79  C   UNL A   1      41.479  32.272  35.331  1.00  0.00     0.134 A 
ATOM     80  C   UNL A   1      39.488  30.274  34.320  1.00  0.00     0.134 A 
ATOM     81  F   UNL A   1      42.535  32.190  36.144  1.00  0.00    -0.206 F 
ATOM     82  C   UNL A   1      40.146  33.613  35.411  1.00  0.00     0.040 A 
ATOM     83  C   UNL A   1      38.173  31.457  34.408  1.00  0.00     0.040 A 
ATOM     84  F   UNL A   1      39.252  29.148  33.625  1.00  0.00    -0.206 F 
ATOM     85  C   UNL A   1      38.447  33.113  34.969  1.00  0.00     0.006 A 
ENDBRANCH  57  78
BRANCH  69  86
ATOM     86  C   UNL A   1      44.778  24.298  33.887  1.00  0.00     0.057 A 
ATOM     87  C   UNL A   1      46.135  23.988  34.050  1.00  0.00     0.134 A 
ATOM     88  C   UNL A   1      43.870  23.353  34.413  1.00  0.00     0.134 A 
ATOM     89  F   UNL A   1      47.105  24.855  33.726  1.00  0.00    -0.206 F 
ATOM     90  C   UNL A   1      46.562  22.793  34.621  1.00  0.00     0.040 A 
ATOM     91  C   UNL A   1      44.288  22.191  35.054  1.00  0.00     0.040 A 
ATOM     92  F   UNL A   1      42.542  23.539  34.381  1.00  0.00    -0.206 F 
ATOM     93  C   UNL A   1      45.639  21.895  35.139  1.00  0.00     0.006 A 
ENDBRANCH  69  86
ENDBRANCH  43  44
ENDBRANCH  36  38
ENDBRANCH  35  36
ENDBRANCH  34  35
ENDBRANCH  33  34
ENDBRANCH  32  33
ENDBRANCH   1  32
TORSDOF 19
ENDMDL
