MODEL 1
REMARK VINA RESULT:      -8.5      0.000      0.000
REMARK SMILES C=C(C)COc1ccc2nc(C)n(-c3cccc(C(=O)OCCOCCOCCOC(=O)c4ccc(-c5c6nc(c(-c7c(F)cccc7F)c7ccc([nH]7)c(-c7c(F)cccc7F)c7nc(c(-c8c(F)cccc8F)c8ccc5[nH]8)C=C7)C=C6)cc4)c3)c(=O)c2c1
REMARK SMILES IDX 25 1 24 2 23 3 22 4 21 5 19 6 20 7 18 8 14 9 15 10 87 11
REMARK SMILES IDX 16 12 17 13 13 14 6 15 7 16 91 17 8 18 90 19 9 20 88 21
REMARK SMILES IDX 10 22 89 23 11 24 12 25 5 26 4 27 2 28 1 29 3 30 26 31 27 32
REMARK SMILES IDX 28 33 29 34 30 35 31 36 32 37 33 38 34 39 86 40 35 41 85 42
REMARK SMILES IDX 36 43 37 44 38 45 79 46 39 47 84 48 78 49 80 50 40 51 83 52
REMARK SMILES IDX 77 53 76 54 41 56 67 57 50 58 66 59 51 60 54 61 65 62 81 63
REMARK SMILES IDX 52 64 53 65 64 67 82 68 55 69 42 70 43 71 48 72 44 73 45 74
REMARK SMILES IDX 47 75 49 76 46 77 68 78 69 79 74 80 70 81 71 82 73 83 75 84
REMARK SMILES IDX 72 85 56 86 57 87 62 88 58 89 59 90 61 91 63 92 60 93
REMARK H PARENT 80 55 54 66
REMARK Flexibility Score: inf
ROOT
ATOM      1  C   UNL A   1      32.896  36.250  31.405  1.00  0.00     0.188 C 
ENDROOT
BRANCH   1   2
ATOM      2  O   UNL A   1      34.091  36.396  32.139  1.00  0.00    -0.376 OA
BRANCH   2   3
ATOM      3  C   UNL A   1      34.252  35.825  33.426  1.00  0.00     0.202 C 
BRANCH   3   4
ATOM      4  C   UNL A   1      35.261  34.719  33.770  1.00  0.00     0.261 C 
BRANCH   4   5
ATOM      5  O   UNL A   1      36.103  34.282  32.702  1.00  0.00    -0.460 OA
BRANCH   5   6
ATOM      6  C   UNL A   1      36.496  32.982  32.765  1.00  0.00     0.338 C 
ATOM      7  O   UNL A   1      35.812  31.996  32.550  1.00  0.00    -0.246 OA
BRANCH   6   8
ATOM      8  C   UNL A   1      37.967  32.931  32.913  1.00  0.00     0.062 A 
ATOM      9  C   UNL A   1      39.978  31.955  33.867  1.00  0.00     0.051 A 
ATOM     10  C   UNL A   1      40.724  33.003  33.303  1.00  0.00     0.027 A 
ATOM     11  C   UNL A   1      38.591  31.925  33.656  1.00  0.00     0.042 A 
ATOM     12  C   UNL A   1      40.099  34.006  32.556  1.00  0.00     0.003 A 
ATOM     13  C   UNL A   1      38.721  33.968  32.356  1.00  0.00     0.016 A 
BRANCH   9  14
ATOM     14  N   UNL A   1      40.612  30.907  34.613  1.00  0.00    -0.264 N 
ATOM     15  C   UNL A   1      42.421  26.408  34.864  1.00  0.00     0.120 A 
ATOM     16  C   UNL A   1      42.906  26.715  36.134  1.00  0.00     0.049 A 
ATOM     17  C   UNL A   1      41.745  27.370  34.122  1.00  0.00     0.062 A 
ATOM     18  C   UNL A   1      42.658  27.967  36.692  1.00  0.00     0.033 A 
ATOM     19  C   UNL A   1      41.511  28.628  34.690  1.00  0.00     0.070 A 
ATOM     20  C   UNL A   1      41.956  28.933  35.973  1.00  0.00     0.078 A 
ATOM     21  C   UNL A   1      40.807  29.682  33.947  1.00  0.00     0.266 A 
ATOM     22  N   UNL A   1      41.708  30.164  36.575  1.00  0.00    -0.234 NA
ATOM     23  O   UNL A   1      40.473  29.436  32.788  1.00  0.00    -0.268 OA
ATOM     24  C   UNL A   1      41.053  31.070  35.917  1.00  0.00     0.113 A 
ATOM     25  C   UNL A   1      40.740  32.328  36.705  1.00  0.00     0.088 C 
BRANCH  15  26
ATOM     26  O   UNL A   1      42.677  25.189  34.297  1.00  0.00    -0.489 OA
BRANCH  26  27
ATOM     27  C   UNL A   1      44.089  24.947  34.165  1.00  0.00     0.260 C 
BRANCH  27  28
ATOM     28  C   UNL A   1      44.525  24.907  32.715  1.00  0.00    -0.043 C 
ATOM     29  C   UNL A   1      44.214  23.885  31.898  1.00  0.00     0.011 C 
ATOM     30  C   UNL A   1      45.280  26.109  32.225  1.00  0.00     0.042 C 
ENDBRANCH  27  28
ENDBRANCH  26  27
ENDBRANCH  15  26
ENDBRANCH   9  14
ENDBRANCH   6   8
ENDBRANCH   5   6
ENDBRANCH   4   5
ENDBRANCH   3   4
ENDBRANCH   2   3
ENDBRANCH   1   2
BRANCH   1  31
ATOM     31  C   UNL A   1      32.898  35.554  30.027  1.00  0.00     0.188 C 
BRANCH  31  32
ATOM     32  O   UNL A   1      33.535  34.305  29.840  1.00  0.00    -0.376 OA
BRANCH  32  33
ATOM     33  C   UNL A   1      34.795  34.265  29.189  1.00  0.00     0.202 C 
BRANCH  33  34
ATOM     34  C   UNL A   1      35.245  32.987  28.476  1.00  0.00     0.261 C 
BRANCH  34  35
ATOM     35  O   UNL A   1      34.786  31.786  29.115  1.00  0.00    -0.460 OA
BRANCH  35  36
ATOM     36  C   UNL A   1      34.871  30.654  28.374  1.00  0.00     0.338 C 
ATOM     37  O   UNL A   1      34.044  30.206  27.598  1.00  0.00    -0.246 OA
BRANCH  36  38
ATOM     38  C   UNL A   1      36.239  30.121  28.489  1.00  0.00     0.060 A 
ATOM     39  C   UNL A   1      37.053  29.992  27.363  1.00  0.00     0.016 A 
ATOM     40  C   UNL A   1      36.707  29.741  29.755  1.00  0.00     0.016 A 
ATOM     41  C   UNL A   1      38.347  29.495  27.509  1.00  0.00     0.010 A 
ATOM     42  C   UNL A   1      37.995  29.224  29.896  1.00  0.00     0.010 A 
ATOM     43  C   UNL A   1      38.829  29.115  28.775  1.00  0.00    -0.014 A 
BRANCH  43  44
ATOM     44  C   UNL A   1      40.255  28.751  28.936  1.00  0.00     0.031 A 
ATOM     45  C   UNL A   1      40.776  27.401  28.552  1.00  0.00     0.074 A 
ATOM     46  C   UNL A   1      41.088  29.682  29.437  1.00  0.00     0.049 A 
ATOM     47  N   UNL A   1      42.014  26.978  28.524  1.00  0.00    -0.248 NA
ATOM     48  C   UNL A   1      39.782  26.395  28.156  1.00  0.00     0.031 C 
ATOM     49  C   UNL A   1      40.685  31.018  29.879  1.00  0.00     0.029 A 
ATOM     50  N   UNL A   1      42.442  29.651  29.649  1.00  0.00    -0.354 N 
ATOM     51  C   UNL A   1      41.958  25.666  28.076  1.00  0.00     0.074 A 
ATOM     52  C   UNL A   1      40.554  25.346  27.900  1.00  0.00     0.031 C 
ATOM     53  C   UNL A   1      41.771  31.688  30.289  1.00  0.00     0.029 A 
ATOM     54  C   UNL A   1      42.942  30.827  30.151  1.00  0.00     0.049 A 
ATOM     55  H   UNL A   1      43.001  28.863  29.460  1.00  0.00     0.167 HD
ATOM     56  C   UNL A   1      42.984  24.817  27.821  1.00  0.00     0.037 A 
ATOM     57  C   UNL A   1      44.204  31.175  30.456  1.00  0.00     0.037 A 
ATOM     58  C   UNL A   1      44.376  25.135  28.029  1.00  0.00     0.049 A 
ATOM     59  C   UNL A   1      45.315  30.194  30.212  1.00  0.00     0.074 A 
ATOM     60  C   UNL A   1      45.490  24.358  27.756  1.00  0.00     0.029 A 
ATOM     61  N   UNL A   1      44.846  26.317  28.583  1.00  0.00    -0.354 N 
ATOM     62  N   UNL A   1      45.259  28.991  29.696  1.00  0.00    -0.248 NA
ATOM     63  C   UNL A   1      46.668  30.627  30.588  1.00  0.00     0.031 C 
ATOM     64  C   UNL A   1      46.628  25.048  28.195  1.00  0.00     0.029 A 
ATOM     65  C   UNL A   1      46.228  26.275  28.695  1.00  0.00     0.049 A 
ATOM     66  H   UNL A   1      44.280  27.075  28.858  1.00  0.00     0.167 HD
ATOM     67  C   UNL A   1      46.569  28.531  29.664  1.00  0.00     0.074 A 
ATOM     68  C   UNL A   1      47.398  29.595  30.191  1.00  0.00     0.031 C 
ATOM     69  C   UNL A   1      47.042  27.334  29.238  1.00  0.00     0.037 A 
BRANCH  56  70
ATOM     70  C   UNL A   1      42.640  23.457  27.283  1.00  0.00     0.057 A 
ATOM     71  C   UNL A   1      42.647  23.205  25.905  1.00  0.00     0.134 A 
ATOM     72  C   UNL A   1      42.252  22.410  28.129  1.00  0.00     0.134 A 
ATOM     73  F   UNL A   1      42.997  24.166  25.037  1.00  0.00    -0.206 F 
ATOM     74  C   UNL A   1      42.278  21.961  25.389  1.00  0.00     0.040 A 
ATOM     75  C   UNL A   1      41.905  21.154  27.626  1.00  0.00     0.040 A 
ATOM     76  F   UNL A   1      42.227  22.584  29.459  1.00  0.00    -0.206 F 
ATOM     77  C   UNL A   1      41.912  20.929  26.251  1.00  0.00     0.006 A 
ENDBRANCH  56  70
BRANCH  57  78
ATOM     78  C   UNL A   1      44.490  32.524  31.000  1.00  0.00     0.057 A 
ATOM     79  C   UNL A   1      44.852  33.584  30.161  1.00  0.00     0.134 A 
ATOM     80  C   UNL A   1      44.390  32.787  32.370  1.00  0.00     0.134 A 
ATOM     81  F   UNL A   1      44.972  33.392  28.839  1.00  0.00    -0.206 F 
ATOM     82  C   UNL A   1      45.107  34.859  30.666  1.00  0.00     0.040 A 
ATOM     83  C   UNL A   1      44.617  34.062  32.886  1.00  0.00     0.040 A 
ATOM     84  F   UNL A   1      44.031  31.813  33.219  1.00  0.00    -0.206 F 
ATOM     85  C   UNL A   1      44.981  35.102  32.033  1.00  0.00     0.006 A 
ENDBRANCH  57  78
BRANCH  69  86
ATOM     86  C   UNL A   1      48.527  27.126  29.323  1.00  0.00     0.057 A 
ATOM     87  C   UNL A   1      49.104  26.526  30.451  1.00  0.00     0.134 A 
ATOM     88  C   UNL A   1      49.387  27.510  28.286  1.00  0.00     0.134 A 
ATOM     89  F   UNL A   1      48.340  26.139  31.483  1.00  0.00    -0.206 F 
ATOM     90  C   UNL A   1      50.481  26.314  30.540  1.00  0.00     0.040 A 
ATOM     91  C   UNL A   1      50.761  27.277  28.351  1.00  0.00     0.040 A 
ATOM     92  F   UNL A   1      48.897  28.072  27.171  1.00  0.00    -0.206 F 
ATOM     93  C   UNL A   1      51.313  26.681  29.484  1.00  0.00     0.006 A 
ENDBRANCH  69  86
ENDBRANCH  43  44
ENDBRANCH  36  38
ENDBRANCH  35  36
ENDBRANCH  34  35
ENDBRANCH  33  34
ENDBRANCH  32  33
ENDBRANCH  31  32
ENDBRANCH   1  31
TORSDOF 21
ENDMDL
MODEL 2
REMARK VINA RESULT:      -8.5      4.294      9.314
REMARK SMILES C=C(C)COc1ccc2nc(C)n(-c3cccc(C(=O)OCCOCCOCCOC(=O)c4ccc(-c5c6nc(c(-c7c(F)cccc7F)c7ccc([nH]7)c(-c7c(F)cccc7F)c7nc(c(-c8c(F)cccc8F)c8ccc5[nH]8)C=C7)C=C6)cc4)c3)c(=O)c2c1
REMARK SMILES IDX 25 1 24 2 23 3 22 4 21 5 19 6 20 7 18 8 14 9 15 10 87 11
REMARK SMILES IDX 16 12 17 13 13 14 6 15 7 16 91 17 8 18 90 19 9 20 88 21
REMARK SMILES IDX 10 22 89 23 11 24 12 25 5 26 4 27 2 28 1 29 3 30 26 31 27 32
REMARK SMILES IDX 28 33 29 34 30 35 31 36 32 37 33 38 34 39 86 40 35 41 85 42
REMARK SMILES IDX 36 43 37 44 38 45 79 46 39 47 84 48 78 49 80 50 40 51 83 52
REMARK SMILES IDX 77 53 76 54 41 56 67 57 50 58 66 59 51 60 54 61 65 62 81 63
REMARK SMILES IDX 52 64 53 65 64 67 82 68 55 69 42 70 43 71 48 72 44 73 45 74
REMARK SMILES IDX 47 75 49 76 46 77 68 78 69 79 74 80 70 81 71 82 73 83 75 84
REMARK SMILES IDX 72 85 56 86 57 87 62 88 58 89 59 90 61 91 63 92 60 93
REMARK H PARENT 80 55 54 66
REMARK Flexibility Score: inf
ROOT
ATOM      1  C   UNL A   1      33.994  31.112  27.998  1.00  0.00     0.188 C 
ENDROOT
BRANCH   1   2
ATOM      2  O   UNL A   1      33.909  30.406  26.780  1.00  0.00    -0.376 OA
BRANCH   2   3
ATOM      3  C   UNL A   1      32.673  30.214  26.113  1.00  0.00     0.202 C 
BRANCH   3   4
ATOM      4  C   UNL A   1      32.518  29.536  24.743  1.00  0.00     0.261 C 
BRANCH   4   5
ATOM      5  O   UNL A   1      31.220  29.024  24.439  1.00  0.00    -0.460 OA
BRANCH   5   6
ATOM      6  C   UNL A   1      31.198  27.952  23.603  1.00  0.00     0.338 C 
ATOM      7  O   UNL A   1      31.292  27.966  22.387  1.00  0.00    -0.246 OA
BRANCH   6   8
ATOM      8  C   UNL A   1      31.274  26.713  24.407  1.00  0.00     0.062 A 
ATOM      9  C   UNL A   1      32.332  24.595  24.959  1.00  0.00     0.051 A 
ATOM     10  C   UNL A   1      31.257  24.312  25.818  1.00  0.00     0.027 A 
ATOM     11  C   UNL A   1      32.334  25.813  24.261  1.00  0.00     0.042 A 
ATOM     12  C   UNL A   1      30.202  25.215  25.966  1.00  0.00     0.003 A 
ATOM     13  C   UNL A   1      30.211  26.419  25.265  1.00  0.00     0.016 A 
BRANCH   9  14
ATOM     14  N   UNL A   1      33.434  23.689  24.820  1.00  0.00    -0.264 N 
ATOM     15  C   UNL A   1      38.021  22.440  25.804  1.00  0.00     0.120 A 
ATOM     16  C   UNL A   1      37.781  21.214  25.186  1.00  0.00     0.049 A 
ATOM     17  C   UNL A   1      37.005  23.381  25.912  1.00  0.00     0.062 A 
ATOM     18  C   UNL A   1      36.537  20.953  24.615  1.00  0.00     0.033 A 
ATOM     19  C   UNL A   1      35.756  23.101  25.344  1.00  0.00     0.070 A 
ATOM     20  C   UNL A   1      35.515  21.898  24.689  1.00  0.00     0.078 A 
ATOM     21  C   UNL A   1      34.644  24.060  25.435  1.00  0.00     0.266 A 
ATOM     22  N   UNL A   1      34.293  21.608  24.086  1.00  0.00    -0.234 NA
ATOM     23  O   UNL A   1      34.836  25.096  26.072  1.00  0.00    -0.268 OA
ATOM     24  C   UNL A   1      33.336  22.480  24.146  1.00  0.00     0.113 A 
ATOM     25  C   UNL A   1      32.090  22.114  23.360  1.00  0.00     0.088 C 
BRANCH  15  26
ATOM     26  O   UNL A   1      39.233  22.699  26.387  1.00  0.00    -0.489 OA
BRANCH  26  27
ATOM     27  C   UNL A   1      40.078  21.535  26.404  1.00  0.00     0.260 C 
BRANCH  27  28
ATOM     28  C   UNL A   1      41.428  21.822  27.026  1.00  0.00    -0.043 C 
ATOM     29  C   UNL A   1      41.561  22.527  28.163  1.00  0.00     0.011 C 
ATOM     30  C   UNL A   1      42.612  21.220  26.326  1.00  0.00     0.042 C 
ENDBRANCH  27  28
ENDBRANCH  26  27
ENDBRANCH  15  26
ENDBRANCH   9  14
ENDBRANCH   6   8
ENDBRANCH   5   6
ENDBRANCH   4   5
ENDBRANCH   3   4
ENDBRANCH   2   3
ENDBRANCH   1   2
BRANCH   1  31
ATOM     31  C   UNL A   1      34.599  32.532  28.045  1.00  0.00     0.188 C 
BRANCH  31  32
ATOM     32  O   UNL A   1      34.196  33.465  29.029  1.00  0.00    -0.376 OA
BRANCH  32  33
ATOM     33  C   UNL A   1      33.429  34.592  28.635  1.00  0.00     0.202 C 
BRANCH  33  34
ATOM     34  C   UNL A   1      33.063  35.664  29.667  1.00  0.00     0.261 C 
BRANCH  34  35
ATOM     35  O   UNL A   1      32.452  35.129  30.851  1.00  0.00    -0.460 OA
BRANCH  35  36
ATOM     36  C   UNL A   1      32.825  35.707  32.019  1.00  0.00     0.338 C 
ATOM     37  O   UNL A   1      32.230  36.564  32.651  1.00  0.00    -0.246 OA
BRANCH  36  38
ATOM     38  C   UNL A   1      33.999  34.989  32.543  1.00  0.00     0.060 A 
ATOM     39  C   UNL A   1      33.859  33.743  33.155  1.00  0.00     0.016 A 
ATOM     40  C   UNL A   1      35.261  35.586  32.418  1.00  0.00     0.016 A 
ATOM     41  C   UNL A   1      34.993  33.084  33.630  1.00  0.00     0.010 A 
ATOM     42  C   UNL A   1      36.392  34.934  32.912  1.00  0.00     0.010 A 
ATOM     43  C   UNL A   1      36.265  33.671  33.506  1.00  0.00    -0.014 A 
BRANCH  43  44
ATOM     44  C   UNL A   1      37.470  32.887  33.860  1.00  0.00     0.031 A 
ATOM     45  C   UNL A   1      38.015  31.821  32.961  1.00  0.00     0.074 A 
ATOM     46  C   UNL A   1      38.080  33.165  35.028  1.00  0.00     0.049 A 
ATOM     47  N   UNL A   1      39.123  31.136  33.079  1.00  0.00    -0.248 NA
ATOM     48  C   UNL A   1      37.210  31.475  31.781  1.00  0.00     0.031 C 
ATOM     49  C   UNL A   1      37.617  34.156  36.000  1.00  0.00     0.029 A 
ATOM     50  N   UNL A   1      39.219  32.650  35.588  1.00  0.00    -0.354 N 
ATOM     51  C   UNL A   1      39.172  30.297  31.975  1.00  0.00     0.074 A 
ATOM     52  C   UNL A   1      37.949  30.521  31.227  1.00  0.00     0.031 C 
ATOM     53  C   UNL A   1      38.477  34.194  37.028  1.00  0.00     0.029 A 
ATOM     54  C   UNL A   1      39.542  33.223  36.793  1.00  0.00     0.049 A 
ATOM     55  H   UNL A   1      39.754  31.938  35.168  1.00  0.00     0.167 HD
ATOM     56  C   UNL A   1      40.155  29.435  31.613  1.00  0.00     0.037 A 
ATOM     57  C   UNL A   1      40.585  32.998  37.611  1.00  0.00     0.037 A 
ATOM     58  C   UNL A   1      41.353  29.197  32.380  1.00  0.00     0.049 A 
ATOM     59  C   UNL A   1      41.630  31.998  37.209  1.00  0.00     0.074 A 
ATOM     60  C   UNL A   1      42.428  28.379  32.072  1.00  0.00     0.029 A 
ATOM     61  N   UNL A   1      41.627  29.759  33.619  1.00  0.00    -0.354 N 
ATOM     62  N   UNL A   1      41.716  31.283  36.114  1.00  0.00    -0.248 NA
ATOM     63  C   UNL A   1      42.732  31.783  38.157  1.00  0.00     0.031 C 
ATOM     64  C   UNL A   1      43.324  28.404  33.149  1.00  0.00     0.029 A 
ATOM     65  C   UNL A   1      42.833  29.276  34.105  1.00  0.00     0.049 A 
ATOM     66  H   UNL A   1      41.049  30.405  34.085  1.00  0.00     0.167 HD
ATOM     67  C   UNL A   1      42.889  30.549  36.231  1.00  0.00     0.074 A 
ATOM     68  C   UNL A   1      43.492  30.924  37.493  1.00  0.00     0.031 C 
ATOM     69  C   UNL A   1      43.417  29.643  35.371  1.00  0.00     0.037 A 
BRANCH  56  70
ATOM     70  C   UNL A   1      39.977  28.685  30.324  1.00  0.00     0.057 A 
ATOM     71  C   UNL A   1      40.502  29.180  29.123  1.00  0.00     0.134 A 
ATOM     72  C   UNL A   1      39.239  27.495  30.264  1.00  0.00     0.134 A 
ATOM     73  F   UNL A   1      41.209  30.320  29.107  1.00  0.00    -0.206 F 
ATOM     74  C   UNL A   1      40.299  28.519  27.910  1.00  0.00     0.040 A 
ATOM     75  C   UNL A   1      39.051  26.812  29.060  1.00  0.00     0.040 A 
ATOM     76  F   UNL A   1      38.712  26.965  31.377  1.00  0.00    -0.206 F 
ATOM     77  C   UNL A   1      39.577  27.328  27.878  1.00  0.00     0.006 A 
ENDBRANCH  56  70
BRANCH  57  78
ATOM     78  C   UNL A   1      40.706  33.754  38.880  1.00  0.00     0.057 A 
ATOM     79  C   UNL A   1      40.016  33.358  40.031  1.00  0.00     0.134 A 
ATOM     80  C   UNL A   1      41.530  34.881  38.975  1.00  0.00     0.134 A 
ATOM     81  F   UNL A   1      39.205  32.290  40.001  1.00  0.00    -0.206 F 
ATOM     82  C   UNL A   1      40.139  34.057  41.232  1.00  0.00     0.040 A 
ATOM     83  C   UNL A   1      41.682  35.575  40.175  1.00  0.00     0.040 A 
ATOM     84  F   UNL A   1      42.228  35.298  37.908  1.00  0.00    -0.206 F 
ATOM     85  C   UNL A   1      40.982  35.164  41.308  1.00  0.00     0.006 A 
ENDBRANCH  57  78
BRANCH  69  86
ATOM     86  C   UNL A   1      44.717  29.008  35.774  1.00  0.00     0.057 A 
ATOM     87  C   UNL A   1      44.735  27.821  36.518  1.00  0.00     0.134 A 
ATOM     88  C   UNL A   1      45.952  29.566  35.419  1.00  0.00     0.134 A 
ATOM     89  F   UNL A   1      43.589  27.236  36.896  1.00  0.00    -0.206 F 
ATOM     90  C   UNL A   1      45.934  27.211  36.889  1.00  0.00     0.040 A 
ATOM     91  C   UNL A   1      47.157  28.950  35.760  1.00  0.00     0.040 A 
ATOM     92  F   UNL A   1      46.005  30.692  34.691  1.00  0.00    -0.206 F 
ATOM     93  C   UNL A   1      47.150  27.770  36.502  1.00  0.00     0.006 A 
ENDBRANCH  69  86
ENDBRANCH  43  44
ENDBRANCH  36  38
ENDBRANCH  35  36
ENDBRANCH  34  35
ENDBRANCH  33  34
ENDBRANCH  32  33
ENDBRANCH  31  32
ENDBRANCH   1  31
TORSDOF 21
ENDMDL
MODEL 3
REMARK VINA RESULT:      -8.4      4.138     10.359
REMARK SMILES C=C(C)COc1ccc2nc(C)n(-c3cccc(C(=O)OCCOCCOCCOC(=O)c4ccc(-c5c6nc(c(-c7c(F)cccc7F)c7ccc([nH]7)c(-c7c(F)cccc7F)c7nc(c(-c8c(F)cccc8F)c8ccc5[nH]8)C=C7)C=C6)cc4)c3)c(=O)c2c1
REMARK SMILES IDX 25 1 24 2 23 3 22 4 21 5 19 6 20 7 18 8 14 9 15 10 87 11
REMARK SMILES IDX 16 12 17 13 13 14 6 15 7 16 91 17 8 18 90 19 9 20 88 21
REMARK SMILES IDX 10 22 89 23 11 24 12 25 5 26 4 27 2 28 1 29 3 30 26 31 27 32
REMARK SMILES IDX 28 33 29 34 30 35 31 36 32 37 33 38 34 39 86 40 35 41 85 42
REMARK SMILES IDX 36 43 37 44 38 45 79 46 39 47 84 48 78 49 80 50 40 51 83 52
REMARK SMILES IDX 77 53 76 54 41 56 67 57 50 58 66 59 51 60 54 61 65 62 81 63
REMARK SMILES IDX 52 64 53 65 64 67 82 68 55 69 42 70 43 71 48 72 44 73 45 74
REMARK SMILES IDX 47 75 49 76 46 77 68 78 69 79 74 80 70 81 71 82 73 83 75 84
REMARK SMILES IDX 72 85 56 86 57 87 62 88 58 89 59 90 61 91 63 92 60 93
REMARK H PARENT 80 55 54 66
REMARK Flexibility Score: inf
ROOT
ATOM      1  C   UNL A   1      33.963  31.251  28.062  1.00  0.00     0.188 C 
ENDROOT
BRANCH   1   2
ATOM      2  O   UNL A   1      33.917  30.473  26.888  1.00  0.00    -0.376 OA
BRANCH   2   3
ATOM      3  C   UNL A   1      32.689  30.079  26.301  1.00  0.00     0.202 C 
BRANCH   3   4
ATOM      4  C   UNL A   1      32.512  29.687  24.826  1.00  0.00     0.261 C 
BRANCH   4   5
ATOM      5  O   UNL A   1      31.245  29.135  24.469  1.00  0.00    -0.460 OA
BRANCH   5   6
ATOM      6  C   UNL A   1      31.288  28.085  23.607  1.00  0.00     0.338 C 
ATOM      7  O   UNL A   1      31.441  28.132  22.399  1.00  0.00    -0.246 OA
BRANCH   6   8
ATOM      8  C   UNL A   1      31.353  26.828  24.384  1.00  0.00     0.062 A 
ATOM      9  C   UNL A   1      32.423  24.713  24.926  1.00  0.00     0.051 A 
ATOM     10  C   UNL A   1      31.321  24.393  25.736  1.00  0.00     0.027 A 
ATOM     11  C   UNL A   1      32.432  25.948  24.257  1.00  0.00     0.042 A 
ATOM     12  C   UNL A   1      30.246  25.276  25.864  1.00  0.00     0.003 A 
ATOM     13  C   UNL A   1      30.263  26.497  25.193  1.00  0.00     0.016 A 
BRANCH   9  14
ATOM     14  N   UNL A   1      33.544  23.827  24.807  1.00  0.00    -0.264 N 
ATOM     15  C   UNL A   1      38.110  22.624  25.936  1.00  0.00     0.120 A 
ATOM     16  C   UNL A   1      37.913  21.410  25.280  1.00  0.00     0.049 A 
ATOM     17  C   UNL A   1      37.075  23.547  26.028  1.00  0.00     0.062 A 
ATOM     18  C   UNL A   1      36.695  21.144  24.656  1.00  0.00     0.033 A 
ATOM     19  C   UNL A   1      35.853  23.262  25.405  1.00  0.00     0.070 A 
ATOM     20  C   UNL A   1      35.656  22.071  24.714  1.00  0.00     0.078 A 
ATOM     21  C   UNL A   1      34.724  24.201  25.476  1.00  0.00     0.266 A 
ATOM     22  N   UNL A   1      34.463  21.778  24.058  1.00  0.00    -0.234 NA
ATOM     23  O   UNL A   1      34.875  25.224  26.144  1.00  0.00    -0.268 OA
ATOM     24  C   UNL A   1      33.490  22.634  24.101  1.00  0.00     0.113 A 
ATOM     25  C   UNL A   1      32.281  22.268  23.260  1.00  0.00     0.088 C 
BRANCH  15  26
ATOM     26  O   UNL A   1      39.294  22.887  26.571  1.00  0.00    -0.489 OA
BRANCH  26  27
ATOM     27  C   UNL A   1      40.331  21.974  26.169  1.00  0.00     0.260 C 
BRANCH  27  28
ATOM     28  C   UNL A   1      41.125  21.459  27.351  1.00  0.00    -0.043 C 
ATOM     29  C   UNL A   1      41.207  20.151  27.648  1.00  0.00     0.011 C 
ATOM     30  C   UNL A   1      41.868  22.498  28.142  1.00  0.00     0.042 C 
ENDBRANCH  27  28
ENDBRANCH  26  27
ENDBRANCH  15  26
ENDBRANCH   9  14
ENDBRANCH   6   8
ENDBRANCH   5   6
ENDBRANCH   4   5
ENDBRANCH   3   4
ENDBRANCH   2   3
ENDBRANCH   1   2
BRANCH   1  31
ATOM     31  C   UNL A   1      34.290  32.759  27.997  1.00  0.00     0.188 C 
BRANCH  31  32
ATOM     32  O   UNL A   1      33.939  33.630  29.055  1.00  0.00    -0.376 OA
BRANCH  32  33
ATOM     33  C   UNL A   1      33.167  34.786  28.768  1.00  0.00     0.202 C 
BRANCH  33  34
ATOM     34  C   UNL A   1      32.916  35.826  29.864  1.00  0.00     0.261 C 
BRANCH  34  35
ATOM     35  O   UNL A   1      32.300  35.279  31.039  1.00  0.00    -0.460 OA
BRANCH  35  36
ATOM     36  C   UNL A   1      32.859  35.640  32.220  1.00  0.00     0.338 C 
ATOM     37  O   UNL A   1      32.368  36.328  33.099  1.00  0.00    -0.246 OA
BRANCH  36  38
ATOM     38  C   UNL A   1      34.118  34.894  32.389  1.00  0.00     0.060 A 
ATOM     39  C   UNL A   1      35.334  35.445  31.983  1.00  0.00     0.016 A 
ATOM     40  C   UNL A   1      34.069  33.617  32.964  1.00  0.00     0.016 A 
ATOM     41  C   UNL A   1      36.509  34.718  32.169  1.00  0.00     0.010 A 
ATOM     42  C   UNL A   1      35.244  32.882  33.130  1.00  0.00     0.010 A 
ATOM     43  C   UNL A   1      36.473  33.437  32.749  1.00  0.00    -0.014 A 
BRANCH  43  44
ATOM     44  C   UNL A   1      37.741  32.754  33.093  1.00  0.00     0.031 A 
ATOM     45  C   UNL A   1      38.500  33.074  34.342  1.00  0.00     0.074 A 
ATOM     46  C   UNL A   1      38.199  31.815  32.243  1.00  0.00     0.049 A 
ATOM     47  N   UNL A   1      39.557  32.479  34.835  1.00  0.00    -0.248 NA
ATOM     48  C   UNL A   1      38.018  34.211  35.138  1.00  0.00     0.031 C 
ATOM     49  C   UNL A   1      37.562  31.446  30.978  1.00  0.00     0.029 A 
ATOM     50  N   UNL A   1      39.295  30.996  32.320  1.00  0.00    -0.354 N 
ATOM     51  C   UNL A   1      39.852  33.145  36.017  1.00  0.00     0.074 A 
ATOM     52  C   UNL A   1      38.893  34.227  36.135  1.00  0.00     0.031 C 
ATOM     53  C   UNL A   1      38.266  30.458  30.407  1.00  0.00     0.029 A 
ATOM     54  C   UNL A   1      39.407  30.134  31.258  1.00  0.00     0.049 A 
ATOM     55  H   UNL A   1      39.940  31.024  33.063  1.00  0.00     0.167 HD
ATOM     56  C   UNL A   1      40.821  32.865  36.923  1.00  0.00     0.037 A 
ATOM     57  C   UNL A   1      40.322  29.183  31.003  1.00  0.00     0.037 A 
ATOM     58  C   UNL A   1      41.790  31.805  36.779  1.00  0.00     0.049 A 
ATOM     59  C   UNL A   1      41.417  28.931  32.000  1.00  0.00     0.074 A 
ATOM     60  C   UNL A   1      42.780  31.415  37.666  1.00  0.00     0.029 A 
ATOM     61  N   UNL A   1      41.905  30.981  35.669  1.00  0.00    -0.354 N 
ATOM     62  N   UNL A   1      41.627  29.501  33.161  1.00  0.00    -0.248 NA
ATOM     63  C   UNL A   1      42.397  27.894  31.651  1.00  0.00     0.031 C 
ATOM     64  C   UNL A   1      43.528  30.391  37.068  1.00  0.00     0.029 A 
ATOM     65  C   UNL A   1      42.973  30.110  35.831  1.00  0.00     0.049 A 
ATOM     66  H   UNL A   1      41.316  31.010  34.881  1.00  0.00     0.167 HD
ATOM     67  C   UNL A   1      42.749  28.879  33.691  1.00  0.00     0.074 A 
ATOM     68  C   UNL A   1      43.159  27.872  32.736  1.00  0.00     0.031 C 
ATOM     69  C   UNL A   1      43.384  29.122  34.865  1.00  0.00     0.037 A 
BRANCH  56  70
ATOM     70  C   UNL A   1      40.883  33.719  38.156  1.00  0.00     0.057 A 
ATOM     71  C   UNL A   1      40.080  33.436  39.270  1.00  0.00     0.134 A 
ATOM     72  C   UNL A   1      41.701  34.855  38.223  1.00  0.00     0.134 A 
ATOM     73  F   UNL A   1      39.265  32.371  39.269  1.00  0.00    -0.206 F 
ATOM     74  C   UNL A   1      40.088  34.252  40.403  1.00  0.00     0.040 A 
ATOM     75  C   UNL A   1      41.736  35.665  39.361  1.00  0.00     0.040 A 
ATOM     76  F   UNL A   1      42.496  35.181  37.194  1.00  0.00    -0.206 F 
ATOM     77  C   UNL A   1      40.923  35.367  40.452  1.00  0.00     0.006 A 
ENDBRANCH  56  70
BRANCH  57  78
ATOM     78  C   UNL A   1      40.227  28.377  29.762  1.00  0.00     0.057 A 
ATOM     79  C   UNL A   1      40.914  28.748  28.601  1.00  0.00     0.134 A 
ATOM     80  C   UNL A   1      39.460  27.208  29.716  1.00  0.00     0.134 A 
ATOM     81  F   UNL A   1      41.659  29.863  28.580  1.00  0.00    -0.206 F 
ATOM     82  C   UNL A   1      40.839  27.985  27.435  1.00  0.00     0.040 A 
ATOM     83  C   UNL A   1      39.397  26.422  28.566  1.00  0.00     0.040 A 
ATOM     84  F   UNL A   1      38.793  26.796  30.804  1.00  0.00    -0.206 F 
ATOM     85  C   UNL A   1      40.086  26.813  27.419  1.00  0.00     0.006 A 
ENDBRANCH  57  78
BRANCH  69  86
ATOM     86  C   UNL A   1      44.583  28.272  35.172  1.00  0.00     0.057 A 
ATOM     87  C   UNL A   1      44.450  27.077  35.891  1.00  0.00     0.134 A 
ATOM     88  C   UNL A   1      45.870  28.631  34.749  1.00  0.00     0.134 A 
ATOM     89  F   UNL A   1      43.248  26.676  36.330  1.00  0.00    -0.206 F 
ATOM     90  C   UNL A   1      45.553  26.269  36.173  1.00  0.00     0.040 A 
ATOM     91  C   UNL A   1      46.975  27.818  35.001  1.00  0.00     0.040 A 
ATOM     92  F   UNL A   1      46.063  29.754  34.041  1.00  0.00    -0.206 F 
ATOM     93  C   UNL A   1      46.819  26.634  35.719  1.00  0.00     0.006 A 
ENDBRANCH  69  86
ENDBRANCH  43  44
ENDBRANCH  36  38
ENDBRANCH  35  36
ENDBRANCH  34  35
ENDBRANCH  33  34
ENDBRANCH  32  33
ENDBRANCH  31  32
ENDBRANCH   1  31
TORSDOF 21
ENDMDL
