MODEL 1
REMARK VINA RESULT:     -10.0      0.000      0.000
REMARK SMILES CCn1cc(Br)cc1C(=O)N[C@@H]1C=C[C@@H](C(=O)OCCOCCOCCOC(=O)c2ccc(-c3c4nc(c(-c5c(F)cccc5F)c5ccc([nH]5)c(-c5c(F)cccc5F)c5nc(c(-c6c(F)cccc6F)c6ccc3[nH]6)C=C5)C=C4)cc2)C1
REMARK SMILES IDX 22 1 21 2 20 3 19 4 18 5 16 6 17 7 15 8 12 9 13 10 84 11
REMARK SMILES IDX 14 12 11 13 9 14 10 15 8 17 3 18 4 19 5 20 7 21 6 22 2 23
REMARK SMILES IDX 1 24 23 25 24 26 25 27 26 28 27 29 28 30 29 31 30 32 31 33
REMARK SMILES IDX 83 34 32 35 82 36 33 37 34 38 35 39 76 40 36 41 81 42 75 43
REMARK SMILES IDX 77 44 37 45 80 46 74 47 73 48 38 50 64 51 47 52 63 53 48 54
REMARK SMILES IDX 51 55 62 56 78 57 49 58 50 59 61 61 79 62 52 63 39 64 40 65
REMARK SMILES IDX 45 66 41 67 42 68 44 69 46 70 43 71 65 72 66 73 71 74 67 75
REMARK SMILES IDX 68 76 70 77 72 78 69 79 53 80 54 81 59 82 55 83 56 84 58 85
REMARK SMILES IDX 60 86 57 87
REMARK H PARENT 11 16 77 49 51 60
REMARK Flexibility Score: inf
ROOT
ATOM      1  C   UNL A   1      39.596  21.895  26.196  1.00  0.00     0.188 C 
ENDROOT
BRANCH   1   2
ATOM      2  O   UNL A   1      39.385  23.111  26.894  1.00  0.00    -0.376 OA
BRANCH   2   3
ATOM      3  C   UNL A   1      38.379  23.967  26.366  1.00  0.00     0.202 C 
BRANCH   3   4
ATOM      4  C   UNL A   1      37.250  23.352  25.501  1.00  0.00     0.261 C 
BRANCH   4   5
ATOM      5  O   UNL A   1      36.118  22.860  26.257  1.00  0.00    -0.463 OA
BRANCH   5   6
ATOM      6  C   UNL A   1      35.326  21.939  25.649  1.00  0.00     0.312 C 
ATOM      7  O   UNL A   1      35.725  21.203  24.753  1.00  0.00    -0.252 OA
BRANCH   6   8
ATOM      8  C   UNL A   1      33.966  21.753  26.368  1.00  0.00     0.124 C 
ATOM      9  C   UNL A   1      32.193  23.279  25.737  1.00  0.00     0.106 C 
ATOM     10  C   UNL A   1      32.048  21.964  25.055  1.00  0.00    -0.006 C 
ATOM     11  C   UNL A   1      33.168  22.974  26.872  1.00  0.00     0.048 C 
ATOM     12  C   UNL A   1      33.024  21.126  25.392  1.00  0.00    -0.014 C 
BRANCH   9  13
ATOM     13  N   UNL A   1      30.905  23.824  26.058  1.00  0.00    -0.345 N 
ATOM     14  C   UNL A   1      30.575  25.165  26.142  1.00  0.00     0.268 C 
ATOM     15  O   UNL A   1      29.409  25.452  26.413  1.00  0.00    -0.268 OA
ATOM     16  H   UNL A   1      30.183  23.179  26.233  1.00  0.00     0.164 HD
BRANCH  14  17
ATOM     17  C   UNL A   1      31.559  26.173  25.760  1.00  0.00     0.108 A 
ATOM     18  N   UNL A   1      31.839  26.762  24.531  1.00  0.00    -0.343 N 
ATOM     19  C   UNL A   1      32.599  27.898  24.742  1.00  0.00     0.102 A 
ATOM     20  C   UNL A   1      32.982  27.909  26.053  1.00  0.00     0.036 A 
ATOM     21  C   UNL A   1      32.402  26.799  26.682  1.00  0.00     0.049 A 
ATOM     22  Br  UNL A   1      34.018  29.208  26.909  1.00  0.00    -0.049 Br
BRANCH  18  23
ATOM     23  C   UNL A   1      31.386  26.445  23.184  1.00  0.00     0.119 C 
ATOM     24  C   UNL A   1      31.812  25.121  22.566  1.00  0.00     0.027 C 
ENDBRANCH  18  23
ENDBRANCH  14  17
ENDBRANCH   9  13
ENDBRANCH   6   8
ENDBRANCH   5   6
ENDBRANCH   4   5
ENDBRANCH   3   4
ENDBRANCH   2   3
ENDBRANCH   1   2
BRANCH   1  25
ATOM     25  C   UNL A   1      40.772  21.033  26.667  1.00  0.00     0.188 C 
BRANCH  25  26
ATOM     26  O   UNL A   1      41.819  20.687  25.778  1.00  0.00    -0.376 OA
BRANCH  26  27
ATOM     27  C   UNL A   1      43.171  21.135  25.927  1.00  0.00     0.202 C 
BRANCH  27  28
ATOM     28  C   UNL A   1      43.860  22.265  25.141  1.00  0.00     0.261 C 
BRANCH  28  29
ATOM     29  O   UNL A   1      43.075  23.381  24.795  1.00  0.00    -0.460 OA
BRANCH  29  30
ATOM     30  C   UNL A   1      43.470  24.576  25.261  1.00  0.00     0.338 C 
ATOM     31  O   UNL A   1      44.478  25.201  24.953  1.00  0.00    -0.246 OA
BRANCH  30  32
ATOM     32  C   UNL A   1      42.424  25.007  26.202  1.00  0.00     0.060 A 
ATOM     33  C   UNL A   1      41.417  25.821  25.701  1.00  0.00     0.016 A 
ATOM     34  C   UNL A   1      42.611  24.808  27.587  1.00  0.00     0.016 A 
ATOM     35  C   UNL A   1      40.910  26.761  26.557  1.00  0.00     0.010 A 
ATOM     36  C   UNL A   1      42.111  25.741  28.438  1.00  0.00     0.010 A 
ATOM     37  C   UNL A   1      41.420  26.792  27.858  1.00  0.00    -0.014 A 
BRANCH  37  38
ATOM     38  C   UNL A   1      41.339  28.020  28.600  1.00  0.00     0.031 A 
ATOM     39  C   UNL A   1      42.486  28.894  28.332  1.00  0.00     0.074 A 
ATOM     40  C   UNL A   1      40.245  28.294  29.337  1.00  0.00     0.049 A 
ATOM     41  N   UNL A   1      43.490  29.126  29.108  1.00  0.00    -0.248 NA
ATOM     42  C   UNL A   1      42.669  29.355  26.945  1.00  0.00     0.031 C 
ATOM     43  C   UNL A   1      38.973  27.561  29.406  1.00  0.00     0.029 A 
ATOM     44  N   UNL A   1      40.014  29.373  30.129  1.00  0.00    -0.354 N 
ATOM     45  C   UNL A   1      44.301  29.979  28.375  1.00  0.00     0.074 A 
ATOM     46  C   UNL A   1      43.908  29.839  27.002  1.00  0.00     0.031 C 
ATOM     47  C   UNL A   1      38.041  28.333  30.015  1.00  0.00     0.029 A 
ATOM     48  C   UNL A   1      38.678  29.546  30.487  1.00  0.00     0.049 A 
ATOM     49  H   UNL A   1      40.730  29.981  30.426  1.00  0.00     0.167 HD
ATOM     50  C   UNL A   1      44.964  30.993  28.989  1.00  0.00     0.037 A 
ATOM     51  C   UNL A   1      38.172  30.678  31.041  1.00  0.00     0.037 A 
ATOM     52  C   UNL A   1      45.075  30.755  30.408  1.00  0.00     0.049 A 
ATOM     53  C   UNL A   1      39.329  31.435  31.598  1.00  0.00     0.074 A 
ATOM     54  C   UNL A   1      45.645  29.762  31.180  1.00  0.00     0.029 A 
ATOM     55  N   UNL A   1      44.190  31.410  31.231  1.00  0.00    -0.354 N 
ATOM     56  N   UNL A   1      40.046  31.017  32.606  1.00  0.00    -0.248 NA
ATOM     57  C   UNL A   1      39.992  32.385  30.712  1.00  0.00     0.031 C 
ATOM     58  C   UNL A   1      44.753  29.581  32.277  1.00  0.00     0.029 A 
ATOM     59  C   UNL A   1      43.721  30.513  32.155  1.00  0.00     0.049 A 
ATOM     60  H   UNL A   1      43.937  32.360  31.167  1.00  0.00     0.167 HD
ATOM     61  C   UNL A   1      41.359  31.312  32.258  1.00  0.00     0.074 A 
ATOM     62  C   UNL A   1      41.256  32.205  31.106  1.00  0.00     0.031 C 
ATOM     63  C   UNL A   1      42.401  30.573  32.742  1.00  0.00     0.037 A 
BRANCH  50  64
ATOM     64  C   UNL A   1      45.120  32.359  28.371  1.00  0.00     0.057 A 
ATOM     65  C   UNL A   1      43.973  33.142  28.174  1.00  0.00     0.134 A 
ATOM     66  C   UNL A   1      46.284  32.833  27.722  1.00  0.00     0.134 A 
ATOM     67  F   UNL A   1      42.801  32.791  28.723  1.00  0.00    -0.206 F 
ATOM     68  C   UNL A   1      43.969  34.267  27.342  1.00  0.00     0.040 A 
ATOM     69  C   UNL A   1      46.304  33.985  26.937  1.00  0.00     0.040 A 
ATOM     70  F   UNL A   1      47.444  32.167  27.719  1.00  0.00    -0.206 F 
ATOM     71  C   UNL A   1      45.135  34.689  26.716  1.00  0.00     0.006 A 
ENDBRANCH  50  64
BRANCH  51  72
ATOM     72  C   UNL A   1      36.860  31.315  30.781  1.00  0.00     0.057 A 
ATOM     73  C   UNL A   1      35.998  31.661  31.833  1.00  0.00     0.134 A 
ATOM     74  C   UNL A   1      36.539  31.853  29.522  1.00  0.00     0.134 A 
ATOM     75  F   UNL A   1      36.243  31.237  33.080  1.00  0.00    -0.206 F 
ATOM     76  C   UNL A   1      34.894  32.507  31.645  1.00  0.00     0.040 A 
ATOM     77  C   UNL A   1      35.440  32.694  29.321  1.00  0.00     0.040 A 
ATOM     78  F   UNL A   1      37.336  31.657  28.461  1.00  0.00    -0.206 F 
ATOM     79  C   UNL A   1      34.619  33.036  30.387  1.00  0.00     0.006 A 
ENDBRANCH  51  72
BRANCH  63  80
ATOM     80  C   UNL A   1      42.100  29.567  33.824  1.00  0.00     0.057 A 
ATOM     81  C   UNL A   1      41.765  28.226  33.575  1.00  0.00     0.134 A 
ATOM     82  C   UNL A   1      42.327  29.924  35.156  1.00  0.00     0.134 A 
ATOM     83  F   UNL A   1      41.621  27.770  32.325  1.00  0.00    -0.206 F 
ATOM     84  C   UNL A   1      41.635  27.291  34.609  1.00  0.00     0.040 A 
ATOM     85  C   UNL A   1      42.232  28.994  36.194  1.00  0.00     0.040 A 
ATOM     86  F   UNL A   1      42.706  31.174  35.463  1.00  0.00    -0.206 F 
ATOM     87  C   UNL A   1      41.878  27.674  35.924  1.00  0.00     0.006 A 
ENDBRANCH  63  80
ENDBRANCH  37  38
ENDBRANCH  30  32
ENDBRANCH  29  30
ENDBRANCH  28  29
ENDBRANCH  27  28
ENDBRANCH  26  27
ENDBRANCH  25  26
ENDBRANCH   1  25
TORSDOF 20
ENDMDL
MODEL 2
REMARK VINA RESULT:      -9.9      3.477      8.032
REMARK SMILES CCn1cc(Br)cc1C(=O)N[C@@H]1C=C[C@@H](C(=O)OCCOCCOCCOC(=O)c2ccc(-c3c4nc(c(-c5c(F)cccc5F)c5ccc([nH]5)c(-c5c(F)cccc5F)c5nc(c(-c6c(F)cccc6F)c6ccc3[nH]6)C=C5)C=C4)cc2)C1
REMARK SMILES IDX 22 1 21 2 20 3 19 4 18 5 16 6 17 7 15 8 12 9 13 10 84 11
REMARK SMILES IDX 14 12 11 13 9 14 10 15 8 17 3 18 4 19 5 20 7 21 6 22 2 23
REMARK SMILES IDX 1 24 23 25 24 26 25 27 26 28 27 29 28 30 29 31 30 32 31 33
REMARK SMILES IDX 83 34 32 35 82 36 33 37 34 38 35 39 76 40 36 41 81 42 75 43
REMARK SMILES IDX 77 44 37 45 80 46 74 47 73 48 38 50 64 51 47 52 63 53 48 54
REMARK SMILES IDX 51 55 62 56 78 57 49 58 50 59 61 61 79 62 52 63 39 64 40 65
REMARK SMILES IDX 45 66 41 67 42 68 44 69 46 70 43 71 65 72 66 73 71 74 67 75
REMARK SMILES IDX 68 76 70 77 72 78 69 79 53 80 54 81 59 82 55 83 56 84 58 85
REMARK SMILES IDX 60 86 57 87
REMARK H PARENT 11 16 77 49 51 60
REMARK Flexibility Score: inf
ROOT
ATOM      1  C   UNL A   1      34.708  32.380  27.842  1.00  0.00     0.188 C 
ENDROOT
BRANCH   1   2
ATOM      2  O   UNL A   1      33.476  31.761  27.510  1.00  0.00    -0.376 OA
BRANCH   2   3
ATOM      3  C   UNL A   1      33.501  30.342  27.402  1.00  0.00     0.202 C 
BRANCH   3   4
ATOM      4  C   UNL A   1      32.162  29.582  27.223  1.00  0.00     0.261 C 
BRANCH   4   5
ATOM      5  O   UNL A   1      31.833  29.264  25.850  1.00  0.00    -0.463 OA
BRANCH   5   6
ATOM      6  C   UNL A   1      31.413  27.999  25.595  1.00  0.00     0.312 C 
ATOM      7  O   UNL A   1      31.054  27.225  26.476  1.00  0.00    -0.252 OA
BRANCH   6   8
ATOM      8  C   UNL A   1      31.202  27.731  24.083  1.00  0.00     0.124 C 
ATOM      9  C   UNL A   1      31.936  25.575  23.255  1.00  0.00     0.106 C 
ATOM     10  C   UNL A   1      30.466  25.598  23.488  1.00  0.00    -0.006 C 
ATOM     11  C   UNL A   1      32.306  27.057  23.242  1.00  0.00     0.048 C 
ATOM     12  C   UNL A   1      30.060  26.776  23.950  1.00  0.00    -0.014 C 
BRANCH   9  13
ATOM     13  N   UNL A   1      32.252  24.771  22.109  1.00  0.00    -0.345 N 
ATOM     14  C   UNL A   1      33.188  23.754  22.049  1.00  0.00     0.268 C 
ATOM     15  O   UNL A   1      33.314  23.156  20.981  1.00  0.00    -0.268 OA
ATOM     16  H   UNL A   1      31.751  24.962  21.284  1.00  0.00     0.164 HD
BRANCH  14  17
ATOM     17  C   UNL A   1      33.866  23.328  23.268  1.00  0.00     0.108 A 
ATOM     18  N   UNL A   1      33.586  22.299  24.162  1.00  0.00    -0.343 N 
ATOM     19  C   UNL A   1      34.702  22.074  24.948  1.00  0.00     0.102 A 
ATOM     20  C   UNL A   1      35.592  23.082  24.713  1.00  0.00     0.036 A 
ATOM     21  C   UNL A   1      35.052  23.913  23.722  1.00  0.00     0.049 A 
ATOM     22  Br  UNL A   1      37.278  23.295  25.491  1.00  0.00    -0.049 Br
BRANCH  18  23
ATOM     23  C   UNL A   1      32.429  21.426  24.296  1.00  0.00     0.119 C 
ATOM     24  C   UNL A   1      32.659  19.960  24.635  1.00  0.00     0.027 C 
ENDBRANCH  18  23
ENDBRANCH  14  17
ENDBRANCH   9  13
ENDBRANCH   6   8
ENDBRANCH   5   6
ENDBRANCH   4   5
ENDBRANCH   3   4
ENDBRANCH   2   3
ENDBRANCH   1   2
BRANCH   1  25
ATOM     25  C   UNL A   1      34.641  33.545  28.835  1.00  0.00     0.188 C 
BRANCH  25  26
ATOM     26  O   UNL A   1      34.132  33.355  30.143  1.00  0.00    -0.376 OA
BRANCH  26  27
ATOM     27  C   UNL A   1      34.779  32.560  31.142  1.00  0.00     0.202 C 
BRANCH  27  28
ATOM     28  C   UNL A   1      36.258  32.132  31.166  1.00  0.00     0.261 C 
BRANCH  28  29
ATOM     29  O   UNL A   1      36.584  30.908  30.554  1.00  0.00    -0.460 OA
BRANCH  29  30
ATOM     30  C   UNL A   1      36.880  29.878  31.363  1.00  0.00     0.338 C 
ATOM     31  O   UNL A   1      36.657  29.784  32.564  1.00  0.00    -0.246 OA
BRANCH  30  32
ATOM     32  C   UNL A   1      37.503  28.859  30.503  1.00  0.00     0.060 A 
ATOM     33  C   UNL A   1      38.056  27.751  31.133  1.00  0.00     0.016 A 
ATOM     34  C   UNL A   1      37.747  29.151  29.144  1.00  0.00     0.016 A 
ATOM     35  C   UNL A   1      39.176  27.216  30.553  1.00  0.00     0.010 A 
ATOM     36  C   UNL A   1      38.858  28.623  28.568  1.00  0.00     0.010 A 
ATOM     37  C   UNL A   1      39.634  27.803  29.371  1.00  0.00    -0.014 A 
BRANCH  37  38
ATOM     38  C   UNL A   1      41.021  27.657  29.023  1.00  0.00     0.031 A 
ATOM     39  C   UNL A   1      41.285  26.370  28.371  1.00  0.00     0.074 A 
ATOM     40  C   UNL A   1      41.877  28.681  29.209  1.00  0.00     0.049 A 
ATOM     41  N   UNL A   1      41.866  25.339  28.882  1.00  0.00    -0.248 NA
ATOM     42  C   UNL A   1      40.592  26.111  27.096  1.00  0.00     0.031 C 
ATOM     43  C   UNL A   1      41.585  30.065  29.608  1.00  0.00     0.029 A 
ATOM     44  N   UNL A   1      43.216  28.708  28.981  1.00  0.00    -0.354 N 
ATOM     45  C   UNL A   1      41.828  24.388  27.874  1.00  0.00     0.074 A 
ATOM     46  C   UNL A   1      40.806  24.803  26.956  1.00  0.00     0.031 C 
ATOM     47  C   UNL A   1      42.672  30.838  29.377  1.00  0.00     0.029 A 
ATOM     48  C   UNL A   1      43.764  29.989  28.941  1.00  0.00     0.049 A 
ATOM     49  H   UNL A   1      43.753  27.892  28.857  1.00  0.00     0.167 HD
ATOM     50  C   UNL A   1      42.879  23.549  27.681  1.00  0.00     0.037 A 
ATOM     51  C   UNL A   1      45.005  30.278  28.474  1.00  0.00     0.037 A 
ATOM     52  C   UNL A   1      43.709  23.480  28.859  1.00  0.00     0.049 A 
ATOM     53  C   UNL A   1      45.774  29.001  28.484  1.00  0.00     0.074 A 
ATOM     54  C   UNL A   1      43.498  23.098  30.170  1.00  0.00     0.029 A 
ATOM     55  N   UNL A   1      44.863  24.228  28.866  1.00  0.00    -0.354 N 
ATOM     56  N   UNL A   1      46.108  28.370  29.577  1.00  0.00    -0.248 NA
ATOM     57  C   UNL A   1      45.714  28.179  27.282  1.00  0.00     0.031 C 
ATOM     58  C   UNL A   1      44.270  24.006  30.953  1.00  0.00     0.029 A 
ATOM     59  C   UNL A   1      44.961  24.850  30.083  1.00  0.00     0.049 A 
ATOM     60  H   UNL A   1      45.506  24.303  28.124  1.00  0.00     0.167 HD
ATOM     61  C   UNL A   1      45.895  27.026  29.294  1.00  0.00     0.074 A 
ATOM     62  C   UNL A   1      45.705  26.967  27.846  1.00  0.00     0.031 C 
ATOM     63  C   UNL A   1      45.592  26.136  30.285  1.00  0.00     0.037 A 
BRANCH  50  64
ATOM     64  C   UNL A   1      43.363  23.147  26.311  1.00  0.00     0.057 A 
ATOM     65  C   UNL A   1      43.478  21.781  26.014  1.00  0.00     0.134 A 
ATOM     66  C   UNL A   1      43.970  24.014  25.373  1.00  0.00     0.134 A 
ATOM     67  F   UNL A   1      42.960  20.855  26.834  1.00  0.00    -0.206 F 
ATOM     68  C   UNL A   1      44.198  21.314  24.909  1.00  0.00     0.040 A 
ATOM     69  C   UNL A   1      44.640  23.561  24.237  1.00  0.00     0.040 A 
ATOM     70  F   UNL A   1      44.043  25.339  25.540  1.00  0.00    -0.206 F 
ATOM     71  C   UNL A   1      44.787  22.204  24.019  1.00  0.00     0.006 A 
ENDBRANCH  50  64
BRANCH  51  72
ATOM     72  C   UNL A   1      45.431  31.453  27.678  1.00  0.00     0.057 A 
ATOM     73  C   UNL A   1      44.650  31.937  26.618  1.00  0.00     0.134 A 
ATOM     74  C   UNL A   1      46.469  32.298  28.110  1.00  0.00     0.134 A 
ATOM     75  F   UNL A   1      43.607  31.228  26.164  1.00  0.00    -0.206 F 
ATOM     76  C   UNL A   1      44.877  33.193  26.036  1.00  0.00     0.040 A 
ATOM     77  C   UNL A   1      46.708  33.551  27.537  1.00  0.00     0.040 A 
ATOM     78  F   UNL A   1      47.230  31.977  29.168  1.00  0.00    -0.206 F 
ATOM     79  C   UNL A   1      45.902  34.010  26.503  1.00  0.00     0.006 A 
ENDBRANCH  51  72
BRANCH  63  80
ATOM     80  C   UNL A   1      45.706  26.612  31.710  1.00  0.00     0.057 A 
ATOM     81  C   UNL A   1      46.913  26.663  32.425  1.00  0.00     0.134 A 
ATOM     82  C   UNL A   1      44.590  27.201  32.314  1.00  0.00     0.134 A 
ATOM     83  F   UNL A   1      48.053  26.210  31.889  1.00  0.00    -0.206 F 
ATOM     84  C   UNL A   1      46.999  27.246  33.694  1.00  0.00     0.040 A 
ATOM     85  C   UNL A   1      44.669  27.814  33.567  1.00  0.00     0.040 A 
ATOM     86  F   UNL A   1      43.416  27.240  31.666  1.00  0.00    -0.206 F 
ATOM     87  C   UNL A   1      45.874  27.833  34.265  1.00  0.00     0.006 A 
ENDBRANCH  63  80
ENDBRANCH  37  38
ENDBRANCH  30  32
ENDBRANCH  29  30
ENDBRANCH  28  29
ENDBRANCH  27  28
ENDBRANCH  26  27
ENDBRANCH  25  26
ENDBRANCH   1  25
TORSDOF 20
ENDMDL
MODEL 3
REMARK VINA RESULT:      -9.8      1.986      2.776
REMARK SMILES CCn1cc(Br)cc1C(=O)N[C@@H]1C=C[C@@H](C(=O)OCCOCCOCCOC(=O)c2ccc(-c3c4nc(c(-c5c(F)cccc5F)c5ccc([nH]5)c(-c5c(F)cccc5F)c5nc(c(-c6c(F)cccc6F)c6ccc3[nH]6)C=C5)C=C4)cc2)C1
REMARK SMILES IDX 22 1 21 2 20 3 19 4 18 5 16 6 17 7 15 8 12 9 13 10 84 11
REMARK SMILES IDX 14 12 11 13 9 14 10 15 8 17 3 18 4 19 5 20 7 21 6 22 2 23
REMARK SMILES IDX 1 24 23 25 24 26 25 27 26 28 27 29 28 30 29 31 30 32 31 33
REMARK SMILES IDX 83 34 32 35 82 36 33 37 34 38 35 39 76 40 36 41 81 42 75 43
REMARK SMILES IDX 77 44 37 45 80 46 74 47 73 48 38 50 64 51 47 52 63 53 48 54
REMARK SMILES IDX 51 55 62 56 78 57 49 58 50 59 61 61 79 62 52 63 39 64 40 65
REMARK SMILES IDX 45 66 41 67 42 68 44 69 46 70 43 71 65 72 66 73 71 74 67 75
REMARK SMILES IDX 68 76 70 77 72 78 69 79 53 80 54 81 59 82 55 83 56 84 58 85
REMARK SMILES IDX 60 86 57 87
REMARK H PARENT 11 16 77 49 51 60
REMARK Flexibility Score: inf
ROOT
ATOM      1  C   UNL A   1      40.693  20.343  26.687  1.00  0.00     0.188 C 
ENDROOT
BRANCH   1   2
ATOM      2  O   UNL A   1      40.056  21.493  27.215  1.00  0.00    -0.376 OA
BRANCH   2   3
ATOM      3  C   UNL A   1      39.367  22.312  26.277  1.00  0.00     0.202 C 
BRANCH   3   4
ATOM      4  C   UNL A   1      38.162  21.715  25.506  1.00  0.00     0.261 C 
BRANCH   4   5
ATOM      5  O   UNL A   1      37.005  22.582  25.442  1.00  0.00    -0.463 OA
BRANCH   5   6
ATOM      6  C   UNL A   1      36.484  22.822  24.211  1.00  0.00     0.312 C 
ATOM      7  O   UNL A   1      36.953  22.346  23.183  1.00  0.00    -0.252 OA
BRANCH   6   8
ATOM      8  C   UNL A   1      35.114  23.544  24.272  1.00  0.00     0.124 C 
ATOM      9  C   UNL A   1      33.707  23.033  26.178  1.00  0.00     0.106 C 
ATOM     10  C   UNL A   1      34.429  24.322  26.363  1.00  0.00    -0.006 C 
ATOM     11  C   UNL A   1      33.838  22.777  24.677  1.00  0.00     0.048 C 
ATOM     12  C   UNL A   1      35.209  24.602  25.323  1.00  0.00    -0.014 C 
BRANCH   9  13
ATOM     13  N   UNL A   1      32.396  23.103  26.758  1.00  0.00    -0.345 N 
ATOM     14  C   UNL A   1      31.423  24.048  26.485  1.00  0.00     0.268 C 
ATOM     15  O   UNL A   1      30.344  23.942  27.067  1.00  0.00    -0.268 OA
ATOM     16  H   UNL A   1      32.166  22.407  27.414  1.00  0.00     0.164 HD
BRANCH  14  17
ATOM     17  C   UNL A   1      31.647  25.024  25.424  1.00  0.00     0.108 A 
ATOM     18  N   UNL A   1      32.112  26.335  25.465  1.00  0.00    -0.343 N 
ATOM     19  C   UNL A   1      32.484  26.717  24.189  1.00  0.00     0.102 A 
ATOM     20  C   UNL A   1      32.057  25.754  23.320  1.00  0.00     0.036 A 
ATOM     21  C   UNL A   1      31.467  24.728  24.070  1.00  0.00     0.049 A 
ATOM     22  Br  UNL A   1      32.285  25.734  21.465  1.00  0.00    -0.049 Br
BRANCH  18  23
ATOM     23  C   UNL A   1      32.353  27.238  26.581  1.00  0.00     0.119 C 
ATOM     24  C   UNL A   1      33.650  28.032  26.608  1.00  0.00     0.027 C 
ENDBRANCH  18  23
ENDBRANCH  14  17
ENDBRANCH   9  13
ENDBRANCH   6   8
ENDBRANCH   5   6
ENDBRANCH   4   5
ENDBRANCH   3   4
ENDBRANCH   2   3
ENDBRANCH   1   2
BRANCH   1  25
ATOM     25  C   UNL A   1      42.203  20.446  26.449  1.00  0.00     0.188 C 
BRANCH  25  26
ATOM     26  O   UNL A   1      42.787  19.949  25.259  1.00  0.00    -0.376 OA
BRANCH  26  27
ATOM     27  C   UNL A   1      44.189  19.709  25.099  1.00  0.00     0.202 C 
BRANCH  27  28
ATOM     28  C   UNL A   1      45.159  20.479  24.184  1.00  0.00     0.261 C 
BRANCH  28  29
ATOM     29  O   UNL A   1      44.720  21.716  23.678  1.00  0.00    -0.460 OA
BRANCH  29  30
ATOM     30  C   UNL A   1      45.241  22.824  24.231  1.00  0.00     0.338 C 
ATOM     31  O   UNL A   1      46.213  23.464  23.848  1.00  0.00    -0.246 OA
BRANCH  30  32
ATOM     32  C   UNL A   1      44.382  23.138  25.384  1.00  0.00     0.060 A 
ATOM     33  C   UNL A   1      43.093  23.578  25.113  1.00  0.00     0.016 A 
ATOM     34  C   UNL A   1      44.954  23.235  26.671  1.00  0.00     0.016 A 
ATOM     35  C   UNL A   1      42.567  24.497  25.981  1.00  0.00     0.010 A 
ATOM     36  C   UNL A   1      44.436  24.148  27.532  1.00  0.00     0.010 A 
ATOM     37  C   UNL A   1      43.353  24.878  27.072  1.00  0.00    -0.014 A 
BRANCH  37  38
ATOM     38  C   UNL A   1      43.111  26.157  27.681  1.00  0.00     0.031 A 
ATOM     39  C   UNL A   1      44.160  27.126  27.346  1.00  0.00     0.074 A 
ATOM     40  C   UNL A   1      41.970  26.376  28.364  1.00  0.00     0.049 A 
ATOM     41  N   UNL A   1      45.107  27.550  28.113  1.00  0.00    -0.248 NA
ATOM     42  C   UNL A   1      44.332  27.463  25.922  1.00  0.00     0.031 C 
ATOM     43  C   UNL A   1      40.788  25.512  28.485  1.00  0.00     0.029 A 
ATOM     44  N   UNL A   1      41.595  27.496  29.035  1.00  0.00    -0.354 N 
ATOM     45  C   UNL A   1      45.839  28.412  27.311  1.00  0.00     0.074 A 
ATOM     46  C   UNL A   1      45.507  28.090  25.952  1.00  0.00     0.031 C 
ATOM     47  C   UNL A   1      39.757  26.229  28.992  1.00  0.00     0.029 A 
ATOM     48  C   UNL A   1      40.238  27.549  29.348  1.00  0.00     0.049 A 
ATOM     49  H   UNL A   1      42.229  28.209  29.281  1.00  0.00     0.167 HD
ATOM     50  C   UNL A   1      46.364  29.552  27.829  1.00  0.00     0.037 A 
ATOM     51  C   UNL A   1      39.591  28.665  29.771  1.00  0.00     0.037 A 
ATOM     52  C   UNL A   1      46.457  29.473  29.267  1.00  0.00     0.049 A 
ATOM     53  C   UNL A   1      40.637  29.603  30.269  1.00  0.00     0.074 A 
ATOM     54  C   UNL A   1      47.111  28.636  30.149  1.00  0.00     0.029 A 
ATOM     55  N   UNL A   1      45.478  30.102  30.000  1.00  0.00    -0.354 N 
ATOM     56  N   UNL A   1      41.365  29.373  31.328  1.00  0.00    -0.248 NA
ATOM     57  C   UNL A   1      41.215  30.528  29.302  1.00  0.00     0.031 C 
ATOM     58  C   UNL A   1      46.211  28.464  31.241  1.00  0.00     0.029 A 
ATOM     59  C   UNL A   1      45.085  29.254  31.004  1.00  0.00     0.049 A 
ATOM     60  H   UNL A   1      45.122  31.005  29.833  1.00  0.00     0.167 HD
ATOM     61  C   UNL A   1      42.646  29.782  30.978  1.00  0.00     0.074 A 
ATOM     62  C   UNL A   1      42.479  30.536  29.737  1.00  0.00     0.031 C 
ATOM     63  C   UNL A   1      43.749  29.220  31.555  1.00  0.00     0.037 A 
BRANCH  50  64
ATOM     64  C   UNL A   1      46.384  30.858  27.076  1.00  0.00     0.057 A 
ATOM     65  C   UNL A   1      47.590  31.573  27.004  1.00  0.00     0.134 A 
ATOM     66  C   UNL A   1      45.241  31.575  26.654  1.00  0.00     0.134 A 
ATOM     67  F   UNL A   1      48.744  31.010  27.392  1.00  0.00    -0.206 F 
ATOM     68  C   UNL A   1      47.642  32.913  26.609  1.00  0.00     0.040 A 
ATOM     69  C   UNL A   1      45.290  32.894  26.203  1.00  0.00     0.040 A 
ATOM     70  F   UNL A   1      43.998  31.090  26.742  1.00  0.00    -0.206 F 
ATOM     71  C   UNL A   1      46.489  33.580  26.212  1.00  0.00     0.006 A 
ENDBRANCH  50  64
BRANCH  51  72
ATOM     72  C   UNL A   1      38.224  29.117  29.422  1.00  0.00     0.057 A 
ATOM     73  C   UNL A   1      37.250  29.324  30.411  1.00  0.00     0.134 A 
ATOM     74  C   UNL A   1      37.919  29.624  28.146  1.00  0.00     0.134 A 
ATOM     75  F   UNL A   1      37.464  28.920  31.671  1.00  0.00    -0.206 F 
ATOM     76  C   UNL A   1      36.055  30.010  30.149  1.00  0.00     0.040 A 
ATOM     77  C   UNL A   1      36.730  30.307  27.871  1.00  0.00     0.040 A 
ATOM     78  F   UNL A   1      38.808  29.556  27.143  1.00  0.00    -0.206 F 
ATOM     79  C   UNL A   1      35.797  30.515  28.878  1.00  0.00     0.006 A 
ENDBRANCH  51  72
BRANCH  63  80
ATOM     80  C   UNL A   1      43.530  28.301  32.729  1.00  0.00     0.057 A 
ATOM     81  C   UNL A   1      43.475  26.902  32.629  1.00  0.00     0.134 A 
ATOM     82  C   UNL A   1      43.552  28.840  34.019  1.00  0.00     0.134 A 
ATOM     83  F   UNL A   1      43.545  26.291  31.439  1.00  0.00    -0.206 F 
ATOM     84  C   UNL A   1      43.415  26.079  33.760  1.00  0.00     0.040 A 
ATOM     85  C   UNL A   1      43.524  28.029  35.157  1.00  0.00     0.040 A 
ATOM     86  F   UNL A   1      43.661  30.166  34.193  1.00  0.00    -0.206 F 
ATOM     87  C   UNL A   1      43.449  26.645  35.030  1.00  0.00     0.006 A 
ENDBRANCH  63  80
ENDBRANCH  37  38
ENDBRANCH  30  32
ENDBRANCH  29  30
ENDBRANCH  28  29
ENDBRANCH  27  28
ENDBRANCH  26  27
ENDBRANCH  25  26
ENDBRANCH   1  25
TORSDOF 20
ENDMDL
