MODEL 1
REMARK VINA RESULT:     -12.1      0.000      0.000
REMARK SMILES O=C(Cc1c(C(=O)c2cc3c(cn2)CCCC3)[nH]c2cc(Cl)ccc12)OCCOCCOCCOC(=O)c1ccc(-c2c3nc(c(-c4c(F)cccc4F)c4ccc([nH]4)c(-c4c(F)cccc4F)c4nc(c(-c5c(F)cccc5F)c5ccc2[nH]5)C=C4)C=C3)cc1
REMARK SMILES IDX 30 1 29 2 28 3 27 4 26 5 2 6 1 7 3 8 4 9 5 10 25 11 18 12
REMARK SMILES IDX 19 13 24 14 20 16 23 17 21 18 22 19 6 20 7 21 8 22 9 23
REMARK SMILES IDX 13 24 10 25 12 26 11 27 17 28 14 29 16 30 15 31 31 32 32 33
REMARK SMILES IDX 33 34 34 35 35 36 36 37 37 38 38 39 39 40 91 41 40 42 90 43
REMARK SMILES IDX 41 44 42 45 43 46 84 47 44 48 89 49 83 50 85 51 45 52 88 53
REMARK SMILES IDX 82 54 81 55 46 57 72 58 55 59 71 60 56 61 59 62 70 63 86 64
REMARK SMILES IDX 57 65 58 66 69 68 87 69 60 70 47 71 48 72 53 73 49 74 50 75
REMARK SMILES IDX 52 76 54 77 51 78 73 79 74 80 79 81 75 82 76 83 78 84 80 85
REMARK SMILES IDX 77 86 61 87 62 88 67 89 63 90 64 91 66 92 68 93 65 94
REMARK H PARENT 18 15 85 56 59 67
REMARK Flexibility Score: inf
ROOT
ATOM      1  C   UNL A   1      39.958  21.787  26.555  1.00  0.00     0.188 C 
ENDROOT
BRANCH   1   2
ATOM      2  O   UNL A   1      39.642  23.003  27.207  1.00  0.00    -0.376 OA
BRANCH   2   3
ATOM      3  C   UNL A   1      38.759  23.860  26.509  1.00  0.00     0.202 C 
BRANCH   3   4
ATOM      4  C   UNL A   1      37.673  23.109  25.758  1.00  0.00     0.261 C 
BRANCH   4   5
ATOM      5  O   UNL A   1      36.649  23.905  25.107  1.00  0.00    -0.463 OA
BRANCH   5   6
ATOM      6  C   UNL A   1      35.342  24.130  25.324  1.00  0.00     0.310 C 
ATOM      7  O   UNL A   1      34.844  25.159  24.850  1.00  0.00    -0.252 OA
BRANCH   6   8
ATOM      8  C   UNL A   1      34.495  23.296  26.250  1.00  0.00     0.161 C 
BRANCH   8   9
ATOM      9  C   UNL A   1      33.495  22.328  25.711  1.00  0.00     0.000 A 
ATOM     10  C   UNL A   1      32.114  22.430  25.751  1.00  0.00     0.093 A 
ATOM     11  C   UNL A   1      33.808  21.025  25.199  1.00  0.00     0.004 A 
ATOM     12  N   UNL A   1      31.606  21.329  25.097  1.00  0.00    -0.351 N 
ATOM     13  C   UNL A   1      32.602  20.406  24.880  1.00  0.00     0.048 A 
ATOM     14  C   UNL A   1      35.007  20.300  25.034  1.00  0.00     0.012 A 
ATOM     15  H   UNL A   1      30.667  21.218  24.826  1.00  0.00     0.167 HD
ATOM     16  C   UNL A   1      32.529  19.074  24.450  1.00  0.00     0.047 A 
ATOM     17  C   UNL A   1      34.955  18.963  24.625  1.00  0.00     0.021 A 
ATOM     18  C   UNL A   1      33.729  18.361  24.356  1.00  0.00     0.043 A 
ATOM     19  Cl  UNL A   1      33.685  16.693  23.926  1.00  0.00    -0.084 Cl
BRANCH  10  20
ATOM     20  C   UNL A   1      31.335  23.465  26.403  1.00  0.00     0.227 C 
ATOM     21  O   UNL A   1      30.654  23.267  27.404  1.00  0.00    -0.285 OA
BRANCH  20  22
ATOM     22  C   UNL A   1      31.248  24.784  25.775  1.00  0.00     0.113 A 
ATOM     23  C   UNL A   1      31.764  25.831  26.511  1.00  0.00     0.036 A 
ATOM     24  N   UNL A   1      30.657  24.890  24.560  1.00  0.00    -0.252 NA
ATOM     25  C   UNL A   1      31.695  27.099  25.961  1.00  0.00    -0.041 A 
ATOM     26  C   UNL A   1      30.662  26.127  24.020  1.00  0.00     0.115 A 
ATOM     27  C   UNL A   1      31.145  27.258  24.680  1.00  0.00    -0.026 A 
ATOM     28  C   UNL A   1      32.155  28.257  26.798  1.00  0.00     0.036 C 
ATOM     29  C   UNL A   1      31.143  28.601  24.000  1.00  0.00     0.037 C 
ATOM     30  C   UNL A   1      32.403  29.513  25.976  1.00  0.00     0.005 C 
ATOM     31  C   UNL A   1      31.252  29.751  25.002  1.00  0.00     0.005 C 
ENDBRANCH  20  22
ENDBRANCH  10  20
ENDBRANCH   8   9
ENDBRANCH   6   8
ENDBRANCH   5   6
ENDBRANCH   4   5
ENDBRANCH   3   4
ENDBRANCH   2   3
ENDBRANCH   1   2
BRANCH   1  32
ATOM     32  C   UNL A   1      41.388  21.262  26.788  1.00  0.00     0.188 C 
BRANCH  32  33
ATOM     33  O   UNL A   1      42.223  20.940  25.685  1.00  0.00    -0.376 OA
BRANCH  33  34
ATOM     34  C   UNL A   1      43.610  21.225  25.741  1.00  0.00     0.202 C 
BRANCH  34  35
ATOM     35  C   UNL A   1      44.188  22.152  24.664  1.00  0.00     0.261 C 
BRANCH  35  36
ATOM     36  O   UNL A   1      43.623  23.477  24.648  1.00  0.00    -0.460 OA
BRANCH  36  37
ATOM     37  C   UNL A   1      44.431  24.484  25.082  1.00  0.00     0.338 C 
ATOM     38  O   UNL A   1      45.505  24.808  24.624  1.00  0.00    -0.246 OA
BRANCH  37  39
ATOM     39  C   UNL A   1      43.717  25.289  26.112  1.00  0.00     0.060 A 
ATOM     40  C   UNL A   1      42.654  24.767  26.851  1.00  0.00     0.016 A 
ATOM     41  C   UNL A   1      44.124  26.616  26.320  1.00  0.00     0.016 A 
ATOM     42  C   UNL A   1      42.035  25.556  27.833  1.00  0.00     0.010 A 
ATOM     43  C   UNL A   1      43.492  27.408  27.287  1.00  0.00     0.010 A 
ATOM     44  C   UNL A   1      42.463  26.874  28.075  1.00  0.00    -0.014 A 
BRANCH  44  45
ATOM     45  C   UNL A   1      41.973  27.616  29.269  1.00  0.00     0.031 A 
ATOM     46  C   UNL A   1      42.613  27.492  30.621  1.00  0.00     0.074 A 
ATOM     47  C   UNL A   1      40.891  28.406  29.120  1.00  0.00     0.049 A 
ATOM     48  N   UNL A   1      42.328  28.132  31.729  1.00  0.00    -0.248 NA
ATOM     49  C   UNL A   1      43.710  26.524  30.753  1.00  0.00     0.031 C 
ATOM     50  C   UNL A   1      40.151  28.586  27.869  1.00  0.00     0.029 A 
ATOM     51  N   UNL A   1      40.223  29.198  30.020  1.00  0.00    -0.354 N 
ATOM     52  C   UNL A   1      43.221  27.669  32.685  1.00  0.00     0.074 A 
ATOM     53  C   UNL A   1      44.033  26.657  32.035  1.00  0.00     0.031 C 
ATOM     54  C   UNL A   1      39.139  29.442  28.079  1.00  0.00     0.029 A 
ATOM     55  C   UNL A   1      39.144  29.854  29.479  1.00  0.00     0.049 A 
ATOM     56  H   UNL A   1      40.492  29.287  30.962  1.00  0.00     0.167 HD
ATOM     57  C   UNL A   1      43.360  28.060  33.977  1.00  0.00     0.037 A 
ATOM     58  C   UNL A   1      38.254  30.690  30.045  1.00  0.00     0.037 A 
ATOM     59  C   UNL A   1      42.526  29.039  34.635  1.00  0.00     0.049 A 
ATOM     60  C   UNL A   1      38.394  31.054  31.497  1.00  0.00     0.074 A 
ATOM     61  C   UNL A   1      42.622  29.524  35.931  1.00  0.00     0.029 A 
ATOM     62  N   UNL A   1      41.429  29.664  34.063  1.00  0.00    -0.354 N 
ATOM     63  N   UNL A   1      39.312  30.691  32.357  1.00  0.00    -0.248 NA
ATOM     64  C   UNL A   1      37.374  31.956  32.053  1.00  0.00     0.031 C 
ATOM     65  C   UNL A   1      41.554  30.398  36.159  1.00  0.00     0.029 A 
ATOM     66  C   UNL A   1      40.823  30.503  34.988  1.00  0.00     0.049 A 
ATOM     67  H   UNL A   1      41.123  29.532  33.137  1.00  0.00     0.167 HD
ATOM     68  C   UNL A   1      39.006  31.351  33.541  1.00  0.00     0.074 A 
ATOM     69  C   UNL A   1      37.822  32.143  33.286  1.00  0.00     0.031 C 
ATOM     70  C   UNL A   1      39.653  31.304  34.730  1.00  0.00     0.037 A 
BRANCH  57  71
ATOM     71  C   UNL A   1      44.462  27.433  34.784  1.00  0.00     0.057 A 
ATOM     72  C   UNL A   1      45.771  27.929  34.724  1.00  0.00     0.134 A 
ATOM     73  C   UNL A   1      44.244  26.281  35.551  1.00  0.00     0.134 A 
ATOM     74  F   UNL A   1      46.053  29.021  33.997  1.00  0.00    -0.206 F 
ATOM     75  C   UNL A   1      46.824  27.297  35.389  1.00  0.00     0.040 A 
ATOM     76  C   UNL A   1      45.284  25.652  36.239  1.00  0.00     0.040 A 
ATOM     77  F   UNL A   1      43.013  25.757  35.658  1.00  0.00    -0.206 F 
ATOM     78  C   UNL A   1      46.581  26.156  36.151  1.00  0.00     0.006 A 
ENDBRANCH  57  71
BRANCH  58  79
ATOM     79  C   UNL A   1      37.148  31.262  29.237  1.00  0.00     0.057 A 
ATOM     80  C   UNL A   1      35.976  30.538  28.992  1.00  0.00     0.134 A 
ATOM     81  C   UNL A   1      37.219  32.566  28.735  1.00  0.00     0.134 A 
ATOM     82  F   UNL A   1      35.850  29.281  29.443  1.00  0.00    -0.206 F 
ATOM     83  C   UNL A   1      34.911  31.092  28.282  1.00  0.00     0.040 A 
ATOM     84  C   UNL A   1      36.150  33.144  28.048  1.00  0.00     0.040 A 
ATOM     85  F   UNL A   1      38.309  33.316  28.954  1.00  0.00    -0.206 F 
ATOM     86  C   UNL A   1      34.992  32.404  27.819  1.00  0.00     0.006 A 
ENDBRANCH  58  79
BRANCH  70  87
ATOM     87  C   UNL A   1      39.126  32.177  35.834  1.00  0.00     0.057 A 
ATOM     88  C   UNL A   1      39.541  33.511  35.944  1.00  0.00     0.134 A 
ATOM     89  C   UNL A   1      38.223  31.701  36.795  1.00  0.00     0.134 A 
ATOM     90  F   UNL A   1      40.407  34.030  35.062  1.00  0.00    -0.206 F 
ATOM     91  C   UNL A   1      39.080  34.338  36.969  1.00  0.00     0.040 A 
ATOM     92  C   UNL A   1      37.733  32.528  37.808  1.00  0.00     0.040 A 
ATOM     93  F   UNL A   1      37.771  30.439  36.737  1.00  0.00    -0.206 F 
ATOM     94  C   UNL A   1      38.167  33.849  37.901  1.00  0.00     0.006 A 
ENDBRANCH  70  87
ENDBRANCH  44  45
ENDBRANCH  37  39
ENDBRANCH  36  37
ENDBRANCH  35  36
ENDBRANCH  34  35
ENDBRANCH  33  34
ENDBRANCH  32  33
ENDBRANCH   1  32
TORSDOF 20
ENDMDL
MODEL 2
REMARK VINA RESULT:     -12.0      1.094      1.665
REMARK SMILES O=C(Cc1c(C(=O)c2cc3c(cn2)CCCC3)[nH]c2cc(Cl)ccc12)OCCOCCOCCOC(=O)c1ccc(-c2c3nc(c(-c4c(F)cccc4F)c4ccc([nH]4)c(-c4c(F)cccc4F)c4nc(c(-c5c(F)cccc5F)c5ccc2[nH]5)C=C4)C=C3)cc1
REMARK SMILES IDX 30 1 29 2 28 3 27 4 26 5 2 6 1 7 3 8 4 9 5 10 25 11 18 12
REMARK SMILES IDX 19 13 24 14 20 16 23 17 21 18 22 19 6 20 7 21 8 22 9 23
REMARK SMILES IDX 13 24 10 25 12 26 11 27 17 28 14 29 16 30 15 31 31 32 32 33
REMARK SMILES IDX 33 34 34 35 35 36 36 37 37 38 38 39 39 40 91 41 40 42 90 43
REMARK SMILES IDX 41 44 42 45 43 46 84 47 44 48 89 49 83 50 85 51 45 52 88 53
REMARK SMILES IDX 82 54 81 55 46 57 72 58 55 59 71 60 56 61 59 62 70 63 86 64
REMARK SMILES IDX 57 65 58 66 69 68 87 69 60 70 47 71 48 72 53 73 49 74 50 75
REMARK SMILES IDX 52 76 54 77 51 78 73 79 74 80 79 81 75 82 76 83 78 84 80 85
REMARK SMILES IDX 77 86 61 87 62 88 67 89 63 90 64 91 66 92 68 93 65 94
REMARK H PARENT 18 15 85 56 59 67
REMARK Flexibility Score: inf
ROOT
ATOM      1  C   UNL A   1      41.007  20.350  26.536  1.00  0.00     0.188 C 
ENDROOT
BRANCH   1   2
ATOM      2  O   UNL A   1      40.081  21.275  27.075  1.00  0.00    -0.376 OA
BRANCH   2   3
ATOM      3  C   UNL A   1      40.057  22.547  26.457  1.00  0.00     0.202 C 
BRANCH   3   4
ATOM      4  C   UNL A   1      38.841  23.372  26.843  1.00  0.00     0.261 C 
BRANCH   4   5
ATOM      5  O   UNL A   1      38.008  23.867  25.762  1.00  0.00    -0.463 OA
BRANCH   5   6
ATOM      6  C   UNL A   1      36.717  23.727  25.420  1.00  0.00     0.310 C 
ATOM      7  O   UNL A   1      35.870  23.761  26.321  1.00  0.00    -0.252 OA
BRANCH   6   8
ATOM      8  C   UNL A   1      36.258  23.360  24.032  1.00  0.00     0.161 C 
BRANCH   8   9
ATOM      9  C   UNL A   1      34.904  22.773  23.802  1.00  0.00     0.000 A 
ATOM     10  C   UNL A   1      33.756  23.432  23.393  1.00  0.00     0.093 A 
ATOM     11  C   UNL A   1      34.525  21.431  24.134  1.00  0.00     0.004 A 
ATOM     12  N   UNL A   1      32.763  22.485  23.277  1.00  0.00    -0.351 N 
ATOM     13  C   UNL A   1      33.168  21.301  23.849  1.00  0.00     0.048 A 
ATOM     14  C   UNL A   1      35.205  20.334  24.706  1.00  0.00     0.012 A 
ATOM     15  H   UNL A   1      31.890  22.633  22.847  1.00  0.00     0.167 HD
ATOM     16  C   UNL A   1      32.441  20.143  24.154  1.00  0.00     0.047 A 
ATOM     17  C   UNL A   1      34.493  19.176  25.036  1.00  0.00     0.021 A 
ATOM     18  C   UNL A   1      33.127  19.096  24.778  1.00  0.00     0.043 A 
ATOM     19  Cl  UNL A   1      32.258  17.690  25.262  1.00  0.00    -0.084 Cl
BRANCH  10  20
ATOM     20  C   UNL A   1      33.600  24.858  23.180  1.00  0.00     0.227 C 
ATOM     21  O   UNL A   1      33.996  25.437  22.174  1.00  0.00    -0.285 OA
BRANCH  20  22
ATOM     22  C   UNL A   1      33.059  25.679  24.265  1.00  0.00     0.113 A 
ATOM     23  C   UNL A   1      33.156  27.043  24.086  1.00  0.00     0.036 A 
ATOM     24  N   UNL A   1      32.541  25.060  25.355  1.00  0.00    -0.252 NA
ATOM     25  C   UNL A   1      32.666  27.860  25.090  1.00  0.00    -0.041 A 
ATOM     26  C   UNL A   1      32.013  25.881  26.288  1.00  0.00     0.115 A 
ATOM     27  C   UNL A   1      32.067  27.273  26.216  1.00  0.00    -0.026 A 
ATOM     28  C   UNL A   1      32.864  29.342  24.955  1.00  0.00     0.036 C 
ATOM     29  C   UNL A   1      31.429  28.121  27.282  1.00  0.00     0.037 C 
ATOM     30  C   UNL A   1      31.964  30.141  25.885  1.00  0.00     0.005 C 
ATOM     31  C   UNL A   1      31.983  29.547  27.290  1.00  0.00     0.005 C 
ENDBRANCH  20  22
ENDBRANCH  10  20
ENDBRANCH   8   9
ENDBRANCH   6   8
ENDBRANCH   5   6
ENDBRANCH   4   5
ENDBRANCH   3   4
ENDBRANCH   2   3
ENDBRANCH   1   2
BRANCH   1  32
ATOM     32  C   UNL A   1      42.456  20.859  26.413  1.00  0.00     0.188 C 
BRANCH  32  33
ATOM     33  O   UNL A   1      43.207  20.609  25.233  1.00  0.00    -0.376 OA
BRANCH  33  34
ATOM     34  C   UNL A   1      44.444  21.271  25.029  1.00  0.00     0.202 C 
BRANCH  34  35
ATOM     35  C   UNL A   1      44.451  22.486  24.092  1.00  0.00     0.261 C 
BRANCH  35  36
ATOM     36  O   UNL A   1      43.781  23.650  24.614  1.00  0.00    -0.460 OA
BRANCH  36  37
ATOM     37  C   UNL A   1      44.580  24.652  25.075  1.00  0.00     0.338 C 
ATOM     38  O   UNL A   1      45.658  24.987  24.636  1.00  0.00    -0.246 OA
BRANCH  37  39
ATOM     39  C   UNL A   1      43.851  25.437  26.110  1.00  0.00     0.060 A 
ATOM     40  C   UNL A   1      42.810  24.885  26.858  1.00  0.00     0.016 A 
ATOM     41  C   UNL A   1      44.219  26.776  26.312  1.00  0.00     0.016 A 
ATOM     42  C   UNL A   1      42.175  25.657  27.843  1.00  0.00     0.010 A 
ATOM     43  C   UNL A   1      43.572  27.552  27.282  1.00  0.00     0.010 A 
ATOM     44  C   UNL A   1      42.565  26.989  28.079  1.00  0.00    -0.014 A 
BRANCH  44  45
ATOM     45  C   UNL A   1      42.063  27.718  29.276  1.00  0.00     0.031 A 
ATOM     46  C   UNL A   1      42.703  27.598  30.628  1.00  0.00     0.074 A 
ATOM     47  C   UNL A   1      40.969  28.492  29.128  1.00  0.00     0.049 A 
ATOM     48  N   UNL A   1      42.407  28.229  31.738  1.00  0.00    -0.248 NA
ATOM     49  C   UNL A   1      43.814  26.646  30.757  1.00  0.00     0.031 C 
ATOM     50  C   UNL A   1      40.228  28.666  27.878  1.00  0.00     0.029 A 
ATOM     51  N   UNL A   1      40.288  29.270  30.031  1.00  0.00    -0.354 N 
ATOM     52  C   UNL A   1      43.306  27.775  32.694  1.00  0.00     0.074 A 
ATOM     53  C   UNL A   1      44.133  26.779  32.040  1.00  0.00     0.031 C 
ATOM     54  C   UNL A   1      39.203  29.506  28.090  1.00  0.00     0.029 A 
ATOM     55  C   UNL A   1      39.200  29.912  29.492  1.00  0.00     0.049 A 
ATOM     56  H   UNL A   1      40.555  29.360  30.974  1.00  0.00     0.167 HD
ATOM     57  C   UNL A   1      43.437  28.164  33.987  1.00  0.00     0.037 A 
ATOM     58  C   UNL A   1      38.297  30.733  30.060  1.00  0.00     0.037 A 
ATOM     59  C   UNL A   1      42.588  29.127  34.649  1.00  0.00     0.049 A 
ATOM     60  C   UNL A   1      38.430  31.093  31.513  1.00  0.00     0.074 A 
ATOM     61  C   UNL A   1      42.675  29.607  35.946  1.00  0.00     0.029 A 
ATOM     62  N   UNL A   1      41.482  29.738  34.078  1.00  0.00    -0.354 N 
ATOM     63  N   UNL A   1      39.353  30.740  32.373  1.00  0.00    -0.248 NA
ATOM     64  C   UNL A   1      37.396  31.976  32.072  1.00  0.00     0.031 C 
ATOM     65  C   UNL A   1      41.593  30.465  36.177  1.00  0.00     0.029 A 
ATOM     66  C   UNL A   1      40.863  30.563  35.005  1.00  0.00     0.049 A 
ATOM     67  H   UNL A   1      41.179  29.604  33.150  1.00  0.00     0.167 HD
ATOM     68  C   UNL A   1      39.035  31.390  33.559  1.00  0.00     0.074 A 
ATOM     69  C   UNL A   1      37.839  32.165  33.306  1.00  0.00     0.031 C 
ATOM     70  C   UNL A   1      39.681  31.347  34.749  1.00  0.00     0.037 A 
BRANCH  57  71
ATOM     71  C   UNL A   1      44.548  27.549  34.793  1.00  0.00     0.057 A 
ATOM     72  C   UNL A   1      44.318  26.426  35.598  1.00  0.00     0.134 A 
ATOM     73  C   UNL A   1      45.824  28.125  34.841  1.00  0.00     0.134 A 
ATOM     74  F   UNL A   1      43.114  25.832  35.612  1.00  0.00    -0.206 F 
ATOM     75  C   UNL A   1      45.312  25.904  36.428  1.00  0.00     0.040 A 
ATOM     76  C   UNL A   1      46.834  27.601  35.649  1.00  0.00     0.040 A 
ATOM     77  F   UNL A   1      46.115  29.198  34.089  1.00  0.00    -0.206 F 
ATOM     78  C   UNL A   1      46.576  26.491  36.453  1.00  0.00     0.006 A 
ENDBRANCH  57  71
BRANCH  58  79
ATOM     79  C   UNL A   1      37.184  31.291  29.253  1.00  0.00     0.057 A 
ATOM     80  C   UNL A   1      36.028  30.546  28.993  1.00  0.00     0.134 A 
ATOM     81  C   UNL A   1      37.230  32.603  28.766  1.00  0.00     0.134 A 
ATOM     82  F   UNL A   1      35.926  29.281  29.428  1.00  0.00    -0.206 F 
ATOM     83  C   UNL A   1      34.956  31.086  28.284  1.00  0.00     0.040 A 
ATOM     84  C   UNL A   1      36.153  33.166  28.081  1.00  0.00     0.040 A 
ATOM     85  F   UNL A   1      38.303  33.372  29.000  1.00  0.00    -0.206 F 
ATOM     86  C   UNL A   1      35.011  32.405  27.837  1.00  0.00     0.006 A 
ENDBRANCH  58  79
BRANCH  70  87
ATOM     87  C   UNL A   1      39.140  32.208  35.856  1.00  0.00     0.057 A 
ATOM     88  C   UNL A   1      39.551  33.541  35.984  1.00  0.00     0.134 A 
ATOM     89  C   UNL A   1      38.227  31.720  36.801  1.00  0.00     0.134 A 
ATOM     90  F   UNL A   1      40.425  34.072  35.117  1.00  0.00    -0.206 F 
ATOM     91  C   UNL A   1      39.076  34.357  37.013  1.00  0.00     0.040 A 
ATOM     92  C   UNL A   1      37.724  32.535  37.818  1.00  0.00     0.040 A 
ATOM     93  F   UNL A   1      37.779  30.458  36.726  1.00  0.00    -0.206 F 
ATOM     94  C   UNL A   1      38.153  33.856  37.929  1.00  0.00     0.006 A 
ENDBRANCH  70  87
ENDBRANCH  44  45
ENDBRANCH  37  39
ENDBRANCH  36  37
ENDBRANCH  35  36
ENDBRANCH  34  35
ENDBRANCH  33  34
ENDBRANCH  32  33
ENDBRANCH   1  32
TORSDOF 20
ENDMDL
MODEL 3
REMARK VINA RESULT:     -11.8      1.659      4.005
REMARK SMILES O=C(Cc1c(C(=O)c2cc3c(cn2)CCCC3)[nH]c2cc(Cl)ccc12)OCCOCCOCCOC(=O)c1ccc(-c2c3nc(c(-c4c(F)cccc4F)c4ccc([nH]4)c(-c4c(F)cccc4F)c4nc(c(-c5c(F)cccc5F)c5ccc2[nH]5)C=C4)C=C3)cc1
REMARK SMILES IDX 30 1 29 2 28 3 27 4 26 5 2 6 1 7 3 8 4 9 5 10 25 11 18 12
REMARK SMILES IDX 19 13 24 14 20 16 23 17 21 18 22 19 6 20 7 21 8 22 9 23
REMARK SMILES IDX 13 24 10 25 12 26 11 27 17 28 14 29 16 30 15 31 31 32 32 33
REMARK SMILES IDX 33 34 34 35 35 36 36 37 37 38 38 39 39 40 91 41 40 42 90 43
REMARK SMILES IDX 41 44 42 45 43 46 84 47 44 48 89 49 83 50 85 51 45 52 88 53
REMARK SMILES IDX 82 54 81 55 46 57 72 58 55 59 71 60 56 61 59 62 70 63 86 64
REMARK SMILES IDX 57 65 58 66 69 68 87 69 60 70 47 71 48 72 53 73 49 74 50 75
REMARK SMILES IDX 52 76 54 77 51 78 73 79 74 80 79 81 75 82 76 83 78 84 80 85
REMARK SMILES IDX 77 86 61 87 62 88 67 89 63 90 64 91 66 92 68 93 65 94
REMARK H PARENT 18 15 85 56 59 67
REMARK Flexibility Score: inf
ROOT
ATOM      1  C   UNL A   1      40.523  20.915  26.965  1.00  0.00     0.188 C 
ENDROOT
BRANCH   1   2
ATOM      2  O   UNL A   1      39.931  21.813  26.045  1.00  0.00    -0.376 OA
BRANCH   2   3
ATOM      3  C   UNL A   1      38.584  21.545  25.710  1.00  0.00     0.202 C 
BRANCH   3   4
ATOM      4  C   UNL A   1      37.724  22.796  25.659  1.00  0.00     0.261 C 
BRANCH   4   5
ATOM      5  O   UNL A   1      36.549  22.756  24.808  1.00  0.00    -0.463 OA
BRANCH   5   6
ATOM      6  C   UNL A   1      35.620  23.651  24.431  1.00  0.00     0.310 C 
ATOM      7  O   UNL A   1      35.343  23.729  23.229  1.00  0.00    -0.252 OA
BRANCH   6   8
ATOM      8  C   UNL A   1      35.027  24.679  25.361  1.00  0.00     0.161 C 
BRANCH   8   9
ATOM      9  C   UNL A   1      33.598  25.090  25.238  1.00  0.00     0.000 A 
ATOM     10  C   UNL A   1      32.476  24.366  25.608  1.00  0.00     0.093 A 
ATOM     11  C   UNL A   1      33.137  26.260  24.549  1.00  0.00     0.004 A 
ATOM     12  N   UNL A   1      31.378  25.156  25.348  1.00  0.00    -0.351 N 
ATOM     13  C   UNL A   1      31.745  26.240  24.585  1.00  0.00     0.048 A 
ATOM     14  C   UNL A   1      33.781  27.302  23.849  1.00  0.00     0.012 A 
ATOM     15  H   UNL A   1      30.463  24.972  25.661  1.00  0.00     0.167 HD
ATOM     16  C   UNL A   1      30.959  27.185  23.911  1.00  0.00     0.047 A 
ATOM     17  C   UNL A   1      33.016  28.244  23.153  1.00  0.00     0.021 A 
ATOM     18  C   UNL A   1      31.626  28.169  23.174  1.00  0.00     0.043 A 
ATOM     19  Cl  UNL A   1      30.707  29.295  22.249  1.00  0.00    -0.084 Cl
BRANCH  10  20
ATOM     20  C   UNL A   1      32.445  23.010  26.121  1.00  0.00     0.227 C 
ATOM     21  O   UNL A   1      32.527  22.737  27.314  1.00  0.00    -0.285 OA
BRANCH  20  22
ATOM     22  C   UNL A   1      32.443  21.896  25.171  1.00  0.00     0.113 A 
ATOM     23  C   UNL A   1      32.732  20.657  25.703  1.00  0.00     0.036 A 
ATOM     24  N   UNL A   1      32.195  22.154  23.863  1.00  0.00    -0.252 NA
ATOM     25  C   UNL A   1      32.751  19.575  24.841  1.00  0.00    -0.041 A 
ATOM     26  C   UNL A   1      32.157  21.072  23.057  1.00  0.00     0.115 A 
ATOM     27  C   UNL A   1      32.444  19.776  23.486  1.00  0.00    -0.026 A 
ATOM     28  C   UNL A   1      33.168  18.241  25.390  1.00  0.00     0.036 C 
ATOM     29  C   UNL A   1      32.352  18.615  22.534  1.00  0.00     0.037 C 
ATOM     30  C   UNL A   1      32.780  17.085  24.482  1.00  0.00     0.005 C 
ATOM     31  C   UNL A   1      33.136  17.400  23.032  1.00  0.00     0.005 C 
ENDBRANCH  20  22
ENDBRANCH  10  20
ENDBRANCH   8   9
ENDBRANCH   6   8
ENDBRANCH   5   6
ENDBRANCH   4   5
ENDBRANCH   3   4
ENDBRANCH   2   3
ENDBRANCH   1   2
BRANCH   1  32
ATOM     32  C   UNL A   1      41.542  19.927  26.366  1.00  0.00     0.188 C 
BRANCH  32  33
ATOM     33  O   UNL A   1      42.516  20.377  25.435  1.00  0.00    -0.376 OA
BRANCH  33  34
ATOM     34  C   UNL A   1      43.482  21.336  25.831  1.00  0.00     0.202 C 
BRANCH  34  35
ATOM     35  C   UNL A   1      44.143  22.173  24.728  1.00  0.00     0.261 C 
BRANCH  35  36
ATOM     36  O   UNL A   1      43.637  23.517  24.610  1.00  0.00    -0.460 OA
BRANCH  36  37
ATOM     37  C   UNL A   1      44.455  24.513  25.050  1.00  0.00     0.338 C 
ATOM     38  O   UNL A   1      45.534  24.826  24.597  1.00  0.00    -0.246 OA
BRANCH  37  39
ATOM     39  C   UNL A   1      43.747  25.322  26.082  1.00  0.00     0.060 A 
ATOM     40  C   UNL A   1      42.662  24.817  26.800  1.00  0.00     0.016 A 
ATOM     41  C   UNL A   1      44.184  26.636  26.312  1.00  0.00     0.016 A 
ATOM     42  C   UNL A   1      42.049  25.609  27.783  1.00  0.00     0.010 A 
ATOM     43  C   UNL A   1      43.559  27.432  27.280  1.00  0.00     0.010 A 
ATOM     44  C   UNL A   1      42.506  26.914  28.048  1.00  0.00    -0.014 A 
BRANCH  44  45
ATOM     45  C   UNL A   1      42.018  27.652  29.245  1.00  0.00     0.031 A 
ATOM     46  C   UNL A   1      42.668  27.532  30.593  1.00  0.00     0.074 A 
ATOM     47  C   UNL A   1      40.930  28.435  29.102  1.00  0.00     0.049 A 
ATOM     48  N   UNL A   1      42.384  28.171  31.702  1.00  0.00    -0.248 NA
ATOM     49  C   UNL A   1      43.771  26.572  30.718  1.00  0.00     0.031 C 
ATOM     50  C   UNL A   1      40.182  28.609  27.856  1.00  0.00     0.029 A 
ATOM     51  N   UNL A   1      40.262  29.222  30.006  1.00  0.00    -0.354 N 
ATOM     52  C   UNL A   1      43.287  27.713  32.653  1.00  0.00     0.074 A 
ATOM     53  C   UNL A   1      44.101  26.707  31.998  1.00  0.00     0.031 C 
ATOM     54  C   UNL A   1      39.165  29.459  28.072  1.00  0.00     0.029 A 
ATOM     55  C   UNL A   1      39.176  29.871  29.472  1.00  0.00     0.049 A 
ATOM     56  H   UNL A   1      40.536  29.314  30.947  1.00  0.00     0.167 HD
ATOM     57  C   UNL A   1      43.430  28.106  33.945  1.00  0.00     0.037 A 
ATOM     58  C   UNL A   1      38.284  30.702  30.043  1.00  0.00     0.037 A 
ATOM     59  C   UNL A   1      42.595  29.079  34.608  1.00  0.00     0.049 A 
ATOM     60  C   UNL A   1      38.430  31.067  31.494  1.00  0.00     0.074 A 
ATOM     61  C   UNL A   1      42.694  29.564  35.903  1.00  0.00     0.029 A 
ATOM     62  N   UNL A   1      41.489  29.697  34.042  1.00  0.00    -0.354 N 
ATOM     63  N   UNL A   1      39.356  30.710  32.348  1.00  0.00    -0.248 NA
ATOM     64  C   UNL A   1      37.408  31.962  32.056  1.00  0.00     0.031 C 
ATOM     65  C   UNL A   1      41.622  30.432  36.137  1.00  0.00     0.029 A 
ATOM     66  C   UNL A   1      40.884  30.532  34.970  1.00  0.00     0.049 A 
ATOM     67  H   UNL A   1      41.179  29.562  33.118  1.00  0.00     0.167 HD
ATOM     68  C   UNL A   1      39.052  31.367  33.534  1.00  0.00     0.074 A 
ATOM     69  C   UNL A   1      37.862  32.152  33.286  1.00  0.00     0.031 C 
ATOM     70  C   UNL A   1      39.707  31.325  34.720  1.00  0.00     0.037 A 
BRANCH  57  71
ATOM     71  C   UNL A   1      44.541  27.486  34.745  1.00  0.00     0.057 A 
ATOM     72  C   UNL A   1      44.324  26.327  35.502  1.00  0.00     0.134 A 
ATOM     73  C   UNL A   1      45.803  28.087  34.837  1.00  0.00     0.134 A 
ATOM     74  F   UNL A   1      43.134  25.707  35.472  1.00  0.00    -0.206 F 
ATOM     75  C   UNL A   1      45.317  25.795  36.328  1.00  0.00     0.040 A 
ATOM     76  C   UNL A   1      46.812  27.554  35.642  1.00  0.00     0.040 A 
ATOM     77  F   UNL A   1      46.082  29.195  34.131  1.00  0.00    -0.206 F 
ATOM     78  C   UNL A   1      46.566  26.408  36.398  1.00  0.00     0.006 A 
ENDBRANCH  57  71
BRANCH  58  79
ATOM     79  C   UNL A   1      37.170  31.266  29.242  1.00  0.00     0.057 A 
ATOM     80  C   UNL A   1      36.005  30.530  28.995  1.00  0.00     0.134 A 
ATOM     81  C   UNL A   1      37.225  32.575  28.747  1.00  0.00     0.134 A 
ATOM     82  F   UNL A   1      35.894  29.269  29.438  1.00  0.00    -0.206 F 
ATOM     83  C   UNL A   1      34.932  31.077  28.292  1.00  0.00     0.040 A 
ATOM     84  C   UNL A   1      36.147  33.144  28.068  1.00  0.00     0.040 A 
ATOM     85  F   UNL A   1      38.307  33.335  28.969  1.00  0.00    -0.206 F 
ATOM     86  C   UNL A   1      34.997  32.393  27.836  1.00  0.00     0.006 A 
ENDBRANCH  58  79
BRANCH  70  87
ATOM     87  C   UNL A   1      39.181  32.195  35.827  1.00  0.00     0.057 A 
ATOM     88  C   UNL A   1      38.242  31.694  36.738  1.00  0.00     0.134 A 
ATOM     89  C   UNL A   1      39.588  33.526  35.985  1.00  0.00     0.134 A 
ATOM     90  F   UNL A   1      37.805  30.430  36.643  1.00  0.00    -0.206 F 
ATOM     91  C   UNL A   1      37.726  32.487  37.766  1.00  0.00     0.040 A 
ATOM     92  C   UNL A   1      39.100  34.320  37.026  1.00  0.00     0.040 A 
ATOM     93  F   UNL A   1      40.498  34.063  35.158  1.00  0.00    -0.206 F 
ATOM     94  C   UNL A   1      38.161  33.802  37.916  1.00  0.00     0.006 A 
ENDBRANCH  70  87
ENDBRANCH  44  45
ENDBRANCH  37  39
ENDBRANCH  36  37
ENDBRANCH  35  36
ENDBRANCH  34  35
ENDBRANCH  33  34
ENDBRANCH  32  33
ENDBRANCH   1  32
TORSDOF 20
ENDMDL
