MODEL 1
REMARK VINA RESULT:     -11.3      0.000      0.000
REMARK SMILES CC1(C)[C@H](C(=O)Nc2ccc(NC(=O)C[NH+]3CCCCC3)cc2)[C@@H]1C(=O)OCCOCCOCCOC(=O)c1ccc(-c2c3nc(c(-c4c(F)cccc4F)c4ccc([nH]4)c(-c4c(F)cccc4F)c4nc(c(-c5c(F)cccc5F)c5ccc2[nH]5)C=C4)C=C3)cc1
REMARK SMILES IDX 30 1 29 2 28 3 27 4 25 5 26 6 24 7 1 8 2 9 3 10 4 11 5 12
REMARK SMILES IDX 6 13 7 14 8 16 9 17 23 18 10 19 22 20 11 21 12 22 13 23
REMARK SMILES IDX 14 25 15 26 16 27 17 28 21 29 18 31 20 32 19 33 31 34 32 35
REMARK SMILES IDX 33 36 34 37 35 38 36 39 37 40 38 41 39 42 40 43 92 44 41 45
REMARK SMILES IDX 91 46 42 47 43 48 44 49 85 50 45 51 90 52 84 53 86 54 46 55
REMARK SMILES IDX 89 56 83 57 82 58 47 60 73 61 56 62 72 63 57 64 60 65 71 66
REMARK SMILES IDX 87 67 58 68 59 69 70 71 88 72 61 73 48 74 49 75 54 76 50 77
REMARK SMILES IDX 51 78 53 79 55 80 52 81 74 82 75 83 80 84 76 85 77 86 79 87
REMARK SMILES IDX 81 88 78 89 62 90 63 91 68 92 64 93 65 94 67 95 69 96 66 97
REMARK H PARENT 7 15 12 24 16 30 86 59 60 70
REMARK Flexibility Score: inf
ROOT
ATOM      1  O   UNL A   1      34.856  32.910  28.070  1.00  0.00    -0.376 OA
ENDROOT
BRANCH   1   2
ATOM      2  C   UNL A   1      34.830  31.523  27.784  1.00  0.00     0.202 C 
BRANCH   2   3
ATOM      3  C   UNL A   1      33.490  30.834  27.515  1.00  0.00     0.261 C 
BRANCH   3   4
ATOM      4  O   UNL A   1      33.483  29.515  26.935  1.00  0.00    -0.463 OA
BRANCH   4   5
ATOM      5  C   UNL A   1      32.818  29.386  25.748  1.00  0.00     0.310 C 
ATOM      6  O   UNL A   1      33.179  29.885  24.683  1.00  0.00    -0.252 OA
BRANCH   5   7
ATOM      7  C   UNL A   1      31.772  28.344  25.802  1.00  0.00     0.118 C 
ATOM      8  C   UNL A   1      31.131  26.043  26.827  1.00  0.00     0.013 C 
ATOM      9  C   UNL A   1      32.017  26.831  25.881  1.00  0.00    -0.009 C 
ATOM     10  C   UNL A   1      33.404  26.257  25.844  1.00  0.00     0.013 C 
ATOM     11  C   UNL A   1      31.310  27.462  24.685  1.00  0.00     0.100 C 
BRANCH  11  12
ATOM     12  C   UNL A   1      31.634  27.442  23.227  1.00  0.00     0.228 C 
ATOM     13  O   UNL A   1      31.585  28.527  22.644  1.00  0.00    -0.274 OA
ATOM     14  N   UNL A   1      32.303  26.426  22.598  1.00  0.00    -0.326 N 
ATOM     15  H   UNL A   1      33.074  26.713  22.057  1.00  0.00     0.169 HD
BRANCH  14  16
ATOM     16  C   UNL A   1      32.072  25.057  22.600  1.00  0.00     0.041 A 
ATOM     17  C   UNL A   1      32.989  24.260  21.947  1.00  0.00     0.028 A 
ATOM     18  C   UNL A   1      30.998  24.465  23.245  1.00  0.00     0.028 A 
ATOM     19  C   UNL A   1      32.993  22.890  22.212  1.00  0.00     0.028 A 
ATOM     20  C   UNL A   1      30.980  23.080  23.459  1.00  0.00     0.028 A 
ATOM     21  C   UNL A   1      32.032  22.281  23.012  1.00  0.00     0.041 A 
BRANCH  21  22
ATOM     22  N   UNL A   1      32.104  20.960  23.496  1.00  0.00    -0.321 N 
ATOM     23  C   UNL A   1      32.533  20.391  24.667  1.00  0.00     0.279 C 
ATOM     24  H   UNL A   1      31.770  20.297  22.849  1.00  0.00     0.170 HD
ATOM     25  O   UNL A   1      32.276  19.191  24.839  1.00  0.00    -0.268 OA
BRANCH  23  26
ATOM     26  C   UNL A   1      33.301  21.159  25.754  1.00  0.00     0.363 C 
BRANCH  26  27
ATOM     27  N   UNL A   1      34.507  21.776  25.200  1.00  0.00    -0.327 N 
ATOM     28  C   UNL A   1      34.690  23.190  25.504  1.00  0.00     0.262 C 
ATOM     29  C   UNL A   1      35.730  21.006  25.387  1.00  0.00     0.262 C 
ATOM     30  H   UNL A   1      34.308  21.748  24.199  1.00  0.00     0.348 HD
ATOM     31  C   UNL A   1      35.652  23.765  24.459  1.00  0.00     0.062 C 
ATOM     32  C   UNL A   1      36.768  21.498  24.377  1.00  0.00     0.062 C 
ATOM     33  C   UNL A   1      36.977  23.011  24.452  1.00  0.00     0.012 C 
ENDBRANCH  26  27
ENDBRANCH  23  26
ENDBRANCH  21  22
ENDBRANCH  14  16
ENDBRANCH  11  12
ENDBRANCH   5   7
ENDBRANCH   4   5
ENDBRANCH   3   4
ENDBRANCH   2   3
ENDBRANCH   1   2
BRANCH   1  34
ATOM     34  C   UNL A   1      33.628  33.620  28.088  1.00  0.00     0.188 C 
BRANCH  34  35
ATOM     35  C   UNL A   1      33.429  34.747  29.125  1.00  0.00     0.188 C 
BRANCH  35  36
ATOM     36  O   UNL A   1      34.371  34.739  30.170  1.00  0.00    -0.376 OA
BRANCH  36  37
ATOM     37  C   UNL A   1      33.904  34.862  31.502  1.00  0.00     0.202 C 
BRANCH  37  38
ATOM     38  C   UNL A   1      34.224  33.851  32.628  1.00  0.00     0.261 C 
BRANCH  38  39
ATOM     39  O   UNL A   1      34.977  32.672  32.309  1.00  0.00    -0.460 OA
BRANCH  39  40
ATOM     40  C   UNL A   1      36.072  32.409  33.060  1.00  0.00     0.338 C 
ATOM     41  O   UNL A   1      36.208  32.617  34.251  1.00  0.00    -0.246 OA
BRANCH  40  42
ATOM     42  C   UNL A   1      37.023  31.609  32.250  1.00  0.00     0.060 A 
ATOM     43  C   UNL A   1      37.978  30.824  32.915  1.00  0.00     0.016 A 
ATOM     44  C   UNL A   1      36.969  31.612  30.854  1.00  0.00     0.016 A 
ATOM     45  C   UNL A   1      38.905  30.074  32.188  1.00  0.00     0.010 A 
ATOM     46  C   UNL A   1      37.920  30.886  30.126  1.00  0.00     0.010 A 
ATOM     47  C   UNL A   1      38.917  30.146  30.790  1.00  0.00    -0.014 A 
BRANCH  47  48
ATOM     48  C   UNL A   1      40.106  29.654  30.046  1.00  0.00     0.031 A 
ATOM     49  C   UNL A   1      41.241  30.618  29.814  1.00  0.00     0.074 A 
ATOM     50  C   UNL A   1      40.211  28.383  29.619  1.00  0.00     0.049 A 
ATOM     51  N   UNL A   1      42.372  30.441  29.180  1.00  0.00    -0.248 NA
ATOM     52  C   UNL A   1      41.071  31.968  30.376  1.00  0.00     0.031 C 
ATOM     53  C   UNL A   1      39.212  27.336  29.814  1.00  0.00     0.029 A 
ATOM     54  N   UNL A   1      41.219  27.761  28.921  1.00  0.00    -0.354 N 
ATOM     55  C   UNL A   1      43.042  31.656  29.262  1.00  0.00     0.074 A 
ATOM     56  C   UNL A   1      42.180  32.570  29.976  1.00  0.00     0.031 C 
ATOM     57  C   UNL A   1      39.650  26.203  29.238  1.00  0.00     0.029 A 
ATOM     58  C   UNL A   1      40.948  26.451  28.609  1.00  0.00     0.049 A 
ATOM     59  H   UNL A   1      42.057  28.212  28.669  1.00  0.00     0.167 HD
ATOM     60  C   UNL A   1      44.271  31.980  28.794  1.00  0.00     0.037 A 
ATOM     61  C   UNL A   1      41.658  25.563  27.883  1.00  0.00     0.037 A 
ATOM     62  C   UNL A   1      45.129  31.075  28.077  1.00  0.00     0.049 A 
ATOM     63  C   UNL A   1      42.991  25.971  27.304  1.00  0.00     0.074 A 
ATOM     64  C   UNL A   1      46.396  31.308  27.572  1.00  0.00     0.029 A 
ATOM     65  N   UNL A   1      44.804  29.767  27.753  1.00  0.00    -0.354 N 
ATOM     66  N   UNL A   1      43.628  27.111  27.410  1.00  0.00    -0.248 NA
ATOM     67  C   UNL A   1      43.706  24.960  26.509  1.00  0.00     0.031 C 
ATOM     68  C   UNL A   1      46.815  30.159  26.894  1.00  0.00     0.029 A 
ATOM     69  C   UNL A   1      45.836  29.188  27.034  1.00  0.00     0.049 A 
ATOM     70  H   UNL A   1      43.963  29.316  27.999  1.00  0.00     0.167 HD
ATOM     71  C   UNL A   1      44.831  26.944  26.731  1.00  0.00     0.074 A 
ATOM     72  C   UNL A   1      44.838  25.588  26.224  1.00  0.00     0.031 C 
ATOM     73  C   UNL A   1      45.840  27.832  26.546  1.00  0.00     0.037 A 
BRANCH  60  74
ATOM     74  C   UNL A   1      44.745  33.387  29.018  1.00  0.00     0.057 A 
ATOM     75  C   UNL A   1      44.462  34.420  28.114  1.00  0.00     0.134 A 
ATOM     76  C   UNL A   1      45.474  33.717  30.167  1.00  0.00     0.134 A 
ATOM     77  F   UNL A   1      43.782  34.169  26.985  1.00  0.00    -0.206 F 
ATOM     78  C   UNL A   1      44.909  35.724  28.334  1.00  0.00     0.040 A 
ATOM     79  C   UNL A   1      45.901  35.023  30.412  1.00  0.00     0.040 A 
ATOM     80  F   UNL A   1      45.778  32.778  31.075  1.00  0.00    -0.206 F 
ATOM     81  C   UNL A   1      45.623  36.030  29.489  1.00  0.00     0.006 A 
ENDBRANCH  60  74
BRANCH  61  82
ATOM     82  C   UNL A   1      41.126  24.196  27.645  1.00  0.00     0.057 A 
ATOM     83  C   UNL A   1      41.636  23.086  28.331  1.00  0.00     0.134 A 
ATOM     84  C   UNL A   1      40.121  23.960  26.699  1.00  0.00     0.134 A 
ATOM     85  F   UNL A   1      42.620  23.241  29.229  1.00  0.00    -0.206 F 
ATOM     86  C   UNL A   1      41.182  21.792  28.071  1.00  0.00     0.040 A 
ATOM     87  C   UNL A   1      39.638  22.674  26.449  1.00  0.00     0.040 A 
ATOM     88  F   UNL A   1      39.595  24.977  26.002  1.00  0.00    -0.206 F 
ATOM     89  C   UNL A   1      40.174  21.584  27.131  1.00  0.00     0.006 A 
ENDBRANCH  61  82
BRANCH  73  90
ATOM     90  C   UNL A   1      47.062  27.354  25.815  1.00  0.00     0.057 A 
ATOM     91  C   UNL A   1      47.249  27.574  24.445  1.00  0.00     0.134 A 
ATOM     92  C   UNL A   1      48.089  26.695  26.507  1.00  0.00     0.134 A 
ATOM     93  F   UNL A   1      46.303  28.192  23.720  1.00  0.00    -0.206 F 
ATOM     94  C   UNL A   1      48.398  27.134  23.784  1.00  0.00     0.040 A 
ATOM     95  C   UNL A   1      49.255  26.277  25.864  1.00  0.00     0.040 A 
ATOM     96  F   UNL A   1      47.984  26.462  27.824  1.00  0.00    -0.206 F 
ATOM     97  C   UNL A   1      49.408  26.489  24.496  1.00  0.00     0.006 A 
ENDBRANCH  73  90
ENDBRANCH  47  48
ENDBRANCH  40  42
ENDBRANCH  39  40
ENDBRANCH  38  39
ENDBRANCH  37  38
ENDBRANCH  36  37
ENDBRANCH  35  36
ENDBRANCH  34  35
ENDBRANCH   1  34
TORSDOF 22
ENDMDL
MODEL 2
REMARK VINA RESULT:     -11.2      4.350     10.023
REMARK SMILES CC1(C)[C@H](C(=O)Nc2ccc(NC(=O)C[NH+]3CCCCC3)cc2)[C@@H]1C(=O)OCCOCCOCCOC(=O)c1ccc(-c2c3nc(c(-c4c(F)cccc4F)c4ccc([nH]4)c(-c4c(F)cccc4F)c4nc(c(-c5c(F)cccc5F)c5ccc2[nH]5)C=C4)C=C3)cc1
REMARK SMILES IDX 30 1 29 2 28 3 27 4 25 5 26 6 24 7 1 8 2 9 3 10 4 11 5 12
REMARK SMILES IDX 6 13 7 14 8 16 9 17 23 18 10 19 22 20 11 21 12 22 13 23
REMARK SMILES IDX 14 25 15 26 16 27 17 28 21 29 18 31 20 32 19 33 31 34 32 35
REMARK SMILES IDX 33 36 34 37 35 38 36 39 37 40 38 41 39 42 40 43 92 44 41 45
REMARK SMILES IDX 91 46 42 47 43 48 44 49 85 50 45 51 90 52 84 53 86 54 46 55
REMARK SMILES IDX 89 56 83 57 82 58 47 60 73 61 56 62 72 63 57 64 60 65 71 66
REMARK SMILES IDX 87 67 58 68 59 69 70 71 88 72 61 73 48 74 49 75 54 76 50 77
REMARK SMILES IDX 51 78 53 79 55 80 52 81 74 82 75 83 80 84 76 85 77 86 79 87
REMARK SMILES IDX 81 88 78 89 62 90 63 91 68 92 64 93 65 94 67 95 69 96 66 97
REMARK H PARENT 7 15 12 24 16 30 86 59 60 70
REMARK Flexibility Score: inf
ROOT
ATOM      1  O   UNL A   1      40.038  20.598  26.256  1.00  0.00    -0.376 OA
ENDROOT
BRANCH   1   2
ATOM      2  C   UNL A   1      39.211  19.697  25.542  1.00  0.00     0.202 C 
BRANCH   2   3
ATOM      3  C   UNL A   1      37.851  20.170  25.025  1.00  0.00     0.261 C 
BRANCH   3   4
ATOM      4  O   UNL A   1      37.339  21.445  25.460  1.00  0.00    -0.463 OA
BRANCH   4   5
ATOM      5  C   UNL A   1      35.989  21.511  25.664  1.00  0.00     0.310 C 
ATOM      6  O   UNL A   1      35.449  21.590  26.768  1.00  0.00    -0.252 OA
BRANCH   5   7
ATOM      7  C   UNL A   1      35.245  21.774  24.416  1.00  0.00     0.118 C 
ATOM      8  C   UNL A   1      34.734  23.557  22.594  1.00  0.00     0.013 C 
ATOM      9  C   UNL A   1      34.576  23.101  24.033  1.00  0.00    -0.009 C 
ATOM     10  C   UNL A   1      34.568  24.275  24.968  1.00  0.00     0.013 C 
ATOM     11  C   UNL A   1      33.762  21.827  24.236  1.00  0.00     0.100 C 
BRANCH  11  12
ATOM     12  C   UNL A   1      32.630  21.519  25.162  1.00  0.00     0.228 C 
ATOM     13  O   UNL A   1      32.668  20.421  25.721  1.00  0.00    -0.274 OA
ATOM     14  N   UNL A   1      31.788  22.461  25.693  1.00  0.00    -0.326 N 
ATOM     15  H   UNL A   1      31.688  22.419  26.672  1.00  0.00     0.169 HD
BRANCH  14  16
ATOM     16  C   UNL A   1      31.055  23.464  25.076  1.00  0.00     0.041 A 
ATOM     17  C   UNL A   1      30.593  24.492  25.873  1.00  0.00     0.028 A 
ATOM     18  C   UNL A   1      30.797  23.495  23.715  1.00  0.00     0.028 A 
ATOM     19  C   UNL A   1      30.165  25.671  25.262  1.00  0.00     0.028 A 
ATOM     20  C   UNL A   1      30.313  24.667  23.115  1.00  0.00     0.028 A 
ATOM     21  C   UNL A   1      30.070  25.806  23.882  1.00  0.00     0.041 A 
BRANCH  21  22
ATOM     22  N   UNL A   1      29.863  27.022  23.202  1.00  0.00    -0.321 N 
ATOM     23  C   UNL A   1      30.691  27.998  22.711  1.00  0.00     0.279 C 
ATOM     24  H   UNL A   1      28.910  27.213  23.042  1.00  0.00     0.170 HD
ATOM     25  O   UNL A   1      30.177  28.861  21.985  1.00  0.00    -0.268 OA
BRANCH  23  26
ATOM     26  C   UNL A   1      32.196  28.067  23.013  1.00  0.00     0.363 C 
BRANCH  26  27
ATOM     27  N   UNL A   1      32.431  28.562  24.370  1.00  0.00    -0.327 N 
ATOM     28  C   UNL A   1      31.325  29.294  24.975  1.00  0.00     0.262 C 
ATOM     29  C   UNL A   1      33.019  27.591  25.283  1.00  0.00     0.262 C 
ATOM     30  H   UNL A   1      33.152  29.266  24.208  1.00  0.00     0.348 HD
ATOM     31  C   UNL A   1      31.904  30.152  26.105  1.00  0.00     0.062 C 
ATOM     32  C   UNL A   1      33.640  28.348  26.458  1.00  0.00     0.062 C 
ATOM     33  C   UNL A   1      32.644  29.296  27.127  1.00  0.00     0.012 C 
ENDBRANCH  26  27
ENDBRANCH  23  26
ENDBRANCH  21  22
ENDBRANCH  14  16
ENDBRANCH  11  12
ENDBRANCH   5   7
ENDBRANCH   4   5
ENDBRANCH   3   4
ENDBRANCH   2   3
ENDBRANCH   1   2
BRANCH   1  34
ATOM     34  C   UNL A   1      41.304  20.142  26.707  1.00  0.00     0.188 C 
BRANCH  34  35
ATOM     35  C   UNL A   1      41.980  18.963  25.974  1.00  0.00     0.188 C 
BRANCH  35  36
ATOM     36  O   UNL A   1      42.885  19.353  24.971  1.00  0.00    -0.376 OA
BRANCH  36  37
ATOM     37  C   UNL A   1      44.004  20.140  25.338  1.00  0.00     0.202 C 
BRANCH  37  38
ATOM     38  C   UNL A   1      44.213  21.607  24.896  1.00  0.00     0.261 C 
BRANCH  38  39
ATOM     39  O   UNL A   1      43.782  22.663  25.766  1.00  0.00    -0.460 OA
BRANCH  39  40
ATOM     40  C   UNL A   1      44.220  23.915  25.492  1.00  0.00     0.338 C 
ATOM     41  O   UNL A   1      44.962  24.247  24.587  1.00  0.00    -0.246 OA
BRANCH  40  42
ATOM     42  C   UNL A   1      43.471  24.876  26.339  1.00  0.00     0.060 A 
ATOM     43  C   UNL A   1      43.948  26.192  26.445  1.00  0.00     0.016 A 
ATOM     44  C   UNL A   1      42.306  24.498  27.009  1.00  0.00     0.016 A 
ATOM     45  C   UNL A   1      43.284  27.120  27.249  1.00  0.00     0.010 A 
ATOM     46  C   UNL A   1      41.660  25.420  27.842  1.00  0.00     0.010 A 
ATOM     47  C   UNL A   1      42.169  26.724  27.997  1.00  0.00    -0.014 A 
BRANCH  47  48
ATOM     48  C   UNL A   1      41.695  27.587  29.111  1.00  0.00     0.031 A 
ATOM     49  C   UNL A   1      42.419  27.497  30.429  1.00  0.00     0.074 A 
ATOM     50  C   UNL A   1      40.682  28.459  28.963  1.00  0.00     0.049 A 
ATOM     51  N   UNL A   1      42.189  28.125  31.554  1.00  0.00    -0.248 NA
ATOM     52  C   UNL A   1      43.559  26.566  30.483  1.00  0.00     0.031 C 
ATOM     53  C   UNL A   1      39.926  28.682  27.733  1.00  0.00     0.029 A 
ATOM     54  N   UNL A   1      40.114  29.321  29.870  1.00  0.00    -0.354 N 
ATOM     55  C   UNL A   1      43.149  27.661  32.446  1.00  0.00     0.074 A 
ATOM     56  C   UNL A   1      43.942  26.677  31.744  1.00  0.00     0.031 C 
ATOM     57  C   UNL A   1      38.982  29.611  27.965  1.00  0.00     0.029 A 
ATOM     58  C   UNL A   1      39.049  30.029  29.366  1.00  0.00     0.049 A 
ATOM     59  H   UNL A   1      40.438  29.423  30.793  1.00  0.00     0.167 HD
ATOM     60  C   UNL A   1      43.359  28.029  33.732  1.00  0.00     0.037 A 
ATOM     61  C   UNL A   1      38.214  30.898  29.973  1.00  0.00     0.037 A 
ATOM     62  C   UNL A   1      42.569  29.003  34.436  1.00  0.00     0.049 A 
ATOM     63  C   UNL A   1      38.421  31.234  31.430  1.00  0.00     0.074 A 
ATOM     64  C   UNL A   1      42.712  29.451  35.738  1.00  0.00     0.029 A 
ATOM     65  N   UNL A   1      41.480  29.673  33.900  1.00  0.00    -0.354 N 
ATOM     66  N   UNL A   1      39.347  30.813  32.256  1.00  0.00    -0.248 NA
ATOM     67  C   UNL A   1      37.466  32.176  32.035  1.00  0.00     0.031 C 
ATOM     68  C   UNL A   1      41.675  30.349  36.007  1.00  0.00     0.029 A 
ATOM     69  C   UNL A   1      40.926  30.512  34.853  1.00  0.00     0.049 A 
ATOM     70  H   UNL A   1      41.149  29.568  32.978  1.00  0.00     0.167 HD
ATOM     71  C   UNL A   1      39.110  31.464  33.463  1.00  0.00     0.074 A 
ATOM     72  C   UNL A   1      37.958  32.316  33.258  1.00  0.00     0.031 C 
ATOM     73  C   UNL A   1      39.788  31.368  34.634  1.00  0.00     0.037 A 
BRANCH  60  74
ATOM     74  C   UNL A   1      44.476  27.347  34.470  1.00  0.00     0.057 A 
ATOM     75  C   UNL A   1      44.306  26.102  35.089  1.00  0.00     0.134 A 
ATOM     76  C   UNL A   1      45.745  27.935  34.540  1.00  0.00     0.134 A 
ATOM     77  F   UNL A   1      43.110  25.492  35.074  1.00  0.00    -0.206 F 
ATOM     78  C   UNL A   1      45.351  25.478  35.773  1.00  0.00     0.040 A 
ATOM     79  C   UNL A   1      46.805  27.307  35.196  1.00  0.00     0.040 A 
ATOM     80  F   UNL A   1      45.978  29.125  33.967  1.00  0.00    -0.206 F 
ATOM     81  C   UNL A   1      46.608  26.078  35.821  1.00  0.00     0.006 A 
ENDBRANCH  60  74
BRANCH  61  82
ATOM     82  C   UNL A   1      37.093  31.511  29.215  1.00  0.00     0.057 A 
ATOM     83  C   UNL A   1      37.176  32.818  28.720  1.00  0.00     0.134 A 
ATOM     84  C   UNL A   1      35.894  30.819  29.001  1.00  0.00     0.134 A 
ATOM     85  F   UNL A   1      38.286  33.545  28.917  1.00  0.00    -0.206 F 
ATOM     86  C   UNL A   1      36.105  33.421  28.058  1.00  0.00     0.040 A 
ATOM     87  C   UNL A   1      34.825  31.399  28.316  1.00  0.00     0.040 A 
ATOM     88  F   UNL A   1      35.745  29.567  29.456  1.00  0.00    -0.206 F 
ATOM     89  C   UNL A   1      34.926  32.708  27.848  1.00  0.00     0.006 A 
ENDBRANCH  61  82
BRANCH  73  90
ATOM     90  C   UNL A   1      39.341  32.244  35.770  1.00  0.00     0.057 A 
ATOM     91  C   UNL A   1      39.814  33.552  35.937  1.00  0.00     0.134 A 
ATOM     92  C   UNL A   1      38.389  31.782  36.690  1.00  0.00     0.134 A 
ATOM     93  F   UNL A   1      40.733  34.055  35.098  1.00  0.00    -0.206 F 
ATOM     94  C   UNL A   1      39.379  34.357  36.992  1.00  0.00     0.040 A 
ATOM     95  C   UNL A   1      37.923  32.588  37.730  1.00  0.00     0.040 A 
ATOM     96  F   UNL A   1      37.883  30.544  36.583  1.00  0.00    -0.206 F 
ATOM     97  C   UNL A   1      38.426  33.877  37.888  1.00  0.00     0.006 A 
ENDBRANCH  73  90
ENDBRANCH  47  48
ENDBRANCH  40  42
ENDBRANCH  39  40
ENDBRANCH  38  39
ENDBRANCH  37  38
ENDBRANCH  36  37
ENDBRANCH  35  36
ENDBRANCH  34  35
ENDBRANCH   1  34
TORSDOF 22
ENDMDL
MODEL 3
REMARK VINA RESULT:      -9.6      3.413      9.597
REMARK SMILES CC1(C)[C@H](C(=O)Nc2ccc(NC(=O)C[NH+]3CCCCC3)cc2)[C@@H]1C(=O)OCCOCCOCCOC(=O)c1ccc(-c2c3nc(c(-c4c(F)cccc4F)c4ccc([nH]4)c(-c4c(F)cccc4F)c4nc(c(-c5c(F)cccc5F)c5ccc2[nH]5)C=C4)C=C3)cc1
REMARK SMILES IDX 30 1 29 2 28 3 27 4 25 5 26 6 24 7 1 8 2 9 3 10 4 11 5 12
REMARK SMILES IDX 6 13 7 14 8 16 9 17 23 18 10 19 22 20 11 21 12 22 13 23
REMARK SMILES IDX 14 25 15 26 16 27 17 28 21 29 18 31 20 32 19 33 31 34 32 35
REMARK SMILES IDX 33 36 34 37 35 38 36 39 37 40 38 41 39 42 40 43 92 44 41 45
REMARK SMILES IDX 91 46 42 47 43 48 44 49 85 50 45 51 90 52 84 53 86 54 46 55
REMARK SMILES IDX 89 56 83 57 82 58 47 60 73 61 56 62 72 63 57 64 60 65 71 66
REMARK SMILES IDX 87 67 58 68 59 69 70 71 88 72 61 73 48 74 49 75 54 76 50 77
REMARK SMILES IDX 51 78 53 79 55 80 52 81 74 82 75 83 80 84 76 85 77 86 79 87
REMARK SMILES IDX 81 88 78 89 62 90 63 91 68 92 64 93 65 94 67 95 69 96 66 97
REMARK H PARENT 7 15 12 24 16 30 86 59 60 70
REMARK Flexibility Score: inf
ROOT
ATOM      1  O   UNL A   1      38.118  21.976  25.442  1.00  0.00    -0.376 OA
ENDROOT
BRANCH   1   2
ATOM      2  C   UNL A   1      37.142  21.478  24.544  1.00  0.00     0.202 C 
BRANCH   2   3
ATOM      3  C   UNL A   1      35.796  22.195  24.420  1.00  0.00     0.261 C 
BRANCH   3   4
ATOM      4  O   UNL A   1      35.745  23.626  24.576  1.00  0.00    -0.463 OA
BRANCH   4   5
ATOM      5  C   UNL A   1      34.629  24.243  24.085  1.00  0.00     0.310 C 
ATOM      6  O   UNL A   1      34.520  24.694  22.945  1.00  0.00    -0.252 OA
BRANCH   5   7
ATOM      7  C   UNL A   1      33.454  24.059  24.961  1.00  0.00     0.118 C 
ATOM      8  C   UNL A   1      31.580  22.400  25.665  1.00  0.00     0.013 C 
ATOM      9  C   UNL A   1      32.172  23.299  24.596  1.00  0.00    -0.009 C 
ATOM     10  C   UNL A   1      31.973  22.708  23.230  1.00  0.00     0.013 C 
ATOM     11  C   UNL A   1      32.153  24.793  24.903  1.00  0.00     0.100 C 
BRANCH  11  12
ATOM     12  C   UNL A   1      31.698  25.960  24.088  1.00  0.00     0.228 C 
ATOM     13  O   UNL A   1      31.168  25.694  23.007  1.00  0.00    -0.274 OA
ATOM     14  N   UNL A   1      31.503  27.222  24.584  1.00  0.00    -0.326 N 
ATOM     15  H   UNL A   1      30.626  27.617  24.372  1.00  0.00     0.169 HD
BRANCH  14  16
ATOM     16  C   UNL A   1      32.339  28.032  25.340  1.00  0.00     0.041 A 
ATOM     17  C   UNL A   1      31.768  28.734  26.381  1.00  0.00     0.028 A 
ATOM     18  C   UNL A   1      33.702  28.141  25.117  1.00  0.00     0.028 A 
ATOM     19  C   UNL A   1      32.601  29.273  27.361  1.00  0.00     0.028 A 
ATOM     20  C   UNL A   1      34.529  28.736  26.081  1.00  0.00     0.028 A 
ATOM     21  C   UNL A   1      33.988  29.238  27.265  1.00  0.00     0.041 A 
BRANCH  21  22
ATOM     22  N   UNL A   1      34.878  29.558  28.308  1.00  0.00    -0.321 N 
ATOM     23  C   UNL A   1      35.449  30.721  28.757  1.00  0.00     0.279 C 
ATOM     24  H   UNL A   1      35.151  28.771  28.833  1.00  0.00     0.170 HD
ATOM     25  O   UNL A   1      36.052  30.673  29.839  1.00  0.00    -0.268 OA
BRANCH  23  26
ATOM     26  C   UNL A   1      35.375  32.054  27.995  1.00  0.00     0.363 C 
BRANCH  26  27
ATOM     27  N   UNL A   1      34.678  33.066  28.789  1.00  0.00    -0.327 N 
ATOM     28  C   UNL A   1      35.446  33.652  29.881  1.00  0.00     0.262 C 
ATOM     29  C   UNL A   1      33.968  34.072  28.010  1.00  0.00     0.262 C 
ATOM     30  H   UNL A   1      33.958  32.507  29.246  1.00  0.00     0.348 HD
ATOM     31  C   UNL A   1      34.448  34.252  30.876  1.00  0.00     0.062 C 
ATOM     32  C   UNL A   1      32.928  34.737  28.914  1.00  0.00     0.062 C 
ATOM     33  C   UNL A   1      33.546  35.281  30.203  1.00  0.00     0.012 C 
ENDBRANCH  26  27
ENDBRANCH  23  26
ENDBRANCH  21  22
ENDBRANCH  14  16
ENDBRANCH  11  12
ENDBRANCH   5   7
ENDBRANCH   4   5
ENDBRANCH   3   4
ENDBRANCH   2   3
ENDBRANCH   1   2
BRANCH   1  34
ATOM     34  C   UNL A   1      39.202  21.133  25.798  1.00  0.00     0.188 C 
BRANCH  34  35
ATOM     35  C   UNL A   1      39.096  19.618  25.520  1.00  0.00     0.188 C 
BRANCH  35  36
ATOM     36  O   UNL A   1      40.278  18.901  25.778  1.00  0.00    -0.376 OA
BRANCH  36  37
ATOM     37  C   UNL A   1      41.449  19.627  26.109  1.00  0.00     0.202 C 
BRANCH  37  38
ATOM     38  C   UNL A   1      42.882  19.168  25.750  1.00  0.00     0.261 C 
BRANCH  38  39
ATOM     39  O   UNL A   1      43.439  19.556  24.486  1.00  0.00    -0.460 OA
BRANCH  39  40
ATOM     40  C   UNL A   1      44.788  19.644  24.400  1.00  0.00     0.338 C 
ATOM     41  O   UNL A   1      45.543  18.831  23.901  1.00  0.00    -0.246 OA
BRANCH  40  42
ATOM     42  C   UNL A   1      45.201  21.008  24.811  1.00  0.00     0.060 A 
ATOM     43  C   UNL A   1      45.210  21.325  26.179  1.00  0.00     0.016 A 
ATOM     44  C   UNL A   1      45.593  21.963  23.870  1.00  0.00     0.016 A 
ATOM     45  C   UNL A   1      45.572  22.605  26.605  1.00  0.00     0.010 A 
ATOM     46  C   UNL A   1      45.923  23.256  24.295  1.00  0.00     0.010 A 
ATOM     47  C   UNL A   1      45.875  23.594  25.661  1.00  0.00    -0.014 A 
BRANCH  47  48
ATOM     48  C   UNL A   1      45.898  25.019  26.083  1.00  0.00     0.031 A 
ATOM     49  C   UNL A   1      47.225  25.734  26.076  1.00  0.00     0.074 A 
ATOM     50  C   UNL A   1      44.782  25.686  26.424  1.00  0.00     0.049 A 
ATOM     51  N   UNL A   1      47.513  26.964  26.418  1.00  0.00    -0.248 NA
ATOM     52  C   UNL A   1      48.385  24.948  25.623  1.00  0.00     0.031 C 
ATOM     53  C   UNL A   1      43.430  25.132  26.430  1.00  0.00     0.029 A 
ATOM     54  N   UNL A   1      44.615  26.985  26.839  1.00  0.00    -0.354 N 
ATOM     55  C   UNL A   1      48.884  27.096  26.226  1.00  0.00     0.074 A 
ATOM     56  C   UNL A   1      49.375  25.814  25.772  1.00  0.00     0.031 C 
ATOM     57  C   UNL A   1      42.572  26.082  26.843  1.00  0.00     0.029 A 
ATOM     58  C   UNL A   1      43.317  27.302  27.155  1.00  0.00     0.049 A 
ATOM     59  H   UNL A   1      45.357  27.630  26.903  1.00  0.00     0.167 HD
ATOM     60  C   UNL A   1      49.664  28.188  26.402  1.00  0.00     0.037 A 
ATOM     61  C   UNL A   1      42.794  28.440  27.658  1.00  0.00     0.037 A 
ATOM     62  C   UNL A   1      49.181  29.463  26.860  1.00  0.00     0.049 A 
ATOM     63  C   UNL A   1      43.697  29.621  27.920  1.00  0.00     0.074 A 
ATOM     64  C   UNL A   1      49.892  30.633  27.059  1.00  0.00     0.029 A 
ATOM     65  N   UNL A   1      47.864  29.733  27.201  1.00  0.00    -0.354 N 
ATOM     66  N   UNL A   1      44.985  29.745  27.710  1.00  0.00    -0.248 NA
ATOM     67  C   UNL A   1      43.066  30.825  28.484  1.00  0.00     0.031 C 
ATOM     68  C   UNL A   1      49.018  31.595  27.574  1.00  0.00     0.029 A 
ATOM     69  C   UNL A   1      47.748  31.044  27.632  1.00  0.00     0.049 A 
ATOM     70  H   UNL A   1      47.122  29.088  27.144  1.00  0.00     0.167 HD
ATOM     71  C   UNL A   1      45.311  31.046  28.079  1.00  0.00     0.074 A 
ATOM     72  C   UNL A   1      44.083  31.675  28.516  1.00  0.00     0.031 C 
ATOM     73  C   UNL A   1      46.517  31.666  28.053  1.00  0.00     0.037 A 
BRANCH  60  74
ATOM     74  C   UNL A   1      51.133  28.038  26.126  1.00  0.00     0.057 A 
ATOM     75  C   UNL A   1      52.022  27.542  27.088  1.00  0.00     0.134 A 
ATOM     76  C   UNL A   1      51.658  28.373  24.872  1.00  0.00     0.134 A 
ATOM     77  F   UNL A   1      51.587  27.217  28.315  1.00  0.00    -0.206 F 
ATOM     78  C   UNL A   1      53.386  27.407  26.819  1.00  0.00     0.040 A 
ATOM     79  C   UNL A   1      53.015  28.216  24.583  1.00  0.00     0.040 A 
ATOM     80  F   UNL A   1      50.862  28.852  23.905  1.00  0.00    -0.206 F 
ATOM     81  C   UNL A   1      53.884  27.738  25.561  1.00  0.00     0.006 A 
ENDBRANCH  60  74
BRANCH  61  82
ATOM     82  C   UNL A   1      41.342  28.526  27.962  1.00  0.00     0.057 A 
ATOM     83  C   UNL A   1      40.837  28.158  29.215  1.00  0.00     0.134 A 
ATOM     84  C   UNL A   1      40.419  28.942  26.994  1.00  0.00     0.134 A 
ATOM     85  F   UNL A   1      41.665  27.724  30.176  1.00  0.00    -0.206 F 
ATOM     86  C   UNL A   1      39.468  28.182  29.489  1.00  0.00     0.040 A 
ATOM     87  C   UNL A   1      39.050  28.997  27.263  1.00  0.00     0.040 A 
ATOM     88  F   UNL A   1      40.836  29.300  25.772  1.00  0.00    -0.206 F 
ATOM     89  C   UNL A   1      38.570  28.608  28.513  1.00  0.00     0.006 A 
ENDBRANCH  61  82
BRANCH  73  90
ATOM     90  C   UNL A   1      46.565  33.113  28.455  1.00  0.00     0.057 A 
ATOM     91  C   UNL A   1      46.750  33.515  29.784  1.00  0.00     0.134 A 
ATOM     92  C   UNL A   1      46.465  34.121  27.486  1.00  0.00     0.134 A 
ATOM     93  F   UNL A   1      46.845  32.602  30.764  1.00  0.00    -0.206 F 
ATOM     94  C   UNL A   1      46.804  34.865  30.138  1.00  0.00     0.040 A 
ATOM     95  C   UNL A   1      46.549  35.473  27.823  1.00  0.00     0.040 A 
ATOM     96  F   UNL A   1      46.301  33.809  26.192  1.00  0.00    -0.206 F 
ATOM     97  C   UNL A   1      46.711  35.847  29.155  1.00  0.00     0.006 A 
ENDBRANCH  73  90
ENDBRANCH  47  48
ENDBRANCH  40  42
ENDBRANCH  39  40
ENDBRANCH  38  39
ENDBRANCH  37  38
ENDBRANCH  36  37
ENDBRANCH  35  36
ENDBRANCH  34  35
ENDBRANCH   1  34
TORSDOF 22
ENDMDL
