MODEL 1
REMARK VINA RESULT:     -11.0      0.000      0.000
REMARK SMILES C[C@H]1CCCC[C@H]1[N@H+]1[C@@H](C(=O)OCCOCCOCCOC(=O)c2ccc(-c3c4nc(c(-c5c(F)cccc5F)c5ccc([nH]5)c(-c5c(F)cccc5F)c5nc(c(-c6c(F)cccc6F)c6ccc3[nH]6)C=C5)C=C4)cc2)CC[C@@H]2CCCC[C@@H]21
REMARK SMILES IDX 17 1 16 2 15 3 14 4 13 5 12 6 10 7 11 8 9 9 8 10 85 11 78 13
REMARK SMILES IDX 80 14 84 15 79 16 81 17 83 18 82 19 7 20 1 21 2 22 3 23 4 24
REMARK SMILES IDX 6 25 5 26 18 27 19 28 20 29 21 30 22 31 23 32 24 33 25 34
REMARK SMILES IDX 77 35 26 36 76 37 27 38 28 39 29 40 70 41 30 42 75 43 69 44
REMARK SMILES IDX 71 45 31 46 74 47 68 48 67 49 32 51 58 52 41 53 57 54 42 55
REMARK SMILES IDX 45 56 56 57 72 58 43 59 44 60 55 62 73 63 46 64 33 65 34 66
REMARK SMILES IDX 39 67 35 68 36 69 38 70 40 71 37 72 59 73 60 74 65 75 61 76
REMARK SMILES IDX 62 77 64 78 66 79 63 80 47 81 48 82 53 83 49 84 50 85 52 86
REMARK SMILES IDX 54 87 51 88
REMARK H PARENT 8 12 71 50 45 61
REMARK Flexibility Score: inf
ROOT
ATOM      1  C   UNL A   1      40.923  20.729  26.652  1.00  0.00     0.188 C 
ENDROOT
BRANCH   1   2
ATOM      2  C   UNL A   1      39.490  20.662  26.063  1.00  0.00     0.188 C 
BRANCH   2   3
ATOM      3  O   UNL A   1      38.853  21.909  25.818  1.00  0.00    -0.376 OA
BRANCH   3   4
ATOM      4  C   UNL A   1      37.563  21.894  25.179  1.00  0.00     0.202 C 
BRANCH   4   5
ATOM      5  C   UNL A   1      36.993  23.233  24.636  1.00  0.00     0.261 C 
BRANCH   5   6
ATOM      6  O   UNL A   1      35.704  23.715  25.166  1.00  0.00    -0.459 OA
BRANCH   6   7
ATOM      7  C   UNL A   1      34.867  24.269  24.211  1.00  0.00     0.365 C 
ATOM      8  O   UNL A   1      34.830  23.794  23.072  1.00  0.00    -0.245 OA
BRANCH   7   9
ATOM      9  C   UNL A   1      34.076  25.583  24.581  1.00  0.00     0.295 C 
ATOM     10  N   UNL A   1      32.640  25.770  25.071  1.00  0.00    -0.318 N 
ATOM     11  C   UNL A   1      32.077  27.148  24.901  1.00  0.00     0.188 C 
ATOM     12  H   UNL A   1      33.188  25.134  25.650  1.00  0.00     0.349 HD
ATOM     13  C   UNL A   1      34.169  26.437  23.283  1.00  0.00     0.078 C 
ATOM     14  C   UNL A   1      33.158  28.229  24.743  1.00  0.00     0.048 C 
ATOM     15  C   UNL A   1      31.073  27.706  25.959  1.00  0.00     0.065 C 
ATOM     16  C   UNL A   1      33.999  27.930  23.513  1.00  0.00     0.016 C 
ATOM     17  C   UNL A   1      33.971  28.437  26.042  1.00  0.00     0.010 C 
ATOM     18  C   UNL A   1      31.702  28.489  27.113  1.00  0.00     0.006 C 
ATOM     19  C   UNL A   1      33.162  28.124  27.306  1.00  0.00     0.001 C 
BRANCH  10  20
ATOM     20  C   UNL A   1      31.648  24.795  25.530  1.00  0.00     0.187 C 
ATOM     21  C   UNL A   1      30.610  23.748  23.254  1.00  0.00     0.014 C 
ATOM     22  C   UNL A   1      31.278  23.561  24.614  1.00  0.00     0.044 C 
ATOM     23  C   UNL A   1      32.444  22.581  24.477  1.00  0.00     0.009 C 
ATOM     24  C   UNL A   1      32.869  22.045  25.827  1.00  0.00     0.001 C 
ATOM     25  C   UNL A   1      31.917  24.232  26.906  1.00  0.00     0.065 C 
ATOM     26  C   UNL A   1      32.950  23.135  26.856  1.00  0.00     0.006 C 
ENDBRANCH  10  20
ENDBRANCH   7   9
ENDBRANCH   6   7
ENDBRANCH   5   6
ENDBRANCH   4   5
ENDBRANCH   3   4
ENDBRANCH   2   3
ENDBRANCH   1   2
BRANCH   1  27
ATOM     27  O   UNL A   1      41.918  20.645  25.642  1.00  0.00    -0.376 OA
BRANCH  27  28
ATOM     28  C   UNL A   1      43.257  21.039  25.931  1.00  0.00     0.202 C 
BRANCH  28  29
ATOM     29  C   UNL A   1      44.008  21.879  24.887  1.00  0.00     0.261 C 
BRANCH  29  30
ATOM     30  O   UNL A   1      43.364  23.146  24.637  1.00  0.00    -0.460 OA
BRANCH  30  31
ATOM     31  C   UNL A   1      44.046  24.224  25.088  1.00  0.00     0.338 C 
ATOM     32  O   UNL A   1      45.108  24.640  24.643  1.00  0.00    -0.246 OA
BRANCH  31  33
ATOM     33  C   UNL A   1      43.219  24.991  26.051  1.00  0.00     0.060 A 
ATOM     34  C   UNL A   1      43.415  26.371  26.067  1.00  0.00     0.016 A 
ATOM     35  C   UNL A   1      42.279  24.425  26.918  1.00  0.00     0.016 A 
ATOM     36  C   UNL A   1      42.661  27.194  26.904  1.00  0.00     0.010 A 
ATOM     37  C   UNL A   1      41.545  25.252  27.795  1.00  0.00     0.010 A 
ATOM     38  C   UNL A   1      41.726  26.648  27.786  1.00  0.00    -0.014 A 
BRANCH  38  39
ATOM     39  C   UNL A   1      41.256  27.532  28.886  1.00  0.00     0.031 A 
ATOM     40  C   UNL A   1      42.111  27.559  30.126  1.00  0.00     0.074 A 
ATOM     41  C   UNL A   1      40.248  28.420  28.775  1.00  0.00     0.049 A 
ATOM     42  N   UNL A   1      41.947  28.208  31.249  1.00  0.00    -0.248 NA
ATOM     43  C   UNL A   1      43.343  26.756  30.065  1.00  0.00     0.031 C 
ATOM     44  C   UNL A   1      39.450  28.670  27.578  1.00  0.00     0.029 A 
ATOM     45  N   UNL A   1      39.747  29.308  29.701  1.00  0.00    -0.354 N 
ATOM     46  C   UNL A   1      43.045  27.876  32.031  1.00  0.00     0.074 A 
ATOM     47  C   UNL A   1      43.868  26.974  31.256  1.00  0.00     0.031 C 
ATOM     48  C   UNL A   1      38.560  29.647  27.843  1.00  0.00     0.029 A 
ATOM     49  C   UNL A   1      38.686  30.054  29.243  1.00  0.00     0.049 A 
ATOM     50  H   UNL A   1      40.114  29.400  30.610  1.00  0.00     0.167 HD
ATOM     51  C   UNL A   1      43.346  28.269  33.290  1.00  0.00     0.037 A 
ATOM     52  C   UNL A   1      37.895  30.936  29.892  1.00  0.00     0.037 A 
ATOM     53  C   UNL A   1      42.530  29.145  34.079  1.00  0.00     0.049 A 
ATOM     54  C   UNL A   1      38.136  31.223  31.357  1.00  0.00     0.074 A 
ATOM     55  C   UNL A   1      42.704  29.534  35.394  1.00  0.00     0.029 A 
ATOM     56  N   UNL A   1      41.376  29.767  33.626  1.00  0.00    -0.354 N 
ATOM     57  N   UNL A   1      39.115  30.825  32.133  1.00  0.00    -0.248 NA
ATOM     58  C   UNL A   1      37.145  32.072  32.041  1.00  0.00     0.031 C 
ATOM     59  C   UNL A   1      41.624  30.347  35.755  1.00  0.00     0.029 A 
ATOM     60  C   UNL A   1      40.815  30.519  34.644  1.00  0.00     0.049 A 
ATOM     61  H   UNL A   1      41.010  29.684  32.716  1.00  0.00     0.167 HD
ATOM     62  C   UNL A   1      38.884  31.408  33.376  1.00  0.00     0.074 A 
ATOM     63  C   UNL A   1      37.670  32.185  33.253  1.00  0.00     0.031 C 
ATOM     64  C   UNL A   1      39.617  31.311  34.513  1.00  0.00     0.037 A 
BRANCH  51  65
ATOM     65  C   UNL A   1      44.561  27.640  33.904  1.00  0.00     0.057 A 
ATOM     66  C   UNL A   1      44.509  26.416  34.585  1.00  0.00     0.134 A 
ATOM     67  C   UNL A   1      45.783  28.323  33.888  1.00  0.00     0.134 A 
ATOM     68  F   UNL A   1      43.358  25.732  34.672  1.00  0.00    -0.206 F 
ATOM     69  C   UNL A   1      45.620  25.921  35.271  1.00  0.00     0.040 A 
ATOM     70  C   UNL A   1      46.908  27.820  34.539  1.00  0.00     0.040 A 
ATOM     71  F   UNL A   1      45.895  29.504  33.259  1.00  0.00    -0.206 F 
ATOM     72  C   UNL A   1      46.823  26.623  35.247  1.00  0.00     0.006 A 
ENDBRANCH  51  65
BRANCH  52  73
ATOM     73  C   UNL A   1      36.754  31.595  29.195  1.00  0.00     0.057 A 
ATOM     74  C   UNL A   1      35.579  30.895  28.891  1.00  0.00     0.134 A 
ATOM     75  C   UNL A   1      36.841  32.919  28.744  1.00  0.00     0.134 A 
ATOM     76  F   UNL A   1      35.447  29.609  29.253  1.00  0.00    -0.206 F 
ATOM     77  C   UNL A   1      34.542  31.479  28.159  1.00  0.00     0.040 A 
ATOM     78  C   UNL A   1      35.802  33.524  28.034  1.00  0.00     0.040 A 
ATOM     79  F   UNL A   1      37.946  33.642  28.977  1.00  0.00    -0.206 F 
ATOM     80  C   UNL A   1      34.649  32.801  27.734  1.00  0.00     0.006 A 
ENDBRANCH  52  73
BRANCH  64  81
ATOM     81  C   UNL A   1      39.181  32.117  35.706  1.00  0.00     0.057 A 
ATOM     82  C   UNL A   1      39.564  33.451  35.892  1.00  0.00     0.134 A 
ATOM     83  C   UNL A   1      38.313  31.558  36.655  1.00  0.00     0.134 A 
ATOM     84  F   UNL A   1      40.398  34.048  35.028  1.00  0.00    -0.206 F 
ATOM     85  C   UNL A   1      39.118  34.192  36.991  1.00  0.00     0.040 A 
ATOM     86  C   UNL A   1      37.837  32.297  37.740  1.00  0.00     0.040 A 
ATOM     87  F   UNL A   1      37.895  30.289  36.532  1.00  0.00    -0.206 F 
ATOM     88  C   UNL A   1      38.245  33.617  37.913  1.00  0.00     0.006 A 
ENDBRANCH  64  81
ENDBRANCH  38  39
ENDBRANCH  31  33
ENDBRANCH  30  31
ENDBRANCH  29  30
ENDBRANCH  28  29
ENDBRANCH  27  28
ENDBRANCH   1  27
TORSDOF 18
ENDMDL
MODEL 2
REMARK VINA RESULT:     -11.0      0.754      1.870
REMARK SMILES C[C@H]1CCCC[C@H]1[N@H+]1[C@@H](C(=O)OCCOCCOCCOC(=O)c2ccc(-c3c4nc(c(-c5c(F)cccc5F)c5ccc([nH]5)c(-c5c(F)cccc5F)c5nc(c(-c6c(F)cccc6F)c6ccc3[nH]6)C=C5)C=C4)cc2)CC[C@@H]2CCCC[C@@H]21
REMARK SMILES IDX 17 1 16 2 15 3 14 4 13 5 12 6 10 7 11 8 9 9 8 10 85 11 78 13
REMARK SMILES IDX 80 14 84 15 79 16 81 17 83 18 82 19 7 20 1 21 2 22 3 23 4 24
REMARK SMILES IDX 6 25 5 26 18 27 19 28 20 29 21 30 22 31 23 32 24 33 25 34
REMARK SMILES IDX 77 35 26 36 76 37 27 38 28 39 29 40 70 41 30 42 75 43 69 44
REMARK SMILES IDX 71 45 31 46 74 47 68 48 67 49 32 51 58 52 41 53 57 54 42 55
REMARK SMILES IDX 45 56 56 57 72 58 43 59 44 60 55 62 73 63 46 64 33 65 34 66
REMARK SMILES IDX 39 67 35 68 36 69 38 70 40 71 37 72 59 73 60 74 65 75 61 76
REMARK SMILES IDX 62 77 64 78 66 79 63 80 47 81 48 82 53 83 49 84 50 85 52 86
REMARK SMILES IDX 54 87 51 88
REMARK H PARENT 8 12 71 50 45 61
REMARK Flexibility Score: inf
ROOT
ATOM      1  C   UNL A   1      41.820  20.869  26.588  1.00  0.00     0.188 C 
ENDROOT
BRANCH   1   2
ATOM      2  C   UNL A   1      40.320  20.753  26.210  1.00  0.00     0.188 C 
BRANCH   2   3
ATOM      3  O   UNL A   1      39.523  21.906  26.442  1.00  0.00    -0.376 OA
BRANCH   3   4
ATOM      4  C   UNL A   1      38.263  22.005  25.751  1.00  0.00     0.202 C 
BRANCH   4   5
ATOM      5  C   UNL A   1      37.736  23.418  25.380  1.00  0.00     0.261 C 
BRANCH   5   6
ATOM      6  O   UNL A   1      36.322  23.736  25.655  1.00  0.00    -0.459 OA
BRANCH   6   7
ATOM      7  C   UNL A   1      35.489  23.622  24.555  1.00  0.00     0.365 C 
ATOM      8  O   UNL A   1      35.841  22.952  23.579  1.00  0.00    -0.245 OA
BRANCH   7   9
ATOM      9  C   UNL A   1      34.156  24.466  24.535  1.00  0.00     0.295 C 
ATOM     10  N   UNL A   1      32.729  24.074  24.920  1.00  0.00    -0.318 N 
ATOM     11  C   UNL A   1      31.650  24.955  24.369  1.00  0.00     0.188 C 
ATOM     12  H   UNL A   1      33.409  23.915  25.663  1.00  0.00     0.349 HD
ATOM     13  C   UNL A   1      34.053  24.943  23.056  1.00  0.00     0.078 C 
ATOM     14  C   UNL A   1      32.155  26.344  23.952  1.00  0.00     0.048 C 
ATOM     15  C   UNL A   1      30.359  25.211  25.211  1.00  0.00     0.065 C 
ATOM     16  C   UNL A   1      33.213  26.195  22.870  1.00  0.00     0.016 C 
ATOM     17  C   UNL A   1      32.594  27.197  25.165  1.00  0.00     0.010 C 
ATOM     18  C   UNL A   1      30.404  26.437  26.125  1.00  0.00     0.006 C 
ATOM     19  C   UNL A   1      31.829  26.843  26.446  1.00  0.00     0.001 C 
BRANCH  10  20
ATOM     20  C   UNL A   1      32.211  22.885  25.601  1.00  0.00     0.187 C 
ATOM     21  C   UNL A   1      32.528  20.874  23.810  1.00  0.00     0.014 C 
ATOM     22  C   UNL A   1      32.752  21.454  25.204  1.00  0.00     0.044 C 
ATOM     23  C   UNL A   1      34.218  21.266  25.603  1.00  0.00     0.009 C 
ATOM     24  C   UNL A   1      34.404  21.435  27.095  1.00  0.00     0.001 C 
ATOM     25  C   UNL A   1      32.272  22.954  27.109  1.00  0.00     0.065 C 
ATOM     26  C   UNL A   1      33.653  22.625  27.617  1.00  0.00     0.006 C 
ENDBRANCH  10  20
ENDBRANCH   7   9
ENDBRANCH   6   7
ENDBRANCH   5   6
ENDBRANCH   4   5
ENDBRANCH   3   4
ENDBRANCH   2   3
ENDBRANCH   1   2
BRANCH   1  27
ATOM     27  O   UNL A   1      42.671  20.496  25.513  1.00  0.00    -0.376 OA
BRANCH  27  28
ATOM     28  C   UNL A   1      43.982  21.046  25.423  1.00  0.00     0.202 C 
BRANCH  28  29
ATOM     29  C   UNL A   1      44.260  22.082  24.323  1.00  0.00     0.261 C 
BRANCH  29  30
ATOM     30  O   UNL A   1      43.474  23.281  24.489  1.00  0.00    -0.460 OA
BRANCH  30  31
ATOM     31  C   UNL A   1      44.151  24.332  25.007  1.00  0.00     0.338 C 
ATOM     32  O   UNL A   1      45.239  24.744  24.626  1.00  0.00    -0.246 OA
BRANCH  31  33
ATOM     33  C   UNL A   1      43.292  25.080  25.956  1.00  0.00     0.060 A 
ATOM     34  C   UNL A   1      43.499  26.457  26.017  1.00  0.00     0.016 A 
ATOM     35  C   UNL A   1      42.313  24.501  26.769  1.00  0.00     0.016 A 
ATOM     36  C   UNL A   1      42.718  27.265  26.844  1.00  0.00     0.010 A 
ATOM     37  C   UNL A   1      41.551  25.311  27.637  1.00  0.00     0.010 A 
ATOM     38  C   UNL A   1      41.743  26.705  27.673  1.00  0.00    -0.014 A 
BRANCH  38  39
ATOM     39  C   UNL A   1      41.236  27.564  28.777  1.00  0.00     0.031 A 
ATOM     40  C   UNL A   1      42.048  27.561  30.045  1.00  0.00     0.074 A 
ATOM     41  C   UNL A   1      40.233  28.454  28.651  1.00  0.00     0.049 A 
ATOM     42  N   UNL A   1      41.847  28.184  31.176  1.00  0.00    -0.248 NA
ATOM     43  C   UNL A   1      43.282  26.760  30.007  1.00  0.00     0.031 C 
ATOM     44  C   UNL A   1      39.476  28.733  27.434  1.00  0.00     0.029 A 
ATOM     45  N   UNL A   1      39.700  29.322  29.580  1.00  0.00    -0.354 N 
ATOM     46  C   UNL A   1      42.917  27.833  31.988  1.00  0.00     0.074 A 
ATOM     47  C   UNL A   1      43.766  26.949  31.221  1.00  0.00     0.031 C 
ATOM     48  C   UNL A   1      38.577  29.704  27.691  1.00  0.00     0.029 A 
ATOM     49  C   UNL A   1      38.655  30.078  29.104  1.00  0.00     0.049 A 
ATOM     50  H   UNL A   1      40.036  29.392  30.503  1.00  0.00     0.167 HD
ATOM     51  C   UNL A   1      43.175  28.198  33.264  1.00  0.00     0.037 A 
ATOM     52  C   UNL A   1      37.842  30.947  29.745  1.00  0.00     0.037 A 
ATOM     53  C   UNL A   1      42.333  29.056  34.046  1.00  0.00     0.049 A 
ATOM     54  C   UNL A   1      38.033  31.199  31.224  1.00  0.00     0.074 A 
ATOM     55  C   UNL A   1      42.462  29.415  35.374  1.00  0.00     0.029 A 
ATOM     56  N   UNL A   1      41.195  29.689  33.568  1.00  0.00    -0.354 N 
ATOM     57  N   UNL A   1      38.986  30.783  32.024  1.00  0.00    -0.248 NA
ATOM     58  C   UNL A   1      37.021  32.033  31.894  1.00  0.00     0.031 C 
ATOM     59  C   UNL A   1      41.370  30.220  35.717  1.00  0.00     0.029 A 
ATOM     60  C   UNL A   1      40.600  30.418  34.583  1.00  0.00     0.049 A 
ATOM     61  H   UNL A   1      40.860  29.627  32.644  1.00  0.00     0.167 HD
ATOM     62  C   UNL A   1      38.712  31.337  33.271  1.00  0.00     0.074 A 
ATOM     63  C   UNL A   1      37.503  32.118  33.125  1.00  0.00     0.031 C 
ATOM     64  C   UNL A   1      39.407  31.214  34.430  1.00  0.00     0.037 A 
BRANCH  51  65
ATOM     65  C   UNL A   1      44.368  27.554  33.905  1.00  0.00     0.057 A 
ATOM     66  C   UNL A   1      45.641  28.140  33.881  1.00  0.00     0.134 A 
ATOM     67  C   UNL A   1      44.250  26.281  34.477  1.00  0.00     0.134 A 
ATOM     68  F   UNL A   1      45.828  29.340  33.312  1.00  0.00    -0.206 F 
ATOM     69  C   UNL A   1      46.762  27.458  34.357  1.00  0.00     0.040 A 
ATOM     70  C   UNL A   1      45.357  25.606  34.988  1.00  0.00     0.040 A 
ATOM     71  F   UNL A   1      43.059  25.663  34.523  1.00  0.00    -0.206 F 
ATOM     72  C   UNL A   1      46.621  26.188  34.914  1.00  0.00     0.006 A 
ENDBRANCH  51  65
BRANCH  52  73
ATOM     73  C   UNL A   1      36.726  31.622  29.025  1.00  0.00     0.057 A 
ATOM     74  C   UNL A   1      36.775  32.988  28.716  1.00  0.00     0.134 A 
ATOM     75  C   UNL A   1      35.548  30.937  28.699  1.00  0.00     0.134 A 
ATOM     76  F   UNL A   1      37.855  33.715  29.041  1.00  0.00    -0.206 F 
ATOM     77  C   UNL A   1      35.695  33.647  28.122  1.00  0.00     0.040 A 
ATOM     78  C   UNL A   1      34.471  31.577  28.082  1.00  0.00     0.040 A 
ATOM     79  F   UNL A   1      35.422  29.634  28.989  1.00  0.00    -0.206 F 
ATOM     80  C   UNL A   1      34.541  32.939  27.797  1.00  0.00     0.006 A 
ENDBRANCH  52  73
BRANCH  64  81
ATOM     81  C   UNL A   1      38.931  31.992  35.626  1.00  0.00     0.057 A 
ATOM     82  C   UNL A   1      38.169  31.410  36.647  1.00  0.00     0.134 A 
ATOM     83  C   UNL A   1      39.295  33.337  35.782  1.00  0.00     0.134 A 
ATOM     84  F   UNL A   1      37.778  30.130  36.561  1.00  0.00    -0.206 F 
ATOM     85  C   UNL A   1      37.766  32.144  37.766  1.00  0.00     0.040 A 
ATOM     86  C   UNL A   1      38.926  34.071  36.910  1.00  0.00     0.040 A 
ATOM     87  F   UNL A   1      40.036  33.955  34.850  1.00  0.00    -0.206 F 
ATOM     88  C   UNL A   1      38.153  33.476  37.904  1.00  0.00     0.006 A 
ENDBRANCH  64  81
ENDBRANCH  38  39
ENDBRANCH  31  33
ENDBRANCH  30  31
ENDBRANCH  29  30
ENDBRANCH  28  29
ENDBRANCH  27  28
ENDBRANCH   1  27
TORSDOF 18
ENDMDL
MODEL 3
REMARK VINA RESULT:     -10.8      0.919      6.201
REMARK SMILES C[C@H]1CCCC[C@H]1[N@H+]1[C@@H](C(=O)OCCOCCOCCOC(=O)c2ccc(-c3c4nc(c(-c5c(F)cccc5F)c5ccc([nH]5)c(-c5c(F)cccc5F)c5nc(c(-c6c(F)cccc6F)c6ccc3[nH]6)C=C5)C=C4)cc2)CC[C@@H]2CCCC[C@@H]21
REMARK SMILES IDX 17 1 16 2 15 3 14 4 13 5 12 6 10 7 11 8 9 9 8 10 85 11 78 13
REMARK SMILES IDX 80 14 84 15 79 16 81 17 83 18 82 19 7 20 1 21 2 22 3 23 4 24
REMARK SMILES IDX 6 25 5 26 18 27 19 28 20 29 21 30 22 31 23 32 24 33 25 34
REMARK SMILES IDX 77 35 26 36 76 37 27 38 28 39 29 40 70 41 30 42 75 43 69 44
REMARK SMILES IDX 71 45 31 46 74 47 68 48 67 49 32 51 58 52 41 53 57 54 42 55
REMARK SMILES IDX 45 56 56 57 72 58 43 59 44 60 55 62 73 63 46 64 33 65 34 66
REMARK SMILES IDX 39 67 35 68 36 69 38 70 40 71 37 72 59 73 60 74 65 75 61 76
REMARK SMILES IDX 62 77 64 78 66 79 63 80 47 81 48 82 53 83 49 84 50 85 52 86
REMARK SMILES IDX 54 87 51 88
REMARK H PARENT 8 12 71 50 45 61
REMARK Flexibility Score: inf
ROOT
ATOM      1  C   UNL A   1      41.869  20.972  26.730  1.00  0.00     0.188 C 
ENDROOT
BRANCH   1   2
ATOM      2  C   UNL A   1      40.342  20.845  26.491  1.00  0.00     0.188 C 
BRANCH   2   3
ATOM      3  O   UNL A   1      39.732  21.897  25.756  1.00  0.00    -0.376 OA
BRANCH   3   4
ATOM      4  C   UNL A   1      38.327  22.136  25.959  1.00  0.00     0.202 C 
BRANCH   4   5
ATOM      5  C   UNL A   1      37.470  22.575  24.740  1.00  0.00     0.261 C 
BRANCH   5   6
ATOM      6  O   UNL A   1      36.465  23.638  24.933  1.00  0.00    -0.459 OA
BRANCH   6   7
ATOM      7  C   UNL A   1      35.455  23.644  23.986  1.00  0.00     0.365 C 
ATOM      8  O   UNL A   1      35.558  22.952  22.968  1.00  0.00    -0.245 OA
BRANCH   7   9
ATOM      9  C   UNL A   1      34.250  24.642  24.184  1.00  0.00     0.295 C 
ATOM     10  N   UNL A   1      32.842  24.401  24.729  1.00  0.00    -0.318 N 
ATOM     11  C   UNL A   1      31.827  25.443  24.369  1.00  0.00     0.188 C 
ATOM     12  H   UNL A   1      33.582  24.111  25.368  1.00  0.00     0.349 HD
ATOM     13  C   UNL A   1      34.030  25.229  22.758  1.00  0.00     0.078 C 
ATOM     14  C   UNL A   1      32.453  26.786  23.964  1.00  0.00     0.048 C 
ATOM     15  C   UNL A   1      30.693  25.796  25.384  1.00  0.00     0.065 C 
ATOM     16  C   UNL A   1      33.343  26.584  22.748  1.00  0.00     0.016 C 
ATOM     17  C   UNL A   1      33.143  27.494  25.154  1.00  0.00     0.010 C 
ATOM     18  C   UNL A   1      31.006  26.942  26.347  1.00  0.00     0.006 C 
ATOM     19  C   UNL A   1      32.501  27.149  26.502  1.00  0.00     0.001 C 
BRANCH  10  20
ATOM     20  C   UNL A   1      32.261  23.240  25.408  1.00  0.00     0.187 C 
ATOM     21  C   UNL A   1      32.156  21.313  23.504  1.00  0.00     0.014 C 
ATOM     22  C   UNL A   1      32.589  21.784  24.890  1.00  0.00     0.044 C 
ATOM     23  C   UNL A   1      34.055  21.412  25.119  1.00  0.00     0.009 C 
ATOM     24  C   UNL A   1      34.411  21.473  26.589  1.00  0.00     0.001 C 
ATOM     25  C   UNL A   1      32.485  23.216  26.902  1.00  0.00     0.065 C 
ATOM     26  C   UNL A   1      33.862  22.707  27.242  1.00  0.00     0.006 C 
ENDBRANCH  10  20
ENDBRANCH   7   9
ENDBRANCH   6   7
ENDBRANCH   5   6
ENDBRANCH   4   5
ENDBRANCH   3   4
ENDBRANCH   2   3
ENDBRANCH   1   2
BRANCH   1  27
ATOM     27  O   UNL A   1      42.608  20.882  25.520  1.00  0.00    -0.376 OA
BRANCH  27  28
ATOM     28  C   UNL A   1      43.906  21.464  25.436  1.00  0.00     0.202 C 
BRANCH  28  29
ATOM     29  C   UNL A   1      44.135  22.582  24.408  1.00  0.00     0.261 C 
BRANCH  29  30
ATOM     30  O   UNL A   1      43.387  23.776  24.723  1.00  0.00    -0.460 OA
BRANCH  30  31
ATOM     31  C   UNL A   1      44.137  24.807  25.179  1.00  0.00     0.338 C 
ATOM     32  O   UNL A   1      45.166  25.228  24.668  1.00  0.00    -0.246 OA
BRANCH  31  33
ATOM     33  C   UNL A   1      43.420  25.526  26.259  1.00  0.00     0.060 A 
ATOM     34  C   UNL A   1      43.884  26.806  26.557  1.00  0.00     0.016 A 
ATOM     35  C   UNL A   1      42.335  25.010  26.974  1.00  0.00     0.016 A 
ATOM     36  C   UNL A   1      43.257  27.590  27.527  1.00  0.00     0.010 A 
ATOM     37  C   UNL A   1      41.726  25.784  27.984  1.00  0.00     0.010 A 
ATOM     38  C   UNL A   1      42.180  27.088  28.261  1.00  0.00    -0.014 A 
BRANCH  38  39
ATOM     39  C   UNL A   1      41.827  27.820  29.507  1.00  0.00     0.031 A 
ATOM     40  C   UNL A   1      40.597  28.688  29.441  1.00  0.00     0.074 A 
ATOM     41  C   UNL A   1      42.413  27.618  30.703  1.00  0.00     0.049 A 
ATOM     42  N   UNL A   1      40.059  29.457  30.349  1.00  0.00    -0.248 NA
ATOM     43  C   UNL A   1      39.860  28.647  28.167  1.00  0.00     0.031 C 
ATOM     44  C   UNL A   1      43.481  26.663  30.988  1.00  0.00     0.029 A 
ATOM     45  N   UNL A   1      42.156  28.203  31.924  1.00  0.00    -0.354 N 
ATOM     46  C   UNL A   1      38.932  30.005  29.750  1.00  0.00     0.074 A 
ATOM     47  C   UNL A   1      38.863  29.478  28.405  1.00  0.00     0.031 C 
ATOM     48  C   UNL A   1      43.786  26.728  32.300  1.00  0.00     0.029 A 
ATOM     49  C   UNL A   1      42.976  27.767  32.938  1.00  0.00     0.049 A 
ATOM     50  H   UNL A   1      41.449  28.875  32.058  1.00  0.00     0.167 HD
ATOM     51  C   UNL A   1      38.036  30.881  30.258  1.00  0.00     0.037 A 
ATOM     52  C   UNL A   1      43.077  28.182  34.219  1.00  0.00     0.037 A 
ATOM     53  C   UNL A   1      38.103  31.429  31.582  1.00  0.00     0.049 A 
ATOM     54  C   UNL A   1      42.185  29.298  34.718  1.00  0.00     0.074 A 
ATOM     55  C   UNL A   1      37.293  32.388  32.160  1.00  0.00     0.029 A 
ATOM     56  N   UNL A   1      39.044  31.069  32.535  1.00  0.00    -0.354 N 
ATOM     57  N   UNL A   1      41.185  29.896  34.117  1.00  0.00    -0.248 NA
ATOM     58  C   UNL A   1      42.452  29.808  36.074  1.00  0.00     0.031 C 
ATOM     59  C   UNL A   1      37.778  32.651  33.446  1.00  0.00     0.029 A 
ATOM     60  C   UNL A   1      38.847  31.805  33.692  1.00  0.00     0.049 A 
ATOM     61  H   UNL A   1      39.747  30.392  32.408  1.00  0.00     0.167 HD
ATOM     62  C   UNL A   1      40.679  30.815  35.031  1.00  0.00     0.074 A 
ATOM     63  C   UNL A   1      41.483  30.699  36.229  1.00  0.00     0.031 C 
ATOM     64  C   UNL A   1      39.636  31.672  34.891  1.00  0.00     0.037 A 
BRANCH  51  65
ATOM     65  C   UNL A   1      36.982  31.370  29.310  1.00  0.00     0.057 A 
ATOM     66  C   UNL A   1      37.013  32.656  28.752  1.00  0.00     0.134 A 
ATOM     67  C   UNL A   1      35.871  30.566  29.027  1.00  0.00     0.134 A 
ATOM     68  F   UNL A   1      38.030  33.490  29.018  1.00  0.00    -0.206 F 
ATOM     69  C   UNL A   1      35.950  33.139  27.988  1.00  0.00     0.040 A 
ATOM     70  C   UNL A   1      34.821  31.026  28.236  1.00  0.00     0.040 A 
ATOM     71  F   UNL A   1      35.779  29.328  29.538  1.00  0.00    -0.206 F 
ATOM     72  C   UNL A   1      34.851  32.323  27.727  1.00  0.00     0.006 A 
ENDBRANCH  51  65
BRANCH  52  73
ATOM     73  C   UNL A   1      44.091  27.590  35.137  1.00  0.00     0.057 A 
ATOM     74  C   UNL A   1      45.413  28.051  35.161  1.00  0.00     0.134 A 
ATOM     75  C   UNL A   1      43.782  26.495  35.955  1.00  0.00     0.134 A 
ATOM     76  F   UNL A   1      45.788  29.068  34.369  1.00  0.00    -0.206 F 
ATOM     77  C   UNL A   1      46.391  27.442  35.953  1.00  0.00     0.040 A 
ATOM     78  C   UNL A   1      44.743  25.893  36.771  1.00  0.00     0.040 A 
ATOM     79  F   UNL A   1      42.542  25.985  35.963  1.00  0.00    -0.206 F 
ATOM     80  C   UNL A   1      46.054  26.362  36.767  1.00  0.00     0.006 A 
ENDBRANCH  52  73
BRANCH  64  81
ATOM     81  C   UNL A   1      39.245  32.509  36.078  1.00  0.00     0.057 A 
ATOM     82  C   UNL A   1      38.362  32.050  37.064  1.00  0.00     0.134 A 
ATOM     83  C   UNL A   1      39.813  33.778  36.264  1.00  0.00     0.134 A 
ATOM     84  F   UNL A   1      37.777  30.849  36.948  1.00  0.00    -0.206 F 
ATOM     85  C   UNL A   1      38.040  32.832  38.177  1.00  0.00     0.040 A 
ATOM     86  C   UNL A   1      39.522  34.555  37.387  1.00  0.00     0.040 A 
ATOM     87  F   UNL A   1      40.677  34.276  35.367  1.00  0.00    -0.206 F 
ATOM     88  C   UNL A   1      38.628  34.084  38.345  1.00  0.00     0.006 A 
ENDBRANCH  64  81
ENDBRANCH  38  39
ENDBRANCH  31  33
ENDBRANCH  30  31
ENDBRANCH  29  30
ENDBRANCH  28  29
ENDBRANCH  27  28
ENDBRANCH   1  27
TORSDOF 18
ENDMDL
