MODEL 1
REMARK VINA RESULT:     -10.8      0.000      0.000
REMARK SMILES CCCc1cc(OC(F)(F)F)cc2c1O[C@@H](C(F)(F)F)C(C(=O)OCCOCCOCCOC(=O)c1ccc(-c3c4nc(c(-c5c(F)cccc5F)c5ccc([nH]5)c(-c5c(F)cccc5F)c5nc(c(-c6c(F)cccc6F)c6ccc3[nH]6)C=C5)C=C4)cc1)=C2
REMARK SMILES IDX 28 1 27 2 26 3 25 4 24 5 22 6 23 7 21 8 4 9 5 10 14 11 6 12
REMARK SMILES IDX 13 13 15 14 12 15 90 16 16 17 3 18 2 19 1 20 7 21 8 22 9 23
REMARK SMILES IDX 10 24 11 25 17 26 18 27 19 28 20 29 29 30 30 31 31 32 32 33
REMARK SMILES IDX 33 34 34 35 35 36 36 37 37 38 89 39 38 40 88 41 39 42 40 43
REMARK SMILES IDX 41 44 82 45 42 46 87 47 81 48 83 49 43 50 86 51 80 52 79 53
REMARK SMILES IDX 44 55 70 56 53 57 69 58 54 59 57 60 68 61 84 62 55 63 56 64
REMARK SMILES IDX 67 66 85 67 58 68 45 69 46 70 51 71 47 72 48 73 50 74 52 75
REMARK SMILES IDX 49 76 71 77 72 78 77 79 73 80 74 81 76 82 78 83 75 84 59 85
REMARK SMILES IDX 60 86 65 87 61 88 62 89 64 90 66 91 63 92
REMARK H PARENT 83 54 57 65
REMARK Flexibility Score: inf
ROOT
ATOM      1  C   UNL A   1      34.254  20.249  25.012  1.00  0.00     0.188 C 
ENDROOT
BRANCH   1   2
ATOM      2  O   UNL A   1      33.354  21.178  25.591  1.00  0.00    -0.376 OA
BRANCH   2   3
ATOM      3  C   UNL A   1      32.134  21.398  24.903  1.00  0.00     0.202 C 
BRANCH   3   4
ATOM      4  C   UNL A   1      32.274  21.741  23.417  1.00  0.00     0.261 C 
BRANCH   4   5
ATOM      5  O   UNL A   1      31.874  23.076  23.064  1.00  0.00    -0.460 OA
BRANCH   5   6
ATOM      6  C   UNL A   1      32.815  23.898  22.549  1.00  0.00     0.338 C 
ATOM      7  O   UNL A   1      33.669  23.588  21.738  1.00  0.00    -0.246 OA
BRANCH   6   8
ATOM      8  C   UNL A   1      32.594  25.272  23.047  1.00  0.00     0.087 C 
ATOM      9  C   UNL A   1      31.408  28.809  24.972  1.00  0.00    -0.002 A 
ATOM     10  C   UNL A   1      30.606  29.715  24.256  1.00  0.00     0.054 A 
ATOM     11  C   UNL A   1      31.831  27.641  24.312  1.00  0.00     0.131 A 
ATOM     12  C   UNL A   1      30.281  29.507  22.912  1.00  0.00     0.130 A 
ATOM     13  C   UNL A   1      31.460  27.390  22.981  1.00  0.00     0.021 A 
ATOM     14  O   UNL A   1      32.533  26.706  25.035  1.00  0.00    -0.475 OA
ATOM     15  C   UNL A   1      30.717  28.342  22.279  1.00  0.00     0.058 A 
ATOM     16  C   UNL A   1      31.734  26.076  22.398  1.00  0.00     0.027 C 
ATOM     17  C   UNL A   1      33.347  25.795  24.246  1.00  0.00     0.316 C 
BRANCH   9  18
ATOM     18  C   UNL A   1      31.694  29.035  26.444  1.00  0.00     0.039 C 
BRANCH  18  19
ATOM     19  C   UNL A   1      32.889  29.935  26.800  1.00  0.00     0.001 C 
ATOM     20  C   UNL A   1      34.259  29.292  26.626  1.00  0.00     0.004 C 
ENDBRANCH  18  19
ENDBRANCH   9  18
BRANCH  12  21
ATOM     21  O   UNL A   1      29.526  30.333  22.128  1.00  0.00    -0.406 OA
BRANCH  21  22
ATOM     22  C   UNL A   1      28.124  30.109  22.084  1.00  0.00     0.573 C 
ATOM     23  F   UNL A   1      27.456  31.094  22.723  1.00  0.00    -0.132 F 
ATOM     24  F   UNL A   1      27.683  30.017  20.811  1.00  0.00    -0.132 F 
ATOM     25  F   UNL A   1      27.851  28.943  22.709  1.00  0.00    -0.132 F 
ENDBRANCH  21  22
ENDBRANCH  12  21
BRANCH  17  26
ATOM     26  C   UNL A   1      33.997  24.777  25.195  1.00  0.00     0.430 C 
ATOM     27  F   UNL A   1      34.810  25.390  26.090  1.00  0.00    -0.167 F 
ATOM     28  F   UNL A   1      33.043  24.151  25.935  1.00  0.00    -0.167 F 
ATOM     29  F   UNL A   1      34.696  23.820  24.554  1.00  0.00    -0.167 F 
ENDBRANCH  17  26
ENDBRANCH   6   8
ENDBRANCH   5   6
ENDBRANCH   4   5
ENDBRANCH   3   4
ENDBRANCH   2   3
ENDBRANCH   1   2
BRANCH   1  30
ATOM     30  C   UNL A   1      35.612  20.872  24.625  1.00  0.00     0.188 C 
BRANCH  30  31
ATOM     31  O   UNL A   1      36.747  20.687  25.460  1.00  0.00    -0.376 OA
BRANCH  31  32
ATOM     32  C   UNL A   1      37.900  20.040  24.938  1.00  0.00     0.202 C 
BRANCH  32  33
ATOM     33  C   UNL A   1      39.219  20.197  25.700  1.00  0.00     0.261 C 
BRANCH  33  34
ATOM     34  O   UNL A   1      40.054  19.026  25.686  1.00  0.00    -0.460 OA
BRANCH  34  35
ATOM     35  C   UNL A   1      41.355  19.243  25.996  1.00  0.00     0.338 C 
ATOM     36  O   UNL A   1      42.300  18.497  25.801  1.00  0.00    -0.246 OA
BRANCH  35  37
ATOM     37  C   UNL A   1      41.533  20.626  26.481  1.00  0.00     0.060 A 
ATOM     38  C   UNL A   1      41.802  21.625  25.537  1.00  0.00     0.016 A 
ATOM     39  C   UNL A   1      41.524  20.922  27.845  1.00  0.00     0.016 A 
ATOM     40  C   UNL A   1      42.096  22.923  25.955  1.00  0.00     0.010 A 
ATOM     41  C   UNL A   1      41.846  22.216  28.264  1.00  0.00     0.010 A 
ATOM     42  C   UNL A   1      42.164  23.213  27.322  1.00  0.00    -0.014 A 
BRANCH  42  43
ATOM     43  C   UNL A   1      42.743  24.499  27.777  1.00  0.00     0.031 A 
ATOM     44  C   UNL A   1      41.809  25.596  28.210  1.00  0.00     0.074 A 
ATOM     45  C   UNL A   1      44.072  24.694  27.805  1.00  0.00     0.049 A 
ATOM     46  N   UNL A   1      42.077  26.827  28.558  1.00  0.00    -0.248 NA
ATOM     47  C   UNL A   1      40.378  25.252  28.259  1.00  0.00     0.031 C 
ATOM     48  C   UNL A   1      45.083  23.697  27.464  1.00  0.00     0.029 A 
ATOM     49  N   UNL A   1      44.797  25.816  28.125  1.00  0.00    -0.354 N 
ATOM     50  C   UNL A   1      40.853  27.408  28.861  1.00  0.00     0.074 A 
ATOM     51  C   UNL A   1      39.838  26.400  28.638  1.00  0.00     0.031 C 
ATOM     52  C   UNL A   1      46.301  24.258  27.570  1.00  0.00     0.029 A 
ATOM     53  C   UNL A   1      46.150  25.663  27.954  1.00  0.00     0.049 A 
ATOM     54  H   UNL A   1      44.385  26.651  28.446  1.00  0.00     0.167 HD
ATOM     55  C   UNL A   1      40.595  28.667  29.288  1.00  0.00     0.037 A 
ATOM     56  C   UNL A   1      47.147  26.562  28.065  1.00  0.00     0.037 A 
ATOM     57  C   UNL A   1      41.601  29.672  29.500  1.00  0.00     0.049 A 
ATOM     58  C   UNL A   1      46.829  27.981  28.454  1.00  0.00     0.074 A 
ATOM     59  C   UNL A   1      41.439  30.977  29.930  1.00  0.00     0.029 A 
ATOM     60  N   UNL A   1      42.958  29.484  29.288  1.00  0.00    -0.354 N 
ATOM     61  N   UNL A   1      45.668  28.519  28.746  1.00  0.00    -0.248 NA
ATOM     62  C   UNL A   1      47.959  28.920  28.526  1.00  0.00     0.031 C 
ATOM     63  C   UNL A   1      42.696  31.592  29.940  1.00  0.00     0.029 A 
ATOM     64  C   UNL A   1      43.643  30.656  29.560  1.00  0.00     0.049 A 
ATOM     65  H   UNL A   1      43.373  28.644  28.990  1.00  0.00     0.167 HD
ATOM     66  C   UNL A   1      45.934  29.845  29.069  1.00  0.00     0.074 A 
ATOM     67  C   UNL A   1      47.363  30.031  28.938  1.00  0.00     0.031 C 
ATOM     68  C   UNL A   1      45.069  30.820  29.445  1.00  0.00     0.037 A 
BRANCH  55  69
ATOM     69  C   UNL A   1      39.162  29.032  29.527  1.00  0.00     0.057 A 
ATOM     70  C   UNL A   1      38.350  29.540  28.505  1.00  0.00     0.134 A 
ATOM     71  C   UNL A   1      38.581  28.851  30.789  1.00  0.00     0.134 A 
ATOM     72  F   UNL A   1      38.852  29.752  27.280  1.00  0.00    -0.206 F 
ATOM     73  C   UNL A   1      37.013  29.872  28.734  1.00  0.00     0.040 A 
ATOM     74  C   UNL A   1      37.241  29.159  31.024  1.00  0.00     0.040 A 
ATOM     75  F   UNL A   1      39.305  28.368  31.809  1.00  0.00    -0.206 F 
ATOM     76  C   UNL A   1      36.454  29.676  29.997  1.00  0.00     0.006 A 
ENDBRANCH  55  69
BRANCH  56  77
ATOM     77  C   UNL A   1      48.547  26.159  27.782  1.00  0.00     0.057 A 
ATOM     78  C   UNL A   1      49.383  25.681  28.798  1.00  0.00     0.134 A 
ATOM     79  C   UNL A   1      49.091  26.269  26.496  1.00  0.00     0.134 A 
ATOM     80  F   UNL A   1      48.927  25.580  30.055  1.00  0.00    -0.206 F 
ATOM     81  C   UNL A   1      50.714  25.344  28.549  1.00  0.00     0.040 A 
ATOM     82  C   UNL A   1      50.413  25.912  26.229  1.00  0.00     0.040 A 
ATOM     83  F   UNL A   1      48.342  26.723  25.481  1.00  0.00    -0.206 F 
ATOM     84  C   UNL A   1      51.231  25.454  27.259  1.00  0.00     0.006 A 
ENDBRANCH  56  77
BRANCH  68  85
ATOM     85  C   UNL A   1      45.644  32.161  29.793  1.00  0.00     0.057 A 
ATOM     86  C   UNL A   1      46.096  32.461  31.083  1.00  0.00     0.134 A 
ATOM     87  C   UNL A   1      45.802  33.142  28.806  1.00  0.00     0.134 A 
ATOM     88  F   UNL A   1      45.963  31.568  32.075  1.00  0.00    -0.206 F 
ATOM     89  C   UNL A   1      46.674  33.696  31.382  1.00  0.00     0.040 A 
ATOM     90  C   UNL A   1      46.398  34.371  29.086  1.00  0.00     0.040 A 
ATOM     91  F   UNL A   1      45.397  32.912  27.547  1.00  0.00    -0.206 F 
ATOM     92  C   UNL A   1      46.834  34.653  30.380  1.00  0.00     0.006 A 
ENDBRANCH  68  85
ENDBRANCH  42  43
ENDBRANCH  35  37
ENDBRANCH  34  35
ENDBRANCH  33  34
ENDBRANCH  32  33
ENDBRANCH  31  32
ENDBRANCH  30  31
ENDBRANCH   1  30
TORSDOF 22
ENDMDL
MODEL 2
REMARK VINA RESULT:     -10.4      1.970      6.544
REMARK SMILES CCCc1cc(OC(F)(F)F)cc2c1O[C@@H](C(F)(F)F)C(C(=O)OCCOCCOCCOC(=O)c1ccc(-c3c4nc(c(-c5c(F)cccc5F)c5ccc([nH]5)c(-c5c(F)cccc5F)c5nc(c(-c6c(F)cccc6F)c6ccc3[nH]6)C=C5)C=C4)cc1)=C2
REMARK SMILES IDX 28 1 27 2 26 3 25 4 24 5 22 6 23 7 21 8 4 9 5 10 14 11 6 12
REMARK SMILES IDX 13 13 15 14 12 15 90 16 16 17 3 18 2 19 1 20 7 21 8 22 9 23
REMARK SMILES IDX 10 24 11 25 17 26 18 27 19 28 20 29 29 30 30 31 31 32 32 33
REMARK SMILES IDX 33 34 34 35 35 36 36 37 37 38 89 39 38 40 88 41 39 42 40 43
REMARK SMILES IDX 41 44 82 45 42 46 87 47 81 48 83 49 43 50 86 51 80 52 79 53
REMARK SMILES IDX 44 55 70 56 53 57 69 58 54 59 57 60 68 61 84 62 55 63 56 64
REMARK SMILES IDX 67 66 85 67 58 68 45 69 46 70 51 71 47 72 48 73 50 74 52 75
REMARK SMILES IDX 49 76 71 77 72 78 77 79 73 80 74 81 76 82 78 83 75 84 59 85
REMARK SMILES IDX 60 86 65 87 61 88 62 89 64 90 66 91 63 92
REMARK H PARENT 83 54 57 65
REMARK Flexibility Score: inf
ROOT
ATOM      1  C   UNL A   1      36.151  21.562  24.997  1.00  0.00     0.188 C 
ENDROOT
BRANCH   1   2
ATOM      2  O   UNL A   1      35.379  21.083  26.085  1.00  0.00    -0.376 OA
BRANCH   2   3
ATOM      3  C   UNL A   1      33.983  20.959  25.871  1.00  0.00     0.202 C 
BRANCH   3   4
ATOM      4  C   UNL A   1      33.327  22.134  25.138  1.00  0.00     0.261 C 
BRANCH   4   5
ATOM      5  O   UNL A   1      33.323  23.373  25.866  1.00  0.00    -0.460 OA
BRANCH   5   6
ATOM      6  C   UNL A   1      32.179  23.733  26.488  1.00  0.00     0.338 C 
ATOM      7  O   UNL A   1      31.545  23.049  27.272  1.00  0.00    -0.246 OA
BRANCH   6   8
ATOM      8  C   UNL A   1      31.853  25.135  26.148  1.00  0.00     0.087 C 
ATOM      9  C   UNL A   1      31.555  29.035  24.628  1.00  0.00    -0.002 A 
ATOM     10  C   UNL A   1      32.002  30.097  25.436  1.00  0.00     0.054 A 
ATOM     11  C   UNL A   1      31.625  27.734  25.154  1.00  0.00     0.131 A 
ATOM     12  C   UNL A   1      32.448  29.887  26.744  1.00  0.00     0.130 A 
ATOM     13  C   UNL A   1      32.129  27.503  26.445  1.00  0.00     0.021 A 
ATOM     14  O   UNL A   1      31.282  26.684  24.335  1.00  0.00    -0.475 OA
ATOM     15  C   UNL A   1      32.503  28.585  27.245  1.00  0.00     0.058 A 
ATOM     16  C   UNL A   1      32.387  26.129  26.877  1.00  0.00     0.027 C 
ATOM     17  C   UNL A   1      30.901  25.460  25.022  1.00  0.00     0.316 C 
BRANCH   9  18
ATOM     18  C   UNL A   1      31.133  29.289  23.193  1.00  0.00     0.039 C 
BRANCH  18  19
ATOM     19  C   UNL A   1      29.626  29.285  22.891  1.00  0.00     0.001 C 
ATOM     20  C   UNL A   1      29.194  30.180  21.736  1.00  0.00     0.004 C 
ENDBRANCH  18  19
ENDBRANCH   9  18
BRANCH  12  21
ATOM     21  O   UNL A   1      32.884  30.850  27.611  1.00  0.00    -0.406 OA
BRANCH  21  22
ATOM     22  C   UNL A   1      34.276  31.124  27.653  1.00  0.00     0.573 C 
ATOM     23  F   UNL A   1      34.955  30.319  26.808  1.00  0.00    -0.132 F 
ATOM     24  F   UNL A   1      34.530  32.415  27.347  1.00  0.00    -0.132 F 
ATOM     25  F   UNL A   1      34.727  30.894  28.905  1.00  0.00    -0.132 F 
ENDBRANCH  21  22
ENDBRANCH  12  21
BRANCH  17  26
ATOM     26  C   UNL A   1      30.625  24.376  23.969  1.00  0.00     0.430 C 
ATOM     27  F   UNL A   1      29.637  24.756  23.122  1.00  0.00    -0.167 F 
ATOM     28  F   UNL A   1      31.724  24.190  23.190  1.00  0.00    -0.167 F 
ATOM     29  F   UNL A   1      30.308  23.181  24.504  1.00  0.00    -0.167 F 
ENDBRANCH  17  26
ENDBRANCH   6   8
ENDBRANCH   5   6
ENDBRANCH   4   5
ENDBRANCH   3   4
ENDBRANCH   2   3
ENDBRANCH   1   2
BRANCH   1  30
ATOM     30  C   UNL A   1      37.322  22.469  25.429  1.00  0.00     0.188 C 
BRANCH  30  31
ATOM     31  O   UNL A   1      38.577  21.898  25.779  1.00  0.00    -0.376 OA
BRANCH  31  32
ATOM     32  C   UNL A   1      38.858  20.554  25.412  1.00  0.00     0.202 C 
BRANCH  32  33
ATOM     33  C   UNL A   1      39.898  19.788  26.233  1.00  0.00     0.261 C 
BRANCH  33  34
ATOM     34  O   UNL A   1      40.946  19.189  25.451  1.00  0.00    -0.460 OA
BRANCH  34  35
ATOM     35  C   UNL A   1      42.125  19.021  26.100  1.00  0.00     0.338 C 
ATOM     36  O   UNL A   1      42.694  17.971  26.346  1.00  0.00    -0.246 OA
BRANCH  35  37
ATOM     37  C   UNL A   1      42.752  20.334  26.351  1.00  0.00     0.060 A 
ATOM     38  C   UNL A   1      42.591  20.908  27.619  1.00  0.00     0.016 A 
ATOM     39  C   UNL A   1      43.410  21.029  25.335  1.00  0.00     0.016 A 
ATOM     40  C   UNL A   1      43.061  22.198  27.868  1.00  0.00     0.010 A 
ATOM     41  C   UNL A   1      43.856  22.331  25.578  1.00  0.00     0.010 A 
ATOM     42  C   UNL A   1      43.655  22.932  26.835  1.00  0.00    -0.014 A 
BRANCH  42  43
ATOM     43  C   UNL A   1      43.900  24.383  27.007  1.00  0.00     0.031 A 
ATOM     44  C   UNL A   1      45.290  24.910  26.778  1.00  0.00     0.074 A 
ATOM     45  C   UNL A   1      42.910  25.221  27.360  1.00  0.00     0.049 A 
ATOM     46  N   UNL A   1      45.762  26.117  26.956  1.00  0.00    -0.248 NA
ATOM     47  C   UNL A   1      46.281  23.942  26.280  1.00  0.00     0.031 C 
ATOM     48  C   UNL A   1      41.512  24.847  27.557  1.00  0.00     0.029 A 
ATOM     49  N   UNL A   1      42.942  26.567  27.629  1.00  0.00    -0.354 N 
ATOM     50  C   UNL A   1      47.102  26.054  26.598  1.00  0.00     0.074 A 
ATOM     51  C   UNL A   1      47.375  24.686  26.212  1.00  0.00     0.031 C 
ATOM     52  C   UNL A   1      40.821  25.934  27.940  1.00  0.00     0.029 A 
ATOM     53  C   UNL A   1      41.736  27.071  28.047  1.00  0.00     0.049 A 
ATOM     54  H   UNL A   1      43.753  27.117  27.534  1.00  0.00     0.167 HD
ATOM     55  C   UNL A   1      48.023  27.045  26.590  1.00  0.00     0.037 A 
ATOM     56  C   UNL A   1      41.417  28.302  28.493  1.00  0.00     0.037 A 
ATOM     57  C   UNL A   1      47.757  28.402  26.983  1.00  0.00     0.049 A 
ATOM     58  C   UNL A   1      42.479  29.367  28.561  1.00  0.00     0.074 A 
ATOM     59  C   UNL A   1      48.626  29.479  27.011  1.00  0.00     0.029 A 
ATOM     60  N   UNL A   1      46.528  28.866  27.426  1.00  0.00    -0.354 N 
ATOM     61  N   UNL A   1      43.742  29.300  28.213  1.00  0.00    -0.248 NA
ATOM     62  C   UNL A   1      42.072  30.679  29.087  1.00  0.00     0.031 C 
ATOM     63  C   UNL A   1      47.932  30.587  27.509  1.00  0.00     0.029 A 
ATOM     64  C   UNL A   1      46.621  30.210  27.748  1.00  0.00     0.049 A 
ATOM     65  H   UNL A   1      45.712  28.323  27.500  1.00  0.00     0.167 HD
ATOM     66  C   UNL A   1      44.268  30.566  28.445  1.00  0.00     0.074 A 
ATOM     67  C   UNL A   1      43.190  31.381  28.962  1.00  0.00     0.031 C 
ATOM     68  C   UNL A   1      45.532  31.013  28.243  1.00  0.00     0.037 A 
BRANCH  55  69
ATOM     69  C   UNL A   1      49.415  26.687  26.166  1.00  0.00     0.057 A 
ATOM     70  C   UNL A   1      49.863  26.892  24.855  1.00  0.00     0.134 A 
ATOM     71  C   UNL A   1      50.326  26.153  27.087  1.00  0.00     0.134 A 
ATOM     72  F   UNL A   1      49.034  27.384  23.923  1.00  0.00    -0.206 F 
ATOM     73  C   UNL A   1      51.163  26.562  24.469  1.00  0.00     0.040 A 
ATOM     74  C   UNL A   1      51.634  25.840  26.718  1.00  0.00     0.040 A 
ATOM     75  F   UNL A   1      49.960  25.934  28.358  1.00  0.00    -0.206 F 
ATOM     76  C   UNL A   1      52.055  26.039  25.405  1.00  0.00     0.006 A 
ENDBRANCH  55  69
BRANCH  56  77
ATOM     77  C   UNL A   1      40.031  28.597  28.935  1.00  0.00     0.057 A 
ATOM     78  C   UNL A   1      39.639  28.405  30.265  1.00  0.00     0.134 A 
ATOM     79  C   UNL A   1      39.059  29.048  28.034  1.00  0.00     0.134 A 
ATOM     80  F   UNL A   1      40.518  27.948  31.168  1.00  0.00    -0.206 F 
ATOM     81  C   UNL A   1      38.326  28.636  30.679  1.00  0.00     0.040 A 
ATOM     82  C   UNL A   1      37.749  29.305  28.440  1.00  0.00     0.040 A 
ATOM     83  F   UNL A   1      39.371  29.247  26.745  1.00  0.00    -0.206 F 
ATOM     84  C   UNL A   1      37.378  29.092  29.766  1.00  0.00     0.006 A 
ENDBRANCH  56  77
BRANCH  68  85
ATOM     85  C   UNL A   1      45.812  32.458  28.530  1.00  0.00     0.057 A 
ATOM     86  C   UNL A   1      46.312  32.885  29.765  1.00  0.00     0.134 A 
ATOM     87  C   UNL A   1      45.634  33.426  27.533  1.00  0.00     0.134 A 
ATOM     88  F   UNL A   1      46.494  32.009  30.764  1.00  0.00    -0.206 F 
ATOM     89  C   UNL A   1      46.615  34.227  30.003  1.00  0.00     0.040 A 
ATOM     90  C   UNL A   1      45.953  34.766  27.750  1.00  0.00     0.040 A 
ATOM     91  F   UNL A   1      45.166  33.080  26.324  1.00  0.00    -0.206 F 
ATOM     92  C   UNL A   1      46.444  35.171  28.991  1.00  0.00     0.006 A 
ENDBRANCH  68  85
ENDBRANCH  42  43
ENDBRANCH  35  37
ENDBRANCH  34  35
ENDBRANCH  33  34
ENDBRANCH  32  33
ENDBRANCH  31  32
ENDBRANCH  30  31
ENDBRANCH   1  30
TORSDOF 22
ENDMDL
MODEL 3
REMARK VINA RESULT:     -10.4      1.158      5.928
REMARK SMILES CCCc1cc(OC(F)(F)F)cc2c1O[C@@H](C(F)(F)F)C(C(=O)OCCOCCOCCOC(=O)c1ccc(-c3c4nc(c(-c5c(F)cccc5F)c5ccc([nH]5)c(-c5c(F)cccc5F)c5nc(c(-c6c(F)cccc6F)c6ccc3[nH]6)C=C5)C=C4)cc1)=C2
REMARK SMILES IDX 28 1 27 2 26 3 25 4 24 5 22 6 23 7 21 8 4 9 5 10 14 11 6 12
REMARK SMILES IDX 13 13 15 14 12 15 90 16 16 17 3 18 2 19 1 20 7 21 8 22 9 23
REMARK SMILES IDX 10 24 11 25 17 26 18 27 19 28 20 29 29 30 30 31 31 32 32 33
REMARK SMILES IDX 33 34 34 35 35 36 36 37 37 38 89 39 38 40 88 41 39 42 40 43
REMARK SMILES IDX 41 44 82 45 42 46 87 47 81 48 83 49 43 50 86 51 80 52 79 53
REMARK SMILES IDX 44 55 70 56 53 57 69 58 54 59 57 60 68 61 84 62 55 63 56 64
REMARK SMILES IDX 67 66 85 67 58 68 45 69 46 70 51 71 47 72 48 73 50 74 52 75
REMARK SMILES IDX 49 76 71 77 72 78 77 79 73 80 74 81 76 82 78 83 75 84 59 85
REMARK SMILES IDX 60 86 65 87 61 88 62 89 64 90 66 91 63 92
REMARK H PARENT 83 54 57 65
REMARK Flexibility Score: inf
ROOT
ATOM      1  C   UNL A   1      34.651  21.091  24.416  1.00  0.00     0.188 C 
ENDROOT
BRANCH   1   2
ATOM      2  O   UNL A   1      33.406  20.855  25.051  1.00  0.00    -0.376 OA
BRANCH   2   3
ATOM      3  C   UNL A   1      32.240  21.073  24.274  1.00  0.00     0.202 C 
BRANCH   3   4
ATOM      4  C   UNL A   1      31.742  22.521  24.236  1.00  0.00     0.261 C 
BRANCH   4   5
ATOM      5  O   UNL A   1      31.766  23.134  22.936  1.00  0.00    -0.460 OA
BRANCH   5   6
ATOM      6  C   UNL A   1      32.839  23.891  22.618  1.00  0.00     0.338 C 
ATOM      7  O   UNL A   1      33.818  23.519  21.997  1.00  0.00    -0.246 OA
BRANCH   6   8
ATOM      8  C   UNL A   1      32.608  25.284  23.059  1.00  0.00     0.087 C 
ATOM      9  C   UNL A   1      31.489  28.878  24.914  1.00  0.00    -0.002 A 
ATOM     10  C   UNL A   1      30.543  29.692  24.265  1.00  0.00     0.054 A 
ATOM     11  C   UNL A   1      31.886  27.692  24.273  1.00  0.00     0.131 A 
ATOM     12  C   UNL A   1      30.050  29.376  22.996  1.00  0.00     0.130 A 
ATOM     13  C   UNL A   1      31.351  27.332  23.025  1.00  0.00     0.021 A 
ATOM     14  O   UNL A   1      32.735  26.844  24.945  1.00  0.00    -0.475 OA
ATOM     15  C   UNL A   1      30.463  28.194  22.379  1.00  0.00     0.058 A 
ATOM     16  C   UNL A   1      31.620  25.997  22.490  1.00  0.00     0.027 C 
ATOM     17  C   UNL A   1      33.486  25.924  24.106  1.00  0.00     0.316 C 
BRANCH   9  18
ATOM     18  C   UNL A   1      31.961  29.219  26.315  1.00  0.00     0.039 C 
BRANCH  18  19
ATOM     19  C   UNL A   1      33.430  29.640  26.481  1.00  0.00     0.001 C 
ATOM     20  C   UNL A   1      33.654  30.896  27.315  1.00  0.00     0.004 C 
ENDBRANCH  18  19
ENDBRANCH   9  18
BRANCH  12  21
ATOM     21  O   UNL A   1      29.146  30.108  22.277  1.00  0.00    -0.406 OA
BRANCH  21  22
ATOM     22  C   UNL A   1      28.379  31.082  22.970  1.00  0.00     0.573 C 
ATOM     23  F   UNL A   1      29.173  31.901  23.692  1.00  0.00    -0.132 F 
ATOM     24  F   UNL A   1      27.632  31.815  22.116  1.00  0.00    -0.132 F 
ATOM     25  F   UNL A   1      27.543  30.450  23.823  1.00  0.00    -0.132 F 
ENDBRANCH  21  22
ENDBRANCH  12  21
BRANCH  17  26
ATOM     26  C   UNL A   1      34.320  25.007  25.013  1.00  0.00     0.430 C 
ATOM     27  F   UNL A   1      35.351  24.450  24.332  1.00  0.00    -0.167 F 
ATOM     28  F   UNL A   1      34.891  25.731  26.013  1.00  0.00    -0.167 F 
ATOM     29  F   UNL A   1      33.598  24.028  25.592  1.00  0.00    -0.167 F 
ENDBRANCH  17  26
ENDBRANCH   6   8
ENDBRANCH   5   6
ENDBRANCH   4   5
ENDBRANCH   3   4
ENDBRANCH   2   3
ENDBRANCH   1   2
BRANCH   1  30
ATOM     30  C   UNL A   1      35.865  20.805  25.323  1.00  0.00     0.188 C 
BRANCH  30  31
ATOM     31  O   UNL A   1      36.765  19.752  25.001  1.00  0.00    -0.376 OA
BRANCH  31  32
ATOM     32  C   UNL A   1      38.153  20.031  24.886  1.00  0.00     0.202 C 
BRANCH  32  33
ATOM     33  C   UNL A   1      39.122  19.232  25.762  1.00  0.00     0.261 C 
BRANCH  33  34
ATOM     34  O   UNL A   1      40.509  19.552  25.556  1.00  0.00    -0.460 OA
BRANCH  34  35
ATOM     35  C   UNL A   1      41.249  19.664  26.686  1.00  0.00     0.338 C 
ATOM     36  O   UNL A   1      41.521  18.786  27.486  1.00  0.00    -0.246 OA
BRANCH  35  37
ATOM     37  C   UNL A   1      41.850  21.011  26.761  1.00  0.00     0.060 A 
ATOM     38  C   UNL A   1      42.342  21.443  28.000  1.00  0.00     0.016 A 
ATOM     39  C   UNL A   1      41.850  21.868  25.660  1.00  0.00     0.016 A 
ATOM     40  C   UNL A   1      42.808  22.749  28.152  1.00  0.00     0.010 A 
ATOM     41  C   UNL A   1      42.292  23.184  25.820  1.00  0.00     0.010 A 
ATOM     42  C   UNL A   1      42.743  23.638  27.073  1.00  0.00    -0.014 A 
BRANCH  42  43
ATOM     43  C   UNL A   1      42.970  25.086  27.295  1.00  0.00     0.031 A 
ATOM     44  C   UNL A   1      44.317  25.664  26.956  1.00  0.00     0.074 A 
ATOM     45  C   UNL A   1      42.001  25.876  27.789  1.00  0.00     0.049 A 
ATOM     46  N   UNL A   1      44.775  26.873  27.149  1.00  0.00    -0.248 NA
ATOM     47  C   UNL A   1      45.275  24.750  26.312  1.00  0.00     0.031 C 
ATOM     48  C   UNL A   1      40.640  25.452  28.105  1.00  0.00     0.029 A 
ATOM     49  N   UNL A   1      42.028  27.207  28.124  1.00  0.00    -0.354 N 
ATOM     50  C   UNL A   1      46.073  26.867  26.655  1.00  0.00     0.074 A 
ATOM     51  C   UNL A   1      46.337  25.528  26.172  1.00  0.00     0.031 C 
ATOM     52  C   UNL A   1      39.965  26.499  28.612  1.00  0.00     0.029 A 
ATOM     53  C   UNL A   1      40.859  27.655  28.686  1.00  0.00     0.049 A 
ATOM     54  H   UNL A   1      42.812  27.785  27.976  1.00  0.00     0.167 HD
ATOM     55  C   UNL A   1      46.965  27.884  26.607  1.00  0.00     0.037 A 
ATOM     56  C   UNL A   1      40.558  28.853  29.226  1.00  0.00     0.037 A 
ATOM     57  C   UNL A   1      46.707  29.212  27.095  1.00  0.00     0.049 A 
ATOM     58  C   UNL A   1      41.596  29.944  29.242  1.00  0.00     0.074 A 
ATOM     59  C   UNL A   1      47.549  30.310  27.092  1.00  0.00     0.029 A 
ATOM     60  N   UNL A   1      45.519  29.617  27.683  1.00  0.00    -0.354 N 
ATOM     61  N   UNL A   1      42.818  29.931  28.767  1.00  0.00    -0.248 NA
ATOM     62  C   UNL A   1      41.213  31.215  29.874  1.00  0.00     0.031 C 
ATOM     63  C   UNL A   1      46.883  31.371  27.714  1.00  0.00     0.029 A 
ATOM     64  C   UNL A   1      45.612  30.945  28.064  1.00  0.00     0.049 A 
ATOM     65  H   UNL A   1      44.728  29.047  27.810  1.00  0.00     0.167 HD
ATOM     66  C   UNL A   1      43.335  31.198  29.011  1.00  0.00     0.074 A 
ATOM     67  C   UNL A   1      42.296  31.954  29.675  1.00  0.00     0.031 C 
ATOM     68  C   UNL A   1      44.561  31.691  28.706  1.00  0.00     0.037 A 
BRANCH  55  69
ATOM     69  C   UNL A   1      48.314  27.588  26.027  1.00  0.00     0.057 A 
ATOM     70  C   UNL A   1      48.541  27.593  24.645  1.00  0.00     0.134 A 
ATOM     71  C   UNL A   1      49.406  27.317  26.863  1.00  0.00     0.134 A 
ATOM     72  F   UNL A   1      47.533  27.828  23.792  1.00  0.00    -0.206 F 
ATOM     73  C   UNL A   1      49.803  27.323  24.113  1.00  0.00     0.040 A 
ATOM     74  C   UNL A   1      50.676  27.067  26.343  1.00  0.00     0.040 A 
ATOM     75  F   UNL A   1      49.255  27.298  28.195  1.00  0.00    -0.206 F 
ATOM     76  C   UNL A   1      50.877  27.064  24.965  1.00  0.00     0.006 A 
ENDBRANCH  55  69
BRANCH  56  77
ATOM     77  C   UNL A   1      39.217  29.084  29.820  1.00  0.00     0.057 A 
ATOM     78  C   UNL A   1      38.981  28.864  31.181  1.00  0.00     0.134 A 
ATOM     79  C   UNL A   1      38.136  29.503  29.035  1.00  0.00     0.134 A 
ATOM     80  F   UNL A   1      39.971  28.436  31.977  1.00  0.00    -0.206 F 
ATOM     81  C   UNL A   1      37.712  29.036  31.738  1.00  0.00     0.040 A 
ATOM     82  C   UNL A   1      36.868  29.701  29.584  1.00  0.00     0.040 A 
ATOM     83  F   UNL A   1      38.297  29.727  27.723  1.00  0.00    -0.206 F 
ATOM     84  C   UNL A   1      36.652  29.460  30.939  1.00  0.00     0.006 A 
ENDBRANCH  56  77
BRANCH  68  85
ATOM     85  C   UNL A   1      44.833  33.127  29.038  1.00  0.00     0.057 A 
ATOM     86  C   UNL A   1      44.510  34.166  28.158  1.00  0.00     0.134 A 
ATOM     87  C   UNL A   1      45.370  33.477  30.284  1.00  0.00     0.134 A 
ATOM     88  F   UNL A   1      44.003  33.896  26.945  1.00  0.00    -0.206 F 
ATOM     89  C   UNL A   1      44.724  35.503  28.499  1.00  0.00     0.040 A 
ATOM     90  C   UNL A   1      45.568  34.810  30.646  1.00  0.00     0.040 A 
ATOM     91  F   UNL A   1      45.693  32.529  31.177  1.00  0.00    -0.206 F 
ATOM     92  C   UNL A   1      45.246  35.828  29.750  1.00  0.00     0.006 A 
ENDBRANCH  68  85
ENDBRANCH  42  43
ENDBRANCH  35  37
ENDBRANCH  34  35
ENDBRANCH  33  34
ENDBRANCH  32  33
ENDBRANCH  31  32
ENDBRANCH  30  31
ENDBRANCH   1  30
TORSDOF 22
ENDMDL
