MODEL 1
REMARK VINA RESULT:     -10.9      0.000      0.000
REMARK SMILES O=C(OCCOCCOCCOC(=O)c1ccccc1Nc1nc(Cl)nc(Nc2ccc(N3CCOCC3=O)cc2)n1)c1ccc(-c2c3nc(c(-c4c(F)cccc4F)c4ccc([nH]4)c(-c4c(F)cccc4F)c4nc(c(-c5c(F)cccc5F)c5ccc2[nH]5)C=C4)C=C3)cc1
REMARK SMILES IDX 9 1 8 2 7 3 6 4 5 5 4 6 3 7 2 8 1 9 43 10 44 11 96 12 45 13
REMARK SMILES IDX 95 14 46 15 47 16 48 17 89 18 49 19 94 20 88 21 90 22 50 23
REMARK SMILES IDX 93 24 87 25 86 26 51 28 77 29 60 30 76 31 61 32 64 33 75 34
REMARK SMILES IDX 91 35 62 36 63 37 74 39 92 40 65 41 52 42 53 43 58 44 54 45
REMARK SMILES IDX 55 46 57 47 59 48 56 49 78 50 79 51 84 52 80 53 81 54 83 55
REMARK SMILES IDX 85 56 82 57 66 58 67 59 72 60 68 61 69 62 71 63 73 64 70 65
REMARK SMILES IDX 10 66 11 67 12 68 13 69 14 70 15 71 16 72 20 73 17 74 19 75
REMARK SMILES IDX 18 76 21 77 22 79 23 80 42 81 24 82 27 83 25 84 26 85 28 86
REMARK SMILES IDX 29 88 30 89 41 90 31 91 40 92 32 93 33 94 34 95 38 96 35 97
REMARK SMILES IDX 37 98 39 99 36 100
REMARK H PARENT 90 27 64 38 21 78 28 87
REMARK Flexibility Score: inf
ROOT
ATOM      1  O   UNL A   1      35.791  24.373  25.004  1.00  0.00    -0.376 OA
ENDROOT
BRANCH   1   2
ATOM      2  C   UNL A   1      36.952  23.595  24.717  1.00  0.00     0.188 C 
BRANCH   2   3
ATOM      3  C   UNL A   1      38.000  23.526  25.828  1.00  0.00     0.188 C 
BRANCH   3   4
ATOM      4  O   UNL A   1      38.361  22.177  26.152  1.00  0.00    -0.376 OA
BRANCH   4   5
ATOM      5  C   UNL A   1      37.730  21.209  25.306  1.00  0.00     0.202 C 
BRANCH   5   6
ATOM      6  C   UNL A   1      38.653  20.061  24.877  1.00  0.00     0.261 C 
BRANCH   6   7
ATOM      7  O   UNL A   1      39.497  19.611  25.952  1.00  0.00    -0.460 OA
BRANCH   7   8
ATOM      8  C   UNL A   1      40.842  19.739  26.073  1.00  0.00     0.338 C 
ATOM      9  O   UNL A   1      41.558  18.861  25.591  1.00  0.00    -0.246 OA
BRANCH   8  10
ATOM     10  C   UNL A   1      41.519  20.925  26.688  1.00  0.00     0.060 A 
ATOM     11  C   UNL A   1      41.793  21.094  28.046  1.00  0.00     0.016 A 
ATOM     12  C   UNL A   1      41.928  21.944  25.808  1.00  0.00     0.016 A 
ATOM     13  C   UNL A   1      42.277  22.304  28.538  1.00  0.00     0.010 A 
ATOM     14  C   UNL A   1      42.480  23.136  26.286  1.00  0.00     0.010 A 
ATOM     15  C   UNL A   1      42.581  23.350  27.665  1.00  0.00    -0.014 A 
BRANCH  15  16
ATOM     16  C   UNL A   1      42.816  24.697  28.230  1.00  0.00     0.031 A 
ATOM     17  C   UNL A   1      44.237  25.119  28.494  1.00  0.00     0.074 A 
ATOM     18  C   UNL A   1      41.796  25.563  28.379  1.00  0.00     0.049 A 
ATOM     19  N   UNL A   1      44.698  26.267  28.918  1.00  0.00    -0.248 NA
ATOM     20  C   UNL A   1      45.283  24.116  28.231  1.00  0.00     0.031 C 
ATOM     21  C   UNL A   1      40.394  25.271  28.079  1.00  0.00     0.029 A 
ATOM     22  N   UNL A   1      41.786  26.872  28.785  1.00  0.00    -0.354 N 
ATOM     23  C   UNL A   1      46.077  26.112  28.995  1.00  0.00     0.074 A 
ATOM     24  C   UNL A   1      46.381  24.759  28.590  1.00  0.00     0.031 C 
ATOM     25  C   UNL A   1      39.665  26.382  28.281  1.00  0.00     0.029 A 
ATOM     26  C   UNL A   1      40.538  27.448  28.760  1.00  0.00     0.049 A 
ATOM     27  H   UNL A   1      42.597  27.354  29.068  1.00  0.00     0.167 HD
ATOM     28  C   UNL A   1      47.009  27.021  29.366  1.00  0.00     0.037 A 
ATOM     29  C   UNL A   1      40.157  28.699  29.089  1.00  0.00     0.037 A 
ATOM     30  C   UNL A   1      46.700  28.370  29.746  1.00  0.00     0.049 A 
ATOM     31  C   UNL A   1      41.220  29.675  29.528  1.00  0.00     0.074 A 
ATOM     32  C   UNL A   1      47.556  29.369  30.173  1.00  0.00     0.029 A 
ATOM     33  N   UNL A   1      45.422  28.909  29.735  1.00  0.00    -0.354 N 
ATOM     34  N   UNL A   1      42.521  29.517  29.586  1.00  0.00    -0.248 NA
ATOM     35  C   UNL A   1      40.760  31.007  29.947  1.00  0.00     0.031 C 
ATOM     36  C   UNL A   1      46.789  30.508  30.449  1.00  0.00     0.029 A 
ATOM     37  C   UNL A   1      45.462  30.223  30.162  1.00  0.00     0.049 A 
ATOM     38  H   UNL A   1      44.608  28.427  29.463  1.00  0.00     0.167 HD
ATOM     39  C   UNL A   1      43.034  30.734  30.015  1.00  0.00     0.074 A 
ATOM     40  C   UNL A   1      41.906  31.629  30.173  1.00  0.00     0.031 C 
ATOM     41  C   UNL A   1      44.317  31.086  30.274  1.00  0.00     0.037 A 
BRANCH  28  42
ATOM     42  C   UNL A   1      48.432  26.552  29.424  1.00  0.00     0.057 A 
ATOM     43  C   UNL A   1      48.970  25.946  30.567  1.00  0.00     0.134 A 
ATOM     44  C   UNL A   1      49.283  26.741  28.329  1.00  0.00     0.134 A 
ATOM     45  F   UNL A   1      48.215  25.764  31.660  1.00  0.00    -0.206 F 
ATOM     46  C   UNL A   1      50.314  25.567  30.625  1.00  0.00     0.040 A 
ATOM     47  C   UNL A   1      50.621  26.347  28.368  1.00  0.00     0.040 A 
ATOM     48  F   UNL A   1      48.831  27.321  27.207  1.00  0.00    -0.206 F 
ATOM     49  C   UNL A   1      51.142  25.765  29.523  1.00  0.00     0.006 A 
ENDBRANCH  28  42
BRANCH  29  50
ATOM     50  C   UNL A   1      38.729  29.116  29.019  1.00  0.00     0.057 A 
ATOM     51  C   UNL A   1      37.884  29.013  30.132  1.00  0.00     0.134 A 
ATOM     52  C   UNL A   1      38.155  29.579  27.828  1.00  0.00     0.134 A 
ATOM     53  F   UNL A   1      38.362  28.564  31.303  1.00  0.00    -0.206 F 
ATOM     54  C   UNL A   1      36.528  29.344  30.063  1.00  0.00     0.040 A 
ATOM     55  C   UNL A   1      36.808  29.942  27.753  1.00  0.00     0.040 A 
ATOM     56  F   UNL A   1      38.896  29.691  26.716  1.00  0.00    -0.206 F 
ATOM     57  C   UNL A   1      35.988  29.819  28.871  1.00  0.00     0.006 A 
ENDBRANCH  29  50
BRANCH  41  58
ATOM     58  C   UNL A   1      44.548  32.499  30.714  1.00  0.00     0.057 A 
ATOM     59  C   UNL A   1      44.768  33.528  29.789  1.00  0.00     0.134 A 
ATOM     60  C   UNL A   1      44.541  32.834  32.073  1.00  0.00     0.134 A 
ATOM     61  F   UNL A   1      44.802  33.264  28.474  1.00  0.00    -0.206 F 
ATOM     62  C   UNL A   1      45.005  34.838  30.204  1.00  0.00     0.040 A 
ATOM     63  C   UNL A   1      44.753  34.144  32.498  1.00  0.00     0.040 A 
ATOM     64  F   UNL A   1      44.328  31.893  33.005  1.00  0.00    -0.206 F 
ATOM     65  C   UNL A   1      44.993  35.150  31.562  1.00  0.00     0.006 A 
ENDBRANCH  41  58
ENDBRANCH  15  16
ENDBRANCH   8  10
ENDBRANCH   7   8
ENDBRANCH   6   7
ENDBRANCH   5   6
ENDBRANCH   4   5
ENDBRANCH   3   4
ENDBRANCH   2   3
ENDBRANCH   1   2
BRANCH   1  66
ATOM     66  C   UNL A   1      34.892  23.870  25.990  1.00  0.00     0.202 C 
BRANCH  66  67
ATOM     67  C   UNL A   1      33.475  24.452  25.988  1.00  0.00     0.261 C 
BRANCH  67  68
ATOM     68  O   UNL A   1      33.430  25.883  26.117  1.00  0.00    -0.460 OA
BRANCH  68  69
ATOM     69  C   UNL A   1      32.276  26.380  26.625  1.00  0.00     0.340 C 
ATOM     70  O   UNL A   1      31.342  25.765  27.108  1.00  0.00    -0.246 OA
BRANCH  69  71
ATOM     71  C   UNL A   1      32.214  27.828  26.376  1.00  0.00     0.083 A 
ATOM     72  C   UNL A   1      32.815  28.713  27.275  1.00  0.00     0.018 A 
ATOM     73  C   UNL A   1      31.425  28.278  25.303  1.00  0.00     0.055 A 
ATOM     74  C   UNL A   1      32.655  30.084  27.083  1.00  0.00     0.001 A 
ATOM     75  C   UNL A   1      31.333  29.658  25.092  1.00  0.00     0.027 A 
ATOM     76  C   UNL A   1      31.926  30.554  25.990  1.00  0.00     0.002 A 
BRANCH  73  77
ATOM     77  N   UNL A   1      30.726  27.345  24.529  1.00  0.00    -0.323 N 
ATOM     78  H   UNL A   1      29.766  27.296  24.741  1.00  0.00     0.170 HD
BRANCH  77  79
ATOM     79  C   UNL A   1      31.117  26.480  23.526  1.00  0.00     0.233 A 
ATOM     80  N   UNL A   1      31.705  26.918  22.431  1.00  0.00    -0.182 NA
ATOM     81  N   UNL A   1      30.924  25.202  23.818  1.00  0.00    -0.176 NA
ATOM     82  C   UNL A   1      32.137  25.936  21.659  1.00  0.00     0.228 A 
ATOM     83  C   UNL A   1      31.288  24.315  22.906  1.00  0.00     0.233 A 
ATOM     84  Cl  UNL A   1      33.201  26.387  20.408  1.00  0.00    -0.041 Cl
ATOM     85  N   UNL A   1      31.938  24.636  21.803  1.00  0.00    -0.182 NA
BRANCH  83  86
ATOM     86  N   UNL A   1      30.856  23.022  23.168  1.00  0.00    -0.324 N 
ATOM     87  H   UNL A   1      29.880  22.898  23.115  1.00  0.00     0.170 HD
BRANCH  86  88
ATOM     88  C   UNL A   1      31.568  21.869  23.494  1.00  0.00     0.041 A 
ATOM     89  C   UNL A   1      31.843  21.609  24.841  1.00  0.00     0.028 A 
ATOM     90  C   UNL A   1      31.915  20.904  22.551  1.00  0.00     0.028 A 
ATOM     91  C   UNL A   1      32.402  20.391  25.237  1.00  0.00     0.028 A 
ATOM     92  C   UNL A   1      32.509  19.701  22.939  1.00  0.00     0.028 A 
ATOM     93  C   UNL A   1      32.731  19.417  24.290  1.00  0.00     0.044 A 
BRANCH  93  94
ATOM     94  N   UNL A   1      33.216  18.139  24.697  1.00  0.00    -0.308 N 
ATOM     95  C   UNL A   1      32.218  17.072  24.854  1.00  0.00     0.154 C 
ATOM     96  C   UNL A   1      34.580  17.824  24.635  1.00  0.00     0.253 C 
ATOM     97  C   UNL A   1      32.756  15.852  25.587  1.00  0.00     0.183 C 
ATOM     98  C   UNL A   1      34.943  16.374  24.994  1.00  0.00     0.260 C 
ATOM     99  O   UNL A   1      35.481  18.637  24.415  1.00  0.00    -0.272 OA
ATOM    100  O   UNL A   1      33.927  15.388  24.922  1.00  0.00    -0.370 OA
ENDBRANCH  93  94
ENDBRANCH  86  88
ENDBRANCH  83  86
ENDBRANCH  77  79
ENDBRANCH  73  77
ENDBRANCH  69  71
ENDBRANCH  68  69
ENDBRANCH  67  68
ENDBRANCH  66  67
ENDBRANCH   1  66
TORSDOF 22
ENDMDL
MODEL 2
REMARK VINA RESULT:     -10.5      6.859     12.681
REMARK SMILES O=C(OCCOCCOCCOC(=O)c1ccccc1Nc1nc(Cl)nc(Nc2ccc(N3CCOCC3=O)cc2)n1)c1ccc(-c2c3nc(c(-c4c(F)cccc4F)c4ccc([nH]4)c(-c4c(F)cccc4F)c4nc(c(-c5c(F)cccc5F)c5ccc2[nH]5)C=C4)C=C3)cc1
REMARK SMILES IDX 9 1 8 2 7 3 6 4 5 5 4 6 3 7 2 8 1 9 43 10 44 11 96 12 45 13
REMARK SMILES IDX 95 14 46 15 47 16 48 17 89 18 49 19 94 20 88 21 90 22 50 23
REMARK SMILES IDX 93 24 87 25 86 26 51 28 77 29 60 30 76 31 61 32 64 33 75 34
REMARK SMILES IDX 91 35 62 36 63 37 74 39 92 40 65 41 52 42 53 43 58 44 54 45
REMARK SMILES IDX 55 46 57 47 59 48 56 49 78 50 79 51 84 52 80 53 81 54 83 55
REMARK SMILES IDX 85 56 82 57 66 58 67 59 72 60 68 61 69 62 71 63 73 64 70 65
REMARK SMILES IDX 10 66 11 67 12 68 13 69 14 70 15 71 16 72 20 73 17 74 19 75
REMARK SMILES IDX 18 76 21 77 22 79 23 80 42 81 24 82 27 83 25 84 26 85 28 86
REMARK SMILES IDX 29 88 30 89 41 90 31 91 40 92 32 93 33 94 34 95 38 96 35 97
REMARK SMILES IDX 37 98 39 99 36 100
REMARK H PARENT 90 27 64 38 21 78 28 87
REMARK Flexibility Score: inf
ROOT
ATOM      1  O   UNL A   1      37.433  33.081  34.770  1.00  0.00    -0.376 OA
ENDROOT
BRANCH   1   2
ATOM      2  C   UNL A   1      36.469  34.119  34.943  1.00  0.00     0.188 C 
BRANCH   2   3
ATOM      3  C   UNL A   1      35.742  34.573  33.677  1.00  0.00     0.188 C 
BRANCH   3   4
ATOM      4  O   UNL A   1      34.786  35.608  33.941  1.00  0.00    -0.376 OA
BRANCH   4   5
ATOM      5  C   UNL A   1      34.378  36.308  32.760  1.00  0.00     0.202 C 
BRANCH   5   6
ATOM      6  C   UNL A   1      33.050  35.816  32.171  1.00  0.00     0.261 C 
BRANCH   6   7
ATOM      7  O   UNL A   1      32.969  36.038  30.752  1.00  0.00    -0.460 OA
BRANCH   7   8
ATOM      8  C   UNL A   1      33.212  35.157  29.749  1.00  0.00     0.338 C 
ATOM      9  O   UNL A   1      32.465  35.167  28.770  1.00  0.00    -0.246 OA
BRANCH   8  10
ATOM     10  C   UNL A   1      34.382  34.224  29.718  1.00  0.00     0.060 A 
ATOM     11  C   UNL A   1      34.558  33.110  30.540  1.00  0.00     0.016 A 
ATOM     12  C   UNL A   1      35.376  34.491  28.759  1.00  0.00     0.016 A 
ATOM     13  C   UNL A   1      35.758  32.402  30.545  1.00  0.00     0.010 A 
ATOM     14  C   UNL A   1      36.556  33.742  28.709  1.00  0.00     0.010 A 
ATOM     15  C   UNL A   1      36.783  32.742  29.661  1.00  0.00    -0.014 A 
BRANCH  15  16
ATOM     16  C   UNL A   1      38.128  32.168  29.884  1.00  0.00     0.031 A 
ATOM     17  C   UNL A   1      39.065  32.893  30.813  1.00  0.00     0.074 A 
ATOM     18  C   UNL A   1      38.451  30.966  29.373  1.00  0.00     0.049 A 
ATOM     19  N   UNL A   1      40.261  32.554  31.218  1.00  0.00    -0.248 NA
ATOM     20  C   UNL A   1      38.583  34.168  31.374  1.00  0.00     0.031 C 
ATOM     21  C   UNL A   1      37.582  30.151  28.523  1.00  0.00     0.029 A 
ATOM     22  N   UNL A   1      39.582  30.205  29.522  1.00  0.00    -0.354 N 
ATOM     23  C   UNL A   1      40.679  33.582  32.056  1.00  0.00     0.074 A 
ATOM     24  C   UNL A   1      39.621  34.564  32.092  1.00  0.00     0.031 C 
ATOM     25  C   UNL A   1      38.201  28.989  28.253  1.00  0.00     0.029 A 
ATOM     26  C   UNL A   1      39.520  28.992  28.875  1.00  0.00     0.049 A 
ATOM     27  H   UNL A   1      40.364  30.499  30.042  1.00  0.00     0.167 HD
ATOM     28  C   UNL A   1      41.842  33.695  32.738  1.00  0.00     0.037 A 
ATOM     29  C   UNL A   1      40.435  28.004  28.804  1.00  0.00     0.037 A 
ATOM     30  C   UNL A   1      42.880  32.704  32.714  1.00  0.00     0.049 A 
ATOM     31  C   UNL A   1      41.733  28.178  29.553  1.00  0.00     0.074 A 
ATOM     32  C   UNL A   1      44.114  32.723  33.338  1.00  0.00     0.029 A 
ATOM     33  N   UNL A   1      42.793  31.502  32.027  1.00  0.00    -0.354 N 
ATOM     34  N   UNL A   1      42.109  29.151  30.349  1.00  0.00    -0.248 NA
ATOM     35  C   UNL A   1      42.734  27.114  29.395  1.00  0.00     0.031 C 
ATOM     36  C   UNL A   1      44.788  31.542  33.002  1.00  0.00     0.029 A 
ATOM     37  C   UNL A   1      43.959  30.777  32.197  1.00  0.00     0.049 A 
ATOM     38  H   UNL A   1      42.017  31.209  31.496  1.00  0.00     0.167 HD
ATOM     39  C   UNL A   1      43.371  28.801  30.808  1.00  0.00     0.074 A 
ATOM     40  C   UNL A   1      43.683  27.511  30.227  1.00  0.00     0.031 C 
ATOM     41  C   UNL A   1      44.212  29.483  31.624  1.00  0.00     0.037 A 
BRANCH  28  42
ATOM     42  C   UNL A   1      42.056  34.958  33.516  1.00  0.00     0.057 A 
ATOM     43  C   UNL A   1      41.398  35.209  34.726  1.00  0.00     0.134 A 
ATOM     44  C   UNL A   1      42.910  35.953  33.025  1.00  0.00     0.134 A 
ATOM     45  F   UNL A   1      40.543  34.308  35.235  1.00  0.00    -0.206 F 
ATOM     46  C   UNL A   1      41.564  36.416  35.410  1.00  0.00     0.040 A 
ATOM     47  C   UNL A   1      43.100  37.155  33.709  1.00  0.00     0.040 A 
ATOM     48  F   UNL A   1      43.565  35.779  31.868  1.00  0.00    -0.206 F 
ATOM     49  C   UNL A   1      42.418  37.392  34.902  1.00  0.00     0.006 A 
ENDBRANCH  28  42
BRANCH  29  50
ATOM     50  C   UNL A   1      40.177  26.768  28.014  1.00  0.00     0.057 A 
ATOM     51  C   UNL A   1      39.428  25.708  28.542  1.00  0.00     0.134 A 
ATOM     52  C   UNL A   1      40.712  26.589  26.732  1.00  0.00     0.134 A 
ATOM     53  F   UNL A   1      38.895  25.804  29.769  1.00  0.00    -0.206 F 
ATOM     54  C   UNL A   1      39.229  24.519  27.834  1.00  0.00     0.040 A 
ATOM     55  C   UNL A   1      40.496  25.418  26.001  1.00  0.00     0.040 A 
ATOM     56  F   UNL A   1      41.453  27.553  26.165  1.00  0.00    -0.206 F 
ATOM     57  C   UNL A   1      39.758  24.376  26.555  1.00  0.00     0.006 A 
ENDBRANCH  29  50
BRANCH  41  58
ATOM     58  C   UNL A   1      45.515  28.819  31.948  1.00  0.00     0.057 A 
ATOM     59  C   UNL A   1      46.665  29.049  31.184  1.00  0.00     0.134 A 
ATOM     60  C   UNL A   1      45.621  27.952  33.042  1.00  0.00     0.134 A 
ATOM     61  F   UNL A   1      46.620  29.858  30.114  1.00  0.00    -0.206 F 
ATOM     62  C   UNL A   1      47.871  28.412  31.477  1.00  0.00     0.040 A 
ATOM     63  C   UNL A   1      46.827  27.328  33.359  1.00  0.00     0.040 A 
ATOM     64  F   UNL A   1      44.555  27.699  33.817  1.00  0.00    -0.206 F 
ATOM     65  C   UNL A   1      47.955  27.552  32.570  1.00  0.00     0.006 A 
ENDBRANCH  41  58
ENDBRANCH  15  16
ENDBRANCH   8  10
ENDBRANCH   7   8
ENDBRANCH   6   7
ENDBRANCH   5   6
ENDBRANCH   4   5
ENDBRANCH   3   4
ENDBRANCH   2   3
ENDBRANCH   1   2
BRANCH   1  66
ATOM     66  C   UNL A   1      37.062  31.972  33.954  1.00  0.00     0.202 C 
BRANCH  66  67
ATOM     67  C   UNL A   1      38.130  30.897  33.731  1.00  0.00     0.261 C 
BRANCH  67  68
ATOM     68  O   UNL A   1      39.345  31.117  34.468  1.00  0.00    -0.460 OA
BRANCH  68  69
ATOM     69  C   UNL A   1      40.220  30.081  34.461  1.00  0.00     0.340 C 
ATOM     70  O   UNL A   1      40.110  29.010  33.891  1.00  0.00    -0.246 OA
BRANCH  69  71
ATOM     71  C   UNL A   1      41.317  30.360  35.397  1.00  0.00     0.083 A 
ATOM     72  C   UNL A   1      41.565  31.672  35.807  1.00  0.00     0.018 A 
ATOM     73  C   UNL A   1      42.175  29.299  35.741  1.00  0.00     0.055 A 
ATOM     74  C   UNL A   1      42.675  31.934  36.608  1.00  0.00     0.001 A 
ATOM     75  C   UNL A   1      43.244  29.574  36.599  1.00  0.00     0.027 A 
ATOM     76  C   UNL A   1      43.504  30.887  37.011  1.00  0.00     0.002 A 
BRANCH  73  77
ATOM     77  N   UNL A   1      41.960  28.037  35.177  1.00  0.00    -0.323 N 
ATOM     78  H   UNL A   1      41.971  28.037  34.192  1.00  0.00     0.170 HD
BRANCH  77  79
ATOM     79  C   UNL A   1      41.737  26.790  35.729  1.00  0.00     0.233 A 
ATOM     80  N   UNL A   1      40.991  26.638  36.804  1.00  0.00    -0.182 NA
ATOM     81  N   UNL A   1      42.264  25.795  35.029  1.00  0.00    -0.176 NA
ATOM     82  C   UNL A   1      40.772  25.367  37.094  1.00  0.00     0.228 A 
ATOM     83  C   UNL A   1      42.078  24.570  35.494  1.00  0.00     0.233 A 
ATOM     84  Cl  UNL A   1      39.552  25.067  38.245  1.00  0.00    -0.041 Cl
ATOM     85  N   UNL A   1      41.300  24.297  36.524  1.00  0.00    -0.182 NA
BRANCH  83  86
ATOM     86  N   UNL A   1      42.836  23.599  34.854  1.00  0.00    -0.324 N 
ATOM     87  H   UNL A   1      42.457  23.278  34.004  1.00  0.00     0.170 HD
BRANCH  86  88
ATOM     88  C   UNL A   1      44.043  23.000  35.211  1.00  0.00     0.041 A 
ATOM     89  C   UNL A   1      44.510  21.924  34.448  1.00  0.00     0.028 A 
ATOM     90  C   UNL A   1      44.865  23.501  36.219  1.00  0.00     0.028 A 
ATOM     91  C   UNL A   1      45.788  21.398  34.656  1.00  0.00     0.028 A 
ATOM     92  C   UNL A   1      46.127  22.952  36.455  1.00  0.00     0.028 A 
ATOM     93  C   UNL A   1      46.616  21.916  35.656  1.00  0.00     0.044 A 
BRANCH  93  94
ATOM     94  N   UNL A   1      47.953  21.443  35.811  1.00  0.00    -0.308 N 
ATOM     95  C   UNL A   1      49.007  22.198  35.119  1.00  0.00     0.154 C 
ATOM     96  C   UNL A   1      48.289  20.524  36.814  1.00  0.00     0.253 C 
ATOM     97  C   UNL A   1      50.337  21.462  35.067  1.00  0.00     0.183 C 
ATOM     98  C   UNL A   1      49.786  20.194  36.937  1.00  0.00     0.260 C 
ATOM     99  O   UNL A   1      47.476  19.912  37.509  1.00  0.00    -0.272 OA
ATOM    100  O   UNL A   1      50.724  21.107  36.391  1.00  0.00    -0.370 OA
ENDBRANCH  93  94
ENDBRANCH  86  88
ENDBRANCH  83  86
ENDBRANCH  77  79
ENDBRANCH  73  77
ENDBRANCH  69  71
ENDBRANCH  68  69
ENDBRANCH  67  68
ENDBRANCH  66  67
ENDBRANCH   1  66
TORSDOF 22
ENDMDL
MODEL 3
REMARK VINA RESULT:     -10.3      6.442     11.844
REMARK SMILES O=C(OCCOCCOCCOC(=O)c1ccccc1Nc1nc(Cl)nc(Nc2ccc(N3CCOCC3=O)cc2)n1)c1ccc(-c2c3nc(c(-c4c(F)cccc4F)c4ccc([nH]4)c(-c4c(F)cccc4F)c4nc(c(-c5c(F)cccc5F)c5ccc2[nH]5)C=C4)C=C3)cc1
REMARK SMILES IDX 9 1 8 2 7 3 6 4 5 5 4 6 3 7 2 8 1 9 43 10 44 11 96 12 45 13
REMARK SMILES IDX 95 14 46 15 47 16 48 17 89 18 49 19 94 20 88 21 90 22 50 23
REMARK SMILES IDX 93 24 87 25 86 26 51 28 77 29 60 30 76 31 61 32 64 33 75 34
REMARK SMILES IDX 91 35 62 36 63 37 74 39 92 40 65 41 52 42 53 43 58 44 54 45
REMARK SMILES IDX 55 46 57 47 59 48 56 49 78 50 79 51 84 52 80 53 81 54 83 55
REMARK SMILES IDX 85 56 82 57 66 58 67 59 72 60 68 61 69 62 71 63 73 64 70 65
REMARK SMILES IDX 10 66 11 67 12 68 13 69 14 70 15 71 16 72 20 73 17 74 19 75
REMARK SMILES IDX 18 76 21 77 22 79 23 80 42 81 24 82 27 83 25 84 26 85 28 86
REMARK SMILES IDX 29 88 30 89 41 90 31 91 40 92 32 93 33 94 34 95 38 96 35 97
REMARK SMILES IDX 37 98 39 99 36 100
REMARK H PARENT 90 27 64 38 21 78 28 87
REMARK Flexibility Score: inf
ROOT
ATOM      1  O   UNL A   1      37.470  32.969  34.793  1.00  0.00    -0.376 OA
ENDROOT
BRANCH   1   2
ATOM      2  C   UNL A   1      36.633  34.108  34.994  1.00  0.00     0.188 C 
BRANCH   2   3
ATOM      3  C   UNL A   1      35.765  34.516  33.804  1.00  0.00     0.188 C 
BRANCH   3   4
ATOM      4  O   UNL A   1      34.835  35.554  34.140  1.00  0.00    -0.376 OA
BRANCH   4   5
ATOM      5  C   UNL A   1      34.452  36.350  33.012  1.00  0.00     0.202 C 
BRANCH   5   6
ATOM      6  C   UNL A   1      33.111  35.944  32.388  1.00  0.00     0.261 C 
BRANCH   6   7
ATOM      7  O   UNL A   1      33.133  36.026  30.953  1.00  0.00    -0.460 OA
BRANCH   7   8
ATOM      8  C   UNL A   1      33.260  35.016  30.055  1.00  0.00     0.338 C 
ATOM      9  O   UNL A   1      32.364  34.856  29.225  1.00  0.00    -0.246 OA
BRANCH   8  10
ATOM     10  C   UNL A   1      34.463  34.131  29.954  1.00  0.00     0.060 A 
ATOM     11  C   UNL A   1      34.761  33.062  30.801  1.00  0.00     0.016 A 
ATOM     12  C   UNL A   1      35.356  34.397  28.900  1.00  0.00     0.016 A 
ATOM     13  C   UNL A   1      35.987  32.404  30.726  1.00  0.00     0.010 A 
ATOM     14  C   UNL A   1      36.558  33.694  28.773  1.00  0.00     0.010 A 
ATOM     15  C   UNL A   1      36.913  32.747  29.739  1.00  0.00    -0.014 A 
BRANCH  15  16
ATOM     16  C   UNL A   1      38.297  32.238  29.862  1.00  0.00     0.031 A 
ATOM     17  C   UNL A   1      39.264  33.009  30.720  1.00  0.00     0.074 A 
ATOM     18  C   UNL A   1      38.638  31.051  29.327  1.00  0.00     0.049 A 
ATOM     19  N   UNL A   1      40.502  32.729  31.035  1.00  0.00    -0.248 NA
ATOM     20  C   UNL A   1      38.765  34.261  31.315  1.00  0.00     0.031 C 
ATOM     21  C   UNL A   1      37.749  30.194  28.543  1.00  0.00     0.029 A 
ATOM     22  N   UNL A   1      39.812  30.345  29.391  1.00  0.00    -0.354 N 
ATOM     23  C   UNL A   1      40.931  33.778  31.840  1.00  0.00     0.074 A 
ATOM     24  C   UNL A   1      39.832  34.709  31.955  1.00  0.00     0.031 C 
ATOM     25  C   UNL A   1      38.400  29.062  28.227  1.00  0.00     0.029 A 
ATOM     26  C   UNL A   1      39.761  29.129  28.751  1.00  0.00     0.049 A 
ATOM     27  H   UNL A   1      40.615  30.678  29.853  1.00  0.00     0.167 HD
ATOM     28  C   UNL A   1      42.134  33.948  32.435  1.00  0.00     0.037 A 
ATOM     29  C   UNL A   1      40.713  28.186  28.611  1.00  0.00     0.037 A 
ATOM     30  C   UNL A   1      43.214  33.007  32.334  1.00  0.00     0.049 A 
ATOM     31  C   UNL A   1      42.053  28.423  29.262  1.00  0.00     0.074 A 
ATOM     32  C   UNL A   1      44.488  33.087  32.864  1.00  0.00     0.029 A 
ATOM     33  N   UNL A   1      43.134  31.801  31.653  1.00  0.00    -0.354 N 
ATOM     34  N   UNL A   1      42.440  29.416  30.029  1.00  0.00    -0.248 NA
ATOM     35  C   UNL A   1      43.090  27.407  29.030  1.00  0.00     0.031 C 
ATOM     36  C   UNL A   1      45.191  31.939  32.479  1.00  0.00     0.029 A 
ATOM     37  C   UNL A   1      44.342  31.133  31.737  1.00  0.00     0.049 A 
ATOM     38  H   UNL A   1      42.336  31.469  31.181  1.00  0.00     0.167 HD
ATOM     39  C   UNL A   1      43.748  29.127  30.394  1.00  0.00     0.074 A 
ATOM     40  C   UNL A   1      44.078  27.852  29.789  1.00  0.00     0.031 C 
ATOM     41  C   UNL A   1      44.614  29.850  31.145  1.00  0.00     0.037 A 
BRANCH  28  42
ATOM     42  C   UNL A   1      42.344  35.222  33.196  1.00  0.00     0.057 A 
ATOM     43  C   UNL A   1      41.737  35.459  34.435  1.00  0.00     0.134 A 
ATOM     44  C   UNL A   1      43.143  36.240  32.660  1.00  0.00     0.134 A 
ATOM     45  F   UNL A   1      40.936  34.535  34.987  1.00  0.00    -0.206 F 
ATOM     46  C   UNL A   1      41.896  36.675  35.104  1.00  0.00     0.040 A 
ATOM     47  C   UNL A   1      43.326  37.452  33.329  1.00  0.00     0.040 A 
ATOM     48  F   UNL A   1      43.747  36.079  31.475  1.00  0.00    -0.206 F 
ATOM     49  C   UNL A   1      42.695  37.674  34.552  1.00  0.00     0.006 A 
ENDBRANCH  28  42
BRANCH  29  50
ATOM     50  C   UNL A   1      40.457  26.937  27.841  1.00  0.00     0.057 A 
ATOM     51  C   UNL A   1      39.731  25.874  28.395  1.00  0.00     0.134 A 
ATOM     52  C   UNL A   1      40.972  26.748  26.552  1.00  0.00     0.134 A 
ATOM     53  F   UNL A   1      39.218  25.979  29.631  1.00  0.00    -0.206 F 
ATOM     54  C   UNL A   1      39.534  24.675  27.707  1.00  0.00     0.040 A 
ATOM     55  C   UNL A   1      40.758  25.565  25.840  1.00  0.00     0.040 A 
ATOM     56  F   UNL A   1      41.690  27.714  25.960  1.00  0.00    -0.206 F 
ATOM     57  C   UNL A   1      40.043  24.521  26.420  1.00  0.00     0.006 A 
ENDBRANCH  29  50
BRANCH  41  58
ATOM     58  C   UNL A   1      45.968  29.250  31.372  1.00  0.00     0.057 A 
ATOM     59  C   UNL A   1      46.314  28.665  32.596  1.00  0.00     0.134 A 
ATOM     60  C   UNL A   1      46.927  29.250  30.354  1.00  0.00     0.134 A 
ATOM     61  F   UNL A   1      45.440  28.650  33.614  1.00  0.00    -0.206 F 
ATOM     62  C   UNL A   1      47.583  28.128  32.810  1.00  0.00     0.040 A 
ATOM     63  C   UNL A   1      48.191  28.695  30.549  1.00  0.00     0.040 A 
ATOM     64  F   UNL A   1      46.651  29.790  29.157  1.00  0.00    -0.206 F 
ATOM     65  C   UNL A   1      48.524  28.138  31.783  1.00  0.00     0.006 A 
ENDBRANCH  41  58
ENDBRANCH  15  16
ENDBRANCH   8  10
ENDBRANCH   7   8
ENDBRANCH   6   7
ENDBRANCH   5   6
ENDBRANCH   4   5
ENDBRANCH   3   4
ENDBRANCH   2   3
ENDBRANCH   1   2
BRANCH   1  66
ATOM     66  C   UNL A   1      36.971  31.930  33.954  1.00  0.00     0.202 C 
BRANCH  66  67
ATOM     67  C   UNL A   1      37.978  30.867  33.506  1.00  0.00     0.261 C 
BRANCH  67  68
ATOM     68  O   UNL A   1      39.335  31.149  33.887  1.00  0.00    -0.460 OA
BRANCH  68  69
ATOM     69  C   UNL A   1      40.131  30.061  34.036  1.00  0.00     0.340 C 
ATOM     70  O   UNL A   1      39.878  28.903  33.759  1.00  0.00    -0.246 OA
BRANCH  69  71
ATOM     71  C   UNL A   1      41.357  30.445  34.750  1.00  0.00     0.083 A 
ATOM     72  C   UNL A   1      41.441  31.697  35.364  1.00  0.00     0.018 A 
ATOM     73  C   UNL A   1      42.464  29.581  34.670  1.00  0.00     0.055 A 
ATOM     74  C   UNL A   1      42.646  32.088  35.943  1.00  0.00     0.001 A 
ATOM     75  C   UNL A   1      43.643  29.965  35.315  1.00  0.00     0.027 A 
ATOM     76  C   UNL A   1      43.740  31.221  35.928  1.00  0.00     0.002 A 
BRANCH  73  77
ATOM     77  N   UNL A   1      42.362  28.408  33.912  1.00  0.00    -0.323 N 
ATOM     78  H   UNL A   1      41.994  28.552  33.010  1.00  0.00     0.170 HD
BRANCH  77  79
ATOM     79  C   UNL A   1      42.675  27.091  34.180  1.00  0.00     0.233 A 
ATOM     80  N   UNL A   1      42.100  26.433  35.166  1.00  0.00    -0.182 NA
ATOM     81  N   UNL A   1      43.521  26.556  33.310  1.00  0.00    -0.176 NA
ATOM     82  C   UNL A   1      42.416  25.150  35.174  1.00  0.00     0.228 A 
ATOM     83  C   UNL A   1      43.856  25.290  33.499  1.00  0.00     0.233 A 
ATOM     84  Cl  UNL A   1      41.468  24.157  36.183  1.00  0.00    -0.041 Cl
ATOM     85  N   UNL A   1      43.298  24.521  34.415  1.00  0.00    -0.182 NA
BRANCH  83  86
ATOM     86  N   UNL A   1      44.908  24.857  32.702  1.00  0.00    -0.324 N 
ATOM     87  H   UNL A   1      45.684  24.512  33.201  1.00  0.00     0.170 HD
BRANCH  86  88
ATOM     88  C   UNL A   1      45.053  24.830  31.316  1.00  0.00     0.041 A 
ATOM     89  C   UNL A   1      46.195  25.407  30.749  1.00  0.00     0.028 A 
ATOM     90  C   UNL A   1      44.172  24.148  30.478  1.00  0.00     0.028 A 
ATOM     91  C   UNL A   1      46.472  25.260  29.387  1.00  0.00     0.028 A 
ATOM     92  C   UNL A   1      44.427  24.032  29.110  1.00  0.00     0.028 A 
ATOM     93  C   UNL A   1      45.596  24.559  28.554  1.00  0.00     0.044 A 
BRANCH  93  94
ATOM     94  N   UNL A   1      45.921  24.329  27.184  1.00  0.00    -0.308 N 
ATOM     95  C   UNL A   1      45.539  23.025  26.623  1.00  0.00     0.154 C 
ATOM     96  C   UNL A   1      46.280  25.383  26.334  1.00  0.00     0.253 C 
ATOM     97  C   UNL A   1      46.192  22.736  25.280  1.00  0.00     0.183 C 
ATOM     98  C   UNL A   1      46.490  25.003  24.859  1.00  0.00     0.260 C 
ATOM     99  O   UNL A   1      46.528  26.532  26.703  1.00  0.00    -0.272 OA
ATOM    100  O   UNL A   1      45.903  23.803  24.383  1.00  0.00    -0.370 OA
ENDBRANCH  93  94
ENDBRANCH  86  88
ENDBRANCH  83  86
ENDBRANCH  77  79
ENDBRANCH  73  77
ENDBRANCH  69  71
ENDBRANCH  68  69
ENDBRANCH  67  68
ENDBRANCH  66  67
ENDBRANCH   1  66
TORSDOF 22
ENDMDL
