MODEL 1
REMARK VINA RESULT:     -12.0      0.000      0.000
REMARK SMILES O=C(OCCOCCOCCOC(=O)c1ccc(-c2c3nc(c(-c4c(F)cccc4F)c4ccc([nH]4)c(-c4c(F)cccc4F)c4nc(c(-c5c(F)cccc5F)c5ccc2[nH]5)C=C4)C=C3)cc1)C1=Cc2cc(S(F)(F)(F)(F)F)cc(Br)c2O[C@@H]1C(F)(F)F
REMARK SMILES IDX 8 1 7 2 6 3 5 4 4 5 3 6 2 7 1 8 69 9 70 10 85 11 71 12 84 13
REMARK SMILES IDX 72 14 83 15 73 16 81 17 80 18 82 19 86 20 87 21 88 22 89 23
REMARK SMILES IDX 74 24 75 25 76 26 77 27 78 28 79 29 9 30 10 31 11 32 12 33
REMARK SMILES IDX 13 34 14 35 15 36 16 37 68 38 17 39 67 40 18 41 19 42 20 43
REMARK SMILES IDX 61 44 21 45 66 46 60 47 62 48 22 49 65 50 59 51 58 52 23 54
REMARK SMILES IDX 49 55 32 56 48 57 33 58 36 59 47 60 63 61 34 62 35 63 46 65
REMARK SMILES IDX 64 66 37 67 24 68 25 69 30 70 26 71 27 72 29 73 31 74 28 75
REMARK SMILES IDX 50 76 51 77 56 78 52 79 53 80 55 81 57 82 54 83 38 84 39 85
REMARK SMILES IDX 44 86 40 87 41 88 43 89 45 90 42 91
REMARK H PARENT 62 53 36 64
REMARK Flexibility Score: inf
ROOT
ATOM      1  C   UNL A   1      32.991  29.351  24.882  1.00  0.00     0.188 C 
ENDROOT
BRANCH   1   2
ATOM      2  C   UNL A   1      31.825  28.386  24.744  1.00  0.00     0.188 C 
BRANCH   2   3
ATOM      3  O   UNL A   1      32.241  27.083  25.126  1.00  0.00    -0.376 OA
BRANCH   3   4
ATOM      4  C   UNL A   1      33.600  26.894  24.761  1.00  0.00     0.202 C 
BRANCH   4   5
ATOM      5  C   UNL A   1      33.679  25.935  23.584  1.00  0.00     0.261 C 
BRANCH   5   6
ATOM      6  O   UNL A   1      33.938  24.623  24.059  1.00  0.00    -0.460 OA
BRANCH   6   7
ATOM      7  C   UNL A   1      33.168  23.530  23.582  1.00  0.00     0.338 C 
ATOM      8  O   UNL A   1      33.459  22.983  22.473  1.00  0.00    -0.246 OA
BRANCH   7   9
ATOM      9  C   UNL A   1      31.994  23.014  24.399  1.00  0.00     0.087 C 
ATOM     10  C   UNL A   1      32.022  21.753  24.909  1.00  0.00     0.027 C 
ATOM     11  C   UNL A   1      30.789  23.907  24.644  1.00  0.00     0.316 C 
ATOM     12  C   UNL A   1      33.227  20.859  24.662  1.00  0.00     0.020 A 
ATOM     13  O   UNL A   1      34.708  22.706  24.880  1.00  0.00    -0.474 OA
ATOM     14  C   UNL A   1      32.969  19.521  24.421  1.00  0.00     0.036 A 
ATOM     15  C   UNL A   1      34.470  21.308  24.794  1.00  0.00     0.142 A 
ATOM     16  C   UNL A   1      34.085  18.675  24.624  1.00  0.00     0.109 A 
ATOM     17  C   UNL A   1      35.527  20.433  24.850  1.00  0.00     0.062 A 
ATOM     18  C   UNL A   1      35.338  19.090  24.677  1.00  0.00     0.044 A 
ATOM     19  Br  UNL A   1      37.334  21.120  25.178  1.00  0.00    -0.047 Br
BRANCH  11  20
ATOM     20  C   UNL A   1      30.607  24.111  26.140  1.00  0.00     0.430 C 
ATOM     21  F   UNL A   1      29.928  23.085  26.647  1.00  0.00    -0.167 F 
ATOM     22  F   UNL A   1      31.798  24.186  26.726  1.00  0.00    -0.167 F 
ATOM     23  F   UNL A   1      29.935  25.237  26.356  1.00  0.00    -0.167 F 
ENDBRANCH  11  20
BRANCH  16  24
ATOM     24  S   UNL A   1      33.775  16.904  24.823  1.00  0.00     0.310 S 
ATOM     25  F   UNL A   1      32.487  16.965  23.900  1.00  0.00    -0.094 F 
ATOM     26  F   UNL A   1      32.834  17.240  26.042  1.00  0.00    -0.094 F 
ATOM     27  F   UNL A   1      33.503  15.382  24.997  1.00  0.00    -0.094 F 
ATOM     28  F   UNL A   1      34.608  16.597  23.517  1.00  0.00    -0.094 F 
ATOM     29  F   UNL A   1      33.970  18.451  24.567  1.00  0.00    -0.094 F 
ENDBRANCH  16  24
ENDBRANCH   7   9
ENDBRANCH   6   7
ENDBRANCH   5   6
ENDBRANCH   4   5
ENDBRANCH   3   4
ENDBRANCH   2   3
ENDBRANCH   1   2
BRANCH   1  30
ATOM     30  O   UNL A   1      32.767  30.208  25.992  1.00  0.00    -0.376 OA
BRANCH  30  31
ATOM     31  C   UNL A   1      31.516  30.863  25.839  1.00  0.00     0.202 C 
BRANCH  31  32
ATOM     32  C   UNL A   1      31.368  31.929  26.912  1.00  0.00     0.261 C 
BRANCH  32  33
ATOM     33  O   UNL A   1      32.322  32.958  26.692  1.00  0.00    -0.460 OA
BRANCH  33  34
ATOM     34  C   UNL A   1      33.066  33.481  27.782  1.00  0.00     0.338 C 
ATOM     35  O   UNL A   1      32.688  34.551  28.354  1.00  0.00    -0.246 OA
BRANCH  34  36
ATOM     36  C   UNL A   1      34.315  32.762  28.265  1.00  0.00     0.060 A 
ATOM     37  C   UNL A   1      35.434  33.571  28.374  1.00  0.00     0.016 A 
ATOM     38  C   UNL A   1      34.334  31.501  28.682  1.00  0.00     0.016 A 
ATOM     39  C   UNL A   1      36.623  32.866  28.674  1.00  0.00     0.010 A 
ATOM     40  C   UNL A   1      35.507  30.917  29.091  1.00  0.00     0.010 A 
ATOM     41  C   UNL A   1      36.664  31.642  29.166  1.00  0.00    -0.014 A 
BRANCH  41  42
ATOM     42  C   UNL A   1      37.930  31.068  29.782  1.00  0.00     0.031 A 
ATOM     43  C   UNL A   1      38.718  30.143  29.095  1.00  0.00     0.074 A 
ATOM     44  C   UNL A   1      38.133  31.425  31.104  1.00  0.00     0.049 A 
ATOM     45  N   UNL A   1      39.784  29.485  29.549  1.00  0.00    -0.248 NA
ATOM     46  C   UNL A   1      38.482  29.737  27.701  1.00  0.00     0.031 C 
ATOM     47  C   UNL A   1      37.348  32.363  31.803  1.00  0.00     0.029 A 
ATOM     48  N   UNL A   1      39.098  30.956  31.968  1.00  0.00    -0.354 N 
ATOM     49  C   UNL A   1      40.285  28.700  28.592  1.00  0.00     0.074 A 
ATOM     50  C   UNL A   1      39.451  28.847  27.391  1.00  0.00     0.031 C 
ATOM     51  C   UNL A   1      37.827  32.450  33.072  1.00  0.00     0.029 A 
ATOM     52  C   UNL A   1      38.918  31.570  33.188  1.00  0.00     0.049 A 
ATOM     53  H   UNL A   1      39.796  30.296  31.751  1.00  0.00     0.167 HD
ATOM     54  C   UNL A   1      41.404  27.871  28.674  1.00  0.00     0.037 A 
ATOM     55  C   UNL A   1      39.651  31.381  34.349  1.00  0.00     0.037 A 
ATOM     56  C   UNL A   1      42.165  27.716  29.822  1.00  0.00     0.049 A 
ATOM     57  C   UNL A   1      40.736  30.507  34.447  1.00  0.00     0.074 A 
ATOM     58  C   UNL A   1      43.301  26.890  29.918  1.00  0.00     0.029 A 
ATOM     59  N   UNL A   1      41.969  28.311  31.049  1.00  0.00    -0.354 N 
ATOM     60  N   UNL A   1      41.260  29.753  33.480  1.00  0.00    -0.248 NA
ATOM     61  C   UNL A   1      41.501  30.276  35.680  1.00  0.00     0.031 C 
ATOM     62  C   UNL A   1      43.779  26.977  31.188  1.00  0.00     0.029 A 
ATOM     63  C   UNL A   1      42.948  27.859  31.907  1.00  0.00     0.049 A 
ATOM     64  H   UNL A   1      41.254  28.948  31.275  1.00  0.00     0.167 HD
ATOM     65  C   UNL A   1      42.302  29.064  33.947  1.00  0.00     0.074 A 
ATOM     66  C   UNL A   1      42.468  29.384  35.372  1.00  0.00     0.031 C 
ATOM     67  C   UNL A   1      43.125  28.183  33.243  1.00  0.00     0.037 A 
BRANCH  54  68
ATOM     68  C   UNL A   1      41.813  27.094  27.433  1.00  0.00     0.057 A 
ATOM     69  C   UNL A   1      42.742  27.574  26.525  1.00  0.00     0.134 A 
ATOM     70  C   UNL A   1      41.331  25.861  27.339  1.00  0.00     0.134 A 
ATOM     71  F   UNL A   1      43.435  28.693  26.719  1.00  0.00    -0.206 F 
ATOM     72  C   UNL A   1      42.888  26.766  25.373  1.00  0.00     0.040 A 
ATOM     73  C   UNL A   1      41.624  25.077  26.249  1.00  0.00     0.040 A 
ATOM     74  F   UNL A   1      40.558  25.379  28.307  1.00  0.00    -0.206 F 
ATOM     75  C   UNL A   1      42.490  25.511  25.282  1.00  0.00     0.006 A 
ENDBRANCH  54  68
BRANCH  55  76
ATOM     76  C   UNL A   1      39.253  32.171  35.585  1.00  0.00     0.057 A 
ATOM     77  C   UNL A   1      38.289  31.691  36.457  1.00  0.00     0.134 A 
ATOM     78  C   UNL A   1      39.747  33.398  35.712  1.00  0.00     0.134 A 
ATOM     79  F   UNL A   1      37.953  30.406  36.529  1.00  0.00    -0.206 F 
ATOM     80  C   UNL A   1      37.696  32.691  37.263  1.00  0.00     0.040 A 
ATOM     81  C   UNL A   1      39.206  34.280  36.615  1.00  0.00     0.040 A 
ATOM     82  F   UNL A   1      40.774  33.776  34.957  1.00  0.00    -0.206 F 
ATOM     83  C   UNL A   1      38.210  33.890  37.468  1.00  0.00     0.006 A 
ENDBRANCH  55  76
BRANCH  67  84
ATOM     84  C   UNL A   1      44.285  27.540  33.986  1.00  0.00     0.057 A 
ATOM     85  C   UNL A   1      43.992  26.324  34.581  1.00  0.00     0.134 A 
ATOM     86  C   UNL A   1      45.517  28.034  33.999  1.00  0.00     0.134 A 
ATOM     87  F   UNL A   1      42.849  25.674  34.379  1.00  0.00    -0.206 F 
ATOM     88  C   UNL A   1      45.020  25.836  35.422  1.00  0.00     0.040 A 
ATOM     89  C   UNL A   1      46.506  27.428  34.735  1.00  0.00     0.040 A 
ATOM     90  F   UNL A   1      45.796  29.126  33.293  1.00  0.00    -0.206 F 
ATOM     91  C   UNL A   1      46.271  26.254  35.397  1.00  0.00     0.006 A 
ENDBRANCH  67  84
ENDBRANCH  41  42
ENDBRANCH  34  36
ENDBRANCH  33  34
ENDBRANCH  32  33
ENDBRANCH  31  32
ENDBRANCH  30  31
ENDBRANCH   1  30
TORSDOF 19
ENDMDL
MODEL 2
REMARK VINA RESULT:     -11.9      1.345      2.026
REMARK SMILES O=C(OCCOCCOCCOC(=O)c1ccc(-c2c3nc(c(-c4c(F)cccc4F)c4ccc([nH]4)c(-c4c(F)cccc4F)c4nc(c(-c5c(F)cccc5F)c5ccc2[nH]5)C=C4)C=C3)cc1)C1=Cc2cc(S(F)(F)(F)(F)F)cc(Br)c2O[C@@H]1C(F)(F)F
REMARK SMILES IDX 8 1 7 2 6 3 5 4 4 5 3 6 2 7 1 8 69 9 70 10 85 11 71 12 84 13
REMARK SMILES IDX 72 14 83 15 73 16 81 17 80 18 82 19 86 20 87 21 88 22 89 23
REMARK SMILES IDX 74 24 75 25 76 26 77 27 78 28 79 29 9 30 10 31 11 32 12 33
REMARK SMILES IDX 13 34 14 35 15 36 16 37 68 38 17 39 67 40 18 41 19 42 20 43
REMARK SMILES IDX 61 44 21 45 66 46 60 47 62 48 22 49 65 50 59 51 58 52 23 54
REMARK SMILES IDX 49 55 32 56 48 57 33 58 36 59 47 60 63 61 34 62 35 63 46 65
REMARK SMILES IDX 64 66 37 67 24 68 25 69 30 70 26 71 27 72 29 73 31 74 28 75
REMARK SMILES IDX 50 76 51 77 56 78 52 79 53 80 55 81 57 82 54 83 38 84 39 85
REMARK SMILES IDX 44 86 40 87 41 88 43 89 45 90 42 91
REMARK H PARENT 62 53 36 64
REMARK Flexibility Score: inf
ROOT
ATOM      1  C   UNL A   1      32.976  30.057  26.802  1.00  0.00     0.188 C 
ENDROOT
BRANCH   1   2
ATOM      2  C   UNL A   1      32.707  28.589  27.089  1.00  0.00     0.188 C 
BRANCH   2   3
ATOM      3  O   UNL A   1      32.550  27.887  25.864  1.00  0.00    -0.376 OA
BRANCH   3   4
ATOM      4  C   UNL A   1      33.816  27.425  25.418  1.00  0.00     0.202 C 
BRANCH   4   5
ATOM      5  C   UNL A   1      33.653  26.715  24.084  1.00  0.00     0.261 C 
BRANCH   5   6
ATOM      6  O   UNL A   1      34.010  25.348  24.228  1.00  0.00    -0.460 OA
BRANCH   6   7
ATOM      7  C   UNL A   1      33.188  24.337  23.665  1.00  0.00     0.338 C 
ATOM      8  O   UNL A   1      33.476  23.843  22.531  1.00  0.00    -0.246 OA
BRANCH   7   9
ATOM      9  C   UNL A   1      31.962  23.847  24.418  1.00  0.00     0.087 C 
ATOM     10  C   UNL A   1      31.923  22.574  24.899  1.00  0.00     0.027 C 
ATOM     11  C   UNL A   1      30.780  24.777  24.635  1.00  0.00     0.316 C 
ATOM     12  C   UNL A   1      33.105  21.643  24.681  1.00  0.00     0.020 A 
ATOM     13  O   UNL A   1      34.641  23.428  25.006  1.00  0.00    -0.474 OA
ATOM     14  C   UNL A   1      32.810  20.320  24.397  1.00  0.00     0.036 A 
ATOM     15  C   UNL A   1      34.357  22.043  24.876  1.00  0.00     0.142 A 
ATOM     16  C   UNL A   1      33.886  19.430  24.626  1.00  0.00     0.109 A 
ATOM     17  C   UNL A   1      35.379  21.128  24.955  1.00  0.00     0.062 A 
ATOM     18  C   UNL A   1      35.149  19.797  24.742  1.00  0.00     0.044 A 
ATOM     19  Br  UNL A   1      37.193  21.741  25.375  1.00  0.00    -0.047 Br
BRANCH  11  20
ATOM     20  C   UNL A   1      30.542  24.954  26.126  1.00  0.00     0.430 C 
ATOM     21  F   UNL A   1      31.711  24.968  26.763  1.00  0.00    -0.167 F 
ATOM     22  F   UNL A   1      29.907  26.102  26.340  1.00  0.00    -0.167 F 
ATOM     23  F   UNL A   1      29.803  23.946  26.580  1.00  0.00    -0.167 F 
ENDBRANCH  11  20
BRANCH  16  24
ATOM     24  S   UNL A   1      33.505  17.667  24.769  1.00  0.00     0.310 S 
ATOM     25  F   UNL A   1      32.154  17.833  23.954  1.00  0.00    -0.094 F 
ATOM     26  F   UNL A   1      32.677  17.986  26.072  1.00  0.00    -0.094 F 
ATOM     27  F   UNL A   1      33.171  16.153  24.895  1.00  0.00    -0.094 F 
ATOM     28  F   UNL A   1      34.219  17.387  23.389  1.00  0.00    -0.094 F 
ATOM     29  F   UNL A   1      33.756  19.214  24.568  1.00  0.00    -0.094 F 
ENDBRANCH  16  24
ENDBRANCH   7   9
ENDBRANCH   6   7
ENDBRANCH   5   6
ENDBRANCH   4   5
ENDBRANCH   3   4
ENDBRANCH   2   3
ENDBRANCH   1   2
BRANCH   1  30
ATOM     30  O   UNL A   1      31.938  30.576  25.984  1.00  0.00    -0.376 OA
BRANCH  30  31
ATOM     31  C   UNL A   1      31.441  31.777  26.556  1.00  0.00     0.202 C 
BRANCH  31  32
ATOM     32  C   UNL A   1      32.574  32.515  27.251  1.00  0.00     0.261 C 
BRANCH  32  33
ATOM     33  O   UNL A   1      32.138  33.817  27.614  1.00  0.00    -0.460 OA
BRANCH  33  34
ATOM     34  C   UNL A   1      32.937  34.619  28.471  1.00  0.00     0.338 C 
ATOM     35  O   UNL A   1      32.528  35.768  28.830  1.00  0.00    -0.246 OA
BRANCH  34  36
ATOM     36  C   UNL A   1      34.282  34.105  28.959  1.00  0.00     0.060 A 
ATOM     37  C   UNL A   1      34.204  33.236  30.034  1.00  0.00     0.016 A 
ATOM     38  C   UNL A   1      35.436  34.343  28.348  1.00  0.00     0.016 A 
ATOM     39  C   UNL A   1      35.462  32.884  30.578  1.00  0.00     0.010 A 
ATOM     40  C   UNL A   1      36.613  33.854  28.860  1.00  0.00     0.010 A 
ATOM     41  C   UNL A   1      36.617  33.037  29.957  1.00  0.00    -0.014 A 
BRANCH  41  42
ATOM     42  C   UNL A   1      37.882  32.342  30.433  1.00  0.00     0.031 A 
ATOM     43  C   UNL A   1      38.340  31.172  29.825  1.00  0.00     0.074 A 
ATOM     44  C   UNL A   1      38.429  32.880  31.585  1.00  0.00     0.049 A 
ATOM     45  N   UNL A   1      39.364  30.406  30.202  1.00  0.00    -0.248 NA
ATOM     46  C   UNL A   1      37.738  30.580  28.621  1.00  0.00     0.031 C 
ATOM     47  C   UNL A   1      37.978  34.065  32.201  1.00  0.00     0.029 A 
ATOM     48  N   UNL A   1      39.476  32.390  32.333  1.00  0.00    -0.354 N 
ATOM     49  C   UNL A   1      39.508  29.381  29.360  1.00  0.00     0.074 A 
ATOM     50  C   UNL A   1      38.460  29.475  28.334  1.00  0.00     0.031 C 
ATOM     51  C   UNL A   1      38.736  34.279  33.308  1.00  0.00     0.029 A 
ATOM     52  C   UNL A   1      39.673  33.233  33.404  1.00  0.00     0.049 A 
ATOM     53  H   UNL A   1      39.996  31.577  32.135  1.00  0.00     0.167 HD
ATOM     54  C   UNL A   1      40.473  28.374  29.406  1.00  0.00     0.037 A 
ATOM     55  C   UNL A   1      40.609  33.112  34.418  1.00  0.00     0.037 A 
ATOM     56  C   UNL A   1      41.437  28.276  30.397  1.00  0.00     0.049 A 
ATOM     57  C   UNL A   1      41.537  32.071  34.497  1.00  0.00     0.074 A 
ATOM     58  C   UNL A   1      42.421  27.272  30.453  1.00  0.00     0.029 A 
ATOM     59  N   UNL A   1      41.617  29.106  31.482  1.00  0.00    -0.354 N 
ATOM     60  N   UNL A   1      41.706  31.069  33.634  1.00  0.00    -0.248 NA
ATOM     61  C   UNL A   1      42.512  31.915  35.585  1.00  0.00     0.031 C 
ATOM     62  C   UNL A   1      43.179  27.485  31.561  1.00  0.00     0.029 A 
ATOM     63  C   UNL A   1      42.679  28.628  32.217  1.00  0.00     0.049 A 
ATOM     64  H   UNL A   1      41.080  29.903  31.695  1.00  0.00     0.167 HD
ATOM     65  C   UNL A   1      42.704  30.280  34.034  1.00  0.00     0.074 A 
ATOM     66  C   UNL A   1      43.233  30.808  35.299  1.00  0.00     0.031 C 
ATOM     67  C   UNL A   1      43.200  29.142  33.394  1.00  0.00     0.037 A 
BRANCH  54  68
ATOM     68  C   UNL A   1      40.466  27.324  28.307  1.00  0.00     0.057 A 
ATOM     69  C   UNL A   1      39.739  26.148  28.403  1.00  0.00     0.134 A 
ATOM     70  C   UNL A   1      41.087  27.659  27.183  1.00  0.00     0.134 A 
ATOM     71  F   UNL A   1      38.903  25.892  29.406  1.00  0.00    -0.206 F 
ATOM     72  C   UNL A   1      39.968  25.244  27.339  1.00  0.00     0.040 A 
ATOM     73  C   UNL A   1      41.155  26.776  26.131  1.00  0.00     0.040 A 
ATOM     74  F   UNL A   1      41.648  28.859  27.072  1.00  0.00    -0.206 F 
ATOM     75  C   UNL A   1      40.510  25.571  26.181  1.00  0.00     0.006 A 
ENDBRANCH  54  68
BRANCH  55  76
ATOM     76  C   UNL A   1      40.627  34.171  35.508  1.00  0.00     0.057 A 
ATOM     77  C   UNL A   1      39.865  34.026  36.656  1.00  0.00     0.134 A 
ATOM     78  C   UNL A   1      41.273  35.303  35.250  1.00  0.00     0.134 A 
ATOM     79  F   UNL A   1      39.414  32.849  37.082  1.00  0.00    -0.206 F 
ATOM     80  C   UNL A   1      39.612  35.241  37.335  1.00  0.00     0.040 A 
ATOM     81  C   UNL A   1      41.080  36.414  36.035  1.00  0.00     0.040 A 
ATOM     82  F   UNL A   1      42.113  35.361  34.221  1.00  0.00    -0.206 F 
ATOM     83  C   UNL A   1      40.294  36.357  37.152  1.00  0.00     0.006 A 
ENDBRANCH  55  76
BRANCH  67  84
ATOM     84  C   UNL A   1      44.381  28.423  34.026  1.00  0.00     0.057 A 
ATOM     85  C   UNL A   1      45.624  28.894  33.638  1.00  0.00     0.134 A 
ATOM     86  C   UNL A   1      44.259  27.480  34.953  1.00  0.00     0.134 A 
ATOM     87  F   UNL A   1      45.789  29.997  32.913  1.00  0.00    -0.206 F 
ATOM     88  C   UNL A   1      46.704  28.095  34.085  1.00  0.00     0.040 A 
ATOM     89  C   UNL A   1      45.368  26.835  35.444  1.00  0.00     0.040 A 
ATOM     90  F   UNL A   1      43.052  27.157  35.409  1.00  0.00    -0.206 F 
ATOM     91  C   UNL A   1      46.627  27.209  35.060  1.00  0.00     0.006 A 
ENDBRANCH  67  84
ENDBRANCH  41  42
ENDBRANCH  34  36
ENDBRANCH  33  34
ENDBRANCH  32  33
ENDBRANCH  31  32
ENDBRANCH  30  31
ENDBRANCH   1  30
TORSDOF 19
ENDMDL
MODEL 3
REMARK VINA RESULT:     -11.7      3.905      7.284
REMARK SMILES O=C(OCCOCCOCCOC(=O)c1ccc(-c2c3nc(c(-c4c(F)cccc4F)c4ccc([nH]4)c(-c4c(F)cccc4F)c4nc(c(-c5c(F)cccc5F)c5ccc2[nH]5)C=C4)C=C3)cc1)C1=Cc2cc(S(F)(F)(F)(F)F)cc(Br)c2O[C@@H]1C(F)(F)F
REMARK SMILES IDX 8 1 7 2 6 3 5 4 4 5 3 6 2 7 1 8 69 9 70 10 85 11 71 12 84 13
REMARK SMILES IDX 72 14 83 15 73 16 81 17 80 18 82 19 86 20 87 21 88 22 89 23
REMARK SMILES IDX 74 24 75 25 76 26 77 27 78 28 79 29 9 30 10 31 11 32 12 33
REMARK SMILES IDX 13 34 14 35 15 36 16 37 68 38 17 39 67 40 18 41 19 42 20 43
REMARK SMILES IDX 61 44 21 45 66 46 60 47 62 48 22 49 65 50 59 51 58 52 23 54
REMARK SMILES IDX 49 55 32 56 48 57 33 58 36 59 47 60 63 61 34 62 35 63 46 65
REMARK SMILES IDX 64 66 37 67 24 68 25 69 30 70 26 71 27 72 29 73 31 74 28 75
REMARK SMILES IDX 50 76 51 77 56 78 52 79 53 80 55 81 57 82 54 83 38 84 39 85
REMARK SMILES IDX 44 86 40 87 41 88 43 89 45 90 42 91
REMARK H PARENT 62 53 36 64
REMARK Flexibility Score: inf
ROOT
ATOM      1  C   UNL A   1      31.780  29.741  25.325  1.00  0.00     0.188 C 
ENDROOT
BRANCH   1   2
ATOM      2  C   UNL A   1      31.851  28.491  24.464  1.00  0.00     0.188 C 
BRANCH   2   3
ATOM      3  O   UNL A   1      33.127  27.885  24.613  1.00  0.00    -0.376 OA
BRANCH   3   4
ATOM      4  C   UNL A   1      32.969  26.484  24.777  1.00  0.00     0.202 C 
BRANCH   4   5
ATOM      5  C   UNL A   1      33.829  25.755  23.758  1.00  0.00     0.261 C 
BRANCH   5   6
ATOM      6  O   UNL A   1      33.996  24.403  24.160  1.00  0.00    -0.460 OA
BRANCH   6   7
ATOM      7  C   UNL A   1      33.159  23.393  23.618  1.00  0.00     0.338 C 
ATOM      8  O   UNL A   1      33.380  22.943  22.451  1.00  0.00    -0.246 OA
BRANCH   7   9
ATOM      9  C   UNL A   1      31.998  22.849  24.435  1.00  0.00     0.087 C 
ATOM     10  C   UNL A   1      32.050  21.584  24.934  1.00  0.00     0.027 C 
ATOM     11  C   UNL A   1      30.778  23.718  24.693  1.00  0.00     0.316 C 
ATOM     12  C   UNL A   1      33.270  20.714  24.674  1.00  0.00     0.020 A 
ATOM     13  O   UNL A   1      34.719  22.585  24.902  1.00  0.00    -0.474 OA
ATOM     14  C   UNL A   1      33.035  19.374  24.423  1.00  0.00     0.036 A 
ATOM     15  C   UNL A   1      34.506  21.184  24.805  1.00  0.00     0.142 A 
ATOM     16  C   UNL A   1      34.167  18.546  24.613  1.00  0.00     0.109 A 
ATOM     17  C   UNL A   1      35.579  20.327  24.848  1.00  0.00     0.062 A 
ATOM     18  C   UNL A   1      35.412  18.983  24.665  1.00  0.00     0.044 A 
ATOM     19  Br  UNL A   1      37.374  21.044  25.175  1.00  0.00    -0.047 Br
BRANCH  11  20
ATOM     20  C   UNL A   1      30.599  23.906  26.192  1.00  0.00     0.430 C 
ATOM     21  F   UNL A   1      31.792  24.044  26.766  1.00  0.00    -0.167 F 
ATOM     22  F   UNL A   1      29.870  24.994  26.418  1.00  0.00    -0.167 F 
ATOM     23  F   UNL A   1      29.983  22.844  26.702  1.00  0.00    -0.167 F 
ENDBRANCH  11  20
BRANCH  16  24
ATOM     24  S   UNL A   1      33.889  16.768  24.798  1.00  0.00     0.310 S 
ATOM     25  F   UNL A   1      32.519  16.839  24.002  1.00  0.00    -0.094 F 
ATOM     26  F   UNL A   1      33.065  17.067  26.108  1.00  0.00    -0.094 F 
ATOM     27  F   UNL A   1      33.645  15.240  24.960  1.00  0.00    -0.094 F 
ATOM     28  F   UNL A   1      34.597  16.500  23.412  1.00  0.00    -0.094 F 
ATOM     29  F   UNL A   1      34.048  18.322  24.562  1.00  0.00    -0.094 F 
ENDBRANCH  16  24
ENDBRANCH   7   9
ENDBRANCH   6   7
ENDBRANCH   5   6
ENDBRANCH   4   5
ENDBRANCH   3   4
ENDBRANCH   2   3
ENDBRANCH   1   2
BRANCH   1  30
ATOM     30  O   UNL A   1      33.042  29.968  25.935  1.00  0.00    -0.376 OA
BRANCH  30  31
ATOM     31  C   UNL A   1      32.853  30.317  27.298  1.00  0.00     0.202 C 
BRANCH  31  32
ATOM     32  C   UNL A   1      34.081  31.053  27.808  1.00  0.00     0.261 C 
BRANCH  32  33
ATOM     33  O   UNL A   1      35.052  30.111  28.240  1.00  0.00    -0.460 OA
BRANCH  33  34
ATOM     34  C   UNL A   1      36.004  30.475  29.228  1.00  0.00     0.338 C 
ATOM     35  O   UNL A   1      35.671  31.256  30.174  1.00  0.00    -0.246 OA
BRANCH  34  36
ATOM     36  C   UNL A   1      37.422  29.932  29.155  1.00  0.00     0.060 A 
ATOM     37  C   UNL A   1      37.974  29.947  27.885  1.00  0.00     0.016 A 
ATOM     38  C   UNL A   1      38.144  29.589  30.215  1.00  0.00     0.016 A 
ATOM     39  C   UNL A   1      39.230  29.301  27.798  1.00  0.00     0.010 A 
ATOM     40  C   UNL A   1      39.415  29.092  30.066  1.00  0.00     0.010 A 
ATOM     41  C   UNL A   1      40.002  29.022  28.833  1.00  0.00    -0.014 A 
BRANCH  41  42
ATOM     42  C   UNL A   1      41.465  28.645  28.662  1.00  0.00     0.031 A 
ATOM     43  C   UNL A   1      42.472  29.611  28.698  1.00  0.00     0.074 A 
ATOM     44  C   UNL A   1      41.677  27.319  28.327  1.00  0.00     0.049 A 
ATOM     45  N   UNL A   1      43.773  29.440  28.462  1.00  0.00    -0.248 NA
ATOM     46  C   UNL A   1      42.243  31.028  29.021  1.00  0.00     0.031 C 
ATOM     47  C   UNL A   1      40.667  26.336  28.296  1.00  0.00     0.029 A 
ATOM     48  N   UNL A   1      42.862  26.716  27.970  1.00  0.00    -0.354 N 
ATOM     49  C   UNL A   1      44.425  30.595  28.611  1.00  0.00     0.074 A 
ATOM     50  C   UNL A   1      43.449  31.633  28.967  1.00  0.00     0.031 C 
ATOM     51  C   UNL A   1      41.235  25.162  27.915  1.00  0.00     0.029 A 
ATOM     52  C   UNL A   1      42.607  25.389  27.702  1.00  0.00     0.049 A 
ATOM     53  H   UNL A   1      43.741  27.158  27.915  1.00  0.00     0.167 HD
ATOM     54  C   UNL A   1      45.795  30.820  28.467  1.00  0.00     0.037 A 
ATOM     55  C   UNL A   1      43.507  24.418  27.292  1.00  0.00     0.037 A 
ATOM     56  C   UNL A   1      46.702  29.839  28.099  1.00  0.00     0.049 A 
ATOM     57  C   UNL A   1      44.868  24.658  27.091  1.00  0.00     0.074 A 
ATOM     58  C   UNL A   1      48.086  30.049  27.957  1.00  0.00     0.029 A 
ATOM     59  N   UNL A   1      46.442  28.518  27.807  1.00  0.00    -0.354 N 
ATOM     60  N   UNL A   1      45.526  25.802  27.279  1.00  0.00    -0.248 NA
ATOM     61  C   UNL A   1      45.825  23.645  26.625  1.00  0.00     0.031 C 
ATOM     62  C   UNL A   1      48.654  28.874  27.575  1.00  0.00     0.029 A 
ATOM     63  C   UNL A   1      47.632  27.910  27.472  1.00  0.00     0.049 A 
ATOM     64  H   UNL A   1      45.560  28.083  27.834  1.00  0.00     0.167 HD
ATOM     65  C   UNL A   1      46.821  25.640  27.001  1.00  0.00     0.074 A 
ATOM     66  C   UNL A   1      47.031  24.251  26.570  1.00  0.00     0.031 C 
ATOM     67  C   UNL A   1      47.838  26.592  27.095  1.00  0.00     0.037 A 
BRANCH  54  68
ATOM     68  C   UNL A   1      46.321  32.221  28.728  1.00  0.00     0.057 A 
ATOM     69  C   UNL A   1      46.844  32.606  29.952  1.00  0.00     0.134 A 
ATOM     70  C   UNL A   1      46.382  33.023  27.671  1.00  0.00     0.134 A 
ATOM     71  F   UNL A   1      47.035  31.757  30.958  1.00  0.00    -0.206 F 
ATOM     72  C   UNL A   1      47.158  33.983  30.035  1.00  0.00     0.040 A 
ATOM     73  C   UNL A   1      46.827  34.317  27.799  1.00  0.00     0.040 A 
ATOM     74  F   UNL A   1      46.009  32.570  26.478  1.00  0.00    -0.206 F 
ATOM     75  C   UNL A   1      47.303  34.782  28.994  1.00  0.00     0.006 A 
ENDBRANCH  54  68
BRANCH  55  76
ATOM     76  C   UNL A   1      42.983  23.013  27.047  1.00  0.00     0.057 A 
ATOM     77  C   UNL A   1      42.562  22.619  25.787  1.00  0.00     0.134 A 
ATOM     78  C   UNL A   1      42.800  22.235  28.108  1.00  0.00     0.134 A 
ATOM     79  F   UNL A   1      42.942  23.234  24.671  1.00  0.00    -0.206 F 
ATOM     80  C   UNL A   1      41.693  21.502  25.795  1.00  0.00     0.040 A 
ATOM     81  C   UNL A   1      42.051  21.087  28.014  1.00  0.00     0.040 A 
ATOM     82  F   UNL A   1      43.346  22.571  29.273  1.00  0.00    -0.206 F 
ATOM     83  C   UNL A   1      41.555  20.669  26.810  1.00  0.00     0.006 A 
ENDBRANCH  55  76
BRANCH  67  84
ATOM     84  C   UNL A   1      49.256  26.158  26.760  1.00  0.00     0.057 A 
ATOM     85  C   UNL A   1      49.973  25.644  27.827  1.00  0.00     0.134 A 
ATOM     86  C   UNL A   1      49.760  26.171  25.532  1.00  0.00     0.134 A 
ATOM     87  F   UNL A   1      49.426  25.379  29.010  1.00  0.00    -0.206 F 
ATOM     88  C   UNL A   1      51.343  25.425  27.544  1.00  0.00     0.040 A 
ATOM     89  C   UNL A   1      51.068  25.814  25.310  1.00  0.00     0.040 A 
ATOM     90  F   UNL A   1      48.992  26.532  24.508  1.00  0.00    -0.206 F 
ATOM     91  C   UNL A   1      51.854  25.352  26.329  1.00  0.00     0.006 A 
ENDBRANCH  67  84
ENDBRANCH  41  42
ENDBRANCH  34  36
ENDBRANCH  33  34
ENDBRANCH  32  33
ENDBRANCH  31  32
ENDBRANCH  30  31
ENDBRANCH   1  30
TORSDOF 19
ENDMDL
