MODEL 1
REMARK VINA RESULT:     -10.7      0.000      0.000
REMARK SMILES O=C(C[C@H]1SC[C@@H](C(=O)OCCOCCOCCOC(=O)c2ccc(-c3c4nc(c(-c5c(F)cccc5F)c5ccc([nH]5)c(-c5c(F)cccc5F)c5nc(c(-c6c(F)cccc6F)c6ccc3[nH]6)C=C5)C=C4)cc2)NC1=O)Nc1cccc(Cl)c1
REMARK SMILES IDX 14 1 13 2 12 3 11 4 10 5 8 6 9 7 7 8 4 9 5 10 77 11 6 12
REMARK SMILES IDX 76 13 78 14 3 16 2 17 1 18 79 19 80 21 81 22 86 23 82 24
REMARK SMILES IDX 84 25 83 26 85 27 15 28 16 29 17 30 18 31 19 32 20 33 21 34
REMARK SMILES IDX 22 35 23 36 75 37 24 38 74 39 25 40 26 41 27 42 68 43 28 44
REMARK SMILES IDX 73 45 67 46 69 47 29 48 72 49 66 50 65 51 30 53 56 54 39 55
REMARK SMILES IDX 55 56 40 57 43 58 54 59 70 60 41 61 42 62 53 64 71 65 44 66
REMARK SMILES IDX 31 67 32 68 37 69 33 70 34 71 36 72 38 73 35 74 57 75 58 76
REMARK SMILES IDX 63 77 59 78 60 79 62 80 64 81 61 82 45 83 46 84 51 85 47 86
REMARK SMILES IDX 48 87 50 88 52 89 49 90
REMARK H PARENT 76 15 79 20 69 52 43 63
REMARK Flexibility Score: inf
ROOT
ATOM      1  C   UNL A   1      40.928  20.578  26.623  1.00  0.00     0.188 C 
ENDROOT
BRANCH   1   2
ATOM      2  O   UNL A   1      39.735  20.880  25.908  1.00  0.00    -0.376 OA
BRANCH   2   3
ATOM      3  C   UNL A   1      39.068  22.109  26.205  1.00  0.00     0.202 C 
BRANCH   3   4
ATOM      4  C   UNL A   1      37.818  22.452  25.383  1.00  0.00     0.261 C 
BRANCH   4   5
ATOM      5  O   UNL A   1      36.579  22.319  26.121  1.00  0.00    -0.462 OA
BRANCH   5   6
ATOM      6  C   UNL A   1      35.543  23.027  25.612  1.00  0.00     0.329 C 
ATOM      7  O   UNL A   1      35.514  24.257  25.560  1.00  0.00    -0.250 OA
BRANCH   6   8
ATOM      8  C   UNL A   1      34.353  22.204  25.077  1.00  0.00     0.202 C 
ATOM      9  C   UNL A   1      31.426  22.649  26.090  1.00  0.00     0.145 C 
ATOM     10  S   UNL A   1      31.675  23.107  24.336  1.00  0.00    -0.145 SA
ATOM     11  C   UNL A   1      32.659  22.273  26.893  1.00  0.00     0.234 C 
ATOM     12  C   UNL A   1      33.444  22.785  24.005  1.00  0.00     0.107 C 
ATOM     13  N   UNL A   1      33.704  21.680  26.264  1.00  0.00    -0.341 N 
ATOM     14  O   UNL A   1      32.698  22.269  28.121  1.00  0.00    -0.274 OA
ATOM     15  H   UNL A   1      34.045  20.836  26.637  1.00  0.00     0.164 HD
BRANCH   9  16
ATOM     16  C   UNL A   1      30.519  23.721  26.702  1.00  0.00     0.124 C 
BRANCH  16  17
ATOM     17  C   UNL A   1      30.714  25.120  26.160  1.00  0.00     0.226 C 
ATOM     18  O   UNL A   1      29.838  25.661  25.492  1.00  0.00    -0.275 OA
ATOM     19  N   UNL A   1      31.884  25.710  26.589  1.00  0.00    -0.326 N 
ATOM     20  H   UNL A   1      32.505  25.191  27.150  1.00  0.00     0.169 HD
BRANCH  19  21
ATOM     21  C   UNL A   1      32.216  27.028  26.249  1.00  0.00     0.042 A 
ATOM     22  C   UNL A   1      31.740  28.109  26.993  1.00  0.00     0.026 A 
ATOM     23  C   UNL A   1      32.959  27.232  25.088  1.00  0.00     0.046 A 
ATOM     24  C   UNL A   1      31.960  29.406  26.530  1.00  0.00     0.004 A 
ATOM     25  C   UNL A   1      33.221  28.527  24.663  1.00  0.00     0.043 A 
ATOM     26  C   UNL A   1      32.695  29.611  25.358  1.00  0.00     0.020 A 
ATOM     27  Cl  UNL A   1      34.171  28.783  23.255  1.00  0.00    -0.084 Cl
ENDBRANCH  19  21
ENDBRANCH  16  17
ENDBRANCH   9  16
ENDBRANCH   6   8
ENDBRANCH   5   6
ENDBRANCH   4   5
ENDBRANCH   3   4
ENDBRANCH   2   3
ENDBRANCH   1   2
BRANCH   1  28
ATOM     28  C   UNL A   1      41.824  19.465  26.059  1.00  0.00     0.188 C 
BRANCH  28  29
ATOM     29  O   UNL A   1      42.955  19.935  25.349  1.00  0.00    -0.376 OA
BRANCH  29  30
ATOM     30  C   UNL A   1      43.476  21.200  25.740  1.00  0.00     0.202 C 
BRANCH  30  31
ATOM     31  C   UNL A   1      43.983  22.137  24.627  1.00  0.00     0.261 C 
BRANCH  31  32
ATOM     32  O   UNL A   1      43.434  23.470  24.645  1.00  0.00    -0.460 OA
BRANCH  32  33
ATOM     33  C   UNL A   1      44.226  24.453  25.118  1.00  0.00     0.338 C 
ATOM     34  O   UNL A   1      45.308  24.812  24.662  1.00  0.00    -0.246 OA
BRANCH  33  35
ATOM     35  C   UNL A   1      43.487  25.193  26.162  1.00  0.00     0.060 A 
ATOM     36  C   UNL A   1      43.852  26.521  26.395  1.00  0.00     0.016 A 
ATOM     37  C   UNL A   1      42.465  24.606  26.914  1.00  0.00     0.016 A 
ATOM     38  C   UNL A   1      43.182  27.272  27.361  1.00  0.00     0.010 A 
ATOM     39  C   UNL A   1      41.812  25.358  27.909  1.00  0.00     0.010 A 
ATOM     40  C   UNL A   1      42.167  26.699  28.139  1.00  0.00    -0.014 A 
BRANCH  40  41
ATOM     41  C   UNL A   1      41.625  27.492  29.277  1.00  0.00     0.031 A 
ATOM     42  C   UNL A   1      42.423  27.548  30.550  1.00  0.00     0.074 A 
ATOM     43  C   UNL A   1      40.533  28.273  29.148  1.00  0.00     0.049 A 
ATOM     44  N   UNL A   1      42.217  28.251  31.634  1.00  0.00    -0.248 NA
ATOM     45  C   UNL A   1      43.646  26.729  30.586  1.00  0.00     0.031 C 
ATOM     46  C   UNL A   1      39.776  28.450  27.913  1.00  0.00     0.029 A 
ATOM     47  N   UNL A   1      39.903  29.105  30.049  1.00  0.00    -0.354 N 
ATOM     48  C   UNL A   1      43.277  27.958  32.480  1.00  0.00     0.074 A 
ATOM     49  C   UNL A   1      44.138  27.030  31.779  1.00  0.00     0.031 C 
ATOM     50  C   UNL A   1      38.809  29.362  28.121  1.00  0.00     0.029 A 
ATOM     51  C   UNL A   1      38.843  29.805  29.515  1.00  0.00     0.049 A 
ATOM     52  H   UNL A   1      40.186  29.191  30.988  1.00  0.00     0.167 HD
ATOM     53  C   UNL A   1      43.505  28.404  33.738  1.00  0.00     0.037 A 
ATOM     54  C   UNL A   1      38.008  30.706  30.081  1.00  0.00     0.037 A 
ATOM     55  C   UNL A   1      42.637  29.298  34.456  1.00  0.00     0.049 A 
ATOM     56  C   UNL A   1      38.216  31.073  31.534  1.00  0.00     0.074 A 
ATOM     57  C   UNL A   1      42.738  29.726  35.767  1.00  0.00     0.029 A 
ATOM     58  N   UNL A   1      41.505  29.896  33.925  1.00  0.00    -0.354 N 
ATOM     59  N   UNL A   1      39.203  30.760  32.340  1.00  0.00    -0.248 NA
ATOM     60  C   UNL A   1      37.192  31.926  32.158  1.00  0.00     0.031 C 
ATOM     61  C   UNL A   1      41.632  30.535  36.049  1.00  0.00     0.029 A 
ATOM     62  C   UNL A   1      40.874  30.657  34.896  1.00  0.00     0.049 A 
ATOM     63  H   UNL A   1      41.194  29.794  32.995  1.00  0.00     0.167 HD
ATOM     64  C   UNL A   1      38.950  31.424  33.537  1.00  0.00     0.074 A 
ATOM     65  C   UNL A   1      37.725  32.169  33.347  1.00  0.00     0.031 C 
ATOM     66  C   UNL A   1      39.663  31.413  34.691  1.00  0.00     0.037 A 
BRANCH  53  67
ATOM     67  C   UNL A   1      44.692  27.834  34.451  1.00  0.00     0.057 A 
ATOM     68  C   UNL A   1      45.945  28.460  34.443  1.00  0.00     0.134 A 
ATOM     69  C   UNL A   1      44.575  26.626  35.152  1.00  0.00     0.134 A 
ATOM     70  F   UNL A   1      46.129  29.604  33.768  1.00  0.00    -0.206 F 
ATOM     71  C   UNL A   1      47.043  27.894  35.094  1.00  0.00     0.040 A 
ATOM     72  C   UNL A   1      45.659  26.062  35.821  1.00  0.00     0.040 A 
ATOM     73  F   UNL A   1      43.402  25.975  35.192  1.00  0.00    -0.206 F 
ATOM     74  C   UNL A   1      46.900  26.693  35.789  1.00  0.00     0.006 A 
ENDBRANCH  53  67
BRANCH  54  75
ATOM     75  C   UNL A   1      36.919  31.363  29.289  1.00  0.00     0.057 A 
ATOM     76  C   UNL A   1      35.751  30.674  28.925  1.00  0.00     0.134 A 
ATOM     77  C   UNL A   1      37.023  32.683  28.832  1.00  0.00     0.134 A 
ATOM     78  F   UNL A   1      35.601  29.378  29.229  1.00  0.00    -0.206 F 
ATOM     79  C   UNL A   1      34.729  31.265  28.180  1.00  0.00     0.040 A 
ATOM     80  C   UNL A   1      36.000  33.297  28.100  1.00  0.00     0.040 A 
ATOM     81  F   UNL A   1      38.125  33.404  29.082  1.00  0.00    -0.206 F 
ATOM     82  C   UNL A   1      34.847  32.589  27.774  1.00  0.00     0.006 A 
ENDBRANCH  54  75
BRANCH  66  83
ATOM     83  C   UNL A   1      39.151  32.239  35.839  1.00  0.00     0.057 A 
ATOM     84  C   UNL A   1      39.495  33.590  35.990  1.00  0.00     0.134 A 
ATOM     85  C   UNL A   1      38.259  31.697  36.774  1.00  0.00     0.134 A 
ATOM     86  F   UNL A   1      40.347  34.174  35.132  1.00  0.00    -0.206 F 
ATOM     87  C   UNL A   1      38.998  34.360  37.043  1.00  0.00     0.040 A 
ATOM     88  C   UNL A   1      37.730  32.467  37.813  1.00  0.00     0.040 A 
ATOM     89  F   UNL A   1      37.870  30.417  36.686  1.00  0.00    -0.206 F 
ATOM     90  C   UNL A   1      38.106  33.801  37.954  1.00  0.00     0.006 A 
ENDBRANCH  66  83
ENDBRANCH  40  41
ENDBRANCH  33  35
ENDBRANCH  32  33
ENDBRANCH  31  32
ENDBRANCH  30  31
ENDBRANCH  29  30
ENDBRANCH  28  29
ENDBRANCH   1  28
TORSDOF 20
ENDMDL
MODEL 2
REMARK VINA RESULT:     -10.7      2.321      3.967
REMARK SMILES O=C(C[C@H]1SC[C@@H](C(=O)OCCOCCOCCOC(=O)c2ccc(-c3c4nc(c(-c5c(F)cccc5F)c5ccc([nH]5)c(-c5c(F)cccc5F)c5nc(c(-c6c(F)cccc6F)c6ccc3[nH]6)C=C5)C=C4)cc2)NC1=O)Nc1cccc(Cl)c1
REMARK SMILES IDX 14 1 13 2 12 3 11 4 10 5 8 6 9 7 7 8 4 9 5 10 77 11 6 12
REMARK SMILES IDX 76 13 78 14 3 16 2 17 1 18 79 19 80 21 81 22 86 23 82 24
REMARK SMILES IDX 84 25 83 26 85 27 15 28 16 29 17 30 18 31 19 32 20 33 21 34
REMARK SMILES IDX 22 35 23 36 75 37 24 38 74 39 25 40 26 41 27 42 68 43 28 44
REMARK SMILES IDX 73 45 67 46 69 47 29 48 72 49 66 50 65 51 30 53 56 54 39 55
REMARK SMILES IDX 55 56 40 57 43 58 54 59 70 60 41 61 42 62 53 64 71 65 44 66
REMARK SMILES IDX 31 67 32 68 37 69 33 70 34 71 36 72 38 73 35 74 57 75 58 76
REMARK SMILES IDX 63 77 59 78 60 79 62 80 64 81 61 82 45 83 46 84 51 85 47 86
REMARK SMILES IDX 48 87 50 88 52 89 49 90
REMARK H PARENT 76 15 79 20 69 52 43 63
REMARK Flexibility Score: inf
ROOT
ATOM      1  C   UNL A   1      41.032  21.098  27.136  1.00  0.00     0.188 C 
ENDROOT
BRANCH   1   2
ATOM      2  O   UNL A   1      39.982  22.030  26.902  1.00  0.00    -0.376 OA
BRANCH   2   3
ATOM      3  C   UNL A   1      38.970  21.676  25.957  1.00  0.00     0.202 C 
BRANCH   3   4
ATOM      4  C   UNL A   1      37.885  22.719  25.658  1.00  0.00     0.261 C 
BRANCH   4   5
ATOM      5  O   UNL A   1      36.846  22.243  24.767  1.00  0.00    -0.462 OA
BRANCH   5   6
ATOM      6  C   UNL A   1      36.492  23.120  23.798  1.00  0.00     0.329 C 
ATOM      7  O   UNL A   1      37.028  23.170  22.690  1.00  0.00    -0.250 OA
BRANCH   6   8
ATOM      8  C   UNL A   1      35.347  24.094  24.146  1.00  0.00     0.202 C 
ATOM      9  C   UNL A   1      32.465  23.098  24.849  1.00  0.00     0.145 C 
ATOM     10  S   UNL A   1      33.333  23.889  26.253  1.00  0.00    -0.145 SA
ATOM     11  C   UNL A   1      33.265  22.862  23.579  1.00  0.00     0.234 C 
ATOM     12  C   UNL A   1      34.978  24.348  25.600  1.00  0.00     0.107 C 
ATOM     13  N   UNL A   1      34.263  23.722  23.257  1.00  0.00    -0.341 N 
ATOM     14  O   UNL A   1      32.934  22.069  22.703  1.00  0.00    -0.274 OA
ATOM     15  H   UNL A   1      34.251  24.122  22.358  1.00  0.00     0.164 HD
BRANCH   9  16
ATOM     16  C   UNL A   1      31.721  21.886  25.417  1.00  0.00     0.124 C 
BRANCH  16  17
ATOM     17  C   UNL A   1      32.576  20.666  25.678  1.00  0.00     0.226 C 
ATOM     18  O   UNL A   1      33.268  20.591  26.690  1.00  0.00    -0.275 OA
ATOM     19  N   UNL A   1      32.395  19.666  24.747  1.00  0.00    -0.326 N 
ATOM     20  H   UNL A   1      31.789  19.823  23.987  1.00  0.00     0.169 HD
BRANCH  19  21
ATOM     21  C   UNL A   1      33.048  18.430  24.850  1.00  0.00     0.042 A 
ATOM     22  C   UNL A   1      34.315  18.234  24.297  1.00  0.00     0.026 A 
ATOM     23  C   UNL A   1      32.354  17.376  25.439  1.00  0.00     0.046 A 
ATOM     24  C   UNL A   1      34.861  16.950  24.282  1.00  0.00     0.004 A 
ATOM     25  C   UNL A   1      32.927  16.112  25.470  1.00  0.00     0.043 A 
ATOM     26  C   UNL A   1      34.159  15.889  24.863  1.00  0.00     0.020 A 
ATOM     27  Cl  UNL A   1      32.093  14.819  26.231  1.00  0.00    -0.084 Cl
ENDBRANCH  19  21
ENDBRANCH  16  17
ENDBRANCH   9  16
ENDBRANCH   6   8
ENDBRANCH   5   6
ENDBRANCH   4   5
ENDBRANCH   3   4
ENDBRANCH   2   3
ENDBRANCH   1   2
BRANCH   1  28
ATOM     28  C   UNL A   1      41.235  19.989  26.093  1.00  0.00     0.188 C 
BRANCH  28  29
ATOM     29  O   UNL A   1      42.488  20.034  25.435  1.00  0.00    -0.376 OA
BRANCH  29  30
ATOM     30  C   UNL A   1      43.397  21.045  25.857  1.00  0.00     0.202 C 
BRANCH  30  31
ATOM     31  C   UNL A   1      43.978  21.977  24.777  1.00  0.00     0.261 C 
BRANCH  31  32
ATOM     32  O   UNL A   1      43.393  23.293  24.718  1.00  0.00    -0.460 OA
BRANCH  32  33
ATOM     33  C   UNL A   1      44.161  24.324  25.126  1.00  0.00     0.338 C 
ATOM     34  O   UNL A   1      45.211  24.706  24.618  1.00  0.00    -0.246 OA
BRANCH  33  35
ATOM     35  C   UNL A   1      43.428  25.076  26.165  1.00  0.00     0.060 A 
ATOM     36  C   UNL A   1      43.780  26.413  26.366  1.00  0.00     0.016 A 
ATOM     37  C   UNL A   1      42.424  24.493  26.943  1.00  0.00     0.016 A 
ATOM     38  C   UNL A   1      43.116  27.175  27.328  1.00  0.00     0.010 A 
ATOM     39  C   UNL A   1      41.776  25.257  27.933  1.00  0.00     0.010 A 
ATOM     40  C   UNL A   1      42.118  26.606  28.131  1.00  0.00    -0.014 A 
BRANCH  40  41
ATOM     41  C   UNL A   1      41.584  27.415  29.261  1.00  0.00     0.031 A 
ATOM     42  C   UNL A   1      42.373  27.461  30.540  1.00  0.00     0.074 A 
ATOM     43  C   UNL A   1      40.508  28.216  29.120  1.00  0.00     0.049 A 
ATOM     44  N   UNL A   1      42.173  28.174  31.619  1.00  0.00    -0.248 NA
ATOM     45  C   UNL A   1      43.580  26.620  30.589  1.00  0.00     0.031 C 
ATOM     46  C   UNL A   1      39.764  28.401  27.879  1.00  0.00     0.029 A 
ATOM     47  N   UNL A   1      39.888  29.065  30.012  1.00  0.00    -0.354 N 
ATOM     48  C   UNL A   1      43.221  27.865  32.475  1.00  0.00     0.074 A 
ATOM     49  C   UNL A   1      44.069  26.917  31.785  1.00  0.00     0.031 C 
ATOM     50  C   UNL A   1      38.814  29.333  28.074  1.00  0.00     0.029 A 
ATOM     51  C   UNL A   1      38.845  29.782  29.466  1.00  0.00     0.049 A 
ATOM     52  H   UNL A   1      40.165  29.150  30.953  1.00  0.00     0.167 HD
ATOM     53  C   UNL A   1      43.448  28.313  33.732  1.00  0.00     0.037 A 
ATOM     54  C   UNL A   1      38.024  30.703  30.022  1.00  0.00     0.037 A 
ATOM     55  C   UNL A   1      42.592  29.227  34.439  1.00  0.00     0.049 A 
ATOM     56  C   UNL A   1      38.228  31.073  31.475  1.00  0.00     0.074 A 
ATOM     57  C   UNL A   1      42.692  29.660  35.749  1.00  0.00     0.029 A 
ATOM     58  N   UNL A   1      41.476  29.844  33.896  1.00  0.00    -0.354 N 
ATOM     59  N   UNL A   1      39.203  30.745  32.290  1.00  0.00    -0.248 NA
ATOM     60  C   UNL A   1      37.216  31.949  32.086  1.00  0.00     0.031 C 
ATOM     61  C   UNL A   1      41.600  30.491  36.018  1.00  0.00     0.029 A 
ATOM     62  C   UNL A   1      40.852  30.622  34.859  1.00  0.00     0.049 A 
ATOM     63  H   UNL A   1      41.170  29.744  32.965  1.00  0.00     0.167 HD
ATOM     64  C   UNL A   1      38.954  31.420  33.481  1.00  0.00     0.074 A 
ATOM     65  C   UNL A   1      37.745  32.188  33.278  1.00  0.00     0.031 C 
ATOM     66  C   UNL A   1      39.658  31.400  34.641  1.00  0.00     0.037 A 
BRANCH  53  67
ATOM     67  C   UNL A   1      44.619  27.723  34.457  1.00  0.00     0.057 A 
ATOM     68  C   UNL A   1      45.879  28.333  34.468  1.00  0.00     0.134 A 
ATOM     69  C   UNL A   1      44.477  26.513  35.148  1.00  0.00     0.134 A 
ATOM     70  F   UNL A   1      46.086  29.479  33.803  1.00  0.00    -0.206 F 
ATOM     71  C   UNL A   1      46.962  27.750  35.130  1.00  0.00     0.040 A 
ATOM     72  C   UNL A   1      45.545  25.931  35.828  1.00  0.00     0.040 A 
ATOM     73  F   UNL A   1      43.295  25.877  35.169  1.00  0.00    -0.206 F 
ATOM     74  C   UNL A   1      46.795  26.546  35.816  1.00  0.00     0.006 A 
ENDBRANCH  53  67
BRANCH  54  75
ATOM     75  C   UNL A   1      36.954  31.377  29.219  1.00  0.00     0.057 A 
ATOM     76  C   UNL A   1      37.052  32.727  28.844  1.00  0.00     0.134 A 
ATOM     77  C   UNL A   1      35.782  30.715  28.835  1.00  0.00     0.134 A 
ATOM     78  F   UNL A   1      38.088  33.474  29.247  1.00  0.00    -0.206 F 
ATOM     79  C   UNL A   1      36.063  33.376  28.103  1.00  0.00     0.040 A 
ATOM     80  C   UNL A   1      34.788  31.345  28.076  1.00  0.00     0.040 A 
ATOM     81  F   UNL A   1      35.572  29.440  29.194  1.00  0.00    -0.206 F 
ATOM     82  C   UNL A   1      34.928  32.679  27.705  1.00  0.00     0.006 A 
ENDBRANCH  54  75
BRANCH  66  83
ATOM     83  C   UNL A   1      39.154  32.243  35.781  1.00  0.00     0.057 A 
ATOM     84  C   UNL A   1      38.313  31.719  36.772  1.00  0.00     0.134 A 
ATOM     85  C   UNL A   1      39.557  33.578  35.921  1.00  0.00     0.134 A 
ATOM     86  F   UNL A   1      37.886  30.449  36.700  1.00  0.00    -0.206 F 
ATOM     87  C   UNL A   1      37.867  32.498  37.842  1.00  0.00     0.040 A 
ATOM     88  C   UNL A   1      39.144  34.357  37.005  1.00  0.00     0.040 A 
ATOM     89  F   UNL A   1      40.374  34.144  35.022  1.00  0.00    -0.206 F 
ATOM     90  C   UNL A   1      38.289  33.819  37.965  1.00  0.00     0.006 A 
ENDBRANCH  66  83
ENDBRANCH  40  41
ENDBRANCH  33  35
ENDBRANCH  32  33
ENDBRANCH  31  32
ENDBRANCH  30  31
ENDBRANCH  29  30
ENDBRANCH  28  29
ENDBRANCH   1  28
TORSDOF 20
ENDMDL
MODEL 3
REMARK VINA RESULT:     -10.5      3.196      8.577
REMARK SMILES O=C(C[C@H]1SC[C@@H](C(=O)OCCOCCOCCOC(=O)c2ccc(-c3c4nc(c(-c5c(F)cccc5F)c5ccc([nH]5)c(-c5c(F)cccc5F)c5nc(c(-c6c(F)cccc6F)c6ccc3[nH]6)C=C5)C=C4)cc2)NC1=O)Nc1cccc(Cl)c1
REMARK SMILES IDX 14 1 13 2 12 3 11 4 10 5 8 6 9 7 7 8 4 9 5 10 77 11 6 12
REMARK SMILES IDX 76 13 78 14 3 16 2 17 1 18 79 19 80 21 81 22 86 23 82 24
REMARK SMILES IDX 84 25 83 26 85 27 15 28 16 29 17 30 18 31 19 32 20 33 21 34
REMARK SMILES IDX 22 35 23 36 75 37 24 38 74 39 25 40 26 41 27 42 68 43 28 44
REMARK SMILES IDX 73 45 67 46 69 47 29 48 72 49 66 50 65 51 30 53 56 54 39 55
REMARK SMILES IDX 55 56 40 57 43 58 54 59 70 60 41 61 42 62 53 64 71 65 44 66
REMARK SMILES IDX 31 67 32 68 37 69 33 70 34 71 36 72 38 73 35 74 57 75 58 76
REMARK SMILES IDX 63 77 59 78 60 79 62 80 64 81 61 82 45 83 46 84 51 85 47 86
REMARK SMILES IDX 48 87 50 88 52 89 49 90
REMARK H PARENT 76 15 79 20 69 52 43 63
REMARK Flexibility Score: inf
ROOT
ATOM      1  C   UNL A   1      34.463  28.930  27.069  1.00  0.00     0.188 C 
ENDROOT
BRANCH   1   2
ATOM      2  O   UNL A   1      34.589  28.943  25.651  1.00  0.00    -0.376 OA
BRANCH   2   3
ATOM      3  C   UNL A   1      33.568  28.305  24.881  1.00  0.00     0.202 C 
BRANCH   3   4
ATOM      4  C   UNL A   1      32.917  29.119  23.755  1.00  0.00     0.261 C 
BRANCH   4   5
ATOM      5  O   UNL A   1      31.469  29.133  23.804  1.00  0.00    -0.462 OA
BRANCH   5   6
ATOM      6  C   UNL A   1      30.865  28.817  22.634  1.00  0.00     0.329 C 
ATOM      7  O   UNL A   1      30.632  29.633  21.741  1.00  0.00    -0.250 OA
BRANCH   6   8
ATOM      8  C   UNL A   1      30.462  27.339  22.454  1.00  0.00     0.202 C 
ATOM      9  C   UNL A   1      32.426  24.985  23.081  1.00  0.00     0.145 C 
ATOM     10  S   UNL A   1      30.986  25.061  24.207  1.00  0.00    -0.145 SA
ATOM     11  C   UNL A   1      32.604  26.131  22.099  1.00  0.00     0.234 C 
ATOM     12  C   UNL A   1      30.025  26.515  23.655  1.00  0.00     0.107 C 
ATOM     13  N   UNL A   1      31.507  26.771  21.623  1.00  0.00    -0.341 N 
ATOM     14  O   UNL A   1      33.663  26.385  21.532  1.00  0.00    -0.274 OA
ATOM     15  H   UNL A   1      31.412  26.855  20.647  1.00  0.00     0.164 HD
BRANCH   9  16
ATOM     16  C   UNL A   1      33.643  24.637  23.943  1.00  0.00     0.124 C 
BRANCH  16  17
ATOM     17  C   UNL A   1      34.219  23.256  23.723  1.00  0.00     0.226 C 
ATOM     18  O   UNL A   1      34.751  22.962  22.657  1.00  0.00    -0.275 OA
ATOM     19  N   UNL A   1      34.173  22.462  24.850  1.00  0.00    -0.326 N 
ATOM     20  H   UNL A   1      33.746  22.813  25.665  1.00  0.00     0.169 HD
BRANCH  19  21
ATOM     21  C   UNL A   1      34.715  21.171  24.868  1.00  0.00     0.042 A 
ATOM     22  C   UNL A   1      36.089  20.965  25.012  1.00  0.00     0.026 A 
ATOM     23  C   UNL A   1      33.853  20.101  24.641  1.00  0.00     0.046 A 
ATOM     24  C   UNL A   1      36.604  19.677  24.865  1.00  0.00     0.004 A 
ATOM     25  C   UNL A   1      34.366  18.815  24.551  1.00  0.00     0.043 A 
ATOM     26  C   UNL A   1      35.739  18.604  24.626  1.00  0.00     0.020 A 
ATOM     27  Cl  UNL A   1      33.301  17.489  24.313  1.00  0.00    -0.084 Cl
ENDBRANCH  19  21
ENDBRANCH  16  17
ENDBRANCH   9  16
ENDBRANCH   6   8
ENDBRANCH   5   6
ENDBRANCH   4   5
ENDBRANCH   3   4
ENDBRANCH   2   3
ENDBRANCH   1   2
BRANCH   1  28
ATOM     28  C   UNL A   1      33.633  30.050  27.712  1.00  0.00     0.188 C 
BRANCH  28  29
ATOM     29  O   UNL A   1      33.455  31.187  26.887  1.00  0.00    -0.376 OA
BRANCH  29  30
ATOM     30  C   UNL A   1      32.171  31.799  26.908  1.00  0.00     0.202 C 
BRANCH  30  31
ATOM     31  C   UNL A   1      32.113  33.331  27.064  1.00  0.00     0.261 C 
BRANCH  31  32
ATOM     32  O   UNL A   1      32.216  33.818  28.417  1.00  0.00    -0.460 OA
BRANCH  32  33
ATOM     33  C   UNL A   1      33.206  34.695  28.678  1.00  0.00     0.338 C 
ATOM     34  O   UNL A   1      33.101  35.914  28.786  1.00  0.00    -0.246 OA
BRANCH  33  35
ATOM     35  C   UNL A   1      34.424  33.939  29.035  1.00  0.00     0.060 A 
ATOM     36  C   UNL A   1      34.287  32.876  29.930  1.00  0.00     0.016 A 
ATOM     37  C   UNL A   1      35.684  34.263  28.522  1.00  0.00     0.016 A 
ATOM     38  C   UNL A   1      35.401  32.121  30.296  1.00  0.00     0.010 A 
ATOM     39  C   UNL A   1      36.810  33.517  28.917  1.00  0.00     0.010 A 
ATOM     40  C   UNL A   1      36.676  32.438  29.808  1.00  0.00    -0.014 A 
BRANCH  40  41
ATOM     41  C   UNL A   1      37.845  31.717  30.382  1.00  0.00     0.031 A 
ATOM     42  C   UNL A   1      38.172  31.932  31.834  1.00  0.00     0.074 A 
ATOM     43  C   UNL A   1      38.516  30.776  29.686  1.00  0.00     0.049 A 
ATOM     44  N   UNL A   1      39.066  31.341  32.584  1.00  0.00    -0.248 NA
ATOM     45  C   UNL A   1      37.343  32.918  32.547  1.00  0.00     0.031 C 
ATOM     46  C   UNL A   1      38.183  30.344  28.334  1.00  0.00     0.029 A 
ATOM     47  N   UNL A   1      39.581  29.975  30.041  1.00  0.00    -0.354 N 
ATOM     48  C   UNL A   1      38.913  31.884  33.852  1.00  0.00     0.074 A 
ATOM     49  C   UNL A   1      37.826  32.837  33.778  1.00  0.00     0.031 C 
ATOM     50  C   UNL A   1      38.998  29.332  27.985  1.00  0.00     0.029 A 
ATOM     51  C   UNL A   1      39.946  29.069  29.069  1.00  0.00     0.049 A 
ATOM     52  H   UNL A   1      40.038  30.044  30.911  1.00  0.00     0.167 HD
ATOM     53  C   UNL A   1      39.626  31.631  34.974  1.00  0.00     0.037 A 
ATOM     54  C   UNL A   1      40.920  28.131  29.061  1.00  0.00     0.037 A 
ATOM     55  C   UNL A   1      40.730  30.712  35.048  1.00  0.00     0.049 A 
ATOM     56  C   UNL A   1      41.786  27.975  30.292  1.00  0.00     0.074 A 
ATOM     57  C   UNL A   1      41.572  30.464  36.118  1.00  0.00     0.029 A 
ATOM     58  N   UNL A   1      41.150  29.897  34.009  1.00  0.00    -0.354 N 
ATOM     59  N   UNL A   1      41.657  28.522  31.477  1.00  0.00    -0.248 NA
ATOM     60  C   UNL A   1      42.935  27.063  30.185  1.00  0.00     0.031 C 
ATOM     61  C   UNL A   1      42.540  29.542  35.707  1.00  0.00     0.029 A 
ATOM     62  C   UNL A   1      42.267  29.174  34.399  1.00  0.00     0.049 A 
ATOM     63  H   UNL A   1      40.720  29.839  33.125  1.00  0.00     0.167 HD
ATOM     64  C   UNL A   1      42.664  27.977  32.267  1.00  0.00     0.074 A 
ATOM     65  C   UNL A   1      43.387  27.044  31.431  1.00  0.00     0.031 C 
ATOM     66  C   UNL A   1      42.968  28.231  33.564  1.00  0.00     0.037 A 
BRANCH  53  67
ATOM     67  C   UNL A   1      39.294  32.449  36.184  1.00  0.00     0.057 A 
ATOM     68  C   UNL A   1      39.900  33.685  36.443  1.00  0.00     0.134 A 
ATOM     69  C   UNL A   1      38.354  31.980  37.111  1.00  0.00     0.134 A 
ATOM     70  F   UNL A   1      40.828  34.177  35.609  1.00  0.00    -0.206 F 
ATOM     71  C   UNL A   1      39.593  34.417  37.592  1.00  0.00     0.040 A 
ATOM     72  C   UNL A   1      38.025  32.710  38.251  1.00  0.00     0.040 A 
ATOM     73  F   UNL A   1      37.744  30.799  36.921  1.00  0.00    -0.206 F 
ATOM     74  C   UNL A   1      38.649  33.931  38.498  1.00  0.00     0.006 A 
ENDBRANCH  53  67
BRANCH  54  75
ATOM     75  C   UNL A   1      41.124  27.231  27.880  1.00  0.00     0.057 A 
ATOM     76  C   UNL A   1      41.936  27.608  26.797  1.00  0.00     0.134 A 
ATOM     77  C   UNL A   1      40.488  25.990  27.770  1.00  0.00     0.134 A 
ATOM     78  F   UNL A   1      42.509  28.818  26.762  1.00  0.00    -0.206 F 
ATOM     79  C   UNL A   1      42.132  26.789  25.684  1.00  0.00     0.040 A 
ATOM     80  C   UNL A   1      40.688  25.148  26.669  1.00  0.00     0.040 A 
ATOM     81  F   UNL A   1      39.650  25.568  28.728  1.00  0.00    -0.206 F 
ATOM     82  C   UNL A   1      41.515  25.545  25.623  1.00  0.00     0.006 A 
ENDBRANCH  54  75
BRANCH  66  83
ATOM     83  C   UNL A   1      44.123  27.482  34.172  1.00  0.00     0.057 A 
ATOM     84  C   UNL A   1      45.421  28.009  34.188  1.00  0.00     0.134 A 
ATOM     85  C   UNL A   1      43.927  26.244  34.800  1.00  0.00     0.134 A 
ATOM     86  F   UNL A   1      45.683  29.189  33.604  1.00  0.00    -0.206 F 
ATOM     87  C   UNL A   1      46.486  27.322  34.775  1.00  0.00     0.040 A 
ATOM     88  C   UNL A   1      44.977  25.562  35.419  1.00  0.00     0.040 A 
ATOM     89  F   UNL A   1      42.709  25.683  34.840  1.00  0.00    -0.206 F 
ATOM     90  C   UNL A   1      46.263  26.097  35.400  1.00  0.00     0.006 A 
ENDBRANCH  66  83
ENDBRANCH  40  41
ENDBRANCH  33  35
ENDBRANCH  32  33
ENDBRANCH  31  32
ENDBRANCH  30  31
ENDBRANCH  29  30
ENDBRANCH  28  29
ENDBRANCH   1  28
TORSDOF 20
ENDMDL
