MODEL 1
REMARK VINA RESULT:     -10.8      0.000      0.000
REMARK SMILES CCOc1ccc(-c2cnc(N)cc2C(=O)OCCOCCOCCOC(=O)c2ccc(-c3c4nc(c(-c5c(F)cccc5F)c5ccc([nH]5)c(-c5c(F)cccc5F)c5nc(c(-c6c(F)cccc6F)c6ccc3[nH]6)C=C5)C=C4)cc2)c(Cl)c1
REMARK SMILES IDX 21 1 20 2 19 3 18 4 17 5 15 6 16 7 14 8 8 9 9 10 10 11 13 12
REMARK SMILES IDX 11 13 7 14 4 15 5 16 85 17 6 18 83 19 84 20 3 21 2 22 1 23
REMARK SMILES IDX 12 24 22 27 23 28 24 29 25 30 26 31 27 32 28 33 29 34 30 35
REMARK SMILES IDX 82 36 31 37 81 38 32 39 33 40 34 41 75 42 35 43 80 44 74 45
REMARK SMILES IDX 76 46 36 47 79 48 73 49 72 50 37 52 63 53 46 54 62 55 47 56
REMARK SMILES IDX 50 57 61 58 77 59 48 60 49 61 60 63 78 64 51 65 38 66 39 67
REMARK SMILES IDX 44 68 40 69 41 70 43 71 45 72 42 73 64 74 65 75 70 76 66 77
REMARK SMILES IDX 67 78 69 79 71 80 68 81 52 82 53 83 58 84 54 85 55 86 57 87
REMARK SMILES IDX 59 88 56 89
REMARK H PARENT 12 25 12 26 76 51 50 62
REMARK Flexibility Score: inf
ROOT
ATOM      1  C   UNL A   1      40.226  21.076  26.628  1.00  0.00     0.188 C 
ENDROOT
BRANCH   1   2
ATOM      2  O   UNL A   1      39.464  21.834  25.722  1.00  0.00    -0.376 OA
BRANCH   2   3
ATOM      3  C   UNL A   1      38.188  22.330  26.071  1.00  0.00     0.202 C 
BRANCH   3   4
ATOM      4  C   UNL A   1      37.377  23.386  25.295  1.00  0.00     0.261 C 
BRANCH   4   5
ATOM      5  O   UNL A   1      35.947  23.298  25.292  1.00  0.00    -0.460 OA
BRANCH   5   6
ATOM      6  C   UNL A   1      35.322  23.678  24.146  1.00  0.00     0.339 C 
ATOM      7  O   UNL A   1      35.658  23.373  23.014  1.00  0.00    -0.246 OA
BRANCH   6   8
ATOM      8  C   UNL A   1      34.125  24.512  24.452  1.00  0.00     0.073 A 
ATOM      9  C   UNL A   1      32.823  24.006  24.264  1.00  0.00     0.016 A 
ATOM     10  C   UNL A   1      31.778  24.881  24.534  1.00  0.00     0.123 A 
ATOM     11  N   UNL A   1      31.939  26.142  24.996  1.00  0.00    -0.239 NA
ATOM     12  C   UNL A   1      34.305  25.806  24.949  1.00  0.00     0.062 A 
ATOM     13  C   UNL A   1      33.189  26.576  25.218  1.00  0.00     0.124 A 
BRANCH   9  14
ATOM     14  C   UNL A   1      32.555  22.575  24.092  1.00  0.00     0.003 A 
ATOM     15  C   UNL A   1      32.439  19.776  23.813  1.00  0.00     0.120 A 
ATOM     16  C   UNL A   1      32.114  20.607  22.744  1.00  0.00     0.047 A 
ATOM     17  C   UNL A   1      32.726  20.345  25.047  1.00  0.00     0.067 A 
ATOM     18  C   UNL A   1      32.220  22.000  22.866  1.00  0.00     0.014 A 
ATOM     19  C   UNL A   1      32.667  21.722  25.197  1.00  0.00     0.052 A 
ATOM     20  Cl  UNL A   1      32.596  22.373  26.790  1.00  0.00    -0.084 Cl
BRANCH  15  21
ATOM     21  O   UNL A   1      32.303  18.421  23.824  1.00  0.00    -0.494 OA
BRANCH  21  22
ATOM     22  C   UNL A   1      32.932  17.646  22.808  1.00  0.00     0.226 C 
ATOM     23  C   UNL A   1      34.131  16.859  23.306  1.00  0.00     0.049 C 
ENDBRANCH  21  22
ENDBRANCH  15  21
ENDBRANCH   9  14
BRANCH  13  24
ATOM     24  N   UNL A   1      33.303  27.807  25.822  1.00  0.00    -0.384 N 
ATOM     25  H   UNL A   1      33.095  28.625  25.315  1.00  0.00     0.158 HD
ATOM     26  H   UNL A   1      33.593  27.870  26.761  1.00  0.00     0.158 HD
ENDBRANCH  13  24
ENDBRANCH   6   8
ENDBRANCH   5   6
ENDBRANCH   4   5
ENDBRANCH   3   4
ENDBRANCH   2   3
ENDBRANCH   1   2
BRANCH   1  27
ATOM     27  C   UNL A   1      40.938  19.799  26.131  1.00  0.00     0.188 C 
BRANCH  27  28
ATOM     28  O   UNL A   1      42.252  19.870  25.608  1.00  0.00    -0.376 OA
BRANCH  28  29
ATOM     29  C   UNL A   1      43.072  20.962  25.982  1.00  0.00     0.202 C 
BRANCH  29  30
ATOM     30  C   UNL A   1      43.880  21.710  24.912  1.00  0.00     0.261 C 
BRANCH  30  31
ATOM     31  O   UNL A   1      43.344  22.977  24.486  1.00  0.00    -0.460 OA
BRANCH  31  32
ATOM     32  C   UNL A   1      44.076  24.066  24.848  1.00  0.00     0.338 C 
ATOM     33  O   UNL A   1      45.174  24.373  24.425  1.00  0.00    -0.246 OA
BRANCH  32  34
ATOM     34  C   UNL A   1      43.318  24.939  25.781  1.00  0.00     0.060 A 
ATOM     35  C   UNL A   1      43.843  26.208  26.048  1.00  0.00     0.016 A 
ATOM     36  C   UNL A   1      42.158  24.523  26.441  1.00  0.00     0.016 A 
ATOM     37  C   UNL A   1      43.205  27.071  26.947  1.00  0.00     0.010 A 
ATOM     38  C   UNL A   1      41.545  25.370  27.384  1.00  0.00     0.010 A 
ATOM     39  C   UNL A   1      42.071  26.646  27.651  1.00  0.00    -0.014 A 
BRANCH  39  40
ATOM     40  C   UNL A   1      41.597  27.463  28.806  1.00  0.00     0.031 A 
ATOM     41  C   UNL A   1      42.346  27.356  30.096  1.00  0.00     0.074 A 
ATOM     42  C   UNL A   1      40.583  28.342  28.719  1.00  0.00     0.049 A 
ATOM     43  N   UNL A   1      42.164  28.015  31.210  1.00  0.00    -0.248 NA
ATOM     44  C   UNL A   1      43.464  26.402  30.126  1.00  0.00     0.031 C 
ATOM     45  C   UNL A   1      39.840  28.607  27.506  1.00  0.00     0.029 A 
ATOM     46  N   UNL A   1      40.003  29.180  29.641  1.00  0.00    -0.354 N 
ATOM     47  C   UNL A   1      43.166  27.583  32.062  1.00  0.00     0.074 A 
ATOM     48  C   UNL A   1      43.929  26.579  31.352  1.00  0.00     0.031 C 
ATOM     49  C   UNL A   1      38.893  29.527  27.740  1.00  0.00     0.029 A 
ATOM     50  C   UNL A   1      38.935  29.895  29.144  1.00  0.00     0.049 A 
ATOM     51  H   UNL A   1      40.321  29.263  30.570  1.00  0.00     0.167 HD
ATOM     52  C   UNL A   1      43.430  27.996  33.322  1.00  0.00     0.037 A 
ATOM     53  C   UNL A   1      38.074  30.739  29.745  1.00  0.00     0.037 A 
ATOM     54  C   UNL A   1      42.627  28.943  34.047  1.00  0.00     0.049 A 
ATOM     55  C   UNL A   1      38.293  31.063  31.193  1.00  0.00     0.074 A 
ATOM     56  C   UNL A   1      42.782  29.381  35.350  1.00  0.00     0.029 A 
ATOM     57  N   UNL A   1      41.501  29.580  33.543  1.00  0.00    -0.354 N 
ATOM     58  N   UNL A   1      39.250  30.653  31.989  1.00  0.00    -0.248 NA
ATOM     59  C   UNL A   1      37.333  31.977  31.826  1.00  0.00     0.031 C 
ATOM     60  C   UNL A   1      41.715  30.234  35.653  1.00  0.00     0.029 A 
ATOM     61  C   UNL A   1      40.935  30.385  34.518  1.00  0.00     0.049 A 
ATOM     62  H   UNL A   1      41.156  29.474  32.626  1.00  0.00     0.167 HD
ATOM     63  C   UNL A   1      39.038  31.292  33.201  1.00  0.00     0.074 A 
ATOM     64  C   UNL A   1      37.860  32.119  33.034  1.00  0.00     0.031 C 
ATOM     65  C   UNL A   1      39.764  31.208  34.340  1.00  0.00     0.037 A 
BRANCH  52  66
ATOM     66  C   UNL A   1      44.607  27.363  33.996  1.00  0.00     0.057 A 
ATOM     67  C   UNL A   1      44.494  26.154  34.698  1.00  0.00     0.134 A 
ATOM     68  C   UNL A   1      45.859  27.987  33.974  1.00  0.00     0.134 A 
ATOM     69  F   UNL A   1      43.313  25.523  34.781  1.00  0.00    -0.206 F 
ATOM     70  C   UNL A   1      45.581  25.604  35.378  1.00  0.00     0.040 A 
ATOM     71  C   UNL A   1      46.959  27.432  34.627  1.00  0.00     0.040 A 
ATOM     72  F   UNL A   1      46.029  29.150  33.329  1.00  0.00    -0.206 F 
ATOM     73  C   UNL A   1      46.820  26.242  35.339  1.00  0.00     0.006 A 
ENDBRANCH  52  66
BRANCH  53  74
ATOM     74  C   UNL A   1      36.921  31.320  29.001  1.00  0.00     0.057 A 
ATOM     75  C   UNL A   1      36.914  32.655  28.578  1.00  0.00     0.134 A 
ATOM     76  C   UNL A   1      35.769  30.564  28.743  1.00  0.00     0.134 A 
ATOM     77  F   UNL A   1      37.972  33.443  28.815  1.00  0.00    -0.206 F 
ATOM     78  C   UNL A   1      35.801  33.223  27.951  1.00  0.00     0.040 A 
ATOM     79  C   UNL A   1      34.656  31.113  28.099  1.00  0.00     0.040 A 
ATOM     80  F   UNL A   1      35.703  29.278  29.115  1.00  0.00    -0.206 F 
ATOM     81  C   UNL A   1      34.668  32.450  27.709  1.00  0.00     0.006 A 
ENDBRANCH  53  74
BRANCH  65  82
ATOM     82  C   UNL A   1      39.338  32.079  35.486  1.00  0.00     0.057 A 
ATOM     83  C   UNL A   1      39.762  33.407  35.615  1.00  0.00     0.134 A 
ATOM     84  C   UNL A   1      38.462  31.581  36.460  1.00  0.00     0.134 A 
ATOM     85  F   UNL A   1      40.613  33.940  34.725  1.00  0.00    -0.206 F 
ATOM     86  C   UNL A   1      39.353  34.201  36.687  1.00  0.00     0.040 A 
ATOM     87  C   UNL A   1      38.020  32.375  37.518  1.00  0.00     0.040 A 
ATOM     88  F   UNL A   1      38.014  30.319  36.393  1.00  0.00    -0.206 F 
ATOM     89  C   UNL A   1      38.473  33.687  37.638  1.00  0.00     0.006 A 
ENDBRANCH  65  82
ENDBRANCH  39  40
ENDBRANCH  32  34
ENDBRANCH  31  32
ENDBRANCH  30  31
ENDBRANCH  29  30
ENDBRANCH  28  29
ENDBRANCH  27  28
ENDBRANCH   1  27
TORSDOF 21
ENDMDL
MODEL 2
REMARK VINA RESULT:     -10.7      1.708      3.261
REMARK SMILES CCOc1ccc(-c2cnc(N)cc2C(=O)OCCOCCOCCOC(=O)c2ccc(-c3c4nc(c(-c5c(F)cccc5F)c5ccc([nH]5)c(-c5c(F)cccc5F)c5nc(c(-c6c(F)cccc6F)c6ccc3[nH]6)C=C5)C=C4)cc2)c(Cl)c1
REMARK SMILES IDX 21 1 20 2 19 3 18 4 17 5 15 6 16 7 14 8 8 9 9 10 10 11 13 12
REMARK SMILES IDX 11 13 7 14 4 15 5 16 85 17 6 18 83 19 84 20 3 21 2 22 1 23
REMARK SMILES IDX 12 24 22 27 23 28 24 29 25 30 26 31 27 32 28 33 29 34 30 35
REMARK SMILES IDX 82 36 31 37 81 38 32 39 33 40 34 41 75 42 35 43 80 44 74 45
REMARK SMILES IDX 76 46 36 47 79 48 73 49 72 50 37 52 63 53 46 54 62 55 47 56
REMARK SMILES IDX 50 57 61 58 77 59 48 60 49 61 60 63 78 64 51 65 38 66 39 67
REMARK SMILES IDX 44 68 40 69 41 70 43 71 45 72 42 73 64 74 65 75 70 76 66 77
REMARK SMILES IDX 67 78 69 79 71 80 68 81 52 82 53 83 58 84 54 85 55 86 57 87
REMARK SMILES IDX 59 88 56 89
REMARK H PARENT 12 25 12 26 76 51 50 62
REMARK Flexibility Score: inf
ROOT
ATOM      1  C   UNL A   1      40.043  21.976  26.672  1.00  0.00     0.188 C 
ENDROOT
BRANCH   1   2
ATOM      2  O   UNL A   1      38.898  21.686  25.910  1.00  0.00    -0.376 OA
BRANCH   2   3
ATOM      3  C   UNL A   1      37.856  22.628  25.764  1.00  0.00     0.202 C 
BRANCH   3   4
ATOM      4  C   UNL A   1      36.480  22.373  25.118  1.00  0.00     0.261 C 
BRANCH   4   5
ATOM      5  O   UNL A   1      35.974  21.034  25.070  1.00  0.00    -0.460 OA
BRANCH   5   6
ATOM      6  C   UNL A   1      34.730  20.839  25.581  1.00  0.00     0.339 C 
ATOM      7  O   UNL A   1      34.312  21.291  26.635  1.00  0.00    -0.246 OA
BRANCH   6   8
ATOM      8  C   UNL A   1      33.906  20.007  24.660  1.00  0.00     0.073 A 
ATOM      9  C   UNL A   1      32.887  20.587  23.878  1.00  0.00     0.016 A 
ATOM     10  C   UNL A   1      32.147  19.716  23.087  1.00  0.00     0.123 A 
ATOM     11  N   UNL A   1      32.374  18.386  22.998  1.00  0.00    -0.239 NA
ATOM     12  C   UNL A   1      34.167  18.637  24.561  1.00  0.00     0.062 A 
ATOM     13  C   UNL A   1      33.388  17.872  23.713  1.00  0.00     0.124 A 
BRANCH   9  14
ATOM     14  C   UNL A   1      32.792  22.034  23.661  1.00  0.00     0.003 A 
ATOM     15  C   UNL A   1      32.267  24.731  23.047  1.00  0.00     0.120 A 
ATOM     16  C   UNL A   1      33.380  24.088  22.513  1.00  0.00     0.047 A 
ATOM     17  C   UNL A   1      31.474  24.054  23.966  1.00  0.00     0.067 A 
ATOM     18  C   UNL A   1      33.616  22.731  22.777  1.00  0.00     0.014 A 
ATOM     19  C   UNL A   1      31.812  22.764  24.344  1.00  0.00     0.052 A 
ATOM     20  Cl  UNL A   1      31.097  22.111  25.768  1.00  0.00    -0.084 Cl
BRANCH  15  21
ATOM     21  O   UNL A   1      31.985  26.057  22.914  1.00  0.00    -0.494 OA
BRANCH  21  22
ATOM     22  C   UNL A   1      33.004  26.947  22.471  1.00  0.00     0.226 C 
ATOM     23  C   UNL A   1      33.513  27.872  23.561  1.00  0.00     0.049 C 
ENDBRANCH  21  22
ENDBRANCH  15  21
ENDBRANCH   9  14
BRANCH  13  24
ATOM     24  N   UNL A   1      33.677  16.546  23.484  1.00  0.00    -0.384 N 
ATOM     25  H   UNL A   1      33.016  15.968  23.040  1.00  0.00     0.158 HD
ATOM     26  H   UNL A   1      34.546  16.177  23.765  1.00  0.00     0.158 HD
ENDBRANCH  13  24
ENDBRANCH   6   8
ENDBRANCH   5   6
ENDBRANCH   4   5
ENDBRANCH   3   4
ENDBRANCH   2   3
ENDBRANCH   1   2
BRANCH   1  27
ATOM     27  C   UNL A   1      41.042  20.843  26.994  1.00  0.00     0.188 C 
BRANCH  27  28
ATOM     28  O   UNL A   1      42.436  21.092  26.978  1.00  0.00    -0.376 OA
BRANCH  28  29
ATOM     29  C   UNL A   1      43.157  20.829  25.787  1.00  0.00     0.202 C 
BRANCH  29  30
ATOM     30  C   UNL A   1      44.078  21.908  25.201  1.00  0.00     0.261 C 
BRANCH  30  31
ATOM     31  O   UNL A   1      43.438  23.131  24.791  1.00  0.00    -0.460 OA
BRANCH  31  32
ATOM     32  C   UNL A   1      44.122  24.270  25.084  1.00  0.00     0.338 C 
ATOM     33  O   UNL A   1      45.185  24.619  24.606  1.00  0.00    -0.246 OA
BRANCH  32  34
ATOM     34  C   UNL A   1      43.355  25.136  26.016  1.00  0.00     0.060 A 
ATOM     35  C   UNL A   1      43.888  26.395  26.314  1.00  0.00     0.016 A 
ATOM     36  C   UNL A   1      42.177  24.722  26.646  1.00  0.00     0.016 A 
ATOM     37  C   UNL A   1      43.241  27.250  27.214  1.00  0.00     0.010 A 
ATOM     38  C   UNL A   1      41.555  25.560  27.590  1.00  0.00     0.010 A 
ATOM     39  C   UNL A   1      42.089  26.826  27.889  1.00  0.00    -0.014 A 
BRANCH  39  40
ATOM     40  C   UNL A   1      41.600  27.630  29.047  1.00  0.00     0.031 A 
ATOM     41  C   UNL A   1      42.338  27.514  30.343  1.00  0.00     0.074 A 
ATOM     42  C   UNL A   1      40.582  28.504  28.960  1.00  0.00     0.049 A 
ATOM     43  N   UNL A   1      42.143  28.161  31.461  1.00  0.00    -0.248 NA
ATOM     44  C   UNL A   1      43.461  26.565  30.373  1.00  0.00     0.031 C 
ATOM     45  C   UNL A   1      39.848  28.776  27.743  1.00  0.00     0.029 A 
ATOM     46  N   UNL A   1      39.990  29.330  29.885  1.00  0.00    -0.354 N 
ATOM     47  C   UNL A   1      43.140  27.726  32.317  1.00  0.00     0.074 A 
ATOM     48  C   UNL A   1      43.914  26.733  31.605  1.00  0.00     0.031 C 
ATOM     49  C   UNL A   1      38.894  29.690  27.977  1.00  0.00     0.029 A 
ATOM     50  C   UNL A   1      38.923  30.044  29.385  1.00  0.00     0.049 A 
ATOM     51  H   UNL A   1      40.299  29.406  30.816  1.00  0.00     0.167 HD
ATOM     52  C   UNL A   1      43.391  28.129  33.584  1.00  0.00     0.037 A 
ATOM     53  C   UNL A   1      38.051  30.878  29.986  1.00  0.00     0.037 A 
ATOM     54  C   UNL A   1      42.576  29.065  34.311  1.00  0.00     0.049 A 
ATOM     55  C   UNL A   1      38.256  31.188  31.439  1.00  0.00     0.074 A 
ATOM     56  C   UNL A   1      42.717  29.491  35.619  1.00  0.00     0.029 A 
ATOM     57  N   UNL A   1      41.451  29.700  33.803  1.00  0.00    -0.354 N 
ATOM     58  N   UNL A   1      39.208  30.776  32.240  1.00  0.00    -0.248 NA
ATOM     59  C   UNL A   1      37.286  32.091  32.073  1.00  0.00     0.031 C 
ATOM     60  C   UNL A   1      41.643  30.335  35.921  1.00  0.00     0.029 A 
ATOM     61  C   UNL A   1      40.872  30.493  34.780  1.00  0.00     0.049 A 
ATOM     62  H   UNL A   1      41.114  29.601  32.882  1.00  0.00     0.167 HD
ATOM     63  C   UNL A   1      38.982  31.402  33.455  1.00  0.00     0.074 A 
ATOM     64  C   UNL A   1      37.801  32.225  33.287  1.00  0.00     0.031 C 
ATOM     65  C   UNL A   1      39.699  31.311  34.601  1.00  0.00     0.037 A 
BRANCH  52  66
ATOM     66  C   UNL A   1      44.565  27.495  34.263  1.00  0.00     0.057 A 
ATOM     67  C   UNL A   1      45.843  28.070  34.218  1.00  0.00     0.134 A 
ATOM     68  C   UNL A   1      44.423  26.278  34.937  1.00  0.00     0.134 A 
ATOM     69  F   UNL A   1      46.050  29.221  33.560  1.00  0.00    -0.206 F 
ATOM     70  C   UNL A   1      46.944  27.439  34.798  1.00  0.00     0.040 A 
ATOM     71  C   UNL A   1      45.511  25.653  35.545  1.00  0.00     0.040 A 
ATOM     72  F   UNL A   1      43.228  25.673  35.007  1.00  0.00    -0.206 F 
ATOM     73  C   UNL A   1      46.778  26.229  35.469  1.00  0.00     0.006 A 
ENDBRANCH  52  66
BRANCH  53  74
ATOM     74  C   UNL A   1      36.901  31.459  29.237  1.00  0.00     0.057 A 
ATOM     75  C   UNL A   1      35.768  30.700  28.922  1.00  0.00     0.134 A 
ATOM     76  C   UNL A   1      36.936  32.779  28.768  1.00  0.00     0.134 A 
ATOM     77  F   UNL A   1      35.681  29.422  29.317  1.00  0.00    -0.206 F 
ATOM     78  C   UNL A   1      34.725  31.220  28.150  1.00  0.00     0.040 A 
ATOM     79  C   UNL A   1      35.890  33.320  28.012  1.00  0.00     0.040 A 
ATOM     80  F   UNL A   1      37.986  33.568  29.033  1.00  0.00    -0.206 F 
ATOM     81  C   UNL A   1      34.784  32.536  27.695  1.00  0.00     0.006 A 
ENDBRANCH  53  74
BRANCH  65  82
ATOM     82  C   UNL A   1      39.258  32.169  35.751  1.00  0.00     0.057 A 
ATOM     83  C   UNL A   1      39.695  33.489  35.911  1.00  0.00     0.134 A 
ATOM     84  C   UNL A   1      38.355  31.666  36.697  1.00  0.00     0.134 A 
ATOM     85  F   UNL A   1      40.571  34.026  35.048  1.00  0.00    -0.206 F 
ATOM     86  C   UNL A   1      39.271  34.271  36.987  1.00  0.00     0.040 A 
ATOM     87  C   UNL A   1      37.899  32.449  37.758  1.00  0.00     0.040 A 
ATOM     88  F   UNL A   1      37.893  30.411  36.600  1.00  0.00    -0.206 F 
ATOM     89  C   UNL A   1      38.364  33.753  37.909  1.00  0.00     0.006 A 
ENDBRANCH  65  82
ENDBRANCH  39  40
ENDBRANCH  32  34
ENDBRANCH  31  32
ENDBRANCH  30  31
ENDBRANCH  29  30
ENDBRANCH  28  29
ENDBRANCH  27  28
ENDBRANCH   1  27
TORSDOF 21
ENDMDL
MODEL 3
REMARK VINA RESULT:     -10.5      1.807      6.754
REMARK SMILES CCOc1ccc(-c2cnc(N)cc2C(=O)OCCOCCOCCOC(=O)c2ccc(-c3c4nc(c(-c5c(F)cccc5F)c5ccc([nH]5)c(-c5c(F)cccc5F)c5nc(c(-c6c(F)cccc6F)c6ccc3[nH]6)C=C5)C=C4)cc2)c(Cl)c1
REMARK SMILES IDX 21 1 20 2 19 3 18 4 17 5 15 6 16 7 14 8 8 9 9 10 10 11 13 12
REMARK SMILES IDX 11 13 7 14 4 15 5 16 85 17 6 18 83 19 84 20 3 21 2 22 1 23
REMARK SMILES IDX 12 24 22 27 23 28 24 29 25 30 26 31 27 32 28 33 29 34 30 35
REMARK SMILES IDX 82 36 31 37 81 38 32 39 33 40 34 41 75 42 35 43 80 44 74 45
REMARK SMILES IDX 76 46 36 47 79 48 73 49 72 50 37 52 63 53 46 54 62 55 47 56
REMARK SMILES IDX 50 57 61 58 77 59 48 60 49 61 60 63 78 64 51 65 38 66 39 67
REMARK SMILES IDX 44 68 40 69 41 70 43 71 45 72 42 73 64 74 65 75 70 76 66 77
REMARK SMILES IDX 67 78 69 79 71 80 68 81 52 82 53 83 58 84 54 85 55 86 57 87
REMARK SMILES IDX 59 88 56 89
REMARK H PARENT 12 25 12 26 76 51 50 62
REMARK Flexibility Score: inf
ROOT
ATOM      1  C   UNL A   1      39.804  22.350  26.822  1.00  0.00     0.188 C 
ENDROOT
BRANCH   1   2
ATOM      2  O   UNL A   1      38.716  22.037  25.988  1.00  0.00    -0.376 OA
BRANCH   2   3
ATOM      3  C   UNL A   1      37.663  22.954  25.779  1.00  0.00     0.202 C 
BRANCH   3   4
ATOM      4  C   UNL A   1      36.304  22.647  25.120  1.00  0.00     0.261 C 
BRANCH   4   5
ATOM      5  O   UNL A   1      35.898  21.282  24.969  1.00  0.00    -0.460 OA
BRANCH   5   6
ATOM      6  C   UNL A   1      34.718  20.936  25.547  1.00  0.00     0.339 C 
ATOM      7  O   UNL A   1      34.329  21.292  26.647  1.00  0.00    -0.246 OA
BRANCH   6   8
ATOM      8  C   UNL A   1      33.921  20.066  24.636  1.00  0.00     0.073 A 
ATOM      9  C   UNL A   1      32.873  20.600  23.859  1.00  0.00     0.016 A 
ATOM     10  C   UNL A   1      32.164  19.695  23.078  1.00  0.00     0.123 A 
ATOM     11  N   UNL A   1      32.445  18.375  22.994  1.00  0.00    -0.239 NA
ATOM     12  C   UNL A   1      34.237  18.708  24.541  1.00  0.00     0.062 A 
ATOM     13  C   UNL A   1      33.484  17.907  23.702  1.00  0.00     0.124 A 
BRANCH   9  14
ATOM     14  C   UNL A   1      32.717  22.041  23.636  1.00  0.00     0.003 A 
ATOM     15  C   UNL A   1      32.072  24.711  23.023  1.00  0.00     0.120 A 
ATOM     16  C   UNL A   1      33.192  24.107  22.459  1.00  0.00     0.047 A 
ATOM     17  C   UNL A   1      31.332  24.011  23.968  1.00  0.00     0.067 A 
ATOM     18  C   UNL A   1      33.487  22.762  22.724  1.00  0.00     0.014 A 
ATOM     19  C   UNL A   1      31.730  22.737  24.343  1.00  0.00     0.052 A 
ATOM     20  Cl  UNL A   1      31.082  22.068  25.793  1.00  0.00    -0.084 Cl
BRANCH  15  21
ATOM     21  O   UNL A   1      31.737  26.024  22.890  1.00  0.00    -0.494 OA
BRANCH  21  22
ATOM     22  C   UNL A   1      31.664  26.849  24.048  1.00  0.00     0.226 C 
ATOM     23  C   UNL A   1      30.492  27.813  24.031  1.00  0.00     0.049 C 
ENDBRANCH  21  22
ENDBRANCH  15  21
ENDBRANCH   9  14
BRANCH  13  24
ATOM     24  N   UNL A   1      33.826  16.593  23.477  1.00  0.00    -0.384 N 
ATOM     25  H   UNL A   1      33.919  15.972  24.236  1.00  0.00     0.158 HD
ATOM     26  H   UNL A   1      33.978  16.274  22.558  1.00  0.00     0.158 HD
ENDBRANCH  13  24
ENDBRANCH   6   8
ENDBRANCH   5   6
ENDBRANCH   4   5
ENDBRANCH   3   4
ENDBRANCH   2   3
ENDBRANCH   1   2
BRANCH   1  27
ATOM     27  C   UNL A   1      40.786  21.232  27.234  1.00  0.00     0.188 C 
BRANCH  27  28
ATOM     28  O   UNL A   1      42.182  21.469  27.230  1.00  0.00    -0.376 OA
BRANCH  28  29
ATOM     29  C   UNL A   1      42.927  21.111  26.079  1.00  0.00     0.202 C 
BRANCH  29  30
ATOM     30  C   UNL A   1      43.811  22.159  25.389  1.00  0.00     0.261 C 
BRANCH  30  31
ATOM     31  O   UNL A   1      43.154  23.378  24.990  1.00  0.00    -0.460 OA
BRANCH  31  32
ATOM     32  C   UNL A   1      43.870  24.516  25.196  1.00  0.00     0.338 C 
ATOM     33  O   UNL A   1      44.879  24.853  24.606  1.00  0.00    -0.246 OA
BRANCH  32  34
ATOM     34  C   UNL A   1      43.209  25.397  26.193  1.00  0.00     0.060 A 
ATOM     35  C   UNL A   1      43.851  26.597  26.520  1.00  0.00     0.016 A 
ATOM     36  C   UNL A   1      42.026  25.049  26.852  1.00  0.00     0.016 A 
ATOM     37  C   UNL A   1      43.307  27.460  27.479  1.00  0.00     0.010 A 
ATOM     38  C   UNL A   1      41.507  25.890  27.853  1.00  0.00     0.010 A 
ATOM     39  C   UNL A   1      42.150  27.097  28.182  1.00  0.00    -0.014 A 
BRANCH  39  40
ATOM     40  C   UNL A   1      41.770  27.884  29.390  1.00  0.00     0.031 A 
ATOM     41  C   UNL A   1      40.590  28.799  29.290  1.00  0.00     0.074 A 
ATOM     42  C   UNL A   1      42.386  27.754  30.579  1.00  0.00     0.049 A 
ATOM     43  N   UNL A   1      40.034  29.528  30.220  1.00  0.00    -0.248 NA
ATOM     44  C   UNL A   1      39.937  28.881  27.976  1.00  0.00     0.031 C 
ATOM     45  C   UNL A   1      43.477  26.838  30.831  1.00  0.00     0.029 A 
ATOM     46  N   UNL A   1      42.193  28.367  31.794  1.00  0.00    -0.354 N 
ATOM     47  C   UNL A   1      38.942  30.127  29.615  1.00  0.00     0.074 A 
ATOM     48  C   UNL A   1      38.937  29.709  28.230  1.00  0.00     0.031 C 
ATOM     49  C   UNL A   1      43.879  26.942  32.106  1.00  0.00     0.029 A 
ATOM     50  C   UNL A   1      43.092  27.972  32.761  1.00  0.00     0.049 A 
ATOM     51  H   UNL A   1      41.481  29.026  31.958  1.00  0.00     0.167 HD
ATOM     52  C   UNL A   1      38.021  30.947  30.171  1.00  0.00     0.037 A 
ATOM     53  C   UNL A   1      43.279  28.396  34.026  1.00  0.00     0.037 A 
ATOM     54  C   UNL A   1      38.071  31.415  31.530  1.00  0.00     0.049 A 
ATOM     55  C   UNL A   1      42.337  29.427  34.574  1.00  0.00     0.074 A 
ATOM     56  C   UNL A   1      37.215  32.294  32.167  1.00  0.00     0.029 A 
ATOM     57  N   UNL A   1      39.046  31.065  32.455  1.00  0.00    -0.354 N 
ATOM     58  N   UNL A   1      41.302  29.983  33.994  1.00  0.00    -0.248 NA
ATOM     59  C   UNL A   1      42.571  29.879  35.952  1.00  0.00     0.031 C 
ATOM     60  C   UNL A   1      37.706  32.524  33.457  1.00  0.00     0.029 A 
ATOM     61  C   UNL A   1      38.827  31.732  33.649  1.00  0.00     0.049 A 
ATOM     62  H   UNL A   1      39.783  30.434  32.286  1.00  0.00     0.167 HD
ATOM     63  C   UNL A   1      40.732  30.813  34.946  1.00  0.00     0.074 A 
ATOM     64  C   UNL A   1      41.538  30.687  36.144  1.00  0.00     0.031 C 
ATOM     65  C   UNL A   1      39.633  31.597  34.837  1.00  0.00     0.037 A 
BRANCH  52  66
ATOM     66  C   UNL A   1      36.926  31.425  29.269  1.00  0.00     0.057 A 
ATOM     67  C   UNL A   1      36.915  32.726  28.747  1.00  0.00     0.134 A 
ATOM     68  C   UNL A   1      35.853  30.587  28.949  1.00  0.00     0.134 A 
ATOM     69  F   UNL A   1      37.901  33.588  29.043  1.00  0.00    -0.206 F 
ATOM     70  C   UNL A   1      35.858  33.184  27.960  1.00  0.00     0.040 A 
ATOM     71  C   UNL A   1      34.805  31.025  28.140  1.00  0.00     0.040 A 
ATOM     72  F   UNL A   1      35.801  29.334  29.426  1.00  0.00    -0.206 F 
ATOM     73  C   UNL A   1      34.801  32.330  27.651  1.00  0.00     0.006 A 
ENDBRANCH  52  66
BRANCH  53  74
ATOM     74  C   UNL A   1      44.402  27.872  34.854  1.00  0.00     0.057 A 
ATOM     75  C   UNL A   1      45.688  28.423  34.783  1.00  0.00     0.134 A 
ATOM     76  C   UNL A   1      44.227  26.767  35.698  1.00  0.00     0.134 A 
ATOM     77  F   UNL A   1      45.932  29.464  33.976  1.00  0.00    -0.206 F 
ATOM     78  C   UNL A   1      46.760  27.881  35.499  1.00  0.00     0.040 A 
ATOM     79  C   UNL A   1      45.286  26.228  36.435  1.00  0.00     0.040 A 
ATOM     80  F   UNL A   1      43.023  26.189  35.820  1.00  0.00    -0.206 F 
ATOM     81  C   UNL A   1      46.559  26.781  36.329  1.00  0.00     0.006 A 
ENDBRANCH  53  74
BRANCH  65  82
ATOM     82  C   UNL A   1      39.200  32.339  36.068  1.00  0.00     0.057 A 
ATOM     83  C   UNL A   1      39.630  33.642  36.346  1.00  0.00     0.134 A 
ATOM     84  C   UNL A   1      38.313  31.741  36.974  1.00  0.00     0.134 A 
ATOM     85  F   UNL A   1      40.491  34.265  35.528  1.00  0.00    -0.206 F 
ATOM     86  C   UNL A   1      39.214  34.316  37.496  1.00  0.00     0.040 A 
ATOM     87  C   UNL A   1      37.865  32.417  38.108  1.00  0.00     0.040 A 
ATOM     88  F   UNL A   1      37.859  30.497  36.764  1.00  0.00    -0.206 F 
ATOM     89  C   UNL A   1      38.323  33.705  38.376  1.00  0.00     0.006 A 
ENDBRANCH  65  82
ENDBRANCH  39  40
ENDBRANCH  32  34
ENDBRANCH  31  32
ENDBRANCH  30  31
ENDBRANCH  29  30
ENDBRANCH  28  29
ENDBRANCH  27  28
ENDBRANCH   1  27
TORSDOF 21
ENDMDL
