MODEL 1
REMARK VINA RESULT:     -10.3      0.000      0.000
REMARK SMILES CC(C)[C@@H](Cc1nc2ccccc2n1C)C(=O)OCCOCCOCCOC(=O)c1ccc(-c2c3nc(c(-c4c(F)cccc4F)c4ccc([nH]4)c(-c4c(F)cccc4F)c4nc(c(-c5c(F)cccc5F)c5ccc2[nH]5)C=C4)C=C3)cc1
REMARK SMILES IDX 22 1 21 2 20 3 19 4 18 5 16 6 17 7 4 8 2 9 1 10 3 11 5 12
REMARK SMILES IDX 6 13 7 14 14 15 8 16 13 17 15 18 9 19 12 20 10 21 11 22
REMARK SMILES IDX 23 23 24 24 25 25 26 26 27 27 28 28 29 29 30 30 31 31 83 32
REMARK SMILES IDX 32 33 82 34 33 35 34 36 35 37 76 38 36 39 81 40 75 41 77 42
REMARK SMILES IDX 37 43 80 44 74 45 73 46 38 48 64 49 47 50 63 51 48 52 51 53
REMARK SMILES IDX 62 54 78 55 49 56 50 57 61 59 79 60 52 61 39 62 40 63 45 64
REMARK SMILES IDX 41 65 42 66 44 67 46 68 43 69 65 70 66 71 71 72 67 73 68 74
REMARK SMILES IDX 70 75 72 76 69 77 53 78 54 79 59 80 55 81 56 82 58 83 60 84
REMARK SMILES IDX 57 85
REMARK H PARENT 77 47 51 58
REMARK Flexibility Score: inf
ROOT
ATOM      1  C   UNL A   1      34.848  32.601  27.890  1.00  0.00     0.188 C 
ENDROOT
BRANCH   1   2
ATOM      2  O   UNL A   1      34.014  31.467  28.069  1.00  0.00    -0.376 OA
BRANCH   2   3
ATOM      3  C   UNL A   1      34.480  30.197  27.621  1.00  0.00     0.202 C 
BRANCH   3   4
ATOM      4  C   UNL A   1      33.611  29.413  26.624  1.00  0.00     0.261 C 
BRANCH   4   5
ATOM      5  O   UNL A   1      33.457  27.993  26.880  1.00  0.00    -0.463 OA
BRANCH   5   6
ATOM      6  C   UNL A   1      32.190  27.511  26.849  1.00  0.00     0.309 C 
ATOM      7  O   UNL A   1      31.363  27.729  27.737  1.00  0.00    -0.252 OA
BRANCH   6   8
ATOM      8  C   UNL A   1      31.817  26.572  25.688  1.00  0.00     0.109 C 
BRANCH   8   9
ATOM      9  C   UNL A   1      30.991  26.974  24.414  1.00  0.00    -0.003 C 
ATOM     10  C   UNL A   1      29.561  26.396  24.518  1.00  0.00     0.008 C 
ATOM     11  C   UNL A   1      30.805  28.472  24.163  1.00  0.00     0.008 C 
ENDBRANCH   8   9
BRANCH   8  12
ATOM     12  C   UNL A   1      33.153  25.869  25.313  1.00  0.00     0.091 C 
BRANCH  12  13
ATOM     13  C   UNL A   1      32.959  24.388  25.182  1.00  0.00     0.110 A 
ATOM     14  N   UNL A   1      33.133  23.554  26.184  1.00  0.00    -0.233 NA
ATOM     15  N   UNL A   1      32.676  23.694  24.027  1.00  0.00    -0.331 N 
ATOM     16  C   UNL A   1      33.082  22.300  25.663  1.00  0.00     0.089 A 
ATOM     17  C   UNL A   1      32.761  22.345  24.313  1.00  0.00     0.068 A 
ATOM     18  C   UNL A   1      32.391  24.232  22.721  1.00  0.00     0.151 C 
ATOM     19  C   UNL A   1      33.312  21.073  26.297  1.00  0.00     0.030 A 
ATOM     20  C   UNL A   1      32.608  21.184  23.547  1.00  0.00     0.028 A 
ATOM     21  C   UNL A   1      33.180  19.903  25.547  1.00  0.00     0.002 A 
ATOM     22  C   UNL A   1      32.821  19.960  24.198  1.00  0.00     0.002 A 
ENDBRANCH  12  13
ENDBRANCH   8  12
ENDBRANCH   6   8
ENDBRANCH   5   6
ENDBRANCH   4   5
ENDBRANCH   3   4
ENDBRANCH   2   3
ENDBRANCH   1   2
BRANCH   1  23
ATOM     23  C   UNL A   1      34.318  33.963  28.321  1.00  0.00     0.188 C 
BRANCH  23  24
ATOM     24  O   UNL A   1      34.874  34.457  29.522  1.00  0.00    -0.376 OA
BRANCH  24  25
ATOM     25  C   UNL A   1      33.972  34.820  30.554  1.00  0.00     0.202 C 
BRANCH  25  26
ATOM     26  C   UNL A   1      34.324  34.137  31.880  1.00  0.00     0.261 C 
BRANCH  26  27
ATOM     27  O   UNL A   1      34.883  32.815  31.735  1.00  0.00    -0.460 OA
BRANCH  27  28
ATOM     28  C   UNL A   1      35.820  32.444  32.641  1.00  0.00     0.338 C 
ATOM     29  O   UNL A   1      35.733  32.509  33.857  1.00  0.00    -0.246 OA
BRANCH  28  30
ATOM     30  C   UNL A   1      36.868  31.681  31.923  1.00  0.00     0.060 A 
ATOM     31  C   UNL A   1      37.715  30.840  32.662  1.00  0.00     0.016 A 
ATOM     32  C   UNL A   1      36.977  31.741  30.533  1.00  0.00     0.016 A 
ATOM     33  C   UNL A   1      38.697  30.087  32.018  1.00  0.00     0.010 A 
ATOM     34  C   UNL A   1      37.977  31.007  29.890  1.00  0.00     0.010 A 
ATOM     35  C   UNL A   1      38.863  30.204  30.632  1.00  0.00    -0.014 A 
BRANCH  35  36
ATOM     36  C   UNL A   1      40.089  29.675  29.986  1.00  0.00     0.031 A 
ATOM     37  C   UNL A   1      41.252  30.614  29.811  1.00  0.00     0.074 A 
ATOM     38  C   UNL A   1      40.188  28.399  29.573  1.00  0.00     0.049 A 
ATOM     39  N   UNL A   1      42.393  30.426  29.200  1.00  0.00    -0.248 NA
ATOM     40  C   UNL A   1      41.100  31.952  30.408  1.00  0.00     0.031 C 
ATOM     41  C   UNL A   1      39.162  27.372  29.734  1.00  0.00     0.029 A 
ATOM     42  N   UNL A   1      41.211  27.757  28.921  1.00  0.00    -0.354 N 
ATOM     43  C   UNL A   1      43.087  31.623  29.326  1.00  0.00     0.074 A 
ATOM     44  C   UNL A   1      42.229  32.540  30.044  1.00  0.00     0.031 C 
ATOM     45  C   UNL A   1      39.603  26.228  29.181  1.00  0.00     0.029 A 
ATOM     46  C   UNL A   1      40.925  26.454  28.595  1.00  0.00     0.049 A 
ATOM     47  H   UNL A   1      42.070  28.188  28.707  1.00  0.00     0.167 HD
ATOM     48  C   UNL A   1      44.330  31.932  28.888  1.00  0.00     0.037 A 
ATOM     49  C   UNL A   1      41.635  25.558  27.880  1.00  0.00     0.037 A 
ATOM     50  C   UNL A   1      45.184  31.023  28.172  1.00  0.00     0.049 A 
ATOM     51  C   UNL A   1      42.982  25.952  27.324  1.00  0.00     0.074 A 
ATOM     52  C   UNL A   1      46.462  31.240  27.690  1.00  0.00     0.029 A 
ATOM     53  N   UNL A   1      44.841  29.724  27.828  1.00  0.00    -0.354 N 
ATOM     54  N   UNL A   1      43.634  27.083  27.452  1.00  0.00    -0.248 NA
ATOM     55  C   UNL A   1      43.690  24.942  26.523  1.00  0.00     0.031 C 
ATOM     56  C   UNL A   1      46.873  30.089  27.009  1.00  0.00     0.029 A 
ATOM     57  C   UNL A   1      45.874  29.136  27.119  1.00  0.00     0.049 A 
ATOM     58  H   UNL A   1      43.988  29.286  28.055  1.00  0.00     0.167 HD
ATOM     59  C   UNL A   1      44.838  26.910  26.778  1.00  0.00     0.074 A 
ATOM     60  C   UNL A   1      44.831  25.560  26.253  1.00  0.00     0.031 C 
ATOM     61  C   UNL A   1      45.859  27.786  26.611  1.00  0.00     0.037 A 
BRANCH  48  62
ATOM     62  C   UNL A   1      44.821  33.327  29.142  1.00  0.00     0.057 A 
ATOM     63  C   UNL A   1      45.576  33.656  30.276  1.00  0.00     0.134 A 
ATOM     64  C   UNL A   1      44.544  34.355  28.231  1.00  0.00     0.134 A 
ATOM     65  F   UNL A   1      45.859  32.723  31.198  1.00  0.00    -0.206 F 
ATOM     66  C   UNL A   1      46.015  34.960  30.507  1.00  0.00     0.040 A 
ATOM     67  C   UNL A   1      45.003  35.657  28.436  1.00  0.00     0.040 A 
ATOM     68  F   UNL A   1      43.827  34.109  27.124  1.00  0.00    -0.206 F 
ATOM     69  C   UNL A   1      45.734  35.964  29.582  1.00  0.00     0.006 A 
ENDBRANCH  48  62
BRANCH  49  70
ATOM     70  C   UNL A   1      41.088  24.201  27.620  1.00  0.00     0.057 A 
ATOM     71  C   UNL A   1      41.594  23.075  28.280  1.00  0.00     0.134 A 
ATOM     72  C   UNL A   1      40.070  23.992  26.680  1.00  0.00     0.134 A 
ATOM     73  F   UNL A   1      42.589  23.204  29.169  1.00  0.00    -0.206 F 
ATOM     74  C   UNL A   1      41.123  21.790  28.002  1.00  0.00     0.040 A 
ATOM     75  C   UNL A   1      39.570  22.717  26.413  1.00  0.00     0.040 A 
ATOM     76  F   UNL A   1      39.547  25.028  26.009  1.00  0.00    -0.206 F 
ATOM     77  C   UNL A   1      40.103  21.610  27.069  1.00  0.00     0.006 A 
ENDBRANCH  49  70
BRANCH  61  78
ATOM     78  C   UNL A   1      47.075  27.304  25.872  1.00  0.00     0.057 A 
ATOM     79  C   UNL A   1      48.102  26.595  26.507  1.00  0.00     0.134 A 
ATOM     80  C   UNL A   1      47.198  27.515  24.491  1.00  0.00     0.134 A 
ATOM     81  F   UNL A   1      48.052  26.367  27.829  1.00  0.00    -0.206 F 
ATOM     82  C   UNL A   1      49.218  26.138  25.804  1.00  0.00     0.040 A 
ATOM     83  C   UNL A   1      48.294  27.037  23.771  1.00  0.00     0.040 A 
ATOM     84  F   UNL A   1      46.245  28.176  23.815  1.00  0.00    -0.206 F 
ATOM     85  C   UNL A   1      49.312  26.352  24.430  1.00  0.00     0.006 A 
ENDBRANCH  61  78
ENDBRANCH  35  36
ENDBRANCH  28  30
ENDBRANCH  27  28
ENDBRANCH  26  27
ENDBRANCH  25  26
ENDBRANCH  24  25
ENDBRANCH  23  24
ENDBRANCH   1  23
TORSDOF 20
ENDMDL
MODEL 2
REMARK VINA RESULT:     -10.0      4.540      9.669
REMARK SMILES CC(C)[C@@H](Cc1nc2ccccc2n1C)C(=O)OCCOCCOCCOC(=O)c1ccc(-c2c3nc(c(-c4c(F)cccc4F)c4ccc([nH]4)c(-c4c(F)cccc4F)c4nc(c(-c5c(F)cccc5F)c5ccc2[nH]5)C=C4)C=C3)cc1
REMARK SMILES IDX 22 1 21 2 20 3 19 4 18 5 16 6 17 7 4 8 2 9 1 10 3 11 5 12
REMARK SMILES IDX 6 13 7 14 14 15 8 16 13 17 15 18 9 19 12 20 10 21 11 22
REMARK SMILES IDX 23 23 24 24 25 25 26 26 27 27 28 28 29 29 30 30 31 31 83 32
REMARK SMILES IDX 32 33 82 34 33 35 34 36 35 37 76 38 36 39 81 40 75 41 77 42
REMARK SMILES IDX 37 43 80 44 74 45 73 46 38 48 64 49 47 50 63 51 48 52 51 53
REMARK SMILES IDX 62 54 78 55 49 56 50 57 61 59 79 60 52 61 39 62 40 63 45 64
REMARK SMILES IDX 41 65 42 66 44 67 46 68 43 69 65 70 66 71 71 72 67 73 68 74
REMARK SMILES IDX 70 75 72 76 69 77 53 78 54 79 59 80 55 81 56 82 58 83 60 84
REMARK SMILES IDX 57 85
REMARK H PARENT 77 47 51 58
REMARK Flexibility Score: inf
ROOT
ATOM      1  C   UNL A   1      38.680  21.662  25.750  1.00  0.00     0.188 C 
ENDROOT
BRANCH   1   2
ATOM      2  O   UNL A   1      37.951  22.840  26.057  1.00  0.00    -0.376 OA
BRANCH   2   3
ATOM      3  C   UNL A   1      36.912  23.252  25.173  1.00  0.00     0.202 C 
BRANCH   3   4
ATOM      4  C   UNL A   1      35.558  23.655  25.780  1.00  0.00     0.261 C 
BRANCH   4   5
ATOM      5  O   UNL A   1      34.876  22.644  26.567  1.00  0.00    -0.463 OA
BRANCH   5   6
ATOM      6  C   UNL A   1      33.526  22.742  26.631  1.00  0.00     0.309 C 
ATOM      7  O   UNL A   1      32.887  22.587  27.674  1.00  0.00    -0.252 OA
BRANCH   6   8
ATOM      8  C   UNL A   1      32.769  22.964  25.310  1.00  0.00     0.109 C 
BRANCH   8   9
ATOM      9  C   UNL A   1      32.506  21.874  24.210  1.00  0.00    -0.003 C 
ATOM     10  C   UNL A   1      32.869  22.441  22.818  1.00  0.00     0.008 C 
ATOM     11  C   UNL A   1      33.297  20.571  24.335  1.00  0.00     0.008 C 
ENDBRANCH   8   9
BRANCH   8  12
ATOM     12  C   UNL A   1      31.459  23.690  25.730  1.00  0.00     0.091 C 
BRANCH  12  13
ATOM     13  C   UNL A   1      31.671  25.172  25.810  1.00  0.00     0.110 A 
ATOM     14  N   UNL A   1      31.805  25.813  26.951  1.00  0.00    -0.233 NA
ATOM     15  N   UNL A   1      31.663  26.063  24.761  1.00  0.00    -0.331 N 
ATOM     16  C   UNL A   1      31.766  27.140  26.662  1.00  0.00     0.089 A 
ATOM     17  C   UNL A   1      31.713  27.338  25.288  1.00  0.00     0.068 A 
ATOM     18  C   UNL A   1      31.568  25.768  23.353  1.00  0.00     0.151 C 
ATOM     19  C   UNL A   1      31.763  28.233  27.537  1.00  0.00     0.030 A 
ATOM     20  C   UNL A   1      31.703  28.618  24.723  1.00  0.00     0.028 A 
ATOM     21  C   UNL A   1      31.738  29.519  26.994  1.00  0.00     0.002 A 
ATOM     22  C   UNL A   1      31.721  29.705  25.610  1.00  0.00     0.002 A 
ENDBRANCH  12  13
ENDBRANCH   8  12
ENDBRANCH   6   8
ENDBRANCH   5   6
ENDBRANCH   4   5
ENDBRANCH   3   4
ENDBRANCH   2   3
ENDBRANCH   1   2
BRANCH   1  23
ATOM     23  C   UNL A   1      39.970  21.390  26.515  1.00  0.00     0.188 C 
BRANCH  23  24
ATOM     24  O   UNL A   1      40.668  20.235  26.097  1.00  0.00    -0.376 OA
BRANCH  24  25
ATOM     25  C   UNL A   1      42.081  20.253  26.214  1.00  0.00     0.202 C 
BRANCH  25  26
ATOM     26  C   UNL A   1      42.558  21.384  27.132  1.00  0.00     0.261 C 
BRANCH  26  27
ATOM     27  O   UNL A   1      43.613  22.195  26.575  1.00  0.00    -0.460 OA
BRANCH  27  28
ATOM     28  C   UNL A   1      43.241  23.191  25.736  1.00  0.00     0.338 C 
ATOM     29  O   UNL A   1      43.114  23.123  24.525  1.00  0.00    -0.246 OA
BRANCH  28  30
ATOM     30  C   UNL A   1      42.740  24.315  26.562  1.00  0.00     0.060 A 
ATOM     31  C   UNL A   1      43.567  25.434  26.749  1.00  0.00     0.016 A 
ATOM     32  C   UNL A   1      41.449  24.299  27.093  1.00  0.00     0.016 A 
ATOM     33  C   UNL A   1      43.119  26.523  27.499  1.00  0.00     0.010 A 
ATOM     34  C   UNL A   1      41.011  25.378  27.865  1.00  0.00     0.010 A 
ATOM     35  C   UNL A   1      41.855  26.479  28.101  1.00  0.00    -0.014 A 
BRANCH  35  36
ATOM     36  C   UNL A   1      41.500  27.464  29.151  1.00  0.00     0.031 A 
ATOM     37  C   UNL A   1      42.305  27.456  30.423  1.00  0.00     0.074 A 
ATOM     38  C   UNL A   1      40.504  28.353  28.991  1.00  0.00     0.049 A 
ATOM     39  N   UNL A   1      42.139  28.146  31.521  1.00  0.00    -0.248 NA
ATOM     40  C   UNL A   1      43.454  26.536  30.456  1.00  0.00     0.031 C 
ATOM     41  C   UNL A   1      39.687  28.507  27.792  1.00  0.00     0.029 A 
ATOM     42  N   UNL A   1      40.009  29.293  29.862  1.00  0.00    -0.354 N 
ATOM     43  C   UNL A   1      43.151  27.735  32.379  1.00  0.00     0.074 A 
ATOM     44  C   UNL A   1      43.908  26.714  31.686  1.00  0.00     0.031 C 
ATOM     45  C   UNL A   1      38.779  29.478  28.006  1.00  0.00     0.029 A 
ATOM     46  C   UNL A   1      38.929  29.984  29.371  1.00  0.00     0.049 A 
ATOM     47  H   UNL A   1      40.393  29.457  30.754  1.00  0.00     0.167 HD
ATOM     48  C   UNL A   1      43.431  28.170  33.630  1.00  0.00     0.037 A 
ATOM     49  C   UNL A   1      38.135  30.898  29.966  1.00  0.00     0.037 A 
ATOM     50  C   UNL A   1      42.679  29.183  34.319  1.00  0.00     0.049 A 
ATOM     51  C   UNL A   1      38.412  31.304  31.393  1.00  0.00     0.074 A 
ATOM     52  C   UNL A   1      42.887  29.697  35.587  1.00  0.00     0.029 A 
ATOM     53  N   UNL A   1      41.568  29.832  33.801  1.00  0.00    -0.354 N 
ATOM     54  N   UNL A   1      39.374  30.916  32.195  1.00  0.00    -0.248 NA
ATOM     55  C   UNL A   1      37.488  32.277  31.995  1.00  0.00     0.031 C 
ATOM     56  C   UNL A   1      41.869  30.619  35.856  1.00  0.00     0.029 A 
ATOM     57  C   UNL A   1      41.065  30.723  34.733  1.00  0.00     0.049 A 
ATOM     58  H   UNL A   1      41.194  29.680  32.903  1.00  0.00     0.167 HD
ATOM     59  C   UNL A   1      39.191  31.619  33.381  1.00  0.00     0.074 A 
ATOM     60  C   UNL A   1      38.033  32.467  33.188  1.00  0.00     0.031 C 
ATOM     61  C   UNL A   1      39.917  31.570  34.525  1.00  0.00     0.037 A 
BRANCH  48  62
ATOM     62  C   UNL A   1      44.581  27.520  34.342  1.00  0.00     0.057 A 
ATOM     63  C   UNL A   1      45.869  28.073  34.336  1.00  0.00     0.134 A 
ATOM     64  C   UNL A   1      44.392  26.330  35.056  1.00  0.00     0.134 A 
ATOM     65  F   UNL A   1      46.121  29.201  33.654  1.00  0.00    -0.206 F 
ATOM     66  C   UNL A   1      46.932  27.451  34.991  1.00  0.00     0.040 A 
ATOM     67  C   UNL A   1      45.442  25.715  35.740  1.00  0.00     0.040 A 
ATOM     68  F   UNL A   1      43.185  25.748  35.104  1.00  0.00    -0.206 F 
ATOM     69  C   UNL A   1      46.719  26.271  35.702  1.00  0.00     0.006 A 
ENDBRANCH  48  62
BRANCH  49  70
ATOM     70  C   UNL A   1      36.984  31.483  29.231  1.00  0.00     0.057 A 
ATOM     71  C   UNL A   1      35.814  30.747  29.008  1.00  0.00     0.134 A 
ATOM     72  C   UNL A   1      37.038  32.779  28.703  1.00  0.00     0.134 A 
ATOM     73  F   UNL A   1      35.711  29.490  29.461  1.00  0.00    -0.206 F 
ATOM     74  C   UNL A   1      34.749  31.270  28.271  1.00  0.00     0.040 A 
ATOM     75  C   UNL A   1      35.970  33.325  27.989  1.00  0.00     0.040 A 
ATOM     76  F   UNL A   1      38.132  33.535  28.875  1.00  0.00    -0.206 F 
ATOM     77  C   UNL A   1      34.824  32.566  27.764  1.00  0.00     0.006 A 
ENDBRANCH  49  70
BRANCH  61  78
ATOM     78  C   UNL A   1      39.515  32.490  35.643  1.00  0.00     0.057 A 
ATOM     79  C   UNL A   1      40.026  33.788  35.761  1.00  0.00     0.134 A 
ATOM     80  C   UNL A   1      38.566  32.083  36.592  1.00  0.00     0.134 A 
ATOM     81  F   UNL A   1      40.945  34.238  34.892  1.00  0.00    -0.206 F 
ATOM     82  C   UNL A   1      39.630  34.639  36.796  1.00  0.00     0.040 A 
ATOM     83  C   UNL A   1      38.140  32.934  37.613  1.00  0.00     0.040 A 
ATOM     84  F   UNL A   1      38.025  30.857  36.532  1.00  0.00    -0.206 F 
ATOM     85  C   UNL A   1      38.678  34.214  37.721  1.00  0.00     0.006 A 
ENDBRANCH  61  78
ENDBRANCH  35  36
ENDBRANCH  28  30
ENDBRANCH  27  28
ENDBRANCH  26  27
ENDBRANCH  25  26
ENDBRANCH  24  25
ENDBRANCH  23  24
ENDBRANCH   1  23
TORSDOF 20
ENDMDL
MODEL 3
REMARK VINA RESULT:      -9.8      3.907      7.800
REMARK SMILES CC(C)[C@@H](Cc1nc2ccccc2n1C)C(=O)OCCOCCOCCOC(=O)c1ccc(-c2c3nc(c(-c4c(F)cccc4F)c4ccc([nH]4)c(-c4c(F)cccc4F)c4nc(c(-c5c(F)cccc5F)c5ccc2[nH]5)C=C4)C=C3)cc1
REMARK SMILES IDX 22 1 21 2 20 3 19 4 18 5 16 6 17 7 4 8 2 9 1 10 3 11 5 12
REMARK SMILES IDX 6 13 7 14 14 15 8 16 13 17 15 18 9 19 12 20 10 21 11 22
REMARK SMILES IDX 23 23 24 24 25 25 26 26 27 27 28 28 29 29 30 30 31 31 83 32
REMARK SMILES IDX 32 33 82 34 33 35 34 36 35 37 76 38 36 39 81 40 75 41 77 42
REMARK SMILES IDX 37 43 80 44 74 45 73 46 38 48 64 49 47 50 63 51 48 52 51 53
REMARK SMILES IDX 62 54 78 55 49 56 50 57 61 59 79 60 52 61 39 62 40 63 45 64
REMARK SMILES IDX 41 65 42 66 44 67 46 68 43 69 65 70 66 71 71 72 67 73 68 74
REMARK SMILES IDX 70 75 72 76 69 77 53 78 54 79 59 80 55 81 56 82 58 83 60 84
REMARK SMILES IDX 57 85
REMARK H PARENT 77 47 51 58
REMARK Flexibility Score: inf
ROOT
ATOM      1  C   UNL A   1      30.816  27.255  24.017  1.00  0.00     0.188 C 
ENDROOT
BRANCH   1   2
ATOM      2  O   UNL A   1      30.186  26.438  24.992  1.00  0.00    -0.376 OA
BRANCH   2   3
ATOM      3  C   UNL A   1      30.874  26.171  26.210  1.00  0.00     0.202 C 
BRANCH   3   4
ATOM      4  C   UNL A   1      31.320  24.727  26.492  1.00  0.00     0.261 C 
BRANCH   4   5
ATOM      5  O   UNL A   1      30.726  23.694  25.662  1.00  0.00    -0.463 OA
BRANCH   5   6
ATOM      6  C   UNL A   1      31.291  23.503  24.444  1.00  0.00     0.309 C 
ATOM      7  O   UNL A   1      30.659  23.577  23.389  1.00  0.00    -0.252 OA
BRANCH   6   8
ATOM      8  C   UNL A   1      32.770  23.082  24.408  1.00  0.00     0.109 C 
BRANCH   8   9
ATOM      9  C   UNL A   1      33.996  24.054  24.262  1.00  0.00    -0.003 C 
ATOM     10  C   UNL A   1      34.741  24.157  25.613  1.00  0.00     0.008 C 
ATOM     11  C   UNL A   1      35.064  23.661  23.240  1.00  0.00     0.008 C 
ENDBRANCH   8   9
BRANCH   8  12
ATOM     12  C   UNL A   1      32.932  22.125  25.622  1.00  0.00     0.091 C 
BRANCH  12  13
ATOM     13  C   UNL A   1      33.184  20.720  25.166  1.00  0.00     0.110 A 
ATOM     14  N   UNL A   1      32.222  19.833  25.019  1.00  0.00    -0.233 NA
ATOM     15  N   UNL A   1      34.409  20.136  24.932  1.00  0.00    -0.331 N 
ATOM     16  C   UNL A   1      32.824  18.634  24.805  1.00  0.00     0.089 A 
ATOM     17  C   UNL A   1      34.201  18.790  24.708  1.00  0.00     0.068 A 
ATOM     18  C   UNL A   1      35.705  20.765  24.958  1.00  0.00     0.151 C 
ATOM     19  C   UNL A   1      32.244  17.365  24.693  1.00  0.00     0.030 A 
ATOM     20  C   UNL A   1      35.053  17.710  24.449  1.00  0.00     0.028 A 
ATOM     21  C   UNL A   1      33.078  16.272  24.450  1.00  0.00     0.002 A 
ATOM     22  C   UNL A   1      34.458  16.447  24.318  1.00  0.00     0.002 A 
ENDBRANCH  12  13
ENDBRANCH   8  12
ENDBRANCH   6   8
ENDBRANCH   5   6
ENDBRANCH   4   5
ENDBRANCH   3   4
ENDBRANCH   2   3
ENDBRANCH   1   2
BRANCH   1  23
ATOM     23  C   UNL A   1      32.229  27.752  24.295  1.00  0.00     0.188 C 
BRANCH  23  24
ATOM     24  O   UNL A   1      32.352  29.157  24.377  1.00  0.00    -0.376 OA
BRANCH  24  25
ATOM     25  C   UNL A   1      31.310  29.863  25.031  1.00  0.00     0.202 C 
BRANCH  25  26
ATOM     26  C   UNL A   1      31.766  30.417  26.385  1.00  0.00     0.261 C 
BRANCH  26  27
ATOM     27  O   UNL A   1      33.192  30.595  26.503  1.00  0.00    -0.460 OA
BRANCH  27  28
ATOM     28  C   UNL A   1      33.619  31.660  27.225  1.00  0.00     0.338 C 
ATOM     29  O   UNL A   1      32.980  32.661  27.505  1.00  0.00    -0.246 OA
BRANCH  28  30
ATOM     30  C   UNL A   1      34.904  31.289  27.863  1.00  0.00     0.060 A 
ATOM     31  C   UNL A   1      35.088  29.964  28.288  1.00  0.00     0.016 A 
ATOM     32  C   UNL A   1      35.941  32.215  27.983  1.00  0.00     0.016 A 
ATOM     33  C   UNL A   1      36.295  29.572  28.869  1.00  0.00     0.010 A 
ATOM     34  C   UNL A   1      37.140  31.829  28.588  1.00  0.00     0.010 A 
ATOM     35  C   UNL A   1      37.311  30.516  29.065  1.00  0.00    -0.014 A 
BRANCH  35  36
ATOM     36  C   UNL A   1      38.451  30.203  29.961  1.00  0.00     0.031 A 
ATOM     37  C   UNL A   1      39.512  29.268  29.447  1.00  0.00     0.074 A 
ATOM     38  C   UNL A   1      38.562  30.736  31.190  1.00  0.00     0.049 A 
ATOM     39  N   UNL A   1      40.552  28.768  30.061  1.00  0.00    -0.248 NA
ATOM     40  C   UNL A   1      39.372  28.837  28.046  1.00  0.00     0.031 C 
ATOM     41  C   UNL A   1      37.639  31.698  31.786  1.00  0.00     0.029 A 
ATOM     42  N   UNL A   1      39.508  30.526  32.163  1.00  0.00    -0.354 N 
ATOM     43  C   UNL A   1      41.182  27.953  29.128  1.00  0.00     0.074 A 
ATOM     44  C   UNL A   1      40.392  28.002  27.917  1.00  0.00     0.031 C 
ATOM     45  C   UNL A   1      38.058  31.987  33.032  1.00  0.00     0.029 A 
ATOM     46  C   UNL A   1      39.255  31.201  33.332  1.00  0.00     0.049 A 
ATOM     47  H   UNL A   1      40.295  29.948  32.034  1.00  0.00     0.167 HD
ATOM     48  C   UNL A   1      42.320  27.232  29.263  1.00  0.00     0.037 A 
ATOM     49  C   UNL A   1      39.899  31.163  34.516  1.00  0.00     0.037 A 
ATOM     50  C   UNL A   1      43.106  27.181  30.467  1.00  0.00     0.049 A 
ATOM     51  C   UNL A   1      41.116  30.284  34.672  1.00  0.00     0.074 A 
ATOM     52  C   UNL A   1      44.277  26.484  30.701  1.00  0.00     0.029 A 
ATOM     53  N   UNL A   1      42.794  27.849  31.641  1.00  0.00    -0.354 N 
ATOM     54  N   UNL A   1      41.709  29.522  33.785  1.00  0.00    -0.248 NA
ATOM     55  C   UNL A   1      41.751  30.260  35.999  1.00  0.00     0.031 C 
ATOM     56  C   UNL A   1      44.647  26.688  32.035  1.00  0.00     0.029 A 
ATOM     57  C   UNL A   1      43.738  27.560  32.612  1.00  0.00     0.049 A 
ATOM     58  H   UNL A   1      42.016  28.440  31.765  1.00  0.00     0.167 HD
ATOM     59  C   UNL A   1      42.801  28.956  34.433  1.00  0.00     0.074 A 
ATOM     60  C   UNL A   1      42.796  29.472  35.786  1.00  0.00     0.031 C 
ATOM     61  C   UNL A   1      43.727  28.090  33.953  1.00  0.00     0.037 A 
BRANCH  48  62
ATOM     62  C   UNL A   1      42.757  26.412  28.085  1.00  0.00     0.057 A 
ATOM     63  C   UNL A   1      42.313  25.097  27.888  1.00  0.00     0.134 A 
ATOM     64  C   UNL A   1      43.626  26.950  27.127  1.00  0.00     0.134 A 
ATOM     65  F   UNL A   1      41.497  24.515  28.779  1.00  0.00    -0.206 F 
ATOM     66  C   UNL A   1      42.738  24.340  26.795  1.00  0.00     0.040 A 
ATOM     67  C   UNL A   1      44.034  26.213  26.015  1.00  0.00     0.040 A 
ATOM     68  F   UNL A   1      44.088  28.203  27.254  1.00  0.00    -0.206 F 
ATOM     69  C   UNL A   1      43.596  24.900  25.851  1.00  0.00     0.006 A 
ENDBRANCH  48  62
BRANCH  49  70
ATOM     70  C   UNL A   1      39.403  31.964  35.666  1.00  0.00     0.057 A 
ATOM     71  C   UNL A   1      39.923  33.233  35.947  1.00  0.00     0.134 A 
ATOM     72  C   UNL A   1      38.423  31.464  36.533  1.00  0.00     0.134 A 
ATOM     73  F   UNL A   1      40.886  33.754  35.173  1.00  0.00    -0.206 F 
ATOM     74  C   UNL A   1      39.502  33.968  37.057  1.00  0.00     0.040 A 
ATOM     75  C   UNL A   1      37.971  32.200  37.630  1.00  0.00     0.040 A 
ATOM     76  F   UNL A   1      37.888  30.253  36.324  1.00  0.00    -0.206 F 
ATOM     77  C   UNL A   1      38.518  33.453  37.899  1.00  0.00     0.006 A 
ENDBRANCH  49  70
BRANCH  61  78
ATOM     78  C   UNL A   1      44.840  27.680  34.876  1.00  0.00     0.057 A 
ATOM     79  C   UNL A   1      46.025  28.417  34.987  1.00  0.00     0.134 A 
ATOM     80  C   UNL A   1      44.703  26.553  35.698  1.00  0.00     0.134 A 
ATOM     81  F   UNL A   1      46.226  29.501  34.223  1.00  0.00    -0.206 F 
ATOM     82  C   UNL A   1      47.044  28.034  35.863  1.00  0.00     0.040 A 
ATOM     83  C   UNL A   1      45.701  26.177  36.597  1.00  0.00     0.040 A 
ATOM     84  F   UNL A   1      43.587  25.808  35.652  1.00  0.00    -0.206 F 
ATOM     85  C   UNL A   1      46.880  26.915  36.676  1.00  0.00     0.006 A 
ENDBRANCH  61  78
ENDBRANCH  35  36
ENDBRANCH  28  30
ENDBRANCH  27  28
ENDBRANCH  26  27
ENDBRANCH  25  26
ENDBRANCH  24  25
ENDBRANCH  23  24
ENDBRANCH   1  23
TORSDOF 20
ENDMDL
