MODEL 1
REMARK VINA RESULT:      -9.3      0.000      0.000
REMARK SMILES C[C@H]([NH2+]CCc1ccco1)[C@@H](C)C(=O)OCCOCCOCCOC(=O)c1ccc(-c2c3nc(c(-c4c(F)cccc4F)c4ccc([nH]4)c(-c4c(F)cccc4F)c4nc(c(-c5c(F)cccc5F)c5ccc2[nH]5)C=C4)C=C3)cc1
REMARK SMILES IDX 18 1 17 2 16 3 15 4 13 5 14 6 11 7 12 8 2 9 1 10 3 11 4 14
REMARK SMILES IDX 5 15 6 16 7 17 10 18 8 19 9 20 19 21 20 22 21 23 22 24 23 25
REMARK SMILES IDX 24 26 25 27 26 28 27 29 28 30 80 31 29 32 79 33 30 34 31 35
REMARK SMILES IDX 32 36 73 37 33 38 78 39 72 40 74 41 34 42 77 43 71 44 70 45
REMARK SMILES IDX 35 47 61 48 44 49 60 50 45 51 48 52 59 53 75 54 46 55 47 56
REMARK SMILES IDX 58 58 76 59 49 60 36 61 37 62 42 63 38 64 39 65 41 66 43 67
REMARK SMILES IDX 40 68 62 69 63 70 68 71 64 72 65 73 67 74 69 75 66 76 50 77
REMARK SMILES IDX 51 78 56 79 52 80 53 81 55 82 57 83 54 84
REMARK H PARENT 3 12 3 13 74 46 48 57
REMARK Flexibility Score: inf
ROOT
ATOM      1  O   UNL A   1      34.559  30.918  28.009  1.00  0.00    -0.376 OA
ENDROOT
BRANCH   1   2
ATOM      2  C   UNL A   1      33.690  30.070  27.276  1.00  0.00     0.202 C 
BRANCH   2   3
ATOM      3  C   UNL A   1      34.360  28.929  26.489  1.00  0.00     0.261 C 
BRANCH   3   4
ATOM      4  O   UNL A   1      33.743  28.524  25.236  1.00  0.00    -0.463 OA
BRANCH   4   5
ATOM      5  C   UNL A   1      33.044  27.359  25.279  1.00  0.00     0.314 C 
ATOM      6  O   UNL A   1      33.572  26.250  25.264  1.00  0.00    -0.252 OA
BRANCH   5   7
ATOM      7  C   UNL A   1      31.520  27.504  25.171  1.00  0.00     0.154 C 
ATOM      8  C   UNL A   1      30.946  26.503  26.182  1.00  0.00     0.026 C 
BRANCH   7   9
ATOM      9  C   UNL A   1      30.823  27.396  23.780  1.00  0.00     0.193 C 
ATOM     10  C   UNL A   1      31.801  27.433  22.605  1.00  0.00     0.076 C 
BRANCH   9  11
ATOM     11  N   UNL A   1      29.706  28.363  23.610  1.00  0.00    -0.343 N 
ATOM     12  H   UNL A   1      30.016  29.072  22.945  1.00  0.00     0.346 HD
ATOM     13  H   UNL A   1      29.512  28.698  24.553  1.00  0.00     0.346 HD
BRANCH  11  14
ATOM     14  C   UNL A   1      28.417  27.844  23.128  1.00  0.00     0.268 C 
BRANCH  14  15
ATOM     15  C   UNL A   1      27.280  28.878  23.171  1.00  0.00     0.136 C 
BRANCH  15  16
ATOM     16  C   UNL A   1      27.673  30.168  22.554  1.00  0.00     0.109 A 
ATOM     17  C   UNL A   1      27.665  31.474  22.995  1.00  0.00     0.046 A 
ATOM     18  O   UNL A   1      28.134  30.108  21.273  1.00  0.00    -0.469 OA
ATOM     19  C   UNL A   1      28.141  32.257  21.918  1.00  0.00     0.042 A 
ATOM     20  C   UNL A   1      28.421  31.379  20.898  1.00  0.00     0.195 A 
ENDBRANCH  15  16
ENDBRANCH  14  15
ENDBRANCH  11  14
ENDBRANCH   9  11
ENDBRANCH   7   9
ENDBRANCH   5   7
ENDBRANCH   4   5
ENDBRANCH   3   4
ENDBRANCH   2   3
ENDBRANCH   1   2
BRANCH   1  21
ATOM     21  C   UNL A   1      34.186  32.284  28.152  1.00  0.00     0.188 C 
BRANCH  21  22
ATOM     22  C   UNL A   1      34.612  33.014  29.422  1.00  0.00     0.188 C 
BRANCH  22  23
ATOM     23  O   UNL A   1      34.722  34.418  29.214  1.00  0.00    -0.376 OA
BRANCH  23  24
ATOM     24  C   UNL A   1      33.511  34.963  28.696  1.00  0.00     0.202 C 
BRANCH  24  25
ATOM     25  C   UNL A   1      32.927  35.950  29.709  1.00  0.00     0.261 C 
BRANCH  25  26
ATOM     26  O   UNL A   1      32.389  35.337  30.903  1.00  0.00    -0.460 OA
BRANCH  26  27
ATOM     27  C   UNL A   1      32.741  35.873  32.091  1.00  0.00     0.338 C 
ATOM     28  O   UNL A   1      32.138  36.749  32.701  1.00  0.00    -0.246 OA
BRANCH  27  29
ATOM     29  C   UNL A   1      33.901  35.132  32.641  1.00  0.00     0.060 A 
ATOM     30  C   UNL A   1      35.182  35.688  32.536  1.00  0.00     0.016 A 
ATOM     31  C   UNL A   1      33.740  33.871  33.222  1.00  0.00     0.016 A 
ATOM     32  C   UNL A   1      36.304  34.983  32.990  1.00  0.00     0.010 A 
ATOM     33  C   UNL A   1      34.864  33.157  33.658  1.00  0.00     0.010 A 
ATOM     34  C   UNL A   1      36.156  33.697  33.525  1.00  0.00    -0.014 A 
BRANCH  34  35
ATOM     35  C   UNL A   1      37.343  32.850  33.818  1.00  0.00     0.031 A 
ATOM     36  C   UNL A   1      38.111  33.086  35.090  1.00  0.00     0.074 A 
ATOM     37  C   UNL A   1      37.747  31.889  32.966  1.00  0.00     0.049 A 
ATOM     38  N   UNL A   1      39.247  32.570  35.488  1.00  0.00    -0.248 NA
ATOM     39  C   UNL A   1      37.515  34.035  36.043  1.00  0.00     0.031 C 
ATOM     40  C   UNL A   1      37.065  31.511  31.731  1.00  0.00     0.029 A 
ATOM     41  N   UNL A   1      38.848  31.065  33.009  1.00  0.00    -0.354 N 
ATOM     42  C   UNL A   1      39.512  33.148  36.724  1.00  0.00     0.074 A 
ATOM     43  C   UNL A   1      38.426  34.063  37.004  1.00  0.00     0.031 C 
ATOM     44  C   UNL A   1      37.774  30.544  31.120  1.00  0.00     0.029 A 
ATOM     45  C   UNL A   1      38.983  30.270  31.896  1.00  0.00     0.049 A 
ATOM     46  H   UNL A   1      39.480  31.048  33.764  1.00  0.00     0.167 HD
ATOM     47  C   UNL A   1      40.564  32.935  37.551  1.00  0.00     0.037 A 
ATOM     48  C   UNL A   1      39.984  29.447  31.526  1.00  0.00     0.037 A 
ATOM     49  C   UNL A   1      41.642  32.021  37.274  1.00  0.00     0.049 A 
ATOM     50  C   UNL A   1      41.191  29.296  32.418  1.00  0.00     0.074 A 
ATOM     51  C   UNL A   1      42.746  31.727  38.057  1.00  0.00     0.029 A 
ATOM     52  N   UNL A   1      41.757  31.261  36.121  1.00  0.00    -0.354 N 
ATOM     53  N   UNL A   1      41.432  29.841  33.585  1.00  0.00    -0.248 NA
ATOM     54  C   UNL A   1      42.269  28.417  31.936  1.00  0.00     0.031 C 
ATOM     55  C   UNL A   1      43.556  30.832  37.353  1.00  0.00     0.029 A 
ATOM     56  C   UNL A   1      42.928  30.521  36.157  1.00  0.00     0.049 A 
ATOM     57  H   UNL A   1      41.103  31.249  35.385  1.00  0.00     0.167 HD
ATOM     58  C   UNL A   1      42.671  29.353  33.988  1.00  0.00     0.074 A 
ATOM     59  C   UNL A   1      43.125  28.457  32.947  1.00  0.00     0.031 C 
ATOM     60  C   UNL A   1      43.366  29.623  35.120  1.00  0.00     0.037 A 
BRANCH  47  61
ATOM     61  C   UNL A   1      40.622  33.735  38.820  1.00  0.00     0.057 A 
ATOM     62  C   UNL A   1      39.905  33.369  39.966  1.00  0.00     0.134 A 
ATOM     63  C   UNL A   1      41.439  34.871  38.907  1.00  0.00     0.134 A 
ATOM     64  F   UNL A   1      39.094  32.300  39.947  1.00  0.00    -0.206 F 
ATOM     65  C   UNL A   1      39.977  34.117  41.143  1.00  0.00     0.040 A 
ATOM     66  C   UNL A   1      41.541  35.611  40.086  1.00  0.00     0.040 A 
ATOM     67  F   UNL A   1      42.160  35.274  37.849  1.00  0.00    -0.206 F 
ATOM     68  C   UNL A   1      40.803  35.238  41.206  1.00  0.00     0.006 A 
ENDBRANCH  47  61
BRANCH  48  69
ATOM     69  C   UNL A   1      39.919  28.727  30.226  1.00  0.00     0.057 A 
ATOM     70  C   UNL A   1      40.484  29.267  29.065  1.00  0.00     0.134 A 
ATOM     71  C   UNL A   1      39.260  27.497  30.107  1.00  0.00     0.134 A 
ATOM     72  F   UNL A   1      41.101  30.458  29.106  1.00  0.00    -0.206 F 
ATOM     73  C   UNL A   1      40.383  28.621  27.831  1.00  0.00     0.040 A 
ATOM     74  C   UNL A   1      39.178  26.825  28.887  1.00  0.00     0.040 A 
ATOM     75  F   UNL A   1      38.690  26.927  31.179  1.00  0.00    -0.206 F 
ATOM     76  C   UNL A   1      39.733  27.390  27.742  1.00  0.00     0.006 A 
ENDBRANCH  48  69
BRANCH  60  77
ATOM     77  C   UNL A   1      44.676  28.913  35.318  1.00  0.00     0.057 A 
ATOM     78  C   UNL A   1      44.761  27.683  35.982  1.00  0.00     0.134 A 
ATOM     79  C   UNL A   1      45.860  29.443  34.787  1.00  0.00     0.134 A 
ATOM     80  F   UNL A   1      43.668  27.125  36.524  1.00  0.00    -0.206 F 
ATOM     81  C   UNL A   1      45.979  27.015  36.128  1.00  0.00     0.040 A 
ATOM     82  C   UNL A   1      47.078  28.771  34.902  1.00  0.00     0.040 A 
ATOM     83  F   UNL A   1      45.848  30.613  34.131  1.00  0.00    -0.206 F 
ATOM     84  C   UNL A   1      47.141  27.556  35.578  1.00  0.00     0.006 A 
ENDBRANCH  60  77
ENDBRANCH  34  35
ENDBRANCH  27  29
ENDBRANCH  26  27
ENDBRANCH  25  26
ENDBRANCH  24  25
ENDBRANCH  23  24
ENDBRANCH  22  23
ENDBRANCH  21  22
ENDBRANCH   1  21
TORSDOF 22
ENDMDL
MODEL 2
REMARK VINA RESULT:      -9.2      4.703     10.362
REMARK SMILES C[C@H]([NH2+]CCc1ccco1)[C@@H](C)C(=O)OCCOCCOCCOC(=O)c1ccc(-c2c3nc(c(-c4c(F)cccc4F)c4ccc([nH]4)c(-c4c(F)cccc4F)c4nc(c(-c5c(F)cccc5F)c5ccc2[nH]5)C=C4)C=C3)cc1
REMARK SMILES IDX 18 1 17 2 16 3 15 4 13 5 14 6 11 7 12 8 2 9 1 10 3 11 4 14
REMARK SMILES IDX 5 15 6 16 7 17 10 18 8 19 9 20 19 21 20 22 21 23 22 24 23 25
REMARK SMILES IDX 24 26 25 27 26 28 27 29 28 30 80 31 29 32 79 33 30 34 31 35
REMARK SMILES IDX 32 36 73 37 33 38 78 39 72 40 74 41 34 42 77 43 71 44 70 45
REMARK SMILES IDX 35 47 61 48 44 49 60 50 45 51 48 52 59 53 75 54 46 55 47 56
REMARK SMILES IDX 58 58 76 59 49 60 36 61 37 62 42 63 38 64 39 65 41 66 43 67
REMARK SMILES IDX 40 68 62 69 63 70 68 71 64 72 65 73 67 74 69 75 66 76 50 77
REMARK SMILES IDX 51 78 56 79 52 80 53 81 55 82 57 83 54 84
REMARK H PARENT 3 12 3 13 74 46 48 57
REMARK Flexibility Score: inf
ROOT
ATOM      1  O   UNL A   1      40.643  21.610  25.938  1.00  0.00    -0.376 OA
ENDROOT
BRANCH   1   2
ATOM      2  C   UNL A   1      39.267  21.895  26.131  1.00  0.00     0.202 C 
BRANCH   2   3
ATOM      3  C   UNL A   1      38.918  23.355  26.469  1.00  0.00     0.261 C 
BRANCH   3   4
ATOM      4  O   UNL A   1      37.516  23.738  26.425  1.00  0.00    -0.463 OA
BRANCH   4   5
ATOM      5  C   UNL A   1      36.828  23.315  25.331  1.00  0.00     0.314 C 
ATOM      6  O   UNL A   1      37.074  23.687  24.188  1.00  0.00    -0.252 OA
BRANCH   5   7
ATOM      7  C   UNL A   1      35.589  22.458  25.627  1.00  0.00     0.154 C 
ATOM      8  C   UNL A   1      36.013  21.015  25.323  1.00  0.00     0.026 C 
BRANCH   7   9
ATOM      9  C   UNL A   1      34.218  22.816  24.974  1.00  0.00     0.193 C 
ATOM     10  C   UNL A   1      33.175  23.304  25.979  1.00  0.00     0.076 C 
BRANCH   9  11
ATOM     11  N   UNL A   1      33.690  21.739  24.096  1.00  0.00    -0.343 N 
ATOM     12  H   UNL A   1      34.377  20.986  24.093  1.00  0.00     0.346 HD
ATOM     13  H   UNL A   1      33.531  22.195  23.198  1.00  0.00     0.346 HD
BRANCH  11  14
ATOM     14  C   UNL A   1      32.391  21.146  24.445  1.00  0.00     0.268 C 
BRANCH  14  15
ATOM     15  C   UNL A   1      32.503  19.811  25.201  1.00  0.00     0.136 C 
BRANCH  15  16
ATOM     16  C   UNL A   1      33.026  18.724  24.340  1.00  0.00     0.109 A 
ATOM     17  C   UNL A   1      32.629  18.196  23.129  1.00  0.00     0.046 A 
ATOM     18  O   UNL A   1      34.124  18.063  24.802  1.00  0.00    -0.469 OA
ATOM     19  C   UNL A   1      33.533  17.147  22.842  1.00  0.00     0.042 A 
ATOM     20  C   UNL A   1      34.428  17.112  23.885  1.00  0.00     0.195 A 
ENDBRANCH  15  16
ENDBRANCH  14  15
ENDBRANCH  11  14
ENDBRANCH   9  11
ENDBRANCH   7   9
ENDBRANCH   5   7
ENDBRANCH   4   5
ENDBRANCH   3   4
ENDBRANCH   2   3
ENDBRANCH   1   2
BRANCH   1  21
ATOM     21  C   UNL A   1      41.171  20.440  26.555  1.00  0.00     0.188 C 
BRANCH  21  22
ATOM     22  C   UNL A   1      42.671  20.190  26.452  1.00  0.00     0.188 C 
BRANCH  22  23
ATOM     23  O   UNL A   1      43.218  20.738  25.257  1.00  0.00    -0.376 OA
BRANCH  23  24
ATOM     24  C   UNL A   1      44.085  21.834  25.537  1.00  0.00     0.202 C 
BRANCH  24  25
ATOM     25  C   UNL A   1      44.089  22.793  24.344  1.00  0.00     0.261 C 
BRANCH  25  26
ATOM     26  O   UNL A   1      43.509  24.090  24.614  1.00  0.00    -0.460 OA
BRANCH  26  27
ATOM     27  C   UNL A   1      44.318  25.038  25.132  1.00  0.00     0.338 C 
ATOM     28  O   UNL A   1      45.432  25.346  24.721  1.00  0.00    -0.246 OA
BRANCH  27  29
ATOM     29  C   UNL A   1      43.595  25.777  26.194  1.00  0.00     0.060 A 
ATOM     30  C   UNL A   1      43.966  27.096  26.486  1.00  0.00     0.016 A 
ATOM     31  C   UNL A   1      42.581  25.164  26.935  1.00  0.00     0.016 A 
ATOM     32  C   UNL A   1      43.344  27.797  27.526  1.00  0.00     0.010 A 
ATOM     33  C   UNL A   1      41.973  25.858  27.989  1.00  0.00     0.010 A 
ATOM     34  C   UNL A   1      42.365  27.171  28.308  1.00  0.00    -0.014 A 
BRANCH  34  35
ATOM     35  C   UNL A   1      41.843  27.818  29.541  1.00  0.00     0.031 A 
ATOM     36  C   UNL A   1      40.612  28.678  29.449  1.00  0.00     0.074 A 
ATOM     37  C   UNL A   1      42.454  27.659  30.730  1.00  0.00     0.049 A 
ATOM     38  N   UNL A   1      40.059  29.446  30.354  1.00  0.00    -0.248 NA
ATOM     39  C   UNL A   1      39.909  28.670  28.156  1.00  0.00     0.031 C 
ATOM     40  C   UNL A   1      43.616  26.808  30.977  1.00  0.00     0.029 A 
ATOM     41  N   UNL A   1      42.187  28.226  31.954  1.00  0.00    -0.354 N 
ATOM     42  C   UNL A   1      38.959  30.029  29.735  1.00  0.00     0.074 A 
ATOM     43  C   UNL A   1      38.931  29.537  28.374  1.00  0.00     0.031 C 
ATOM     44  C   UNL A   1      43.975  26.925  32.268  1.00  0.00     0.029 A 
ATOM     45  C   UNL A   1      43.100  27.896  32.924  1.00  0.00     0.049 A 
ATOM     46  H   UNL A   1      41.414  28.815  32.118  1.00  0.00     0.167 HD
ATOM     47  C   UNL A   1      38.055  30.895  30.254  1.00  0.00     0.037 A 
ATOM     48  C   UNL A   1      43.241  28.353  34.185  1.00  0.00     0.037 A 
ATOM     49  C   UNL A   1      38.082  31.380  31.609  1.00  0.00     0.049 A 
ATOM     50  C   UNL A   1      42.279  29.388  34.713  1.00  0.00     0.074 A 
ATOM     51  C   UNL A   1      37.201  32.249  32.231  1.00  0.00     0.029 A 
ATOM     52  N   UNL A   1      39.044  31.047  32.550  1.00  0.00    -0.354 N 
ATOM     53  N   UNL A   1      41.240  29.930  34.124  1.00  0.00    -0.248 NA
ATOM     54  C   UNL A   1      42.512  29.878  36.080  1.00  0.00     0.031 C 
ATOM     55  C   UNL A   1      37.662  32.485  33.530  1.00  0.00     0.029 A 
ATOM     56  C   UNL A   1      38.796  31.716  33.738  1.00  0.00     0.049 A 
ATOM     57  H   UNL A   1      39.793  30.426  32.396  1.00  0.00     0.167 HD
ATOM     58  C   UNL A   1      40.683  30.801  35.055  1.00  0.00     0.074 A 
ATOM     59  C   UNL A   1      41.491  30.705  36.251  1.00  0.00     0.031 C 
ATOM     60  C   UNL A   1      39.600  31.606  34.928  1.00  0.00     0.037 A 
BRANCH  47  61
ATOM     61  C   UNL A   1      36.980  31.405  29.340  1.00  0.00     0.057 A 
ATOM     62  C   UNL A   1      35.870  30.627  28.986  1.00  0.00     0.134 A 
ATOM     63  C   UNL A   1      37.039  32.711  28.833  1.00  0.00     0.134 A 
ATOM     64  F   UNL A   1      35.758  29.365  29.425  1.00  0.00    -0.206 F 
ATOM     65  C   UNL A   1      34.872  31.120  28.143  1.00  0.00     0.040 A 
ATOM     66  C   UNL A   1      36.034  33.224  28.012  1.00  0.00     0.040 A 
ATOM     67  F   UNL A   1      38.071  33.513  29.138  1.00  0.00    -0.206 F 
ATOM     68  C   UNL A   1      34.950  32.425  27.659  1.00  0.00     0.006 A 
ENDBRANCH  47  61
BRANCH  48  69
ATOM     69  C   UNL A   1      44.363  27.873  35.034  1.00  0.00     0.057 A 
ATOM     70  C   UNL A   1      44.210  26.780  35.894  1.00  0.00     0.134 A 
ATOM     71  C   UNL A   1      45.608  28.518  35.031  1.00  0.00     0.134 A 
ATOM     72  F   UNL A   1      43.034  26.139  35.968  1.00  0.00    -0.206 F 
ATOM     73  C   UNL A   1      45.244  26.355  36.732  1.00  0.00     0.040 A 
ATOM     74  C   UNL A   1      46.659  28.085  35.840  1.00  0.00     0.040 A 
ATOM     75  F   UNL A   1      45.819  29.577  34.236  1.00  0.00    -0.206 F 
ATOM     76  C   UNL A   1      46.477  27.005  36.700  1.00  0.00     0.006 A 
ENDBRANCH  48  69
BRANCH  60  77
ATOM     77  C   UNL A   1      39.194  32.420  36.124  1.00  0.00     0.057 A 
ATOM     78  C   UNL A   1      39.622  33.741  36.302  1.00  0.00     0.134 A 
ATOM     79  C   UNL A   1      38.317  31.891  37.081  1.00  0.00     0.134 A 
ATOM     80  F   UNL A   1      40.472  34.306  35.430  1.00  0.00    -0.206 F 
ATOM     81  C   UNL A   1      39.208  34.500  37.399  1.00  0.00     0.040 A 
ATOM     82  C   UNL A   1      37.875  32.649  38.165  1.00  0.00     0.040 A 
ATOM     83  F   UNL A   1      37.860  30.635  36.964  1.00  0.00    -0.206 F 
ATOM     84  C   UNL A   1      38.324  33.957  38.330  1.00  0.00     0.006 A 
ENDBRANCH  60  77
ENDBRANCH  34  35
ENDBRANCH  27  29
ENDBRANCH  26  27
ENDBRANCH  25  26
ENDBRANCH  24  25
ENDBRANCH  23  24
ENDBRANCH  22  23
ENDBRANCH  21  22
ENDBRANCH   1  21
TORSDOF 22
ENDMDL
MODEL 3
REMARK VINA RESULT:      -9.1      5.065      7.752
REMARK SMILES C[C@H]([NH2+]CCc1ccco1)[C@@H](C)C(=O)OCCOCCOCCOC(=O)c1ccc(-c2c3nc(c(-c4c(F)cccc4F)c4ccc([nH]4)c(-c4c(F)cccc4F)c4nc(c(-c5c(F)cccc5F)c5ccc2[nH]5)C=C4)C=C3)cc1
REMARK SMILES IDX 18 1 17 2 16 3 15 4 13 5 14 6 11 7 12 8 2 9 1 10 3 11 4 14
REMARK SMILES IDX 5 15 6 16 7 17 10 18 8 19 9 20 19 21 20 22 21 23 22 24 23 25
REMARK SMILES IDX 24 26 25 27 26 28 27 29 28 30 80 31 29 32 79 33 30 34 31 35
REMARK SMILES IDX 32 36 73 37 33 38 78 39 72 40 74 41 34 42 77 43 71 44 70 45
REMARK SMILES IDX 35 47 61 48 44 49 60 50 45 51 48 52 59 53 75 54 46 55 47 56
REMARK SMILES IDX 58 58 76 59 49 60 36 61 37 62 42 63 38 64 39 65 41 66 43 67
REMARK SMILES IDX 40 68 62 69 63 70 68 71 64 72 65 73 67 74 69 75 66 76 50 77
REMARK SMILES IDX 51 78 56 79 52 80 53 81 55 82 57 83 54 84
REMARK H PARENT 3 12 3 13 74 46 48 57
REMARK Flexibility Score: inf
ROOT
ATOM      1  O   UNL A   1      32.985  31.106  26.994  1.00  0.00    -0.376 OA
ENDROOT
BRANCH   1   2
ATOM      2  C   UNL A   1      33.367  29.875  26.401  1.00  0.00     0.202 C 
BRANCH   2   3
ATOM      3  C   UNL A   1      32.255  29.102  25.670  1.00  0.00     0.261 C 
BRANCH   3   4
ATOM      4  O   UNL A   1      31.456  28.173  26.454  1.00  0.00    -0.463 OA
BRANCH   4   5
ATOM      5  C   UNL A   1      31.458  26.886  26.016  1.00  0.00     0.314 C 
ATOM      6  O   UNL A   1      31.387  25.914  26.763  1.00  0.00    -0.252 OA
BRANCH   5   7
ATOM      7  C   UNL A   1      31.731  26.704  24.517  1.00  0.00     0.154 C 
ATOM      8  C   UNL A   1      30.406  26.212  23.921  1.00  0.00     0.026 C 
BRANCH   7   9
ATOM      9  C   UNL A   1      32.943  25.842  24.043  1.00  0.00     0.193 C 
ATOM     10  C   UNL A   1      33.007  25.666  22.526  1.00  0.00     0.076 C 
BRANCH   9  11
ATOM     11  N   UNL A   1      33.054  24.546  24.763  1.00  0.00    -0.343 N 
ATOM     12  H   UNL A   1      32.812  24.718  25.739  1.00  0.00     0.346 HD
ATOM     13  H   UNL A   1      34.013  24.241  24.595  1.00  0.00     0.346 HD
BRANCH  11  14
ATOM     14  C   UNL A   1      32.222  23.428  24.295  1.00  0.00     0.268 C 
BRANCH  14  15
ATOM     15  C   UNL A   1      33.032  22.235  23.762  1.00  0.00     0.136 C 
BRANCH  15  16
ATOM     16  C   UNL A   1      34.483  22.379  24.032  1.00  0.00     0.109 A 
ATOM     17  C   UNL A   1      35.542  22.872  23.299  1.00  0.00     0.046 A 
ATOM     18  O   UNL A   1      34.918  21.931  25.243  1.00  0.00    -0.469 OA
ATOM     19  C   UNL A   1      36.691  22.708  24.107  1.00  0.00     0.042 A 
ATOM     20  C   UNL A   1      36.257  22.140  25.282  1.00  0.00     0.195 A 
ENDBRANCH  15  16
ENDBRANCH  14  15
ENDBRANCH  11  14
ENDBRANCH   9  11
ENDBRANCH   7   9
ENDBRANCH   5   7
ENDBRANCH   4   5
ENDBRANCH   3   4
ENDBRANCH   2   3
ENDBRANCH   1   2
BRANCH   1  21
ATOM     21  C   UNL A   1      33.970  31.816  27.738  1.00  0.00     0.188 C 
BRANCH  21  22
ATOM     22  C   UNL A   1      33.711  33.286  28.050  1.00  0.00     0.188 C 
BRANCH  22  23
ATOM     23  O   UNL A   1      34.639  33.798  29.000  1.00  0.00    -0.376 OA
BRANCH  23  24
ATOM     24  C   UNL A   1      33.998  34.651  29.945  1.00  0.00     0.202 C 
BRANCH  24  25
ATOM     25  C   UNL A   1      34.193  34.082  31.352  1.00  0.00     0.261 C 
BRANCH  25  26
ATOM     26  O   UNL A   1      34.639  32.706  31.387  1.00  0.00    -0.460 OA
BRANCH  26  27
ATOM     27  C   UNL A   1      35.544  32.369  32.330  1.00  0.00     0.338 C 
ATOM     28  O   UNL A   1      35.429  32.534  33.540  1.00  0.00    -0.246 OA
BRANCH  27  29
ATOM     29  C   UNL A   1      36.655  31.617  31.700  1.00  0.00     0.060 A 
ATOM     30  C   UNL A   1      37.519  30.867  32.508  1.00  0.00     0.016 A 
ATOM     31  C   UNL A   1      36.878  31.681  30.322  1.00  0.00     0.016 A 
ATOM     32  C   UNL A   1      38.615  30.197  31.949  1.00  0.00     0.010 A 
ATOM     33  C   UNL A   1      37.985  31.028  29.765  1.00  0.00     0.010 A 
ATOM     34  C   UNL A   1      38.875  30.300  30.576  1.00  0.00    -0.014 A 
BRANCH  34  35
ATOM     35  C   UNL A   1      40.140  29.775  29.997  1.00  0.00     0.031 A 
ATOM     36  C   UNL A   1      41.309  30.709  29.831  1.00  0.00     0.074 A 
ATOM     37  C   UNL A   1      40.257  28.490  29.613  1.00  0.00     0.049 A 
ATOM     38  N   UNL A   1      42.455  30.514  29.229  1.00  0.00    -0.248 NA
ATOM     39  C   UNL A   1      41.160  32.047  30.424  1.00  0.00     0.031 C 
ATOM     40  C   UNL A   1      39.231  27.462  29.772  1.00  0.00     0.029 A 
ATOM     41  N   UNL A   1      41.295  27.836  28.990  1.00  0.00    -0.354 N 
ATOM     42  C   UNL A   1      43.155  31.709  29.352  1.00  0.00     0.074 A 
ATOM     43  C   UNL A   1      42.298  32.628  30.072  1.00  0.00     0.031 C 
ATOM     44  C   UNL A   1      39.681  26.312  29.240  1.00  0.00     0.029 A 
ATOM     45  C   UNL A   1      41.005  26.535  28.661  1.00  0.00     0.049 A 
ATOM     46  H   UNL A   1      42.162  28.262  28.798  1.00  0.00     0.167 HD
ATOM     47  C   UNL A   1      44.397  32.013  28.905  1.00  0.00     0.037 A 
ATOM     48  C   UNL A   1      41.708  25.638  27.940  1.00  0.00     0.037 A 
ATOM     49  C   UNL A   1      45.250  31.097  28.192  1.00  0.00     0.049 A 
ATOM     50  C   UNL A   1      43.050  26.027  27.372  1.00  0.00     0.074 A 
ATOM     51  C   UNL A   1      46.531  31.310  27.711  1.00  0.00     0.029 A 
ATOM     52  N   UNL A   1      44.905  29.800  27.850  1.00  0.00    -0.354 N 
ATOM     53  N   UNL A   1      43.705  27.157  27.496  1.00  0.00    -0.248 NA
ATOM     54  C   UNL A   1      43.747  25.019  26.558  1.00  0.00     0.031 C 
ATOM     55  C   UNL A   1      46.938  30.159  27.029  1.00  0.00     0.029 A 
ATOM     56  C   UNL A   1      45.936  29.208  27.138  1.00  0.00     0.049 A 
ATOM     57  H   UNL A   1      44.053  29.362  28.080  1.00  0.00     0.167 HD
ATOM     58  C   UNL A   1      44.898  26.984  26.801  1.00  0.00     0.074 A 
ATOM     59  C   UNL A   1      44.882  25.639  26.271  1.00  0.00     0.031 C 
ATOM     60  C   UNL A   1      45.915  27.863  26.622  1.00  0.00     0.037 A 
BRANCH  47  61
ATOM     61  C   UNL A   1      44.896  33.409  29.140  1.00  0.00     0.057 A 
ATOM     62  C   UNL A   1      44.759  34.422  28.181  1.00  0.00     0.134 A 
ATOM     63  C   UNL A   1      45.494  33.754  30.360  1.00  0.00     0.134 A 
ATOM     64  F   UNL A   1      44.209  34.156  26.987  1.00  0.00    -0.206 F 
ATOM     65  C   UNL A   1      45.220  35.718  28.418  1.00  0.00     0.040 A 
ATOM     66  C   UNL A   1      45.934  35.053  30.619  1.00  0.00     0.040 A 
ATOM     67  F   UNL A   1      45.651  32.835  31.325  1.00  0.00    -0.206 F 
ATOM     68  C   UNL A   1      45.803  36.038  29.643  1.00  0.00     0.006 A 
ENDBRANCH  47  61
BRANCH  48  69
ATOM     69  C   UNL A   1      41.145  24.288  27.672  1.00  0.00     0.057 A 
ATOM     70  C   UNL A   1      41.610  23.156  28.352  1.00  0.00     0.134 A 
ATOM     71  C   UNL A   1      40.152  24.092  26.702  1.00  0.00     0.134 A 
ATOM     72  F   UNL A   1      42.582  23.272  29.268  1.00  0.00    -0.206 F 
ATOM     73  C   UNL A   1      41.121  21.879  28.069  1.00  0.00     0.040 A 
ATOM     74  C   UNL A   1      39.633  22.825  26.431  1.00  0.00     0.040 A 
ATOM     75  F   UNL A   1      39.669  25.133  26.008  1.00  0.00    -0.206 F 
ATOM     76  C   UNL A   1      40.123  21.712  27.109  1.00  0.00     0.006 A 
ENDBRANCH  48  69
BRANCH  60  77
ATOM     77  C   UNL A   1      47.117  27.390  25.854  1.00  0.00     0.057 A 
ATOM     78  C   UNL A   1      48.196  26.754  26.480  1.00  0.00     0.134 A 
ATOM     79  C   UNL A   1      47.169  27.526  24.460  1.00  0.00     0.134 A 
ATOM     80  F   UNL A   1      48.216  26.602  27.813  1.00  0.00    -0.206 F 
ATOM     81  C   UNL A   1      49.290  26.286  25.750  1.00  0.00     0.040 A 
ATOM     82  C   UNL A   1      48.244  27.037  23.717  1.00  0.00     0.040 A 
ATOM     83  F   UNL A   1      46.164  28.117  23.795  1.00  0.00    -0.206 F 
ATOM     84  C   UNL A   1      49.312  26.419  24.363  1.00  0.00     0.006 A 
ENDBRANCH  60  77
ENDBRANCH  34  35
ENDBRANCH  27  29
ENDBRANCH  26  27
ENDBRANCH  25  26
ENDBRANCH  24  25
ENDBRANCH  23  24
ENDBRANCH  22  23
ENDBRANCH  21  22
ENDBRANCH   1  21
TORSDOF 22
ENDMDL
