MODEL 1
REMARK VINA RESULT:     -12.3      0.000      0.000
REMARK SMILES CN1C(=O)C[C@H](C(=O)Nc2ccc(C(=O)OCCOCCOCCOC(=O)c3ccc(-c4c5nc(c(-c6c(F)cccc6F)c6ccc([nH]6)c(-c6c(F)cccc6F)c6nc(c(-c7c(F)cccc7F)c7ccc4[nH]7)C=C6)C=C5)cc3)cc2)S/C1=[NH+]\c1cccc(C(F)(F)F)c1
REMARK SMILES IDX 20 1 19 2 18 3 17 4 16 5 14 6 15 7 13 8 10 9 11 10 83 11
REMARK SMILES IDX 12 12 82 13 9 14 7 15 8 16 6 18 1 19 2 20 3 21 85 22 4 23
REMARK SMILES IDX 5 24 84 25 86 26 87 28 88 29 96 30 89 31 91 32 90 33 92 34
REMARK SMILES IDX 93 35 94 36 95 37 21 38 22 39 23 40 24 41 25 42 26 43 27 44
REMARK SMILES IDX 28 45 29 46 81 47 30 48 80 49 31 50 32 51 33 52 74 53 34 54
REMARK SMILES IDX 79 55 73 56 75 57 35 58 78 59 72 60 71 61 36 63 62 64 45 65
REMARK SMILES IDX 61 66 46 67 49 68 60 69 76 70 47 71 48 72 59 74 77 75 50 76
REMARK SMILES IDX 37 77 38 78 43 79 39 80 40 81 42 82 44 83 41 84 63 85 64 86
REMARK SMILES IDX 69 87 65 88 66 89 68 90 70 91 67 92 51 93 52 94 57 95 53 96
REMARK SMILES IDX 54 97 56 98 58 99 55 100
REMARK H PARENT 9 17 86 27 75 62 49 73
REMARK Flexibility Score: inf
ROOT
ATOM      1  C   UNL A   1      42.676  18.773  25.967  1.00  0.00     0.188 C 
ENDROOT
BRANCH   1   2
ATOM      2  O   UNL A   1      42.266  19.358  27.186  1.00  0.00    -0.376 OA
BRANCH   2   3
ATOM      3  C   UNL A   1      41.140  20.219  27.231  1.00  0.00     0.202 C 
BRANCH   3   4
ATOM      4  C   UNL A   1      41.141  21.594  26.546  1.00  0.00     0.261 C 
BRANCH   4   5
ATOM      5  O   UNL A   1      39.942  21.906  25.819  1.00  0.00    -0.460 OA
BRANCH   5   6
ATOM      6  C   UNL A   1      39.113  22.788  26.432  1.00  0.00     0.338 C 
ATOM      7  O   UNL A   1      39.427  23.575  27.311  1.00  0.00    -0.246 OA
BRANCH   6   8
ATOM      8  C   UNL A   1      37.762  22.795  25.803  1.00  0.00     0.060 A 
ATOM      9  C   UNL A   1      35.660  23.036  24.032  1.00  0.00     0.041 A 
ATOM     10  C   UNL A   1      36.302  21.804  24.164  1.00  0.00     0.027 A 
ATOM     11  C   UNL A   1      35.804  23.981  25.031  1.00  0.00     0.027 A 
ATOM     12  C   UNL A   1      37.410  21.709  25.004  1.00  0.00     0.018 A 
ATOM     13  C   UNL A   1      36.847  23.842  25.951  1.00  0.00     0.018 A 
BRANCH   9  14
ATOM     14  N   UNL A   1      34.943  23.263  22.858  1.00  0.00    -0.325 N 
ATOM     15  C   UNL A   1      33.655  23.009  22.490  1.00  0.00     0.238 C 
ATOM     16  O   UNL A   1      33.371  23.416  21.350  1.00  0.00    -0.273 OA
ATOM     17  H   UNL A   1      35.475  23.694  22.151  1.00  0.00     0.169 HD
BRANCH  15  18
ATOM     18  C   UNL A   1      32.514  22.415  23.336  1.00  0.00     0.160 C 
ATOM     19  C   UNL A   1      32.918  22.228  27.723  1.00  0.00     0.301 C 
ATOM     20  N   UNL A   1      32.672  22.342  26.284  1.00  0.00    -0.194 N 
ATOM     21  C   UNL A   1      32.863  21.159  25.573  1.00  0.00     0.311 C 
ATOM     22  C   UNL A   1      32.374  23.601  25.751  1.00  0.00     0.319 C 
ATOM     23  O   UNL A   1      33.238  20.116  26.123  1.00  0.00    -0.247 OA
ATOM     24  C   UNL A   1      32.660  21.120  24.080  1.00  0.00     0.153 C 
ATOM     25  S   UNL A   1      31.544  23.616  24.226  1.00  0.00    -0.024 SA
ATOM     26  N   UNL A   1      32.671  24.676  26.409  1.00  0.00    -0.235 N 
ATOM     27  H   UNL A   1      33.100  24.580  27.290  1.00  0.00     0.313 HD
BRANCH  26  28
ATOM     28  C   UNL A   1      32.413  25.970  25.929  1.00  0.00     0.126 A 
ATOM     29  C   UNL A   1      31.533  26.867  26.546  1.00  0.00     0.052 A 
ATOM     30  C   UNL A   1      33.017  26.360  24.741  1.00  0.00     0.064 A 
ATOM     31  C   UNL A   1      31.221  28.103  25.983  1.00  0.00     0.005 A 
ATOM     32  C   UNL A   1      32.782  27.633  24.197  1.00  0.00     0.060 A 
ATOM     33  C   UNL A   1      31.852  28.488  24.809  1.00  0.00     0.013 A 
BRANCH  32  34
ATOM     34  C   UNL A   1      33.558  28.100  22.999  1.00  0.00     0.416 C 
ATOM     35  F   UNL A   1      33.757  27.117  22.082  1.00  0.00    -0.166 F 
ATOM     36  F   UNL A   1      32.914  29.104  22.338  1.00  0.00    -0.166 F 
ATOM     37  F   UNL A   1      34.791  28.591  23.304  1.00  0.00    -0.166 F 
ENDBRANCH  32  34
ENDBRANCH  26  28
ENDBRANCH  15  18
ENDBRANCH   9  14
ENDBRANCH   6   8
ENDBRANCH   5   6
ENDBRANCH   4   5
ENDBRANCH   3   4
ENDBRANCH   2   3
ENDBRANCH   1   2
BRANCH   1  38
ATOM     38  C   UNL A   1      44.050  19.115  25.358  1.00  0.00     0.188 C 
BRANCH  38  39
ATOM     39  O   UNL A   1      44.209  20.210  24.493  1.00  0.00    -0.376 OA
BRANCH  39  40
ATOM     40  C   UNL A   1      44.246  21.509  25.049  1.00  0.00     0.202 C 
BRANCH  40  41
ATOM     41  C   UNL A   1      44.257  22.792  24.192  1.00  0.00     0.261 C 
BRANCH  41  42
ATOM     42  O   UNL A   1      43.579  23.946  24.719  1.00  0.00    -0.460 OA
BRANCH  42  43
ATOM     43  C   UNL A   1      44.381  24.972  25.125  1.00  0.00     0.338 C 
ATOM     44  O   UNL A   1      45.429  25.326  24.631  1.00  0.00    -0.246 OA
BRANCH  43  45
ATOM     45  C   UNL A   1      43.662  25.765  26.153  1.00  0.00     0.060 A 
ATOM     46  C   UNL A   1      44.234  26.953  26.642  1.00  0.00     0.016 A 
ATOM     47  C   UNL A   1      42.440  25.319  26.647  1.00  0.00     0.016 A 
ATOM     48  C   UNL A   1      43.590  27.691  27.639  1.00  0.00     0.010 A 
ATOM     49  C   UNL A   1      41.815  26.037  27.670  1.00  0.00     0.010 A 
ATOM     50  C   UNL A   1      42.397  27.209  28.191  1.00  0.00    -0.014 A 
BRANCH  50  51
ATOM     51  C   UNL A   1      41.859  27.763  29.459  1.00  0.00     0.031 A 
ATOM     52  C   UNL A   1      40.640  28.640  29.374  1.00  0.00     0.074 A 
ATOM     53  C   UNL A   1      42.453  27.548  30.645  1.00  0.00     0.049 A 
ATOM     54  N   UNL A   1      40.104  29.415  30.280  1.00  0.00    -0.248 NA
ATOM     55  C   UNL A   1      39.939  28.652  28.078  1.00  0.00     0.031 C 
ATOM     56  C   UNL A   1      43.595  26.669  30.881  1.00  0.00     0.029 A 
ATOM     57  N   UNL A   1      42.185  28.091  31.880  1.00  0.00    -0.354 N 
ATOM     58  C   UNL A   1      39.014  30.015  29.663  1.00  0.00     0.074 A 
ATOM     59  C   UNL A   1      38.982  29.539  28.297  1.00  0.00     0.031 C 
ATOM     60  C   UNL A   1      43.952  26.758  32.176  1.00  0.00     0.029 A 
ATOM     61  C   UNL A   1      43.096  27.737  32.846  1.00  0.00     0.049 A 
ATOM     62  H   UNL A   1      41.413  28.677  32.055  1.00  0.00     0.167 HD
ATOM     63  C   UNL A   1      38.117  30.883  30.186  1.00  0.00     0.037 A 
ATOM     64  C   UNL A   1      43.244  28.187  34.109  1.00  0.00     0.037 A 
ATOM     65  C   UNL A   1      38.159  31.369  31.538  1.00  0.00     0.049 A 
ATOM     66  C   UNL A   1      42.303  29.247  34.635  1.00  0.00     0.074 A 
ATOM     67  C   UNL A   1      37.311  32.268  32.159  1.00  0.00     0.029 A 
ATOM     68  N   UNL A   1      39.108  30.998  32.479  1.00  0.00    -0.354 N 
ATOM     69  N   UNL A   1      41.278  29.816  34.046  1.00  0.00    -0.248 NA
ATOM     70  C   UNL A   1      42.544  29.731  36.004  1.00  0.00     0.031 C 
ATOM     71  C   UNL A   1      37.772  32.476  33.462  1.00  0.00     0.029 A 
ATOM     72  C   UNL A   1      38.870  31.658  33.671  1.00  0.00     0.049 A 
ATOM     73  H   UNL A   1      39.840  30.358  32.322  1.00  0.00     0.167 HD
ATOM     74  C   UNL A   1      40.726  30.681  34.987  1.00  0.00     0.074 A 
ATOM     75  C   UNL A   1      41.529  30.562  36.185  1.00  0.00     0.031 C 
ATOM     76  C   UNL A   1      39.651  31.498  34.871  1.00  0.00     0.037 A 
BRANCH  63  77
ATOM     77  C   UNL A   1      37.024  31.376  29.284  1.00  0.00     0.057 A 
ATOM     78  C   UNL A   1      35.924  30.574  28.955  1.00  0.00     0.134 A 
ATOM     79  C   UNL A   1      37.053  32.678  28.768  1.00  0.00     0.134 A 
ATOM     80  F   UNL A   1      35.843  29.313  29.402  1.00  0.00    -0.206 F 
ATOM     81  C   UNL A   1      34.902  31.043  28.128  1.00  0.00     0.040 A 
ATOM     82  C   UNL A   1      36.023  33.168  27.965  1.00  0.00     0.040 A 
ATOM     83  F   UNL A   1      38.077  33.499  29.046  1.00  0.00    -0.206 F 
ATOM     84  C   UNL A   1      34.946  32.347  27.637  1.00  0.00     0.006 A 
ENDBRANCH  63  77
BRANCH  64  85
ATOM     85  C   UNL A   1      44.343  27.680  34.974  1.00  0.00     0.057 A 
ATOM     86  C   UNL A   1      44.158  26.557  35.792  1.00  0.00     0.134 A 
ATOM     87  C   UNL A   1      45.573  28.342  35.065  1.00  0.00     0.134 A 
ATOM     88  F   UNL A   1      42.992  25.895  35.774  1.00  0.00    -0.206 F 
ATOM     89  C   UNL A   1      45.140  26.132  36.690  1.00  0.00     0.040 A 
ATOM     90  C   UNL A   1      46.577  27.909  35.934  1.00  0.00     0.040 A 
ATOM     91  F   UNL A   1      45.816  29.427  34.314  1.00  0.00    -0.206 F 
ATOM     92  C   UNL A   1      46.355  26.809  36.761  1.00  0.00     0.006 A 
ENDBRANCH  64  85
BRANCH  76  93
ATOM     93  C   UNL A   1      39.217  32.266  36.087  1.00  0.00     0.057 A 
ATOM     94  C   UNL A   1      39.676  33.560  36.360  1.00  0.00     0.134 A 
ATOM     95  C   UNL A   1      38.267  31.720  36.962  1.00  0.00     0.134 A 
ATOM     96  F   UNL A   1      40.592  34.138  35.569  1.00  0.00    -0.206 F 
ATOM     97  C   UNL A   1      39.218  34.277  37.467  1.00  0.00     0.040 A 
ATOM     98  C   UNL A   1      37.780  32.437  38.054  1.00  0.00     0.040 A 
ATOM     99  F   UNL A   1      37.776  30.488  36.753  1.00  0.00    -0.206 F 
ATOM    100  C   UNL A   1      38.260  33.720  38.312  1.00  0.00     0.006 A 
ENDBRANCH  76  93
ENDBRANCH  50  51
ENDBRANCH  43  45
ENDBRANCH  42  43
ENDBRANCH  41  42
ENDBRANCH  40  41
ENDBRANCH  39  40
ENDBRANCH  38  39
ENDBRANCH   1  38
TORSDOF 21
ENDMDL
MODEL 2
REMARK VINA RESULT:     -12.3      0.872      5.740
REMARK SMILES CN1C(=O)C[C@H](C(=O)Nc2ccc(C(=O)OCCOCCOCCOC(=O)c3ccc(-c4c5nc(c(-c6c(F)cccc6F)c6ccc([nH]6)c(-c6c(F)cccc6F)c6nc(c(-c7c(F)cccc7F)c7ccc4[nH]7)C=C6)C=C5)cc3)cc2)S/C1=[NH+]\c1cccc(C(F)(F)F)c1
REMARK SMILES IDX 20 1 19 2 18 3 17 4 16 5 14 6 15 7 13 8 10 9 11 10 83 11
REMARK SMILES IDX 12 12 82 13 9 14 7 15 8 16 6 18 1 19 2 20 3 21 85 22 4 23
REMARK SMILES IDX 5 24 84 25 86 26 87 28 88 29 96 30 89 31 91 32 90 33 92 34
REMARK SMILES IDX 93 35 94 36 95 37 21 38 22 39 23 40 24 41 25 42 26 43 27 44
REMARK SMILES IDX 28 45 29 46 81 47 30 48 80 49 31 50 32 51 33 52 74 53 34 54
REMARK SMILES IDX 79 55 73 56 75 57 35 58 78 59 72 60 71 61 36 63 62 64 45 65
REMARK SMILES IDX 61 66 46 67 49 68 60 69 76 70 47 71 48 72 59 74 77 75 50 76
REMARK SMILES IDX 37 77 38 78 43 79 39 80 40 81 42 82 44 83 41 84 63 85 64 86
REMARK SMILES IDX 69 87 65 88 66 89 68 90 70 91 67 92 51 93 52 94 57 95 53 96
REMARK SMILES IDX 54 97 56 98 58 99 55 100
REMARK H PARENT 9 17 86 27 75 62 49 73
REMARK Flexibility Score: inf
ROOT
ATOM      1  C   UNL A   1      44.211  19.105  25.034  1.00  0.00     0.188 C 
ENDROOT
BRANCH   1   2
ATOM      2  O   UNL A   1      43.274  19.334  26.066  1.00  0.00    -0.376 OA
BRANCH   2   3
ATOM      3  C   UNL A   1      41.922  19.636  25.760  1.00  0.00     0.202 C 
BRANCH   3   4
ATOM      4  C   UNL A   1      41.133  20.701  26.534  1.00  0.00     0.261 C 
BRANCH   4   5
ATOM      5  O   UNL A   1      40.124  21.380  25.768  1.00  0.00    -0.460 OA
BRANCH   5   6
ATOM      6  C   UNL A   1      39.362  22.254  26.472  1.00  0.00     0.338 C 
ATOM      7  O   UNL A   1      39.736  22.930  27.417  1.00  0.00    -0.246 OA
BRANCH   6   8
ATOM      8  C   UNL A   1      38.012  22.414  25.862  1.00  0.00     0.060 A 
ATOM      9  C   UNL A   1      35.924  22.929  24.133  1.00  0.00     0.041 A 
ATOM     10  C   UNL A   1      36.451  21.638  24.201  1.00  0.00     0.027 A 
ATOM     11  C   UNL A   1      36.164  23.809  25.172  1.00  0.00     0.027 A 
ATOM     12  C   UNL A   1      37.554  21.403  25.020  1.00  0.00     0.018 A 
ATOM     13  C   UNL A   1      37.198  23.533  26.070  1.00  0.00     0.018 A 
BRANCH   9  14
ATOM     14  N   UNL A   1      35.220  23.275  22.981  1.00  0.00    -0.325 N 
ATOM     15  C   UNL A   1      33.913  23.147  22.615  1.00  0.00     0.238 C 
ATOM     16  O   UNL A   1      33.655  23.635  21.501  1.00  0.00    -0.273 OA
ATOM     17  H   UNL A   1      35.781  23.696  22.291  1.00  0.00     0.169 HD
BRANCH  15  18
ATOM     18  C   UNL A   1      32.732  22.607  23.442  1.00  0.00     0.160 C 
ATOM     19  C   UNL A   1      33.064  22.387  27.835  1.00  0.00     0.301 C 
ATOM     20  N   UNL A   1      32.845  22.517  26.393  1.00  0.00    -0.194 N 
ATOM     21  C   UNL A   1      32.989  21.329  25.679  1.00  0.00     0.311 C 
ATOM     22  C   UNL A   1      32.615  23.791  25.860  1.00  0.00     0.319 C 
ATOM     23  O   UNL A   1      33.305  20.268  26.231  1.00  0.00    -0.247 OA
ATOM     24  C   UNL A   1      32.805  21.305  24.184  1.00  0.00     0.153 C 
ATOM     25  S   UNL A   1      31.809  23.851  24.323  1.00  0.00    -0.024 SA
ATOM     26  N   UNL A   1      32.955  24.848  26.526  1.00  0.00    -0.235 N 
ATOM     27  H   UNL A   1      33.366  24.729  27.413  1.00  0.00     0.313 HD
BRANCH  26  28
ATOM     28  C   UNL A   1      32.767  26.155  26.047  1.00  0.00     0.126 A 
ATOM     29  C   UNL A   1      32.075  27.149  26.751  1.00  0.00     0.052 A 
ATOM     30  C   UNL A   1      33.237  26.461  24.777  1.00  0.00     0.064 A 
ATOM     31  C   UNL A   1      31.817  28.402  26.199  1.00  0.00     0.005 A 
ATOM     32  C   UNL A   1      33.061  27.743  24.233  1.00  0.00     0.060 A 
ATOM     33  C   UNL A   1      32.316  28.701  24.939  1.00  0.00     0.013 A 
BRANCH  32  34
ATOM     34  C   UNL A   1      33.708  28.108  22.927  1.00  0.00     0.416 C 
ATOM     35  F   UNL A   1      32.927  28.910  22.157  1.00  0.00    -0.166 F 
ATOM     36  F   UNL A   1      34.876  28.787  23.113  1.00  0.00    -0.166 F 
ATOM     37  F   UNL A   1      34.026  27.031  22.156  1.00  0.00    -0.166 F 
ENDBRANCH  32  34
ENDBRANCH  26  28
ENDBRANCH  15  18
ENDBRANCH   9  14
ENDBRANCH   6   8
ENDBRANCH   5   6
ENDBRANCH   4   5
ENDBRANCH   3   4
ENDBRANCH   2   3
ENDBRANCH   1   2
BRANCH   1  38
ATOM     38  C   UNL A   1      45.719  19.301  25.287  1.00  0.00     0.188 C 
BRANCH  38  39
ATOM     39  O   UNL A   1      46.375  20.478  24.891  1.00  0.00    -0.376 OA
BRANCH  39  40
ATOM     40  C   UNL A   1      45.886  21.716  25.367  1.00  0.00     0.202 C 
BRANCH  40  41
ATOM     41  C   UNL A   1      45.929  23.015  24.535  1.00  0.00     0.261 C 
BRANCH  41  42
ATOM     42  O   UNL A   1      45.079  24.097  24.952  1.00  0.00    -0.460 OA
BRANCH  42  43
ATOM     43  C   UNL A   1      43.740  23.837  24.945  1.00  0.00     0.338 C 
ATOM     44  O   UNL A   1      43.180  22.874  24.466  1.00  0.00    -0.246 OA
BRANCH  43  45
ATOM     45  C   UNL A   1      43.056  24.814  25.828  1.00  0.00     0.060 A 
ATOM     46  C   UNL A   1      43.002  26.170  25.457  1.00  0.00     0.016 A 
ATOM     47  C   UNL A   1      42.495  24.392  27.029  1.00  0.00     0.016 A 
ATOM     48  C   UNL A   1      42.398  27.110  26.296  1.00  0.00     0.010 A 
ATOM     49  C   UNL A   1      41.924  25.338  27.884  1.00  0.00     0.010 A 
ATOM     50  C   UNL A   1      41.896  26.703  27.538  1.00  0.00    -0.014 A 
BRANCH  50  51
ATOM     51  C   UNL A   1      41.558  27.694  28.591  1.00  0.00     0.031 A 
ATOM     52  C   UNL A   1      42.364  27.665  29.860  1.00  0.00     0.074 A 
ATOM     53  C   UNL A   1      40.537  28.559  28.460  1.00  0.00     0.049 A 
ATOM     54  N   UNL A   1      42.144  28.260  31.003  1.00  0.00    -0.248 NA
ATOM     55  C   UNL A   1      43.583  26.838  29.835  1.00  0.00     0.031 C 
ATOM     56  C   UNL A   1      39.719  28.740  27.265  1.00  0.00     0.029 A 
ATOM     57  N   UNL A   1      39.996  29.433  29.375  1.00  0.00    -0.354 N 
ATOM     58  C   UNL A   1      43.185  27.869  31.836  1.00  0.00     0.074 A 
ATOM     59  C   UNL A   1      44.020  26.963  31.078  1.00  0.00     0.031 C 
ATOM     60  C   UNL A   1      38.757  29.643  27.528  1.00  0.00     0.029 A 
ATOM     61  C   UNL A   1      38.862  30.066  28.925  1.00  0.00     0.049 A 
ATOM     62  H   UNL A   1      40.384  29.589  30.266  1.00  0.00     0.167 HD
ATOM     63  C   UNL A   1      43.426  28.233  33.117  1.00  0.00     0.037 A 
ATOM     64  C   UNL A   1      37.990  30.856  29.582  1.00  0.00     0.037 A 
ATOM     65  C   UNL A   1      42.587  29.119  33.875  1.00  0.00     0.049 A 
ATOM     66  C   UNL A   1      38.213  31.154  31.047  1.00  0.00     0.074 A 
ATOM     67  C   UNL A   1      42.731  29.533  35.187  1.00  0.00     0.029 A 
ATOM     68  N   UNL A   1      41.439  29.725  33.388  1.00  0.00    -0.354 N 
ATOM     69  N   UNL A   1      39.195  30.777  31.831  1.00  0.00    -0.248 NA
ATOM     70  C   UNL A   1      37.202  31.985  31.720  1.00  0.00     0.031 C 
ATOM     71  C   UNL A   1      41.647  30.354  35.508  1.00  0.00     0.029 A 
ATOM     72  C   UNL A   1      40.862  30.502  34.377  1.00  0.00     0.049 A 
ATOM     73  H   UNL A   1      41.089  29.621  32.473  1.00  0.00     0.167 HD
ATOM     74  C   UNL A   1      38.945  31.366  33.068  1.00  0.00     0.074 A 
ATOM     75  C   UNL A   1      37.721  32.124  32.931  1.00  0.00     0.031 C 
ATOM     76  C   UNL A   1      39.665  31.287  34.214  1.00  0.00     0.037 A 
BRANCH  63  77
ATOM     77  C   UNL A   1      44.641  27.656  33.783  1.00  0.00     0.057 A 
ATOM     78  C   UNL A   1      44.601  26.422  34.445  1.00  0.00     0.134 A 
ATOM     79  C   UNL A   1      45.871  28.324  33.733  1.00  0.00     0.134 A 
ATOM     80  F   UNL A   1      43.451  25.739  34.544  1.00  0.00    -0.206 F 
ATOM     81  C   UNL A   1      45.737  25.883  35.051  1.00  0.00     0.040 A 
ATOM     82  C   UNL A   1      47.020  27.780  34.309  1.00  0.00     0.040 A 
ATOM     83  F   UNL A   1      45.979  29.509  33.114  1.00  0.00    -0.206 F 
ATOM     84  C   UNL A   1      46.953  26.559  34.976  1.00  0.00     0.006 A 
ENDBRANCH  63  77
BRANCH  64  85
ATOM     85  C   UNL A   1      36.792  31.408  28.891  1.00  0.00     0.057 A 
ATOM     86  C   UNL A   1      36.731  32.758  28.521  1.00  0.00     0.134 A 
ATOM     87  C   UNL A   1      35.656  30.626  28.652  1.00  0.00     0.134 A 
ATOM     88  F   UNL A   1      37.775  33.568  28.749  1.00  0.00    -0.206 F 
ATOM     89  C   UNL A   1      35.575  33.317  27.971  1.00  0.00     0.040 A 
ATOM     90  C   UNL A   1      34.505  31.163  28.072  1.00  0.00     0.040 A 
ATOM     91  F   UNL A   1      35.644  29.327  28.986  1.00  0.00    -0.206 F 
ATOM     92  C   UNL A   1      34.457  32.517  27.743  1.00  0.00     0.006 A 
ENDBRANCH  64  85
BRANCH  76  93
ATOM     93  C   UNL A   1      39.208  32.105  35.389  1.00  0.00     0.057 A 
ATOM     94  C   UNL A   1      39.517  33.463  35.523  1.00  0.00     0.134 A 
ATOM     95  C   UNL A   1      38.383  31.530  36.367  1.00  0.00     0.134 A 
ATOM     96  F   UNL A   1      40.309  34.073  34.627  1.00  0.00    -0.206 F 
ATOM     97  C   UNL A   1      39.036  34.218  36.595  1.00  0.00     0.040 A 
ATOM     98  C   UNL A   1      37.873  32.280  37.426  1.00  0.00     0.040 A 
ATOM     99  F   UNL A   1      38.038  30.236  36.293  1.00  0.00    -0.206 F 
ATOM    100  C   UNL A   1      38.204  33.628  37.545  1.00  0.00     0.006 A 
ENDBRANCH  76  93
ENDBRANCH  50  51
ENDBRANCH  43  45
ENDBRANCH  42  43
ENDBRANCH  41  42
ENDBRANCH  40  41
ENDBRANCH  39  40
ENDBRANCH  38  39
ENDBRANCH   1  38
TORSDOF 21
ENDMDL
MODEL 3
REMARK VINA RESULT:     -12.1      4.914     10.290
REMARK SMILES CN1C(=O)C[C@H](C(=O)Nc2ccc(C(=O)OCCOCCOCCOC(=O)c3ccc(-c4c5nc(c(-c6c(F)cccc6F)c6ccc([nH]6)c(-c6c(F)cccc6F)c6nc(c(-c7c(F)cccc7F)c7ccc4[nH]7)C=C6)C=C5)cc3)cc2)S/C1=[NH+]\c1cccc(C(F)(F)F)c1
REMARK SMILES IDX 20 1 19 2 18 3 17 4 16 5 14 6 15 7 13 8 10 9 11 10 83 11
REMARK SMILES IDX 12 12 82 13 9 14 7 15 8 16 6 18 1 19 2 20 3 21 85 22 4 23
REMARK SMILES IDX 5 24 84 25 86 26 87 28 88 29 96 30 89 31 91 32 90 33 92 34
REMARK SMILES IDX 93 35 94 36 95 37 21 38 22 39 23 40 24 41 25 42 26 43 27 44
REMARK SMILES IDX 28 45 29 46 81 47 30 48 80 49 31 50 32 51 33 52 74 53 34 54
REMARK SMILES IDX 79 55 73 56 75 57 35 58 78 59 72 60 71 61 36 63 62 64 45 65
REMARK SMILES IDX 61 66 46 67 49 68 60 69 76 70 47 71 48 72 59 74 77 75 50 76
REMARK SMILES IDX 37 77 38 78 43 79 39 80 40 81 42 82 44 83 41 84 63 85 64 86
REMARK SMILES IDX 69 87 65 88 66 89 68 90 70 91 67 92 51 93 52 94 57 95 53 96
REMARK SMILES IDX 54 97 56 98 58 99 55 100
REMARK H PARENT 9 17 86 27 75 62 49 73
REMARK Flexibility Score: inf
ROOT
ATOM      1  C   UNL A   1      33.279  36.376  30.245  1.00  0.00     0.188 C 
ENDROOT
BRANCH   1   2
ATOM      2  O   UNL A   1      33.756  35.648  29.134  1.00  0.00    -0.376 OA
BRANCH   2   3
ATOM      3  C   UNL A   1      33.367  34.299  28.933  1.00  0.00     0.202 C 
BRANCH   3   4
ATOM      4  C   UNL A   1      34.210  33.326  28.096  1.00  0.00     0.261 C 
BRANCH   4   5
ATOM      5  O   UNL A   1      33.895  31.937  28.286  1.00  0.00    -0.460 OA
BRANCH   5   6
ATOM      6  C   UNL A   1      34.622  31.077  27.529  1.00  0.00     0.338 C 
ATOM      7  O   UNL A   1      35.838  31.060  27.430  1.00  0.00    -0.246 OA
BRANCH   6   8
ATOM      8  C   UNL A   1      33.759  30.026  26.917  1.00  0.00     0.060 A 
ATOM      9  C   UNL A   1      32.047  27.899  26.515  1.00  0.00     0.041 A 
ATOM     10  C   UNL A   1      31.522  29.190  26.610  1.00  0.00     0.027 A 
ATOM     11  C   UNL A   1      33.390  27.740  26.231  1.00  0.00     0.027 A 
ATOM     12  C   UNL A   1      32.383  30.249  26.888  1.00  0.00     0.018 A 
ATOM     13  C   UNL A   1      34.254  28.825  26.400  1.00  0.00     0.018 A 
BRANCH   9  14
ATOM     14  N   UNL A   1      31.183  26.836  26.768  1.00  0.00    -0.325 N 
ATOM     15  C   UNL A   1      30.314  26.136  25.985  1.00  0.00     0.238 C 
ATOM     16  O   UNL A   1      29.748  25.201  26.577  1.00  0.00    -0.273 OA
ATOM     17  H   UNL A   1      31.205  26.527  27.702  1.00  0.00     0.169 HD
BRANCH  15  18
ATOM     18  C   UNL A   1      30.056  26.277  24.473  1.00  0.00     0.160 C 
ATOM     19  C   UNL A   1      33.350  27.476  21.798  1.00  0.00     0.301 C 
ATOM     20  N   UNL A   1      32.233  26.984  22.608  1.00  0.00    -0.194 N 
ATOM     21  C   UNL A   1      31.291  27.956  22.938  1.00  0.00     0.311 C 
ATOM     22  C   UNL A   1      32.256  25.655  23.048  1.00  0.00     0.319 C 
ATOM     23  O   UNL A   1      31.418  29.137  22.592  1.00  0.00    -0.247 OA
ATOM     24  C   UNL A   1      30.089  27.605  23.777  1.00  0.00     0.153 C 
ATOM     25  S   UNL A   1      30.725  24.959  23.478  1.00  0.00    -0.024 SA
ATOM     26  N   UNL A   1      33.369  24.996  23.074  1.00  0.00    -0.235 N 
ATOM     27  H   UNL A   1      34.189  25.449  22.770  1.00  0.00     0.313 HD
BRANCH  26  28
ATOM     28  C   UNL A   1      33.467  23.666  23.516  1.00  0.00     0.126 A 
ATOM     29  C   UNL A   1      32.899  22.579  22.841  1.00  0.00     0.052 A 
ATOM     30  C   UNL A   1      34.109  23.423  24.723  1.00  0.00     0.064 A 
ATOM     31  C   UNL A   1      32.926  21.288  23.364  1.00  0.00     0.005 A 
ATOM     32  C   UNL A   1      34.221  22.118  25.229  1.00  0.00     0.060 A 
ATOM     33  C   UNL A   1      33.593  21.057  24.558  1.00  0.00     0.013 A 
BRANCH  32  34
ATOM     34  C   UNL A   1      35.050  21.848  26.452  1.00  0.00     0.416 C 
ATOM     35  F   UNL A   1      34.357  21.204  27.428  1.00  0.00    -0.166 F 
ATOM     36  F   UNL A   1      36.125  21.058  26.171  1.00  0.00    -0.166 F 
ATOM     37  F   UNL A   1      35.559  22.973  27.026  1.00  0.00    -0.166 F 
ENDBRANCH  32  34
ENDBRANCH  26  28
ENDBRANCH  15  18
ENDBRANCH   9  14
ENDBRANCH   6   8
ENDBRANCH   5   6
ENDBRANCH   4   5
ENDBRANCH   3   4
ENDBRANCH   2   3
ENDBRANCH   1   2
BRANCH   1  38
ATOM     38  C   UNL A   1      33.159  35.707  31.629  1.00  0.00     0.188 C 
BRANCH  38  39
ATOM     39  O   UNL A   1      34.224  35.736  32.544  1.00  0.00    -0.376 OA
BRANCH  39  40
ATOM     40  C   UNL A   1      35.450  35.137  32.173  1.00  0.00     0.202 C 
BRANCH  40  41
ATOM     41  C   UNL A   1      36.334  34.347  33.160  1.00  0.00     0.261 C 
BRANCH  41  42
ATOM     42  O   UNL A   1      35.937  33.001  33.473  1.00  0.00    -0.460 OA
BRANCH  42  43
ATOM     43  C   UNL A   1      35.373  32.295  32.450  1.00  0.00     0.338 C 
ATOM     44  O   UNL A   1      34.254  32.419  32.001  1.00  0.00    -0.246 OA
BRANCH  43  45
ATOM     45  C   UNL A   1      36.423  31.480  31.792  1.00  0.00     0.060 A 
ATOM     46  C   UNL A   1      36.997  30.396  32.480  1.00  0.00     0.016 A 
ATOM     47  C   UNL A   1      36.855  31.806  30.510  1.00  0.00     0.016 A 
ATOM     48  C   UNL A   1      38.017  29.643  31.891  1.00  0.00     0.010 A 
ATOM     49  C   UNL A   1      37.899  31.076  29.936  1.00  0.00     0.010 A 
ATOM     50  C   UNL A   1      38.505  30.011  30.631  1.00  0.00    -0.014 A 
BRANCH  50  51
ATOM     51  C   UNL A   1      39.787  29.467  30.116  1.00  0.00     0.031 A 
ATOM     52  C   UNL A   1      40.947  30.417  29.994  1.00  0.00     0.074 A 
ATOM     53  C   UNL A   1      39.916  28.191  29.717  1.00  0.00     0.049 A 
ATOM     54  N   UNL A   1      42.092  30.262  29.383  1.00  0.00    -0.248 NA
ATOM     55  C   UNL A   1      40.782  31.729  30.644  1.00  0.00     0.031 C 
ATOM     56  C   UNL A   1      38.899  27.150  29.840  1.00  0.00     0.029 A 
ATOM     57  N   UNL A   1      40.966  27.562  29.088  1.00  0.00    -0.354 N 
ATOM     58  C   UNL A   1      42.777  31.457  29.561  1.00  0.00     0.074 A 
ATOM     59  C   UNL A   1      41.909  32.338  30.312  1.00  0.00     0.031 C 
ATOM     60  C   UNL A   1      39.362  26.020  29.274  1.00  0.00     0.029 A 
ATOM     61  C   UNL A   1      40.686  26.273  28.705  1.00  0.00     0.049 A 
ATOM     62  H   UNL A   1      41.836  27.996  28.929  1.00  0.00     0.167 HD
ATOM     63  C   UNL A   1      44.019  31.792  29.141  1.00  0.00     0.037 A 
ATOM     64  C   UNL A   1      41.399  25.417  27.946  1.00  0.00     0.037 A 
ATOM     65  C   UNL A   1      44.875  30.922  28.381  1.00  0.00     0.049 A 
ATOM     66  C   UNL A   1      42.733  25.855  27.385  1.00  0.00     0.074 A 
ATOM     67  C   UNL A   1      46.142  31.175  27.887  1.00  0.00     0.029 A 
ATOM     68  N   UNL A   1      44.546  29.631  28.000  1.00  0.00    -0.354 N 
ATOM     69  N   UNL A   1      43.373  26.987  27.551  1.00  0.00    -0.248 NA
ATOM     70  C   UNL A   1      43.442  24.892  26.526  1.00  0.00     0.031 C 
ATOM     71  C   UNL A   1      46.562  30.052  27.170  1.00  0.00     0.029 A 
ATOM     72  C   UNL A   1      45.582  29.078  27.270  1.00  0.00     0.049 A 
ATOM     73  H   UNL A   1      43.701  29.174  28.219  1.00  0.00     0.167 HD
ATOM     74  C   UNL A   1      44.576  26.853  26.863  1.00  0.00     0.074 A 
ATOM     75  C   UNL A   1      44.577  25.529  26.278  1.00  0.00     0.031 C 
ATOM     76  C   UNL A   1      45.589  27.743  26.729  1.00  0.00     0.037 A 
BRANCH  63  77
ATOM     77  C   UNL A   1      44.518  33.166  29.481  1.00  0.00     0.057 A 
ATOM     78  C   UNL A   1      44.202  34.280  28.693  1.00  0.00     0.134 A 
ATOM     79  C   UNL A   1      45.294  33.383  30.627  1.00  0.00     0.134 A 
ATOM     80  F   UNL A   1      43.477  34.138  27.573  1.00  0.00    -0.206 F 
ATOM     81  C   UNL A   1      44.657  35.558  29.021  1.00  0.00     0.040 A 
ATOM     82  C   UNL A   1      45.729  34.660  30.981  1.00  0.00     0.040 A 
ATOM     83  F   UNL A   1      45.631  32.360  31.426  1.00  0.00    -0.206 F 
ATOM     84  C   UNL A   1      45.416  35.751  30.174  1.00  0.00     0.006 A 
ENDBRANCH  63  77
BRANCH  64  85
ATOM     85  C   UNL A   1      40.871  24.063  27.624  1.00  0.00     0.057 A 
ATOM     86  C   UNL A   1      41.413  22.917  28.220  1.00  0.00     0.134 A 
ATOM     87  C   UNL A   1      39.871  23.873  26.663  1.00  0.00     0.134 A 
ATOM     88  F   UNL A   1      42.395  23.029  29.127  1.00  0.00    -0.206 F 
ATOM     89  C   UNL A   1      41.005  21.633  27.851  1.00  0.00     0.040 A 
ATOM     90  C   UNL A   1      39.429  22.597  26.307  1.00  0.00     0.040 A 
ATOM     91  F   UNL A   1      39.311  24.926  26.050  1.00  0.00    -0.206 F 
ATOM     92  C   UNL A   1      40.008  21.471  26.891  1.00  0.00     0.006 A 
ENDBRANCH  64  85
BRANCH  76  93
ATOM     93  C   UNL A   1      46.824  27.298  25.997  1.00  0.00     0.057 A 
ATOM     94  C   UNL A   1      47.018  27.549  24.634  1.00  0.00     0.134 A 
ATOM     95  C   UNL A   1      47.865  26.668  26.694  1.00  0.00     0.134 A 
ATOM     96  F   UNL A   1      46.059  28.140  23.907  1.00  0.00    -0.206 F 
ATOM     97  C   UNL A   1      48.198  27.175  23.986  1.00  0.00     0.040 A 
ATOM     98  C   UNL A   1      49.059  26.316  26.064  1.00  0.00     0.040 A 
ATOM     99  F   UNL A   1      47.749  26.408  28.005  1.00  0.00    -0.206 F 
ATOM    100  C   UNL A   1      49.226  26.566  24.703  1.00  0.00     0.006 A 
ENDBRANCH  76  93
ENDBRANCH  50  51
ENDBRANCH  43  45
ENDBRANCH  42  43
ENDBRANCH  41  42
ENDBRANCH  40  41
ENDBRANCH  39  40
ENDBRANCH  38  39
ENDBRANCH   1  38
TORSDOF 21
ENDMDL
