MODEL 1
REMARK VINA RESULT:     -11.3      0.000      0.000
REMARK SMILES Cc1cc(C[N@H+]2CC[C@](C)(C(=O)OCCOCCOCCOC(=O)c3ccc(-c4c5nc(c(-c6c(F)cccc6F)c6ccc([nH]6)c(-c6c(F)cccc6F)c6nc(c(-c7c(F)cccc7F)c7ccc4[nH]7)C=C6)C=C5)cc3)C2)c2ccccc2n1
REMARK SMILES IDX 17 1 16 2 15 3 14 4 13 5 11 6 12 7 9 8 6 9 7 10 79 11 8 13
REMARK SMILES IDX 10 14 5 15 4 16 1 17 2 18 3 19 86 20 85 21 80 22 84 23 81 24
REMARK SMILES IDX 83 25 82 26 18 27 19 28 20 29 21 30 22 31 23 32 24 33 25 34
REMARK SMILES IDX 26 35 78 36 27 37 77 38 28 39 29 40 30 41 71 42 31 43 76 44
REMARK SMILES IDX 70 45 72 46 32 47 75 48 69 49 68 50 33 52 59 53 42 54 58 55
REMARK SMILES IDX 43 56 46 57 57 58 73 59 44 60 45 61 56 63 74 64 47 65 34 66
REMARK SMILES IDX 35 67 40 68 36 69 37 70 39 71 41 72 38 73 60 74 61 75 66 76
REMARK SMILES IDX 62 77 63 78 65 79 67 80 64 81 48 82 49 83 54 84 50 85 51 86
REMARK SMILES IDX 53 87 55 88 52 89
REMARK H PARENT 6 12 72 51 46 62
REMARK Flexibility Score: inf
ROOT
ATOM      1  C   UNL A   1      39.585  21.009  26.130  1.00  0.00     0.188 C 
ENDROOT
BRANCH   1   2
ATOM      2  O   UNL A   1      38.775  21.931  25.410  1.00  0.00    -0.376 OA
BRANCH   2   3
ATOM      3  C   UNL A   1      37.444  22.186  25.832  1.00  0.00     0.202 C 
BRANCH   3   4
ATOM      4  C   UNL A   1      36.287  21.455  25.134  1.00  0.00     0.261 C 
BRANCH   4   5
ATOM      5  O   UNL A   1      35.596  22.180  24.097  1.00  0.00    -0.463 OA
BRANCH   5   6
ATOM      6  C   UNL A   1      34.240  22.200  24.182  1.00  0.00     0.317 C 
ATOM      7  O   UNL A   1      33.542  21.190  24.228  1.00  0.00    -0.251 OA
BRANCH   6   8
ATOM      8  C   UNL A   1      33.626  23.598  24.167  1.00  0.00     0.119 C 
ATOM      9  N   UNL A   1      31.329  24.279  24.578  1.00  0.00    -0.330 N 
ATOM     10  C   UNL A   1      31.698  24.754  23.248  1.00  0.00     0.263 C 
ATOM     11  C   UNL A   1      32.604  23.963  25.254  1.00  0.00     0.281 C 
ATOM     12  H   UNL A   1      30.755  23.437  24.530  1.00  0.00     0.348 HD
ATOM     13  C   UNL A   1      32.829  23.806  22.869  1.00  0.00     0.086 C 
ATOM     14  C   UNL A   1      34.806  24.586  24.266  1.00  0.00     0.030 C 
BRANCH   9  15
ATOM     15  C   UNL A   1      30.390  25.163  25.313  1.00  0.00     0.299 C 
BRANCH  15  16
ATOM     16  C   UNL A   1      30.447  26.645  24.958  1.00  0.00     0.017 A 
ATOM     17  C   UNL A   1      28.915  28.987  22.401  1.00  0.00     0.067 C 
ATOM     18  C   UNL A   1      29.836  28.381  23.416  1.00  0.00     0.038 A 
ATOM     19  C   UNL A   1      29.564  27.151  23.994  1.00  0.00     0.033 A 
ATOM     20  N   UNL A   1      30.978  29.058  23.671  1.00  0.00    -0.253 NA
ATOM     21  C   UNL A   1      31.810  28.594  24.619  1.00  0.00     0.071 A 
ATOM     22  C   UNL A   1      31.514  27.466  25.403  1.00  0.00     0.009 A 
ATOM     23  C   UNL A   1      33.054  29.191  24.779  1.00  0.00     0.029 A 
ATOM     24  C   UNL A   1      32.372  27.133  26.482  1.00  0.00     0.011 A 
ATOM     25  C   UNL A   1      33.972  28.753  25.740  1.00  0.00     0.002 A 
ATOM     26  C   UNL A   1      33.608  27.754  26.630  1.00  0.00     0.001 A 
ENDBRANCH  15  16
ENDBRANCH   9  15
ENDBRANCH   6   8
ENDBRANCH   5   6
ENDBRANCH   4   5
ENDBRANCH   3   4
ENDBRANCH   2   3
ENDBRANCH   1   2
BRANCH   1  27
ATOM     27  C   UNL A   1      40.445  21.492  27.310  1.00  0.00     0.188 C 
BRANCH  27  28
ATOM     28  O   UNL A   1      41.753  20.965  27.335  1.00  0.00    -0.376 OA
BRANCH  28  29
ATOM     29  C   UNL A   1      42.310  20.564  26.099  1.00  0.00     0.202 C 
BRANCH  29  30
ATOM     30  C   UNL A   1      43.384  21.480  25.489  1.00  0.00     0.261 C 
BRANCH  30  31
ATOM     31  O   UNL A   1      42.915  22.712  24.908  1.00  0.00    -0.460 OA
BRANCH  31  32
ATOM     32  C   UNL A   1      43.733  23.787  24.971  1.00  0.00     0.338 C 
ATOM     33  O   UNL A   1      44.710  24.004  24.272  1.00  0.00    -0.246 OA
BRANCH  32  34
ATOM     34  C   UNL A   1      43.118  24.778  25.888  1.00  0.00     0.060 A 
ATOM     35  C   UNL A   1      43.701  26.047  26.014  1.00  0.00     0.016 A 
ATOM     36  C   UNL A   1      41.963  24.465  26.608  1.00  0.00     0.016 A 
ATOM     37  C   UNL A   1      43.147  26.995  26.881  1.00  0.00     0.010 A 
ATOM     38  C   UNL A   1      41.422  25.408  27.492  1.00  0.00     0.010 A 
ATOM     39  C   UNL A   1      42.027  26.668  27.658  1.00  0.00    -0.014 A 
BRANCH  39  40
ATOM     40  C   UNL A   1      41.600  27.556  28.773  1.00  0.00     0.031 A 
ATOM     41  C   UNL A   1      42.341  27.466  30.083  1.00  0.00     0.074 A 
ATOM     42  C   UNL A   1      40.594  28.440  28.638  1.00  0.00     0.049 A 
ATOM     43  N   UNL A   1      42.102  28.068  31.220  1.00  0.00    -0.248 NA
ATOM     44  C   UNL A   1      43.510  26.572  30.110  1.00  0.00     0.031 C 
ATOM     45  C   UNL A   1      39.823  28.671  27.418  1.00  0.00     0.029 A 
ATOM     46  N   UNL A   1      40.038  29.302  29.555  1.00  0.00    -0.354 N 
ATOM     47  C   UNL A   1      43.090  27.630  32.094  1.00  0.00     0.074 A 
ATOM     48  C   UNL A   1      43.908  26.683  31.368  1.00  0.00     0.031 C 
ATOM     49  C   UNL A   1      38.880  29.598  27.668  1.00  0.00     0.029 A 
ATOM     50  C   UNL A   1      38.956  29.999  29.073  1.00  0.00     0.049 A 
ATOM     51  H   UNL A   1      40.383  29.409  30.470  1.00  0.00     0.167 HD
ATOM     52  C   UNL A   1      43.307  27.992  33.380  1.00  0.00     0.037 A 
ATOM     53  C   UNL A   1      38.108  30.838  29.702  1.00  0.00     0.037 A 
ATOM     54  C   UNL A   1      42.492  28.925  34.114  1.00  0.00     0.049 A 
ATOM     55  C   UNL A   1      38.311  31.145  31.167  1.00  0.00     0.074 A 
ATOM     56  C   UNL A   1      42.626  29.338  35.428  1.00  0.00     0.029 A 
ATOM     57  N   UNL A   1      41.391  29.587  33.596  1.00  0.00    -0.354 N 
ATOM     58  N   UNL A   1      39.254  30.733  31.980  1.00  0.00    -0.248 NA
ATOM     59  C   UNL A   1      37.329  32.040  31.802  1.00  0.00     0.031 C 
ATOM     60  C   UNL A   1      41.582  30.219  35.719  1.00  0.00     0.029 A 
ATOM     61  C   UNL A   1      40.829  30.397  34.570  1.00  0.00     0.049 A 
ATOM     62  H   UNL A   1      41.058  29.497  32.675  1.00  0.00     0.167 HD
ATOM     63  C   UNL A   1      39.001  31.349  33.202  1.00  0.00     0.074 A 
ATOM     64  C   UNL A   1      37.829  32.175  33.021  1.00  0.00     0.031 C 
ATOM     65  C   UNL A   1      39.679  31.238  34.371  1.00  0.00     0.037 A 
BRANCH  52  66
ATOM     66  C   UNL A   1      44.476  27.372  34.088  1.00  0.00     0.057 A 
ATOM     67  C   UNL A   1      45.729  27.996  34.121  1.00  0.00     0.134 A 
ATOM     68  C   UNL A   1      44.331  26.172  34.797  1.00  0.00     0.134 A 
ATOM     69  F   UNL A   1      45.938  29.139  33.450  1.00  0.00    -0.206 F 
ATOM     70  C   UNL A   1      46.801  27.444  34.825  1.00  0.00     0.040 A 
ATOM     71  C   UNL A   1      45.387  25.624  35.526  1.00  0.00     0.040 A 
ATOM     72  F   UNL A   1      43.156  25.526  34.810  1.00  0.00    -0.206 F 
ATOM     73  C   UNL A   1      46.627  26.259  35.539  1.00  0.00     0.006 A 
ENDBRANCH  52  66
BRANCH  53  74
ATOM     74  C   UNL A   1      36.950  31.434  28.980  1.00  0.00     0.057 A 
ATOM     75  C   UNL A   1      36.953  32.775  28.577  1.00  0.00     0.134 A 
ATOM     76  C   UNL A   1      35.777  30.701  28.758  1.00  0.00     0.134 A 
ATOM     77  F   UNL A   1      38.035  33.540  28.789  1.00  0.00    -0.206 F 
ATOM     78  C   UNL A   1      35.823  33.377  28.019  1.00  0.00     0.040 A 
ATOM     79  C   UNL A   1      34.651  31.281  28.170  1.00  0.00     0.040 A 
ATOM     80  F   UNL A   1      35.702  29.414  29.123  1.00  0.00    -0.206 F 
ATOM     81  C   UNL A   1      34.668  32.627  27.812  1.00  0.00     0.006 A 
ENDBRANCH  53  74
BRANCH  65  82
ATOM     82  C   UNL A   1      39.211  32.075  35.530  1.00  0.00     0.057 A 
ATOM     83  C   UNL A   1      39.594  33.414  35.687  1.00  0.00     0.134 A 
ATOM     84  C   UNL A   1      38.334  31.541  36.484  1.00  0.00     0.134 A 
ATOM     85  F   UNL A   1      40.438  33.986  34.816  1.00  0.00    -0.206 F 
ATOM     86  C   UNL A   1      39.147  34.178  36.766  1.00  0.00     0.040 A 
ATOM     87  C   UNL A   1      37.856  32.305  37.550  1.00  0.00     0.040 A 
ATOM     88  F   UNL A   1      37.916  30.269  36.389  1.00  0.00    -0.206 F 
ATOM     89  C   UNL A   1      38.271  33.627  37.698  1.00  0.00     0.006 A 
ENDBRANCH  65  82
ENDBRANCH  39  40
ENDBRANCH  32  34
ENDBRANCH  31  32
ENDBRANCH  30  31
ENDBRANCH  29  30
ENDBRANCH  28  29
ENDBRANCH  27  28
ENDBRANCH   1  27
TORSDOF 19
ENDMDL
MODEL 2
REMARK VINA RESULT:     -10.6      0.646      6.059
REMARK SMILES Cc1cc(C[N@H+]2CC[C@](C)(C(=O)OCCOCCOCCOC(=O)c3ccc(-c4c5nc(c(-c6c(F)cccc6F)c6ccc([nH]6)c(-c6c(F)cccc6F)c6nc(c(-c7c(F)cccc7F)c7ccc4[nH]7)C=C6)C=C5)cc3)C2)c2ccccc2n1
REMARK SMILES IDX 17 1 16 2 15 3 14 4 13 5 11 6 12 7 9 8 6 9 7 10 79 11 8 13
REMARK SMILES IDX 10 14 5 15 4 16 1 17 2 18 3 19 86 20 85 21 80 22 84 23 81 24
REMARK SMILES IDX 83 25 82 26 18 27 19 28 20 29 21 30 22 31 23 32 24 33 25 34
REMARK SMILES IDX 26 35 78 36 27 37 77 38 28 39 29 40 30 41 71 42 31 43 76 44
REMARK SMILES IDX 70 45 72 46 32 47 75 48 69 49 68 50 33 52 59 53 42 54 58 55
REMARK SMILES IDX 43 56 46 57 57 58 73 59 44 60 45 61 56 63 74 64 47 65 34 66
REMARK SMILES IDX 35 67 40 68 36 69 37 70 39 71 41 72 38 73 60 74 61 75 66 76
REMARK SMILES IDX 62 77 63 78 65 79 67 80 64 81 48 82 49 83 54 84 50 85 51 86
REMARK SMILES IDX 53 87 55 88 52 89
REMARK H PARENT 6 12 72 51 46 62
REMARK Flexibility Score: inf
ROOT
ATOM      1  C   UNL A   1      39.387  21.174  26.137  1.00  0.00     0.188 C 
ENDROOT
BRANCH   1   2
ATOM      2  O   UNL A   1      38.615  21.981  25.255  1.00  0.00    -0.376 OA
BRANCH   2   3
ATOM      3  C   UNL A   1      37.331  22.436  25.652  1.00  0.00     0.202 C 
BRANCH   3   4
ATOM      4  C   UNL A   1      36.093  21.614  25.260  1.00  0.00     0.261 C 
BRANCH   4   5
ATOM      5  O   UNL A   1      35.347  22.076  24.116  1.00  0.00    -0.463 OA
BRANCH   5   6
ATOM      6  C   UNL A   1      33.995  22.092  24.250  1.00  0.00     0.317 C 
ATOM      7  O   UNL A   1      33.312  21.084  24.411  1.00  0.00    -0.251 OA
BRANCH   6   8
ATOM      8  C   UNL A   1      33.363  23.477  24.136  1.00  0.00     0.119 C 
ATOM      9  N   UNL A   1      31.137  24.215  24.774  1.00  0.00    -0.330 N 
ATOM     10  C   UNL A   1      31.308  24.507  23.353  1.00  0.00     0.263 C 
ATOM     11  C   UNL A   1      32.500  23.988  25.299  1.00  0.00     0.281 C 
ATOM     12  H   UNL A   1      30.575  23.377  24.920  1.00  0.00     0.348 HD
ATOM     13  C   UNL A   1      32.388  23.512  22.948  1.00  0.00     0.086 C 
ATOM     14  C   UNL A   1      34.530  24.466  23.934  1.00  0.00     0.030 C 
BRANCH   9  15
ATOM     15  C   UNL A   1      30.297  25.194  25.510  1.00  0.00     0.299 C 
BRANCH  15  16
ATOM     16  C   UNL A   1      30.404  26.645  25.055  1.00  0.00     0.017 A 
ATOM     17  C   UNL A   1      28.911  28.870  22.373  1.00  0.00     0.067 C 
ATOM     18  C   UNL A   1      29.828  28.298  23.411  1.00  0.00     0.038 A 
ATOM     19  C   UNL A   1      29.521  27.120  24.075  1.00  0.00     0.033 A 
ATOM     20  N   UNL A   1      31.001  28.945  23.600  1.00  0.00    -0.253 NA
ATOM     21  C   UNL A   1      31.833  28.512  24.563  1.00  0.00     0.071 A 
ATOM     22  C   UNL A   1      31.509  27.451  25.426  1.00  0.00     0.009 A 
ATOM     23  C   UNL A   1      33.102  29.069  24.661  1.00  0.00     0.029 A 
ATOM     24  C   UNL A   1      32.376  27.158  26.510  1.00  0.00     0.011 A 
ATOM     25  C   UNL A   1      34.021  28.660  25.634  1.00  0.00     0.002 A 
ATOM     26  C   UNL A   1      33.637  27.737  26.595  1.00  0.00     0.001 A 
ENDBRANCH  15  16
ENDBRANCH   9  15
ENDBRANCH   6   8
ENDBRANCH   5   6
ENDBRANCH   4   5
ENDBRANCH   3   4
ENDBRANCH   2   3
ENDBRANCH   1   2
BRANCH   1  27
ATOM     27  C   UNL A   1      40.380  21.826  27.113  1.00  0.00     0.188 C 
BRANCH  27  28
ATOM     28  O   UNL A   1      41.655  21.223  27.142  1.00  0.00    -0.376 OA
BRANCH  28  29
ATOM     29  C   UNL A   1      42.294  21.007  25.899  1.00  0.00     0.202 C 
BRANCH  29  30
ATOM     30  C   UNL A   1      43.373  22.021  25.485  1.00  0.00     0.261 C 
BRANCH  30  31
ATOM     31  O   UNL A   1      42.906  23.329  25.105  1.00  0.00    -0.460 OA
BRANCH  31  32
ATOM     32  C   UNL A   1      43.740  24.375  25.301  1.00  0.00     0.338 C 
ATOM     33  O   UNL A   1      44.724  24.661  24.638  1.00  0.00    -0.246 OA
BRANCH  32  34
ATOM     34  C   UNL A   1      43.135  25.256  26.330  1.00  0.00     0.060 A 
ATOM     35  C   UNL A   1      43.697  26.520  26.566  1.00  0.00     0.016 A 
ATOM     36  C   UNL A   1      42.009  24.848  27.050  1.00  0.00     0.016 A 
ATOM     37  C   UNL A   1      43.152  27.364  27.539  1.00  0.00     0.010 A 
ATOM     38  C   UNL A   1      41.479  25.686  28.040  1.00  0.00     0.010 A 
ATOM     39  C   UNL A   1      42.064  26.937  28.312  1.00  0.00    -0.014 A 
BRANCH  39  40
ATOM     40  C   UNL A   1      41.656  27.701  29.522  1.00  0.00     0.031 A 
ATOM     41  C   UNL A   1      40.481  28.639  29.413  1.00  0.00     0.074 A 
ATOM     42  C   UNL A   1      42.290  27.564  30.701  1.00  0.00     0.049 A 
ATOM     43  N   UNL A   1      39.994  29.473  30.296  1.00  0.00    -0.248 NA
ATOM     44  C   UNL A   1      39.760  28.635  28.130  1.00  0.00     0.031 C 
ATOM     45  C   UNL A   1      43.407  26.660  30.966  1.00  0.00     0.029 A 
ATOM     46  N   UNL A   1      42.087  28.208  31.900  1.00  0.00    -0.354 N 
ATOM     47  C   UNL A   1      38.911  30.087  29.679  1.00  0.00     0.074 A 
ATOM     48  C   UNL A   1      38.834  29.560  28.334  1.00  0.00     0.031 C 
ATOM     49  C   UNL A   1      43.805  26.821  32.242  1.00  0.00     0.029 A 
ATOM     50  C   UNL A   1      42.997  27.865  32.872  1.00  0.00     0.049 A 
ATOM     51  H   UNL A   1      41.359  28.853  32.048  1.00  0.00     0.167 HD
ATOM     52  C   UNL A   1      38.047  30.998  30.187  1.00  0.00     0.037 A 
ATOM     53  C   UNL A   1      43.174  28.359  34.114  1.00  0.00     0.037 A 
ATOM     54  C   UNL A   1      38.122  31.536  31.520  1.00  0.00     0.049 A 
ATOM     55  C   UNL A   1      42.259  29.450  34.622  1.00  0.00     0.074 A 
ATOM     56  C   UNL A   1      37.300  32.478  32.116  1.00  0.00     0.029 A 
ATOM     57  N   UNL A   1      39.073  31.182  32.462  1.00  0.00    -0.354 N 
ATOM     58  N   UNL A   1      41.234  30.016  34.033  1.00  0.00    -0.248 NA
ATOM     59  C   UNL A   1      42.530  29.970  35.972  1.00  0.00     0.031 C 
ATOM     60  C   UNL A   1      37.780  32.724  33.405  1.00  0.00     0.029 A 
ATOM     61  C   UNL A   1      38.866  31.896  33.631  1.00  0.00     0.049 A 
ATOM     62  H   UNL A   1      39.789  30.521  32.323  1.00  0.00     0.167 HD
ATOM     63  C   UNL A   1      40.716  30.922  34.953  1.00  0.00     0.074 A 
ATOM     64  C   UNL A   1      41.528  30.820  36.144  1.00  0.00     0.031 C 
ATOM     65  C   UNL A   1      39.663  31.766  34.823  1.00  0.00     0.037 A 
BRANCH  52  66
ATOM     66  C   UNL A   1      36.942  31.480  29.295  1.00  0.00     0.057 A 
ATOM     67  C   UNL A   1      35.822  30.685  29.018  1.00  0.00     0.134 A 
ATOM     68  C   UNL A   1      36.966  32.774  28.759  1.00  0.00     0.134 A 
ATOM     69  F   UNL A   1      35.746  29.432  29.489  1.00  0.00    -0.206 F 
ATOM     70  C   UNL A   1      34.770  31.156  28.232  1.00  0.00     0.040 A 
ATOM     71  C   UNL A   1      35.908  33.266  27.993  1.00  0.00     0.040 A 
ATOM     72  F   UNL A   1      38.007  33.588  28.989  1.00  0.00    -0.206 F 
ATOM     73  C   UNL A   1      34.807  32.455  27.725  1.00  0.00     0.006 A 
ENDBRANCH  52  66
BRANCH  53  74
ATOM     74  C   UNL A   1      44.283  27.870  34.978  1.00  0.00     0.057 A 
ATOM     75  C   UNL A   1      44.106  26.792  35.855  1.00  0.00     0.134 A 
ATOM     76  C   UNL A   1      45.520  28.528  35.014  1.00  0.00     0.134 A 
ATOM     77  F   UNL A   1      42.934  26.140  35.892  1.00  0.00    -0.206 F 
ATOM     78  C   UNL A   1      45.098  26.412  36.761  1.00  0.00     0.040 A 
ATOM     79  C   UNL A   1      46.533  28.137  35.891  1.00  0.00     0.040 A 
ATOM     80  F   UNL A   1      45.757  29.571  34.206  1.00  0.00    -0.206 F 
ATOM     81  C   UNL A   1      46.317  27.085  36.779  1.00  0.00     0.006 A 
ENDBRANCH  53  74
BRANCH  65  82
ATOM     82  C   UNL A   1      39.287  32.601  36.015  1.00  0.00     0.057 A 
ATOM     83  C   UNL A   1      39.816  33.880  36.228  1.00  0.00     0.134 A 
ATOM     84  C   UNL A   1      38.354  32.127  36.948  1.00  0.00     0.134 A 
ATOM     85  F   UNL A   1      40.721  34.392  35.381  1.00  0.00    -0.206 F 
ATOM     86  C   UNL A   1      39.453  34.644  37.339  1.00  0.00     0.040 A 
ATOM     87  C   UNL A   1      37.960  32.895  38.045  1.00  0.00     0.040 A 
ATOM     88  F   UNL A   1      37.797  30.915  36.800  1.00  0.00    -0.206 F 
ATOM     89  C   UNL A   1      38.518  34.155  38.248  1.00  0.00     0.006 A 
ENDBRANCH  65  82
ENDBRANCH  39  40
ENDBRANCH  32  34
ENDBRANCH  31  32
ENDBRANCH  30  31
ENDBRANCH  29  30
ENDBRANCH  28  29
ENDBRANCH  27  28
ENDBRANCH   1  27
TORSDOF 19
ENDMDL
MODEL 3
REMARK VINA RESULT:     -10.3      1.618      6.518
REMARK SMILES Cc1cc(C[N@H+]2CC[C@](C)(C(=O)OCCOCCOCCOC(=O)c3ccc(-c4c5nc(c(-c6c(F)cccc6F)c6ccc([nH]6)c(-c6c(F)cccc6F)c6nc(c(-c7c(F)cccc7F)c7ccc4[nH]7)C=C6)C=C5)cc3)C2)c2ccccc2n1
REMARK SMILES IDX 17 1 16 2 15 3 14 4 13 5 11 6 12 7 9 8 6 9 7 10 79 11 8 13
REMARK SMILES IDX 10 14 5 15 4 16 1 17 2 18 3 19 86 20 85 21 80 22 84 23 81 24
REMARK SMILES IDX 83 25 82 26 18 27 19 28 20 29 21 30 22 31 23 32 24 33 25 34
REMARK SMILES IDX 26 35 78 36 27 37 77 38 28 39 29 40 30 41 71 42 31 43 76 44
REMARK SMILES IDX 70 45 72 46 32 47 75 48 69 49 68 50 33 52 59 53 42 54 58 55
REMARK SMILES IDX 43 56 46 57 57 58 73 59 44 60 45 61 56 63 74 64 47 65 34 66
REMARK SMILES IDX 35 67 40 68 36 69 37 70 39 71 41 72 38 73 60 74 61 75 66 76
REMARK SMILES IDX 62 77 63 78 65 79 67 80 64 81 48 82 49 83 54 84 50 85 51 86
REMARK SMILES IDX 53 87 55 88 52 89
REMARK H PARENT 6 12 72 51 46 62
REMARK Flexibility Score: inf
ROOT
ATOM      1  C   UNL A   1      39.753  22.243  26.851  1.00  0.00     0.188 C 
ENDROOT
BRANCH   1   2
ATOM      2  O   UNL A   1      38.916  23.333  26.477  1.00  0.00    -0.376 OA
BRANCH   2   3
ATOM      3  C   UNL A   1      37.623  23.084  25.948  1.00  0.00     0.202 C 
BRANCH   3   4
ATOM      4  C   UNL A   1      37.446  21.976  24.898  1.00  0.00     0.261 C 
BRANCH   4   5
ATOM      5  O   UNL A   1      36.101  21.722  24.449  1.00  0.00    -0.463 OA
BRANCH   5   6
ATOM      6  C   UNL A   1      35.530  22.692  23.687  1.00  0.00     0.317 C 
ATOM      7  O   UNL A   1      36.134  23.332  22.830  1.00  0.00    -0.251 OA
BRANCH   6   8
ATOM      8  C   UNL A   1      34.064  22.971  24.010  1.00  0.00     0.119 C 
ATOM      9  N   UNL A   1      33.106  24.328  25.785  1.00  0.00    -0.330 N 
ATOM     10  C   UNL A   1      32.568  22.978  25.923  1.00  0.00     0.263 C 
ATOM     11  C   UNL A   1      33.659  24.395  24.416  1.00  0.00     0.281 C 
ATOM     12  H   UNL A   1      33.850  24.507  26.458  1.00  0.00     0.348 HD
ATOM     13  C   UNL A   1      33.628  22.135  25.225  1.00  0.00     0.086 C 
ATOM     14  C   UNL A   1      33.265  22.586  22.748  1.00  0.00     0.030 C 
BRANCH   9  15
ATOM     15  C   UNL A   1      32.169  25.411  26.175  1.00  0.00     0.299 C 
BRANCH  15  16
ATOM     16  C   UNL A   1      32.568  26.824  25.765  1.00  0.00     0.017 A 
ATOM     17  C   UNL A   1      34.724  29.640  27.103  1.00  0.00     0.067 C 
ATOM     18  C   UNL A   1      33.671  28.870  26.365  1.00  0.00     0.038 A 
ATOM     19  C   UNL A   1      33.555  27.495  26.499  1.00  0.00     0.033 A 
ATOM     20  N   UNL A   1      32.795  29.598  25.636  1.00  0.00    -0.253 NA
ATOM     21  C   UNL A   1      31.869  28.955  24.904  1.00  0.00     0.071 A 
ATOM     22  C   UNL A   1      31.810  27.554  24.814  1.00  0.00     0.009 A 
ATOM     23  C   UNL A   1      30.871  29.692  24.278  1.00  0.00     0.029 A 
ATOM     24  C   UNL A   1      30.900  26.960  23.902  1.00  0.00     0.011 A 
ATOM     25  C   UNL A   1      29.871  29.086  23.508  1.00  0.00     0.002 A 
ATOM     26  C   UNL A   1      29.917  27.720  23.276  1.00  0.00     0.001 A 
ENDBRANCH  15  16
ENDBRANCH   9  15
ENDBRANCH   6   8
ENDBRANCH   5   6
ENDBRANCH   4   5
ENDBRANCH   3   4
ENDBRANCH   2   3
ENDBRANCH   1   2
BRANCH   1  27
ATOM     27  C   UNL A   1      41.013  21.920  26.032  1.00  0.00     0.188 C 
BRANCH  27  28
ATOM     28  O   UNL A   1      42.213  21.932  26.774  1.00  0.00    -0.376 OA
BRANCH  28  29
ATOM     29  C   UNL A   1      43.356  22.473  26.142  1.00  0.00     0.202 C 
BRANCH  29  30
ATOM     30  C   UNL A   1      43.132  23.674  25.208  1.00  0.00     0.261 C 
BRANCH  30  31
ATOM     31  O   UNL A   1      43.144  24.974  25.827  1.00  0.00    -0.460 OA
BRANCH  31  32
ATOM     32  C   UNL A   1      41.990  25.679  25.829  1.00  0.00     0.338 C 
ATOM     33  O   UNL A   1      41.095  25.618  25.002  1.00  0.00    -0.246 OA
BRANCH  32  34
ATOM     34  C   UNL A   1      41.888  26.387  27.129  1.00  0.00     0.060 A 
ATOM     35  C   UNL A   1      40.931  25.966  28.064  1.00  0.00     0.016 A 
ATOM     36  C   UNL A   1      42.741  27.451  27.433  1.00  0.00     0.016 A 
ATOM     37  C   UNL A   1      40.807  26.624  29.292  1.00  0.00     0.010 A 
ATOM     38  C   UNL A   1      42.600  28.123  28.655  1.00  0.00     0.010 A 
ATOM     39  C   UNL A   1      41.613  27.734  29.580  1.00  0.00    -0.014 A 
BRANCH  39  40
ATOM     40  C   UNL A   1      41.306  28.602  30.748  1.00  0.00     0.031 A 
ATOM     41  C   UNL A   1      40.202  29.620  30.612  1.00  0.00     0.074 A 
ATOM     42  C   UNL A   1      41.968  28.493  31.914  1.00  0.00     0.049 A 
ATOM     43  N   UNL A   1      39.810  30.544  31.453  1.00  0.00    -0.248 NA
ATOM     44  C   UNL A   1      39.438  29.590  29.354  1.00  0.00     0.031 C 
ATOM     45  C   UNL A   1      43.022  27.524  32.206  1.00  0.00     0.029 A 
ATOM     46  N   UNL A   1      41.856  29.225  33.074  1.00  0.00    -0.354 N 
ATOM     47  C   UNL A   1      38.755  31.199  30.828  1.00  0.00     0.074 A 
ATOM     48  C   UNL A   1      38.593  30.595  29.524  1.00  0.00     0.031 C 
ATOM     49  C   UNL A   1      43.475  27.735  33.455  1.00  0.00     0.029 A 
ATOM     50  C   UNL A   1      42.770  28.875  34.039  1.00  0.00     0.049 A 
ATOM     51  H   UNL A   1      41.184  29.933  33.200  1.00  0.00     0.167 HD
ATOM     52  C   UNL A   1      37.981  32.204  31.301  1.00  0.00     0.037 A 
ATOM     53  C   UNL A   1      43.026  29.432  35.240  1.00  0.00     0.037 A 
ATOM     54  C   UNL A   1      38.141  32.819  32.592  1.00  0.00     0.049 A 
ATOM     55  C   UNL A   1      42.215  30.621  35.701  1.00  0.00     0.074 A 
ATOM     56  C   UNL A   1      37.414  33.857  33.149  1.00  0.00     0.029 A 
ATOM     57  N   UNL A   1      39.095  32.453  33.527  1.00  0.00    -0.354 N 
ATOM     58  N   UNL A   1      41.215  31.225  35.107  1.00  0.00    -0.248 NA
ATOM     59  C   UNL A   1      42.570  31.203  37.006  1.00  0.00     0.031 C 
ATOM     60  C   UNL A   1      37.954  34.147  34.404  1.00  0.00     0.029 A 
ATOM     61  C   UNL A   1      38.983  33.253  34.652  1.00  0.00     0.049 A 
ATOM     62  H   UNL A   1      39.754  31.731  33.411  1.00  0.00     0.167 HD
ATOM     63  C   UNL A   1      40.799  32.225  35.980  1.00  0.00     0.074 A 
ATOM     64  C   UNL A   1      41.642  32.137  37.151  1.00  0.00     0.031 C 
ATOM     65  C   UNL A   1      39.808  33.138  35.826  1.00  0.00     0.037 A 
BRANCH  52  66
ATOM     66  C   UNL A   1      36.884  32.713  30.412  1.00  0.00     0.057 A 
ATOM     67  C   UNL A   1      37.140  33.622  29.378  1.00  0.00     0.134 A 
ATOM     68  C   UNL A   1      35.572  32.243  30.551  1.00  0.00     0.134 A 
ATOM     69  F   UNL A   1      38.372  34.122  29.201  1.00  0.00    -0.206 F 
ATOM     70  C   UNL A   1      36.128  34.052  28.518  1.00  0.00     0.040 A 
ATOM     71  C   UNL A   1      34.556  32.645  29.682  1.00  0.00     0.040 A 
ATOM     72  F   UNL A   1      35.261  31.368  31.519  1.00  0.00    -0.206 F 
ATOM     73  C   UNL A   1      34.833  33.555  28.664  1.00  0.00     0.006 A 
ENDBRANCH  52  66
BRANCH  53  74
ATOM     74  C   UNL A   1      44.125  28.915  36.101  1.00  0.00     0.057 A 
ATOM     75  C   UNL A   1      45.415  29.455  36.043  1.00  0.00     0.134 A 
ATOM     76  C   UNL A   1      43.932  27.807  36.936  1.00  0.00     0.134 A 
ATOM     77  F   UNL A   1      45.674  30.498  35.239  1.00  0.00    -0.206 F 
ATOM     78  C   UNL A   1      46.481  28.891  36.748  1.00  0.00     0.040 A 
ATOM     79  C   UNL A   1      44.981  27.252  37.674  1.00  0.00     0.040 A 
ATOM     80  F   UNL A   1      42.724  27.235  37.037  1.00  0.00    -0.206 F 
ATOM     81  C   UNL A   1      46.263  27.787  37.568  1.00  0.00     0.006 A 
ENDBRANCH  53  74
BRANCH  65  82
ATOM     82  C   UNL A   1      39.537  34.074  36.971  1.00  0.00     0.057 A 
ATOM     83  C   UNL A   1      38.768  33.694  38.079  1.00  0.00     0.134 A 
ATOM     84  C   UNL A   1      40.085  35.364  36.980  1.00  0.00     0.134 A 
ATOM     85  F   UNL A   1      38.207  32.478  38.132  1.00  0.00    -0.206 F 
ATOM     86  C   UNL A   1      38.529  34.574  39.137  1.00  0.00     0.040 A 
ATOM     87  C   UNL A   1      39.879  36.241  38.046  1.00  0.00     0.040 A 
ATOM     88  F   UNL A   1      40.842  35.790  35.957  1.00  0.00    -0.206 F 
ATOM     89  C   UNL A   1      39.090  35.848  39.126  1.00  0.00     0.006 A 
ENDBRANCH  65  82
ENDBRANCH  39  40
ENDBRANCH  32  34
ENDBRANCH  31  32
ENDBRANCH  30  31
ENDBRANCH  29  30
ENDBRANCH  28  29
ENDBRANCH  27  28
ENDBRANCH   1  27
TORSDOF 19
ENDMDL
