MODEL 1
REMARK VINA RESULT:     -11.3      0.000      0.000
REMARK SMILES Cc1ccc(S(=O)(=O)n2cc(C(=O)C(=O)NCC(=O)N[C@H](Cc3c[nH]c4ccccc34)C(=O)OCCOCCOCCOC(=O)c3ccc(-c4c5nc(c(-c6c(F)cccc6F)c6ccc([nH]6)c(-c6c(F)cccc6F)c6nc(c(-c7c(F)cccc7F)c7ccc4[nH]7)C=C6)C=C5)cc3)c3ccccc32)cc1
REMARK SMILES IDX 36 1 35 2 34 3 32 4 33 5 21 6 20 7 18 8 19 9 17 11 16 12
REMARK SMILES IDX 14 13 15 14 12 16 13 17 11 18 9 19 10 20 105 21 100 22
REMARK SMILES IDX 104 23 101 24 103 25 102 26 6 27 7 28 8 29 5 30 1 31 2 32
REMARK SMILES IDX 3 33 107 34 4 35 106 36 22 37 23 38 24 39 31 40 25 41 26 42
REMARK SMILES IDX 30 43 27 45 29 46 28 47 37 48 38 49 39 50 40 51 41 52 42 53
REMARK SMILES IDX 43 54 44 55 45 56 46 57 47 58 99 59 48 60 98 61 49 62 50 63
REMARK SMILES IDX 51 64 92 65 52 66 97 67 91 68 93 69 53 70 96 71 90 72 89 73
REMARK SMILES IDX 54 75 80 76 63 77 79 78 64 79 67 80 78 81 94 82 65 83 66 84
REMARK SMILES IDX 77 86 95 87 68 88 55 89 56 90 61 91 57 92 58 93 60 94 62 95
REMARK SMILES IDX 59 96 81 97 82 98 87 99 83 100 84 101 86 102 88 103 85 104
REMARK SMILES IDX 69 105 70 106 75 107 71 108 72 109 74 110 76 111 73 112
REMARK H PARENT 20 10 16 15 25 44 93 74 67 85
REMARK Flexibility Score: inf
ROOT
ATOM      1  C   UNL A   1      36.397  30.786  31.899  1.00  0.00     0.202 C 
ENDROOT
BRANCH   1   2
ATOM      2  C   UNL A   1      35.476  31.979  31.659  1.00  0.00     0.261 C 
BRANCH   2   3
ATOM      3  O   UNL A   1      34.981  32.468  30.368  1.00  0.00    -0.462 OA
BRANCH   3   4
ATOM      4  C   UNL A   1      34.849  32.407  29.035  1.00  0.00     0.329 C 
ATOM      5  O   UNL A   1      33.916  32.895  28.417  1.00  0.00    -0.250 OA
BRANCH   4   6
ATOM      6  C   UNL A   1      36.000  31.443  28.119  1.00  0.00     0.196 C 
BRANCH   6   7
ATOM      7  N   UNL A   1      34.797  30.689  26.882  1.00  0.00    -0.341 N 
ATOM      8  C   UNL A   1      33.734  29.757  26.702  1.00  0.00     0.240 C 
ATOM      9  O   UNL A   1      33.129  29.194  27.627  1.00  0.00    -0.273 OA
ATOM     10  H   UNL A   1      34.973  31.107  26.007  1.00  0.00     0.164 HD
BRANCH   8  11
ATOM     11  C   UNL A   1      32.965  29.611  25.338  1.00  0.00     0.216 C 
BRANCH  11  12
ATOM     12  N   UNL A   1      31.635  30.099  25.012  1.00  0.00    -0.340 N 
ATOM     13  C   UNL A   1      30.767  29.607  24.051  1.00  0.00     0.292 C 
ATOM     14  O   UNL A   1      29.602  29.976  23.966  1.00  0.00    -0.265 OA
ATOM     15  H   UNL A   1      31.314  30.868  25.536  1.00  0.00     0.164 HD
BRANCH  13  16
ATOM     16  C   UNL A   1      31.327  28.619  23.045  1.00  0.00     0.252 C 
ATOM     17  O   UNL A   1      31.076  28.899  21.869  1.00  0.00    -0.283 OA
BRANCH  16  18
ATOM     18  C   UNL A   1      31.994  27.345  23.344  1.00  0.00     0.054 A 
ATOM     19  N   UNL A   1      33.439  25.700  23.862  1.00  0.00    -0.240 N 
ATOM     20  C   UNL A   1      33.060  26.584  22.841  1.00  0.00     0.117 A 
ATOM     21  C   UNL A   1      32.458  25.775  24.869  1.00  0.00     0.065 A 
ATOM     22  C   UNL A   1      31.417  26.487  24.309  1.00  0.00     0.012 A 
ATOM     23  C   UNL A   1      32.269  25.014  26.039  1.00  0.00     0.028 A 
ATOM     24  C   UNL A   1      30.109  26.289  24.783  1.00  0.00     0.011 A 
ATOM     25  C   UNL A   1      30.954  24.687  26.363  1.00  0.00     0.002 A 
ATOM     26  C   UNL A   1      29.884  25.287  25.718  1.00  0.00     0.001 A 
BRANCH  19  27
ATOM     27  S   UNL A   1      34.119  24.128  23.807  1.00  0.00     0.268 S 
ATOM     28  O   UNL A   1      35.233  24.321  24.730  1.00  0.00    -0.201 OA
ATOM     29  O   UNL A   1      34.340  23.957  22.376  1.00  0.00    -0.201 OA
BRANCH  27  30
ATOM     30  C   UNL A   1      33.569  22.518  24.227  1.00  0.00     0.088 A 
ATOM     31  C   UNL A   1      33.824  18.217  24.654  1.00  0.00     0.044 C 
ATOM     32  C   UNL A   1      33.662  19.702  24.522  1.00  0.00    -0.051 A 
ATOM     33  C   UNL A   1      34.705  20.474  25.002  1.00  0.00     0.005 A 
ATOM     34  C   UNL A   1      32.563  20.345  23.908  1.00  0.00     0.005 A 
ATOM     35  C   UNL A   1      34.644  21.843  24.863  1.00  0.00     0.022 A 
ATOM     36  C   UNL A   1      32.515  21.759  23.741  1.00  0.00     0.022 A 
ENDBRANCH  27  30
ENDBRANCH  19  27
ENDBRANCH  16  18
ENDBRANCH  13  16
ENDBRANCH  11  12
ENDBRANCH   8  11
ENDBRANCH   6   7
BRANCH   6  37
ATOM     37  C   UNL A   1      37.898  30.536  28.752  1.00  0.00     0.074 C 
BRANCH  37  38
ATOM     38  C   UNL A   1      38.557  28.896  28.675  1.00  0.00    -0.020 A 
ATOM     39  C   UNL A   1      38.384  27.861  29.586  1.00  0.00     0.087 A 
ATOM     40  C   UNL A   1      39.551  28.434  27.742  1.00  0.00     0.003 A 
ATOM     41  N   UNL A   1      39.535  27.111  29.531  1.00  0.00    -0.361 N 
ATOM     42  C   UNL A   1      40.299  27.498  28.458  1.00  0.00     0.046 A 
ATOM     43  C   UNL A   1      40.043  28.899  26.510  1.00  0.00     0.010 A 
ATOM     44  H   UNL A   1      39.776  26.400  30.168  1.00  0.00     0.166 HD
ATOM     45  C   UNL A   1      41.606  27.153  28.101  1.00  0.00     0.026 A 
ATOM     46  C   UNL A   1      41.335  28.533  26.118  1.00  0.00     0.001 A 
ATOM     47  C   UNL A   1      42.120  27.715  26.930  1.00  0.00     0.002 A 
ENDBRANCH  37  38
ENDBRANCH   6  37
ENDBRANCH   4   6
ENDBRANCH   3   4
ENDBRANCH   2   3
ENDBRANCH   1   2
BRANCH   1  48
ATOM     48  O   UNL A   1      36.696  30.364  33.225  1.00  0.00    -0.376 OA
BRANCH  48  49
ATOM     49  C   UNL A   1      37.994  30.755  33.640  1.00  0.00     0.188 C 
BRANCH  49  50
ATOM     50  C   UNL A   1      37.944  31.416  35.011  1.00  0.00     0.188 C 
BRANCH  50  51
ATOM     51  O   UNL A   1      39.164  31.199  35.703  1.00  0.00    -0.376 OA
BRANCH  51  52
ATOM     52  C   UNL A   1      40.071  30.321  35.059  1.00  0.00     0.202 C 
BRANCH  52  53
ATOM     53  C   UNL A   1      41.454  30.294  35.743  1.00  0.00     0.261 C 
BRANCH  53  54
ATOM     54  O   UNL A   1      41.540  29.144  36.629  1.00  0.00    -0.460 OA
BRANCH  54  55
ATOM     55  C   UNL A   1      41.692  27.842  36.266  1.00  0.00     0.338 C 
ATOM     56  O   UNL A   1      41.149  26.869  36.747  1.00  0.00    -0.246 OA
BRANCH  55  57
ATOM     57  C   UNL A   1      42.896  27.827  35.360  1.00  0.00     0.060 A 
ATOM     58  C   UNL A   1      44.564  28.446  35.613  1.00  0.00     0.016 A 
ATOM     59  C   UNL A   1      42.360  27.470  33.731  1.00  0.00     0.016 A 
ATOM     60  C   UNL A   1      45.621  28.704  34.157  1.00  0.00     0.010 A 
ATOM     61  C   UNL A   1      43.355  27.741  32.297  1.00  0.00     0.010 A 
ATOM     62  C   UNL A   1      44.924  28.474  32.447  1.00  0.00    -0.014 A 
BRANCH  62  63
ATOM     63  C   UNL A   1      44.855  29.323  31.130  1.00  0.00     0.031 A 
ATOM     64  C   UNL A   1      45.979  28.904  30.309  1.00  0.00     0.074 A 
ATOM     65  C   UNL A   1      43.748  30.051  30.606  1.00  0.00     0.049 A 
ATOM     66  N   UNL A   1      46.603  29.686  29.502  1.00  0.00    -0.248 NA
ATOM     67  C   UNL A   1      46.651  27.601  30.472  1.00  0.00     0.031 C 
ATOM     68  C   UNL A   1      43.230  30.061  29.221  1.00  0.00     0.029 A 
ATOM     69  N   UNL A   1      42.735  30.879  31.199  1.00  0.00    -0.354 N 
ATOM     70  C   UNL A   1      47.188  28.777  28.663  1.00  0.00     0.074 A 
ATOM     71  C   UNL A   1      47.586  27.704  29.526  1.00  0.00     0.031 C 
ATOM     72  C   UNL A   1      42.133  30.856  29.077  1.00  0.00     0.029 A 
ATOM     73  C   UNL A   1      41.768  31.456  30.351  1.00  0.00     0.049 A 
ATOM     74  H   UNL A   1      42.718  31.040  32.171  1.00  0.00     0.167 HD
ATOM     75  C   UNL A   1      46.730  28.732  27.377  1.00  0.00     0.037 A 
ATOM     76  C   UNL A   1      41.266  32.730  30.530  1.00  0.00     0.037 A 
ATOM     77  C   UNL A   1      45.847  29.883  27.028  1.00  0.00     0.049 A 
ATOM     78  C   UNL A   1      42.352  33.615  29.926  1.00  0.00     0.074 A 
ATOM     79  C   UNL A   1      44.707  30.075  26.261  1.00  0.00     0.029 A 
ATOM     80  N   UNL A   1      46.011  31.102  27.704  1.00  0.00    -0.354 N 
ATOM     81  N   UNL A   1      43.436  33.045  29.468  1.00  0.00    -0.248 NA
ATOM     82  C   UNL A   1      42.382  35.055  29.668  1.00  0.00     0.031 C 
ATOM     83  C   UNL A   1      44.214  31.407  26.501  1.00  0.00     0.029 A 
ATOM     84  C   UNL A   1      45.045  32.037  27.417  1.00  0.00     0.049 A 
ATOM     85  H   UNL A   1      46.751  31.273  28.329  1.00  0.00     0.167 HD
ATOM     86  C   UNL A   1      44.158  33.888  28.712  1.00  0.00     0.074 A 
ATOM     87  C   UNL A   1      43.532  35.175  28.960  1.00  0.00     0.031 C 
ATOM     88  C   UNL A   1      45.178  33.405  27.946  1.00  0.00     0.037 A 
BRANCH  75  89
ATOM     89  C   UNL A   1      47.013  27.537  26.486  1.00  0.00     0.057 A 
ATOM     90  C   UNL A   1      48.211  27.513  25.763  1.00  0.00     0.134 A 
ATOM     91  C   UNL A   1      46.221  26.370  26.332  1.00  0.00     0.134 A 
ATOM     92  F   UNL A   1      49.026  28.576  25.742  1.00  0.00    -0.206 F 
ATOM     93  C   UNL A   1      48.641  26.391  25.046  1.00  0.00     0.040 A 
ATOM     94  C   UNL A   1      46.672  25.215  25.682  1.00  0.00     0.040 A 
ATOM     95  F   UNL A   1      44.949  26.289  26.745  1.00  0.00    -0.206 F 
ATOM     96  C   UNL A   1      47.898  25.219  25.045  1.00  0.00     0.006 A 
ENDBRANCH  75  89
BRANCH  76  97
ATOM     97  C   UNL A   1      40.410  32.997  31.762  1.00  0.00     0.057 A 
ATOM     98  C   UNL A   1      40.928  33.362  33.024  1.00  0.00     0.134 A 
ATOM     99  C   UNL A   1      39.086  33.376  31.591  1.00  0.00     0.134 A 
ATOM    100  F   UNL A   1      42.190  33.055  33.352  1.00  0.00    -0.206 F 
ATOM    101  C   UNL A   1      40.209  34.159  33.962  1.00  0.00     0.040 A 
ATOM    102  C   UNL A   1      38.398  34.226  32.469  1.00  0.00     0.040 A 
ATOM    103  F   UNL A   1      38.518  33.218  30.400  1.00  0.00    -0.206 F 
ATOM    104  C   UNL A   1      38.955  34.656  33.648  1.00  0.00     0.006 A 
ENDBRANCH  76  97
BRANCH  88 105
ATOM    105  C   UNL A   1      46.389  34.206  27.574  1.00  0.00     0.057 A 
ATOM    106  C   UNL A   1      46.634  34.688  26.284  1.00  0.00     0.134 A 
ATOM    107  C   UNL A   1      47.278  34.671  28.571  1.00  0.00     0.134 A 
ATOM    108  F   UNL A   1      45.778  34.481  25.274  1.00  0.00    -0.206 F 
ATOM    109  C   UNL A   1      47.756  35.465  25.984  1.00  0.00     0.040 A 
ATOM    110  C   UNL A   1      48.344  35.520  28.299  1.00  0.00     0.040 A 
ATOM    111  F   UNL A   1      47.147  34.352  29.865  1.00  0.00    -0.206 F 
ATOM    112  C   UNL A   1      48.614  35.883  26.994  1.00  0.00     0.006 A 
ENDBRANCH  88 105
ENDBRANCH  62  63
ENDBRANCH  55  57
ENDBRANCH  54  55
ENDBRANCH  53  54
ENDBRANCH  52  53
ENDBRANCH  51  52
ENDBRANCH  50  51
ENDBRANCH  49  50
ENDBRANCH  48  49
ENDBRANCH   1  48
TORSDOF 26
ENDMDL
MODEL 2
REMARK VINA RESULT:     -10.9      3.555     11.094
REMARK SMILES Cc1ccc(S(=O)(=O)n2cc(C(=O)C(=O)NCC(=O)N[C@H](Cc3c[nH]c4ccccc34)C(=O)OCCOCCOCCOC(=O)c3ccc(-c4c5nc(c(-c6c(F)cccc6F)c6ccc([nH]6)c(-c6c(F)cccc6F)c6nc(c(-c7c(F)cccc7F)c7ccc4[nH]7)C=C6)C=C5)cc3)c3ccccc32)cc1
REMARK SMILES IDX 36 1 35 2 34 3 32 4 33 5 21 6 20 7 18 8 19 9 17 11 16 12
REMARK SMILES IDX 14 13 15 14 12 16 13 17 11 18 9 19 10 20 105 21 100 22
REMARK SMILES IDX 104 23 101 24 103 25 102 26 6 27 7 28 8 29 5 30 1 31 2 32
REMARK SMILES IDX 3 33 107 34 4 35 106 36 22 37 23 38 24 39 31 40 25 41 26 42
REMARK SMILES IDX 30 43 27 45 29 46 28 47 37 48 38 49 39 50 40 51 41 52 42 53
REMARK SMILES IDX 43 54 44 55 45 56 46 57 47 58 99 59 48 60 98 61 49 62 50 63
REMARK SMILES IDX 51 64 92 65 52 66 97 67 91 68 93 69 53 70 96 71 90 72 89 73
REMARK SMILES IDX 54 75 80 76 63 77 79 78 64 79 67 80 78 81 94 82 65 83 66 84
REMARK SMILES IDX 77 86 95 87 68 88 55 89 56 90 61 91 57 92 58 93 60 94 62 95
REMARK SMILES IDX 59 96 81 97 82 98 87 99 83 100 84 101 86 102 88 103 85 104
REMARK SMILES IDX 69 105 70 106 75 107 71 108 72 109 74 110 76 111 73 112
REMARK H PARENT 20 10 16 15 25 44 93 74 67 85
REMARK Flexibility Score: inf
ROOT
ATOM      1  C   UNL A   1      34.002  25.315  25.641  1.00  0.00     0.202 C 
ENDROOT
BRANCH   1   2
ATOM      2  C   UNL A   1      34.941  24.353  24.919  1.00  0.00     0.261 C 
BRANCH   2   3
ATOM      3  O   UNL A   1      36.373  24.162  25.168  1.00  0.00    -0.462 OA
BRANCH   3   4
ATOM      4  C   UNL A   1      37.414  23.665  25.852  1.00  0.00     0.329 C 
ATOM      5  O   UNL A   1      38.241  24.350  26.433  1.00  0.00    -0.250 OA
BRANCH   4   6
ATOM      6  C   UNL A   1      37.707  21.932  25.796  1.00  0.00     0.196 C 
BRANCH   6   7
ATOM      7  N   UNL A   1      39.590  21.976  25.836  1.00  0.00    -0.341 N 
ATOM      8  C   UNL A   1      40.764  21.348  26.346  1.00  0.00     0.240 C 
ATOM      9  O   UNL A   1      40.781  20.250  26.922  1.00  0.00    -0.273 OA
ATOM     10  H   UNL A   1      39.879  22.737  25.283  1.00  0.00     0.164 HD
BRANCH   8  11
ATOM     11  C   UNL A   1      42.209  21.797  25.918  1.00  0.00     0.216 C 
BRANCH  11  12
ATOM     12  N   UNL A   1      43.292  20.958  25.434  1.00  0.00    -0.340 N 
ATOM     13  C   UNL A   1      44.598  21.335  25.163  1.00  0.00     0.292 C 
ATOM     14  O   UNL A   1      45.481  20.521  24.920  1.00  0.00    -0.265 OA
ATOM     15  H   UNL A   1      43.072  20.010  25.281  1.00  0.00     0.164 HD
BRANCH  13  16
ATOM     16  C   UNL A   1      44.898  22.821  25.114  1.00  0.00     0.252 C 
ATOM     17  O   UNL A   1      44.919  23.295  23.974  1.00  0.00    -0.283 OA
BRANCH  16  18
ATOM     18  C   UNL A   1      45.283  23.676  26.244  1.00  0.00     0.054 A 
ATOM     19  N   UNL A   1      46.243  24.618  28.048  1.00  0.00    -0.240 N 
ATOM     20  C   UNL A   1      45.410  23.568  27.637  1.00  0.00     0.117 A 
ATOM     21  C   UNL A   1      46.413  25.475  26.945  1.00  0.00     0.065 A 
ATOM     22  C   UNL A   1      45.486  25.057  26.013  1.00  0.00     0.012 A 
ATOM     23  C   UNL A   1      47.032  26.736  26.836  1.00  0.00     0.028 A 
ATOM     24  C   UNL A   1      44.996  25.971  25.065  1.00  0.00     0.011 A 
ATOM     25  C   UNL A   1      46.398  27.673  26.022  1.00  0.00     0.002 A 
ATOM     26  C   UNL A   1      45.365  27.305  25.173  1.00  0.00     0.001 A 
BRANCH  19  27
ATOM     27  S   UNL A   1      46.308  25.509  29.511  1.00  0.00     0.268 S 
ATOM     28  O   UNL A   1      45.378  26.582  29.176  1.00  0.00    -0.201 OA
ATOM     29  O   UNL A   1      47.740  25.757  29.636  1.00  0.00    -0.201 OA
BRANCH  27  30
ATOM     30  C   UNL A   1      45.906  25.184  31.186  1.00  0.00     0.088 A 
ATOM     31  C   UNL A   1      43.324  24.434  34.579  1.00  0.00     0.044 C 
ATOM     32  C   UNL A   1      44.276  24.701  33.451  1.00  0.00    -0.051 A 
ATOM     33  C   UNL A   1      44.074  23.968  32.296  1.00  0.00     0.005 A 
ATOM     34  C   UNL A   1      45.309  25.666  33.476  1.00  0.00     0.005 A 
ATOM     35  C   UNL A   1      44.879  24.203  31.204  1.00  0.00     0.022 A 
ATOM     36  C   UNL A   1      46.123  25.927  32.336  1.00  0.00     0.022 A 
ENDBRANCH  27  30
ENDBRANCH  19  27
ENDBRANCH  16  18
ENDBRANCH  13  16
ENDBRANCH  11  12
ENDBRANCH   8  11
ENDBRANCH   6   7
BRANCH   6  37
ATOM     37  C   UNL A   1      36.497  20.325  24.913  1.00  0.00     0.074 C 
BRANCH  37  38
ATOM     38  C   UNL A   1      34.762  19.982  24.869  1.00  0.00    -0.020 A 
ATOM     39  C   UNL A   1      33.721  20.785  25.317  1.00  0.00     0.087 A 
ATOM     40  C   UNL A   1      34.165  18.715  24.538  1.00  0.00     0.003 A 
ATOM     41  N   UNL A   1      32.732  19.925  25.733  1.00  0.00    -0.361 N 
ATOM     42  C   UNL A   1      33.023  18.643  25.336  1.00  0.00     0.046 A 
ATOM     43  C   UNL A   1      34.610  17.554  23.881  1.00  0.00     0.010 A 
ATOM     44  H   UNL A   1      31.931  20.190  26.241  1.00  0.00     0.166 HD
ATOM     45  C   UNL A   1      32.417  17.429  25.669  1.00  0.00     0.026 A 
ATOM     46  C   UNL A   1      33.989  16.334  24.172  1.00  0.00     0.001 A 
ATOM     47  C   UNL A   1      32.944  16.270  25.093  1.00  0.00     0.002 A 
ENDBRANCH  37  38
ENDBRANCH   6  37
ENDBRANCH   4   6
ENDBRANCH   3   4
ENDBRANCH   2   3
ENDBRANCH   1   2
BRANCH   1  48
ATOM     48  O   UNL A   1      32.976  25.994  24.925  1.00  0.00    -0.376 OA
BRANCH  48  49
ATOM     49  C   UNL A   1      32.972  27.390  25.175  1.00  0.00     0.188 C 
BRANCH  49  50
ATOM     50  C   UNL A   1      31.570  27.962  25.011  1.00  0.00     0.188 C 
BRANCH  50  51
ATOM     51  O   UNL A   1      31.533  29.303  25.472  1.00  0.00    -0.376 OA
BRANCH  51  52
ATOM     52  C   UNL A   1      32.769  29.811  25.940  1.00  0.00     0.202 C 
BRANCH  52  53
ATOM     53  C   UNL A   1      32.605  30.720  27.178  1.00  0.00     0.261 C 
BRANCH  53  54
ATOM     54  O   UNL A   1      33.683  31.695  27.215  1.00  0.00    -0.460 OA
BRANCH  54  55
ATOM     55  C   UNL A   1      33.824  32.724  28.094  1.00  0.00     0.338 C 
ATOM     56  O   UNL A   1      33.558  33.894  27.915  1.00  0.00    -0.246 OA
BRANCH  55  57
ATOM     57  C   UNL A   1      34.664  32.168  29.214  1.00  0.00     0.060 A 
ATOM     58  C   UNL A   1      34.655  32.522  30.977  1.00  0.00     0.016 A 
ATOM     59  C   UNL A   1      36.051  31.357  28.518  1.00  0.00     0.016 A 
ATOM     60  C   UNL A   1      36.106  32.046  31.961  1.00  0.00     0.010 A 
ATOM     61  C   UNL A   1      37.486  30.912  29.446  1.00  0.00     0.010 A 
ATOM     62  C   UNL A   1      37.615  31.352  31.123  1.00  0.00    -0.014 A 
BRANCH  62  63
ATOM     63  C   UNL A   1      39.150  31.672  31.110  1.00  0.00     0.031 A 
ATOM     64  C   UNL A   1      39.314  32.937  31.806  1.00  0.00     0.074 A 
ATOM     65  C   UNL A   1      40.236  30.782  30.866  1.00  0.00     0.049 A 
ATOM     66  N   UNL A   1      40.230  33.794  31.522  1.00  0.00    -0.248 NA
ATOM     67  C   UNL A   1      38.321  33.462  32.763  1.00  0.00     0.031 C 
ATOM     68  C   UNL A   1      41.490  30.633  31.635  1.00  0.00     0.029 A 
ATOM     69  N   UNL A   1      40.448  29.707  29.937  1.00  0.00    -0.354 N 
ATOM     70  C   UNL A   1      40.279  34.513  32.685  1.00  0.00     0.074 A 
ATOM     71  C   UNL A   1      38.911  34.610  33.100  1.00  0.00     0.031 C 
ATOM     72  C   UNL A   1      42.302  29.661  31.132  1.00  0.00     0.029 A 
ATOM     73  C   UNL A   1      41.680  29.024  29.980  1.00  0.00     0.049 A 
ATOM     74  H   UNL A   1      39.751  29.455  29.288  1.00  0.00     0.167 HD
ATOM     75  C   UNL A   1      41.410  34.393  33.443  1.00  0.00     0.037 A 
ATOM     76  C   UNL A   1      42.338  28.576  28.852  1.00  0.00     0.037 A 
ATOM     77  C   UNL A   1      42.523  33.703  32.730  1.00  0.00     0.049 A 
ATOM     78  C   UNL A   1      43.030  29.834  28.335  1.00  0.00     0.074 A 
ATOM     79  C   UNL A   1      43.528  32.809  33.069  1.00  0.00     0.029 A 
ATOM     80  N   UNL A   1      42.585  33.767  31.330  1.00  0.00    -0.354 N 
ATOM     81  N   UNL A   1      42.829  30.960  28.969  1.00  0.00    -0.248 NA
ATOM     82  C   UNL A   1      43.999  30.020  27.255  1.00  0.00     0.031 C 
ATOM     83  C   UNL A   1      44.166  32.356  31.859  1.00  0.00     0.029 A 
ATOM     84  C   UNL A   1      43.555  32.967  30.773  1.00  0.00     0.049 A 
ATOM     85  H   UNL A   1      41.987  34.335  30.792  1.00  0.00     0.167 HD
ATOM     86  C   UNL A   1      43.712  31.901  28.599  1.00  0.00     0.074 A 
ATOM     87  C   UNL A   1      44.351  31.316  27.433  1.00  0.00     0.031 C 
ATOM     88  C   UNL A   1      43.822  33.049  29.326  1.00  0.00     0.037 A 
BRANCH  75  89
ATOM     89  C   UNL A   1      41.423  34.816  34.900  1.00  0.00     0.057 A 
ATOM     90  C   UNL A   1      41.077  33.870  35.872  1.00  0.00     0.134 A 
ATOM     91  C   UNL A   1      41.814  36.073  35.429  1.00  0.00     0.134 A 
ATOM     92  F   UNL A   1      40.609  32.664  35.526  1.00  0.00    -0.206 F 
ATOM     93  C   UNL A   1      41.216  34.108  37.244  1.00  0.00     0.040 A 
ATOM     94  C   UNL A   1      42.029  36.299  36.794  1.00  0.00     0.040 A 
ATOM     95  F   UNL A   1      41.957  37.171  34.676  1.00  0.00    -0.206 F 
ATOM     96  C   UNL A   1      41.741  35.305  37.710  1.00  0.00     0.006 A 
ENDBRANCH  75  89
BRANCH  76  97
ATOM     97  C   UNL A   1      41.695  27.455  28.046  1.00  0.00     0.057 A 
ATOM     98  C   UNL A   1      41.229  27.598  26.720  1.00  0.00     0.134 A 
ATOM     99  C   UNL A   1      41.981  26.138  28.377  1.00  0.00     0.134 A 
ATOM    100  F   UNL A   1      40.894  28.807  26.248  1.00  0.00    -0.206 F 
ATOM    101  C   UNL A   1      41.193  26.523  25.784  1.00  0.00     0.040 A 
ATOM    102  C   UNL A   1      42.026  25.090  27.446  1.00  0.00     0.040 A 
ATOM    103  F   UNL A   1      42.559  25.878  29.546  1.00  0.00    -0.206 F 
ATOM    104  C   UNL A   1      41.665  25.270  26.134  1.00  0.00     0.006 A 
ENDBRANCH  76  97
BRANCH  88 105
ATOM    105  C   UNL A   1      44.250  34.364  28.748  1.00  0.00     0.057 A 
ATOM    106  C   UNL A   1      43.361  35.305  28.217  1.00  0.00     0.134 A 
ATOM    107  C   UNL A   1      45.589  34.802  28.870  1.00  0.00     0.134 A 
ATOM    108  F   UNL A   1      42.036  35.101  28.206  1.00  0.00    -0.206 F 
ATOM    109  C   UNL A   1      43.794  36.537  27.722  1.00  0.00     0.040 A 
ATOM    110  C   UNL A   1      46.014  36.061  28.466  1.00  0.00     0.040 A 
ATOM    111  F   UNL A   1      46.552  34.046  29.413  1.00  0.00    -0.206 F 
ATOM    112  C   UNL A   1      45.125  36.918  27.847  1.00  0.00     0.006 A 
ENDBRANCH  88 105
ENDBRANCH  62  63
ENDBRANCH  55  57
ENDBRANCH  54  55
ENDBRANCH  53  54
ENDBRANCH  52  53
ENDBRANCH  51  52
ENDBRANCH  50  51
ENDBRANCH  49  50
ENDBRANCH  48  49
ENDBRANCH   1  48
TORSDOF 26
ENDMDL
MODEL 3
REMARK VINA RESULT:     -10.7      2.492      5.212
REMARK SMILES Cc1ccc(S(=O)(=O)n2cc(C(=O)C(=O)NCC(=O)N[C@H](Cc3c[nH]c4ccccc34)C(=O)OCCOCCOCCOC(=O)c3ccc(-c4c5nc(c(-c6c(F)cccc6F)c6ccc([nH]6)c(-c6c(F)cccc6F)c6nc(c(-c7c(F)cccc7F)c7ccc4[nH]7)C=C6)C=C5)cc3)c3ccccc32)cc1
REMARK SMILES IDX 36 1 35 2 34 3 32 4 33 5 21 6 20 7 18 8 19 9 17 11 16 12
REMARK SMILES IDX 14 13 15 14 12 16 13 17 11 18 9 19 10 20 105 21 100 22
REMARK SMILES IDX 104 23 101 24 103 25 102 26 6 27 7 28 8 29 5 30 1 31 2 32
REMARK SMILES IDX 3 33 107 34 4 35 106 36 22 37 23 38 24 39 31 40 25 41 26 42
REMARK SMILES IDX 30 43 27 45 29 46 28 47 37 48 38 49 39 50 40 51 41 52 42 53
REMARK SMILES IDX 43 54 44 55 45 56 46 57 47 58 99 59 48 60 98 61 49 62 50 63
REMARK SMILES IDX 51 64 92 65 52 66 97 67 91 68 93 69 53 70 96 71 90 72 89 73
REMARK SMILES IDX 54 75 80 76 63 77 79 78 64 79 67 80 78 81 94 82 65 83 66 84
REMARK SMILES IDX 77 86 95 87 68 88 55 89 56 90 61 91 57 92 58 93 60 94 62 95
REMARK SMILES IDX 59 96 81 97 82 98 87 99 83 100 84 101 86 102 88 103 85 104
REMARK SMILES IDX 69 105 70 106 75 107 71 108 72 109 74 110 76 111 73 112
REMARK H PARENT 20 10 16 15 25 44 93 74 67 85
REMARK Flexibility Score: inf
ROOT
ATOM      1  C   UNL A   1      35.263  33.515  31.589  1.00  0.00     0.202 C 
ENDROOT
BRANCH   1   2
ATOM      2  C   UNL A   1      35.631  33.996  30.188  1.00  0.00     0.261 C 
BRANCH   2   3
ATOM      3  O   UNL A   1      35.187  33.425  28.913  1.00  0.00    -0.462 OA
BRANCH   3   4
ATOM      4  C   UNL A   1      34.528  32.526  28.168  1.00  0.00     0.329 C 
ATOM      5  O   UNL A   1      33.404  32.697  27.723  1.00  0.00    -0.250 OA
BRANCH   4   6
ATOM      6  C   UNL A   1      35.250  30.940  27.930  1.00  0.00     0.196 C 
BRANCH   6   7
ATOM      7  N   UNL A   1      34.091  30.315  26.583  1.00  0.00    -0.341 N 
ATOM      8  C   UNL A   1      32.947  29.511  26.304  1.00  0.00     0.240 C 
ATOM      9  O   UNL A   1      32.194  29.037  27.167  1.00  0.00    -0.273 OA
ATOM     10  H   UNL A   1      34.399  30.696  25.729  1.00  0.00     0.164 HD
BRANCH   8  11
ATOM     11  C   UNL A   1      32.302  29.437  24.872  1.00  0.00     0.216 C 
BRANCH  11  12
ATOM     12  N   UNL A   1      31.068  30.057  24.421  1.00  0.00    -0.340 N 
ATOM     13  C   UNL A   1      30.040  29.469  23.702  1.00  0.00     0.292 C 
ATOM     14  O   UNL A   1      28.965  30.026  23.515  1.00  0.00    -0.265 OA
ATOM     15  H   UNL A   1      30.948  31.006  24.655  1.00  0.00     0.164 HD
BRANCH  13  16
ATOM     16  C   UNL A   1      30.310  28.109  23.085  1.00  0.00     0.252 C 
ATOM     17  O   UNL A   1      30.069  28.047  21.876  1.00  0.00    -0.283 OA
BRANCH  16  18
ATOM     18  C   UNL A   1      30.684  26.881  23.798  1.00  0.00     0.054 A 
ATOM     19  N   UNL A   1      30.738  24.915  24.891  1.00  0.00    -0.240 N 
ATOM     20  C   UNL A   1      30.424  26.274  25.036  1.00  0.00     0.117 A 
ATOM     21  C   UNL A   1      31.399  24.766  23.657  1.00  0.00     0.065 A 
ATOM     22  C   UNL A   1      31.683  26.050  23.240  1.00  0.00     0.012 A 
ATOM     23  C   UNL A   1      32.046  23.656  23.079  1.00  0.00     0.028 A 
ATOM     24  C   UNL A   1      32.773  26.274  22.382  1.00  0.00     0.011 A 
ATOM     25  C   UNL A   1      33.230  23.914  22.392  1.00  0.00     0.002 A 
ATOM     26  C   UNL A   1      33.612  25.209  22.079  1.00  0.00     0.001 A 
BRANCH  19  27
ATOM     27  S   UNL A   1      31.308  23.756  26.018  1.00  0.00     0.268 S 
ATOM     28  O   UNL A   1      30.440  22.638  25.666  1.00  0.00    -0.201 OA
ATOM     29  O   UNL A   1      31.150  24.473  27.278  1.00  0.00    -0.201 OA
BRANCH  27  30
ATOM     30  C   UNL A   1      32.839  22.954  26.313  1.00  0.00     0.088 A 
ATOM     31  C   UNL A   1      36.998  21.960  25.639  1.00  0.00     0.044 C 
ATOM     32  C   UNL A   1      35.554  22.248  25.923  1.00  0.00    -0.051 A 
ATOM     33  C   UNL A   1      35.193  23.583  25.951  1.00  0.00     0.005 A 
ATOM     34  C   UNL A   1      34.554  21.266  26.107  1.00  0.00     0.005 A 
ATOM     35  C   UNL A   1      33.871  23.916  26.152  1.00  0.00     0.022 A 
ATOM     36  C   UNL A   1      33.184  21.611  26.288  1.00  0.00     0.022 A 
ENDBRANCH  27  30
ENDBRANCH  19  27
ENDBRANCH  16  18
ENDBRANCH  13  16
ENDBRANCH  11  12
ENDBRANCH   8  11
ENDBRANCH   6   7
BRANCH   6  37
ATOM     37  C   UNL A   1      36.354  29.667  29.341  1.00  0.00     0.074 C 
BRANCH  37  38
ATOM     38  C   UNL A   1      38.068  29.301  29.576  1.00  0.00    -0.020 A 
ATOM     39  C   UNL A   1      38.888  28.503  28.787  1.00  0.00     0.087 A 
ATOM     40  C   UNL A   1      38.841  29.619  30.748  1.00  0.00     0.003 A 
ATOM     41  N   UNL A   1      39.815  27.954  29.640  1.00  0.00    -0.361 N 
ATOM     42  C   UNL A   1      39.750  28.567  30.867  1.00  0.00     0.046 A 
ATOM     43  C   UNL A   1      38.682  30.506  31.827  1.00  0.00     0.010 A 
ATOM     44  H   UNL A   1      40.436  27.226  29.406  1.00  0.00     0.166 HD
ATOM     45  C   UNL A   1      40.362  28.240  32.080  1.00  0.00     0.026 A 
ATOM     46  C   UNL A   1      39.319  30.216  33.038  1.00  0.00     0.001 A 
ATOM     47  C   UNL A   1      40.103  29.071  33.173  1.00  0.00     0.002 A 
ENDBRANCH  37  38
ENDBRANCH   6  37
ENDBRANCH   4   6
ENDBRANCH   3   4
ENDBRANCH   2   3
ENDBRANCH   1   2
BRANCH   1  48
ATOM     48  O   UNL A   1      34.540  34.364  32.474  1.00  0.00    -0.376 OA
BRANCH  48  49
ATOM     49  C   UNL A   1      35.357  34.900  33.501  1.00  0.00     0.188 C 
BRANCH  49  50
ATOM     50  C   UNL A   1      36.717  34.215  33.520  1.00  0.00     0.188 C 
BRANCH  50  51
ATOM     51  O   UNL A   1      37.355  34.429  34.770  1.00  0.00    -0.376 OA
BRANCH  51  52
ATOM     52  C   UNL A   1      38.727  34.771  34.692  1.00  0.00     0.202 C 
BRANCH  52  53
ATOM     53  C   UNL A   1      39.300  34.595  33.269  1.00  0.00     0.261 C 
BRANCH  53  54
ATOM     54  O   UNL A   1      40.575  33.899  33.338  1.00  0.00    -0.460 OA
BRANCH  54  55
ATOM     55  C   UNL A   1      41.576  33.932  32.416  1.00  0.00     0.338 C 
ATOM     56  O   UNL A   1      41.892  34.857  31.698  1.00  0.00    -0.246 OA
BRANCH  55  57
ATOM     57  C   UNL A   1      42.003  32.497  32.252  1.00  0.00     0.060 A 
ATOM     58  C   UNL A   1      42.975  31.430  33.324  1.00  0.00     0.016 A 
ATOM     59  C   UNL A   1      41.779  32.040  30.576  1.00  0.00     0.016 A 
ATOM     60  C   UNL A   1      43.711  29.928  32.612  1.00  0.00     0.010 A 
ATOM     61  C   UNL A   1      42.509  30.603  29.852  1.00  0.00     0.010 A 
ATOM     62  C   UNL A   1      43.580  29.601  30.785  1.00  0.00    -0.014 A 
BRANCH  62  63
ATOM     63  C   UNL A   1      44.577  29.268  29.622  1.00  0.00     0.031 A 
ATOM     64  C   UNL A   1      44.663  27.819  29.554  1.00  0.00     0.074 A 
ATOM     65  C   UNL A   1      45.012  30.115  28.562  1.00  0.00     0.049 A 
ATOM     66  N   UNL A   1      45.721  27.182  29.196  1.00  0.00    -0.248 NA
ATOM     67  C   UNL A   1      43.616  26.926  30.089  1.00  0.00     0.031 C 
ATOM     68  C   UNL A   1      45.098  29.807  27.117  1.00  0.00     0.029 A 
ATOM     69  N   UNL A   1      45.382  31.501  28.488  1.00  0.00    -0.354 N 
ATOM     70  C   UNL A   1      45.186  25.977  28.833  1.00  0.00     0.074 A 
ATOM     71  C   UNL A   1      44.155  25.740  29.800  1.00  0.00     0.031 C 
ATOM     72  C   UNL A   1      45.535  30.866  26.381  1.00  0.00     0.029 A 
ATOM     73  C   UNL A   1      45.773  32.019  27.236  1.00  0.00     0.049 A 
ATOM     74  H   UNL A   1      45.365  32.073  29.290  1.00  0.00     0.167 HD
ATOM     75  C   UNL A   1      45.222  25.654  27.506  1.00  0.00     0.037 A 
ATOM     76  C   UNL A   1      46.786  32.945  27.082  1.00  0.00     0.037 A 
ATOM     77  C   UNL A   1      46.093  26.562  26.705  1.00  0.00     0.049 A 
ATOM     78  C   UNL A   1      48.047  32.088  27.143  1.00  0.00     0.074 A 
ATOM     79  C   UNL A   1      46.057  27.124  25.437  1.00  0.00     0.029 A 
ATOM     80  N   UNL A   1      47.172  27.205  27.330  1.00  0.00    -0.354 N 
ATOM     81  N   UNL A   1      47.918  30.805  27.363  1.00  0.00    -0.248 NA
ATOM     82  C   UNL A   1      49.450  32.428  26.906  1.00  0.00     0.031 C 
ATOM     83  C   UNL A   1      47.116  28.095  25.336  1.00  0.00     0.029 A 
ATOM     84  C   UNL A   1      47.805  28.136  26.540  1.00  0.00     0.049 A 
ATOM     85  H   UNL A   1      47.451  27.008  28.253  1.00  0.00     0.167 HD
ATOM     86  C   UNL A   1      49.054  30.140  27.099  1.00  0.00     0.074 A 
ATOM     87  C   UNL A   1      50.030  31.203  26.934  1.00  0.00     0.031 C 
ATOM     88  C   UNL A   1      49.040  28.778  27.023  1.00  0.00     0.037 A 
BRANCH  75  89
ATOM     89  C   UNL A   1      44.336  24.558  26.942  1.00  0.00     0.057 A 
ATOM     90  C   UNL A   1      43.003  24.864  26.649  1.00  0.00     0.134 A 
ATOM     91  C   UNL A   1      44.714  23.232  26.606  1.00  0.00     0.134 A 
ATOM     92  F   UNL A   1      42.476  26.049  26.984  1.00  0.00    -0.206 F 
ATOM     93  C   UNL A   1      42.153  23.978  25.977  1.00  0.00     0.040 A 
ATOM     94  C   UNL A   1      43.899  22.365  25.869  1.00  0.00     0.040 A 
ATOM     95  F   UNL A   1      45.860  22.672  27.014  1.00  0.00    -0.206 F 
ATOM     96  C   UNL A   1      42.612  22.744  25.538  1.00  0.00     0.006 A 
ENDBRANCH  75  89
BRANCH  76  97
ATOM     97  C   UNL A   1      46.569  34.344  27.643  1.00  0.00     0.057 A 
ATOM     98  C   UNL A   1      46.892  34.728  28.964  1.00  0.00     0.134 A 
ATOM     99  C   UNL A   1      46.514  35.419  26.767  1.00  0.00     0.134 A 
ATOM    100  F   UNL A   1      46.972  33.808  29.935  1.00  0.00    -0.206 F 
ATOM    101  C   UNL A   1      47.260  36.058  29.322  1.00  0.00     0.040 A 
ATOM    102  C   UNL A   1      46.949  36.712  27.089  1.00  0.00     0.040 A 
ATOM    103  F   UNL A   1      46.358  35.185  25.468  1.00  0.00    -0.206 F 
ATOM    104  C   UNL A   1      47.357  37.045  28.357  1.00  0.00     0.006 A 
ENDBRANCH  76  97
BRANCH  88 105
ATOM    105  C   UNL A   1      50.220  27.915  27.349  1.00  0.00     0.057 A 
ATOM    106  C   UNL A   1      50.713  27.731  28.646  1.00  0.00     0.134 A 
ATOM    107  C   UNL A   1      50.800  27.086  26.361  1.00  0.00     0.134 A 
ATOM    108  F   UNL A   1      50.142  28.311  29.711  1.00  0.00    -0.206 F 
ATOM    109  C   UNL A   1      51.792  26.886  28.915  1.00  0.00     0.040 A 
ATOM    110  C   UNL A   1      51.811  26.174  26.634  1.00  0.00     0.040 A 
ATOM    111  F   UNL A   1      50.400  27.094  25.082  1.00  0.00    -0.206 F 
ATOM    112  C   UNL A   1      52.344  26.104  27.907  1.00  0.00     0.006 A 
ENDBRANCH  88 105
ENDBRANCH  62  63
ENDBRANCH  55  57
ENDBRANCH  54  55
ENDBRANCH  53  54
ENDBRANCH  52  53
ENDBRANCH  51  52
ENDBRANCH  50  51
ENDBRANCH  49  50
ENDBRANCH  48  49
ENDBRANCH   1  48
TORSDOF 26
ENDMDL
