MODEL 1
REMARK VINA RESULT:      -9.3      0.000      0.000
REMARK SMILES O=C(CCNC(=O)C1CCCC1)OCCOCCOCCOC(=O)c1ccc(-c2c3nc(c(-c4c(F)cccc4F)c4ccc([nH]4)c(-c4c(F)cccc4F)c4nc(c(-c5c(F)cccc5F)c5ccc2[nH]5)C=C4)C=C3)cc1
REMARK SMILES IDX 17 1 16 2 15 3 14 4 13 5 2 6 1 7 3 8 4 9 5 10 6 11 7 13 8 14
REMARK SMILES IDX 9 15 12 16 10 17 11 18 18 19 19 20 20 21 21 22 22 23 23 24
REMARK SMILES IDX 24 25 25 26 26 27 78 28 27 29 77 30 28 31 29 32 30 33 71 34
REMARK SMILES IDX 31 35 76 36 70 37 72 38 32 39 75 40 69 41 68 42 33 44 59 45
REMARK SMILES IDX 42 46 58 47 43 48 46 49 57 50 73 51 44 52 45 53 56 55 74 56
REMARK SMILES IDX 47 57 34 58 35 59 40 60 36 61 37 62 39 63 41 64 38 65 60 66
REMARK SMILES IDX 61 67 66 68 62 69 63 70 65 71 67 72 64 73 48 74 49 75 54 76
REMARK SMILES IDX 50 77 51 78 53 79 55 80 52 81
REMARK H PARENT 5 12 72 43 46 54
REMARK Flexibility Score: inf
ROOT
ATOM      1  C   UNL A   1      44.734  18.702  25.319  1.00  0.00     0.188 C 
ENDROOT
BRANCH   1   2
ATOM      2  O   UNL A   1      43.321  18.750  25.343  1.00  0.00    -0.376 OA
BRANCH   2   3
ATOM      3  C   UNL A   1      42.658  19.706  26.165  1.00  0.00     0.202 C 
BRANCH   3   4
ATOM      4  C   UNL A   1      42.457  21.142  25.681  1.00  0.00     0.261 C 
BRANCH   4   5
ATOM      5  O   UNL A   1      41.638  22.082  26.441  1.00  0.00    -0.463 OA
BRANCH   5   6
ATOM      6  C   UNL A   1      40.390  22.089  26.935  1.00  0.00     0.307 C 
ATOM      7  O   UNL A   1      39.776  21.029  27.045  1.00  0.00    -0.252 OA
BRANCH   6   8
ATOM      8  C   UNL A   1      39.739  23.365  27.374  1.00  0.00     0.144 C 
BRANCH   8   9
ATOM      9  C   UNL A   1      38.745  23.877  26.342  1.00  0.00     0.127 C 
BRANCH   9  10
ATOM     10  N   UNL A   1      38.165  22.812  25.544  1.00  0.00    -0.355 N 
ATOM     11  C   UNL A   1      36.971  22.690  24.914  1.00  0.00     0.223 C 
ATOM     12  H   UNL A   1      38.751  22.028  25.441  1.00  0.00     0.163 HD
ATOM     13  O   UNL A   1      36.698  21.575  24.460  1.00  0.00    -0.275 OA
BRANCH  11  14
ATOM     14  C   UNL A   1      35.987  23.837  24.757  1.00  0.00     0.078 C 
ATOM     15  C   UNL A   1      35.076  23.809  23.536  1.00  0.00     0.013 C 
ATOM     16  C   UNL A   1      35.061  24.032  25.959  1.00  0.00     0.013 C 
ATOM     17  C   UNL A   1      33.964  24.776  23.912  1.00  0.00     0.001 C 
ATOM     18  C   UNL A   1      33.727  24.516  25.392  1.00  0.00     0.001 C 
ENDBRANCH  11  14
ENDBRANCH   9  10
ENDBRANCH   8   9
ENDBRANCH   6   8
ENDBRANCH   5   6
ENDBRANCH   4   5
ENDBRANCH   3   4
ENDBRANCH   2   3
ENDBRANCH   1   2
BRANCH   1  19
ATOM     19  C   UNL A   1      45.381  19.740  24.393  1.00  0.00     0.188 C 
BRANCH  19  20
ATOM     20  O   UNL A   1      46.306  20.645  24.979  1.00  0.00    -0.376 OA
BRANCH  20  21
ATOM     21  C   UNL A   1      45.798  21.888  25.473  1.00  0.00     0.202 C 
BRANCH  21  22
ATOM     22  C   UNL A   1      45.427  22.981  24.458  1.00  0.00     0.261 C 
BRANCH  22  23
ATOM     23  O   UNL A   1      44.447  23.924  24.951  1.00  0.00    -0.460 OA
BRANCH  23  24
ATOM     24  C   UNL A   1      44.902  25.170  25.194  1.00  0.00     0.338 C 
ATOM     25  O   UNL A   1      45.838  25.746  24.638  1.00  0.00    -0.246 OA
BRANCH  24  26
ATOM     26  C   UNL A   1      44.043  25.865  26.164  1.00  0.00     0.060 A 
ATOM     27  C   UNL A   1      44.223  27.241  26.366  1.00  0.00     0.016 A 
ATOM     28  C   UNL A   1      43.181  25.137  26.987  1.00  0.00     0.016 A 
ATOM     29  C   UNL A   1      43.548  27.889  27.404  1.00  0.00     0.010 A 
ATOM     30  C   UNL A   1      42.521  25.788  28.035  1.00  0.00     0.010 A 
ATOM     31  C   UNL A   1      42.721  27.161  28.267  1.00  0.00    -0.014 A 
BRANCH  31  32
ATOM     32  C   UNL A   1      42.154  27.800  29.482  1.00  0.00     0.031 A 
ATOM     33  C   UNL A   1      40.898  28.620  29.368  1.00  0.00     0.074 A 
ATOM     34  C   UNL A   1      42.756  27.662  30.677  1.00  0.00     0.049 A 
ATOM     35  N   UNL A   1      40.284  29.329  30.281  1.00  0.00    -0.248 NA
ATOM     36  C   UNL A   1      40.245  28.644  28.049  1.00  0.00     0.031 C 
ATOM     37  C   UNL A   1      43.954  26.866  30.933  1.00  0.00     0.029 A 
ATOM     38  N   UNL A   1      42.446  28.208  31.898  1.00  0.00    -0.354 N 
ATOM     39  C   UNL A   1      39.180  29.888  29.650  1.00  0.00     0.074 A 
ATOM     40  C   UNL A   1      39.216  29.449  28.271  1.00  0.00     0.031 C 
ATOM     41  C   UNL A   1      44.293  26.995  32.228  1.00  0.00     0.029 A 
ATOM     42  C   UNL A   1      43.357  27.908  32.882  1.00  0.00     0.049 A 
ATOM     43  H   UNL A   1      41.647  28.762  32.054  1.00  0.00     0.167 HD
ATOM     44  C   UNL A   1      38.223  30.692  30.172  1.00  0.00     0.037 A 
ATOM     45  C   UNL A   1      43.443  28.346  34.152  1.00  0.00     0.037 A 
ATOM     46  C   UNL A   1      38.181  31.131  31.542  1.00  0.00     0.049 A 
ATOM     47  C   UNL A   1      42.409  29.305  34.685  1.00  0.00     0.074 A 
ATOM     48  C   UNL A   1      37.227  31.918  32.165  1.00  0.00     0.029 A 
ATOM     49  N   UNL A   1      39.138  30.830  32.497  1.00  0.00    -0.354 N 
ATOM     50  N   UNL A   1      41.352  29.799  34.088  1.00  0.00    -0.248 NA
ATOM     51  C   UNL A   1      42.586  29.772  36.069  1.00  0.00     0.031 C 
ATOM     52  C   UNL A   1      37.633  32.134  33.486  1.00  0.00     0.029 A 
ATOM     53  C   UNL A   1      38.815  31.443  33.696  1.00  0.00     0.049 A 
ATOM     54  H   UNL A   1      39.929  30.264  32.346  1.00  0.00     0.167 HD
ATOM     55  C   UNL A   1      40.728  30.611  35.028  1.00  0.00     0.074 A 
ATOM     56  C   UNL A   1      41.515  30.533  36.239  1.00  0.00     0.031 C 
ATOM     57  C   UNL A   1      39.604  31.356  34.898  1.00  0.00     0.037 A 
BRANCH  44  58
ATOM     58  C   UNL A   1      37.139  31.171  29.252  1.00  0.00     0.057 A 
ATOM     59  C   UNL A   1      36.020  30.384  28.958  1.00  0.00     0.134 A 
ATOM     60  C   UNL A   1      37.187  32.461  28.710  1.00  0.00     0.134 A 
ATOM     61  F   UNL A   1      35.922  29.136  29.439  1.00  0.00    -0.206 F 
ATOM     62  C   UNL A   1      34.989  30.861  28.146  1.00  0.00     0.040 A 
ATOM     63  C   UNL A   1      36.153  32.957  27.914  1.00  0.00     0.040 A 
ATOM     64  F   UNL A   1      38.231  33.267  28.960  1.00  0.00    -0.206 F 
ATOM     65  C   UNL A   1      35.050  32.154  27.630  1.00  0.00     0.006 A 
ENDBRANCH  44  58
BRANCH  45  66
ATOM     66  C   UNL A   1      44.573  27.919  35.016  1.00  0.00     0.057 A 
ATOM     67  C   UNL A   1      44.471  26.794  35.842  1.00  0.00     0.134 A 
ATOM     68  C   UNL A   1      45.763  28.656  35.072  1.00  0.00     0.134 A 
ATOM     69  F   UNL A   1      43.346  26.065  35.854  1.00  0.00    -0.206 F 
ATOM     70  C   UNL A   1      45.501  26.432  36.712  1.00  0.00     0.040 A 
ATOM     71  C   UNL A   1      46.810  28.290  35.919  1.00  0.00     0.040 A 
ATOM     72  F   UNL A   1      45.923  29.745  34.304  1.00  0.00    -0.206 F 
ATOM     73  C   UNL A   1      46.676  27.180  36.749  1.00  0.00     0.006 A 
ENDBRANCH  45  66
BRANCH  57  74
ATOM     74  C   UNL A   1      39.142  32.126  36.101  1.00  0.00     0.057 A 
ATOM     75  C   UNL A   1      39.566  33.437  36.345  1.00  0.00     0.134 A 
ATOM     76  C   UNL A   1      38.231  31.561  37.004  1.00  0.00     0.134 A 
ATOM     77  F   UNL A   1      40.448  34.030  35.526  1.00  0.00    -0.206 F 
ATOM     78  C   UNL A   1      39.117  34.155  37.455  1.00  0.00     0.040 A 
ATOM     79  C   UNL A   1      37.755  32.278  38.104  1.00  0.00     0.040 A 
ATOM     80  F   UNL A   1      37.777  30.312  36.824  1.00  0.00    -0.206 F 
ATOM     81  C   UNL A   1      38.203  33.577  38.335  1.00  0.00     0.006 A 
ENDBRANCH  57  74
ENDBRANCH  31  32
ENDBRANCH  24  26
ENDBRANCH  23  24
ENDBRANCH  22  23
ENDBRANCH  21  22
ENDBRANCH  20  21
ENDBRANCH  19  20
ENDBRANCH   1  19
TORSDOF 20
ENDMDL
MODEL 2
REMARK VINA RESULT:      -9.1      4.849      9.210
REMARK SMILES O=C(CCNC(=O)C1CCCC1)OCCOCCOCCOC(=O)c1ccc(-c2c3nc(c(-c4c(F)cccc4F)c4ccc([nH]4)c(-c4c(F)cccc4F)c4nc(c(-c5c(F)cccc5F)c5ccc2[nH]5)C=C4)C=C3)cc1
REMARK SMILES IDX 17 1 16 2 15 3 14 4 13 5 2 6 1 7 3 8 4 9 5 10 6 11 7 13 8 14
REMARK SMILES IDX 9 15 12 16 10 17 11 18 18 19 19 20 20 21 21 22 22 23 23 24
REMARK SMILES IDX 24 25 25 26 26 27 78 28 27 29 77 30 28 31 29 32 30 33 71 34
REMARK SMILES IDX 31 35 76 36 70 37 72 38 32 39 75 40 69 41 68 42 33 44 59 45
REMARK SMILES IDX 42 46 58 47 43 48 46 49 57 50 73 51 44 52 45 53 56 55 74 56
REMARK SMILES IDX 47 57 34 58 35 59 40 60 36 61 37 62 39 63 41 64 38 65 60 66
REMARK SMILES IDX 61 67 66 68 62 69 63 70 65 71 67 72 64 73 48 74 49 75 54 76
REMARK SMILES IDX 50 77 51 78 53 79 55 80 52 81
REMARK H PARENT 5 12 72 43 46 54
REMARK Flexibility Score: inf
ROOT
ATOM      1  C   UNL A   1      39.126  21.935  26.151  1.00  0.00     0.188 C 
ENDROOT
BRANCH   1   2
ATOM      2  O   UNL A   1      38.485  21.127  25.183  1.00  0.00    -0.376 OA
BRANCH   2   3
ATOM      3  C   UNL A   1      37.069  21.190  25.032  1.00  0.00     0.202 C 
BRANCH   3   4
ATOM      4  C   UNL A   1      36.388  22.494  24.620  1.00  0.00     0.261 C 
BRANCH   4   5
ATOM      5  O   UNL A   1      35.799  23.381  25.620  1.00  0.00    -0.463 OA
BRANCH   5   6
ATOM      6  C   UNL A   1      34.675  23.391  26.354  1.00  0.00     0.307 C 
ATOM      7  O   UNL A   1      33.849  24.287  26.185  1.00  0.00    -0.252 OA
BRANCH   6   8
ATOM      8  C   UNL A   1      34.400  22.318  27.363  1.00  0.00     0.144 C 
BRANCH   8   9
ATOM      9  C   UNL A   1      33.468  21.250  26.813  1.00  0.00     0.127 C 
BRANCH   9  10
ATOM     10  N   UNL A   1      33.039  21.524  25.454  1.00  0.00    -0.355 N 
ATOM     11  C   UNL A   1      32.899  20.731  24.363  1.00  0.00     0.223 C 
ATOM     12  H   UNL A   1      32.805  22.467  25.293  1.00  0.00     0.163 HD
ATOM     13  O   UNL A   1      32.682  21.303  23.290  1.00  0.00    -0.275 OA
BRANCH  11  14
ATOM     14  C   UNL A   1      33.002  19.216  24.410  1.00  0.00     0.078 C 
ATOM     15  C   UNL A   1      32.439  18.444  23.225  1.00  0.00     0.013 C 
ATOM     16  C   UNL A   1      34.426  18.695  24.606  1.00  0.00     0.013 C 
ATOM     17  C   UNL A   1      33.092  17.077  23.360  1.00  0.00     0.001 C 
ATOM     18  C   UNL A   1      34.508  17.384  23.824  1.00  0.00     0.001 C 
ENDBRANCH  11  14
ENDBRANCH   9  10
ENDBRANCH   8   9
ENDBRANCH   6   8
ENDBRANCH   5   6
ENDBRANCH   4   5
ENDBRANCH   3   4
ENDBRANCH   2   3
ENDBRANCH   1   2
BRANCH   1  19
ATOM     19  C   UNL A   1      40.513  21.432  26.569  1.00  0.00     0.188 C 
BRANCH  19  20
ATOM     20  O   UNL A   1      40.688  20.027  26.679  1.00  0.00    -0.376 OA
BRANCH  20  21
ATOM     21  C   UNL A   1      41.967  19.549  27.108  1.00  0.00     0.202 C 
BRANCH  21  22
ATOM     22  C   UNL A   1      42.814  18.736  26.116  1.00  0.00     0.261 C 
BRANCH  22  23
ATOM     23  O   UNL A   1      43.038  19.409  24.856  1.00  0.00    -0.460 OA
BRANCH  23  24
ATOM     24  C   UNL A   1      44.328  19.576  24.501  1.00  0.00     0.338 C 
ATOM     25  O   UNL A   1      45.060  18.760  23.938  1.00  0.00    -0.246 OA
BRANCH  24  26
ATOM     26  C   UNL A   1      44.772  20.954  24.756  1.00  0.00     0.060 A 
ATOM     27  C   UNL A   1      45.397  21.251  25.976  1.00  0.00     0.016 A 
ATOM     28  C   UNL A   1      44.428  21.978  23.871  1.00  0.00     0.016 A 
ATOM     29  C   UNL A   1      45.666  22.579  26.318  1.00  0.00     0.010 A 
ATOM     30  C   UNL A   1      44.684  23.307  24.227  1.00  0.00     0.010 A 
ATOM     31  C   UNL A   1      45.279  23.618  25.463  1.00  0.00    -0.014 A 
BRANCH  31  32
ATOM     32  C   UNL A   1      45.387  25.032  25.902  1.00  0.00     0.031 A 
ATOM     33  C   UNL A   1      46.729  25.710  25.890  1.00  0.00     0.074 A 
ATOM     34  C   UNL A   1      44.301  25.707  26.319  1.00  0.00     0.049 A 
ATOM     35  N   UNL A   1      47.059  26.906  26.309  1.00  0.00    -0.248 NA
ATOM     36  C   UNL A   1      47.850  24.938  25.330  1.00  0.00     0.031 C 
ATOM     37  C   UNL A   1      42.937  25.183  26.344  1.00  0.00     0.029 A 
ATOM     38  N   UNL A   1      44.182  26.981  26.819  1.00  0.00    -0.354 N 
ATOM     39  C   UNL A   1      48.422  27.028  26.071  1.00  0.00     0.074 A 
ATOM     40  C   UNL A   1      48.863  25.780  25.485  1.00  0.00     0.031 C 
ATOM     41  C   UNL A   1      42.120  26.119  26.860  1.00  0.00     0.029 A 
ATOM     42  C   UNL A   1      42.909  27.294  27.230  1.00  0.00     0.049 A 
ATOM     43  H   UNL A   1      44.937  27.610  26.878  1.00  0.00     0.167 HD
ATOM     44  C   UNL A   1      49.233  28.086  26.316  1.00  0.00     0.037 A 
ATOM     45  C   UNL A   1      42.441  28.388  27.861  1.00  0.00     0.037 A 
ATOM     46  C   UNL A   1      48.801  29.330  26.897  1.00  0.00     0.049 A 
ATOM     47  C   UNL A   1      43.382  29.518  28.196  1.00  0.00     0.074 A 
ATOM     48  C   UNL A   1      49.548  30.468  27.149  1.00  0.00     0.029 A 
ATOM     49  N   UNL A   1      47.511  29.595  27.327  1.00  0.00    -0.354 N 
ATOM     50  N   UNL A   1      44.660  29.636  27.935  1.00  0.00    -0.248 NA
ATOM     51  C   UNL A   1      42.810  30.665  28.919  1.00  0.00     0.031 C 
ATOM     52  C   UNL A   1      48.721  31.405  27.776  1.00  0.00     0.029 A 
ATOM     53  C   UNL A   1      47.448  30.867  27.872  1.00  0.00     0.049 A 
ATOM     54  H   UNL A   1      46.752  28.973  27.255  1.00  0.00     0.167 HD
ATOM     55  C   UNL A   1      45.039  30.875  28.438  1.00  0.00     0.074 A 
ATOM     56  C   UNL A   1      43.853  31.478  29.007  1.00  0.00     0.031 C 
ATOM     57  C   UNL A   1      46.261  31.460  28.432  1.00  0.00     0.037 A 
BRANCH  44  58
ATOM     58  C   UNL A   1      50.686  27.944  25.973  1.00  0.00     0.057 A 
ATOM     59  C   UNL A   1      51.642  27.611  26.940  1.00  0.00     0.134 A 
ATOM     60  C   UNL A   1      51.119  28.076  24.649  1.00  0.00     0.134 A 
ATOM     61  F   UNL A   1      51.289  27.481  28.228  1.00  0.00    -0.206 F 
ATOM     62  C   UNL A   1      52.984  27.425  26.601  1.00  0.00     0.040 A 
ATOM     63  C   UNL A   1      52.454  27.872  24.294  1.00  0.00     0.040 A 
ATOM     64  F   UNL A   1      50.250  28.388  23.675  1.00  0.00    -0.206 F 
ATOM     65  C   UNL A   1      53.390  27.546  25.274  1.00  0.00     0.006 A 
ENDBRANCH  44  58
BRANCH  45  66
ATOM     66  C   UNL A   1      41.014  28.467  28.262  1.00  0.00     0.057 A 
ATOM     67  C   UNL A   1      40.040  28.963  27.389  1.00  0.00     0.134 A 
ATOM     68  C   UNL A   1      40.600  28.096  29.548  1.00  0.00     0.134 A 
ATOM     69  F   UNL A   1      40.381  29.362  26.154  1.00  0.00    -0.206 F 
ATOM     70  C   UNL A   1      38.710  29.112  27.786  1.00  0.00     0.040 A 
ATOM     71  C   UNL A   1      39.268  28.215  29.949  1.00  0.00     0.040 A 
ATOM     72  F   UNL A   1      41.485  27.612  30.432  1.00  0.00    -0.206 F 
ATOM     73  C   UNL A   1      38.321  28.734  29.070  1.00  0.00     0.006 A 
ENDBRANCH  45  66
BRANCH  57  74
ATOM     74  C   UNL A   1      46.375  32.831  29.033  1.00  0.00     0.057 A 
ATOM     75  C   UNL A   1      46.147  33.988  28.277  1.00  0.00     0.134 A 
ATOM     76  C   UNL A   1      46.676  32.993  30.392  1.00  0.00     0.134 A 
ATOM     77  F   UNL A   1      45.868  33.901  26.968  1.00  0.00    -0.206 F 
ATOM     78  C   UNL A   1      46.235  35.259  28.847  1.00  0.00     0.040 A 
ATOM     79  C   UNL A   1      46.742  34.258  30.978  1.00  0.00     0.040 A 
ATOM     80  F   UNL A   1      46.896  31.925  31.174  1.00  0.00    -0.206 F 
ATOM     81  C   UNL A   1      46.526  35.396  30.204  1.00  0.00     0.006 A 
ENDBRANCH  57  74
ENDBRANCH  31  32
ENDBRANCH  24  26
ENDBRANCH  23  24
ENDBRANCH  22  23
ENDBRANCH  21  22
ENDBRANCH  20  21
ENDBRANCH  19  20
ENDBRANCH   1  19
TORSDOF 20
ENDMDL
MODEL 3
REMARK VINA RESULT:      -9.0      5.310     10.875
REMARK SMILES O=C(CCNC(=O)C1CCCC1)OCCOCCOCCOC(=O)c1ccc(-c2c3nc(c(-c4c(F)cccc4F)c4ccc([nH]4)c(-c4c(F)cccc4F)c4nc(c(-c5c(F)cccc5F)c5ccc2[nH]5)C=C4)C=C3)cc1
REMARK SMILES IDX 17 1 16 2 15 3 14 4 13 5 2 6 1 7 3 8 4 9 5 10 6 11 7 13 8 14
REMARK SMILES IDX 9 15 12 16 10 17 11 18 18 19 19 20 20 21 21 22 22 23 23 24
REMARK SMILES IDX 24 25 25 26 26 27 78 28 27 29 77 30 28 31 29 32 30 33 71 34
REMARK SMILES IDX 31 35 76 36 70 37 72 38 32 39 75 40 69 41 68 42 33 44 59 45
REMARK SMILES IDX 42 46 58 47 43 48 46 49 57 50 73 51 44 52 45 53 56 55 74 56
REMARK SMILES IDX 47 57 34 58 35 59 40 60 36 61 37 62 39 63 41 64 38 65 60 66
REMARK SMILES IDX 61 67 66 68 62 69 63 70 65 71 67 72 64 73 48 74 49 75 54 76
REMARK SMILES IDX 50 77 51 78 53 79 55 80 52 81
REMARK H PARENT 5 12 72 43 46 54
REMARK Flexibility Score: inf
ROOT
ATOM      1  C   UNL A   1      34.847  32.032  28.109  1.00  0.00     0.188 C 
ENDROOT
BRANCH   1   2
ATOM      2  O   UNL A   1      34.017  30.890  28.183  1.00  0.00    -0.376 OA
BRANCH   2   3
ATOM      3  C   UNL A   1      33.157  30.567  27.093  1.00  0.00     0.202 C 
BRANCH   3   4
ATOM      4  C   UNL A   1      33.632  29.639  25.975  1.00  0.00     0.261 C 
BRANCH   4   5
ATOM      5  O   UNL A   1      32.681  28.837  25.211  1.00  0.00    -0.463 OA
BRANCH   5   6
ATOM      6  C   UNL A   1      31.423  28.997  24.769  1.00  0.00     0.307 C 
ATOM      7  O   UNL A   1      30.941  30.128  24.715  1.00  0.00    -0.252 OA
BRANCH   6   8
ATOM      8  C   UNL A   1      30.605  27.826  24.322  1.00  0.00     0.144 C 
BRANCH   8   9
ATOM      9  C   UNL A   1      29.806  28.140  23.067  1.00  0.00     0.127 C 
BRANCH   9  10
ATOM     10  N   UNL A   1      28.381  27.926  23.240  1.00  0.00    -0.355 N 
ATOM     11  C   UNL A   1      27.317  28.766  23.184  1.00  0.00     0.223 C 
ATOM     12  H   UNL A   1      28.139  26.991  23.435  1.00  0.00     0.163 HD
ATOM     13  O   UNL A   1      26.233  28.308  23.557  1.00  0.00    -0.275 OA
BRANCH  11  14
ATOM     14  C   UNL A   1      27.411  30.203  22.702  1.00  0.00     0.078 C 
ATOM     15  C   UNL A   1      27.929  31.237  23.693  1.00  0.00     0.013 C 
ATOM     16  C   UNL A   1      28.254  30.382  21.438  1.00  0.00     0.013 C 
ATOM     17  C   UNL A   1      28.325  32.403  22.802  1.00  0.00     0.001 C 
ATOM     18  C   UNL A   1      28.934  31.745  21.572  1.00  0.00     0.001 C 
ENDBRANCH  11  14
ENDBRANCH   9  10
ENDBRANCH   8   9
ENDBRANCH   6   8
ENDBRANCH   5   6
ENDBRANCH   4   5
ENDBRANCH   3   4
ENDBRANCH   2   3
ENDBRANCH   1   2
BRANCH   1  19
ATOM     19  C   UNL A   1      34.083  33.361  28.074  1.00  0.00     0.188 C 
BRANCH  19  20
ATOM     20  O   UNL A   1      34.497  34.372  28.981  1.00  0.00    -0.376 OA
BRANCH  20  21
ATOM     21  C   UNL A   1      33.943  35.681  28.815  1.00  0.00     0.202 C 
BRANCH  21  22
ATOM     22  C   UNL A   1      32.767  36.097  29.712  1.00  0.00     0.261 C 
BRANCH  22  23
ATOM     23  O   UNL A   1      33.166  36.514  31.038  1.00  0.00    -0.460 OA
BRANCH  23  24
ATOM     24  C   UNL A   1      32.776  35.711  32.048  1.00  0.00     0.338 C 
ATOM     25  O   UNL A   1      31.622  35.444  32.389  1.00  0.00    -0.246 OA
BRANCH  24  26
ATOM     26  C   UNL A   1      33.931  35.045  32.668  1.00  0.00     0.060 A 
ATOM     27  C   UNL A   1      35.204  35.615  32.519  1.00  0.00     0.016 A 
ATOM     28  C   UNL A   1      33.785  33.785  33.252  1.00  0.00     0.016 A 
ATOM     29  C   UNL A   1      36.337  34.915  32.941  1.00  0.00     0.010 A 
ATOM     30  C   UNL A   1      34.925  33.081  33.658  1.00  0.00     0.010 A 
ATOM     31  C   UNL A   1      36.209  33.629  33.481  1.00  0.00    -0.014 A 
BRANCH  31  32
ATOM     32  C   UNL A   1      37.413  32.805  33.754  1.00  0.00     0.031 A 
ATOM     33  C   UNL A   1      38.219  33.063  34.998  1.00  0.00     0.074 A 
ATOM     34  C   UNL A   1      37.794  31.839  32.899  1.00  0.00     0.049 A 
ATOM     35  N   UNL A   1      39.346  32.520  35.384  1.00  0.00    -0.248 NA
ATOM     36  C   UNL A   1      37.684  34.067  35.931  1.00  0.00     0.031 C 
ATOM     37  C   UNL A   1      37.084  31.460  31.680  1.00  0.00     0.029 A 
ATOM     38  N   UNL A   1      38.891  31.013  32.921  1.00  0.00    -0.354 N 
ATOM     39  C   UNL A   1      39.658  33.118  36.598  1.00  0.00     0.074 A 
ATOM     40  C   UNL A   1      38.612  34.078  36.878  1.00  0.00     0.031 C 
ATOM     41  C   UNL A   1      37.777  30.491  31.056  1.00  0.00     0.029 A 
ATOM     42  C   UNL A   1      38.994  30.207  31.814  1.00  0.00     0.049 A 
ATOM     43  H   UNL A   1      39.542  31.000  33.660  1.00  0.00     0.167 HD
ATOM     44  C   UNL A   1      40.720  32.887  37.407  1.00  0.00     0.037 A 
ATOM     45  C   UNL A   1      39.974  29.362  31.439  1.00  0.00     0.037 A 
ATOM     46  C   UNL A   1      41.764  31.933  37.136  1.00  0.00     0.049 A 
ATOM     47  C   UNL A   1      41.185  29.183  32.319  1.00  0.00     0.074 A 
ATOM     48  C   UNL A   1      42.859  31.609  37.918  1.00  0.00     0.029 A 
ATOM     49  N   UNL A   1      41.847  31.159  35.989  1.00  0.00    -0.354 N 
ATOM     50  N   UNL A   1      41.452  29.729  33.480  1.00  0.00    -0.248 NA
ATOM     51  C   UNL A   1      42.233  28.274  31.830  1.00  0.00     0.031 C 
ATOM     52  C   UNL A   1      43.632  30.673  37.222  1.00  0.00     0.029 A 
ATOM     53  C   UNL A   1      42.993  30.382  36.028  1.00  0.00     0.049 A 
ATOM     54  H   UNL A   1      41.189  31.161  35.257  1.00  0.00     0.167 HD
ATOM     55  C   UNL A   1      42.682  29.212  33.870  1.00  0.00     0.074 A 
ATOM     56  C   UNL A   1      43.103  28.298  32.830  1.00  0.00     0.031 C 
ATOM     57  C   UNL A   1      43.401  29.472  34.989  1.00  0.00     0.037 A 
BRANCH  44  58
ATOM     58  C   UNL A   1      40.824  33.694  38.667  1.00  0.00     0.057 A 
ATOM     59  C   UNL A   1      40.152  33.323  39.838  1.00  0.00     0.134 A 
ATOM     60  C   UNL A   1      41.659  34.816  38.724  1.00  0.00     0.134 A 
ATOM     61  F   UNL A   1      39.330  32.263  39.843  1.00  0.00    -0.206 F 
ATOM     62  C   UNL A   1      40.301  34.048  41.022  1.00  0.00     0.040 A 
ATOM     63  C   UNL A   1      41.831  35.538  39.907  1.00  0.00     0.040 A 
ATOM     64  F   UNL A   1      42.334  35.219  37.637  1.00  0.00    -0.206 F 
ATOM     65  C   UNL A   1      41.149  35.154  41.060  1.00  0.00     0.006 A 
ENDBRANCH  44  58
BRANCH  45  66
ATOM     66  C   UNL A   1      39.883  28.637  30.146  1.00  0.00     0.057 A 
ATOM     67  C   UNL A   1      39.237  27.399  30.051  1.00  0.00     0.134 A 
ATOM     68  C   UNL A   1      40.486  29.142  28.987  1.00  0.00     0.134 A 
ATOM     69  F   UNL A   1      38.665  26.851  31.133  1.00  0.00    -0.206 F 
ATOM     70  C   UNL A   1      39.214  26.677  28.856  1.00  0.00     0.040 A 
ATOM     71  C   UNL A   1      40.449  28.442  27.781  1.00  0.00     0.040 A 
ATOM     72  F   UNL A   1      41.122  30.323  29.013  1.00  0.00    -0.206 F 
ATOM     73  C   UNL A   1      39.820  27.201  27.715  1.00  0.00     0.006 A 
ENDBRANCH  45  66
BRANCH  57  74
ATOM     74  C   UNL A   1      44.701  28.742  35.162  1.00  0.00     0.057 A 
ATOM     75  C   UNL A   1      45.915  29.285  34.724  1.00  0.00     0.134 A 
ATOM     76  C   UNL A   1      44.743  27.500  35.810  1.00  0.00     0.134 A 
ATOM     77  F   UNL A   1      45.941  30.464  34.085  1.00  0.00    -0.206 F 
ATOM     78  C   UNL A   1      47.123  28.610  34.906  1.00  0.00     0.040 A 
ATOM     79  C   UNL A   1      45.948  26.828  36.019  1.00  0.00     0.040 A 
ATOM     80  F   UNL A   1      43.617  26.929  36.263  1.00  0.00    -0.206 F 
ATOM     81  C   UNL A   1      47.142  27.380  35.562  1.00  0.00     0.006 A 
ENDBRANCH  57  74
ENDBRANCH  31  32
ENDBRANCH  24  26
ENDBRANCH  23  24
ENDBRANCH  22  23
ENDBRANCH  21  22
ENDBRANCH  20  21
ENDBRANCH  19  20
ENDBRANCH   1  19
TORSDOF 20
ENDMDL
