MODEL 1
REMARK VINA RESULT:      -9.9      0.000      0.000
REMARK SMILES O=CN[C@@H](Cc1cc(Cl)ccc1[N+](=O)[O-])C(=O)OCCOCCOCCOC(=O)c1ccc(-c2c3nc(c(-c4c(F)cccc4F)c4ccc([nH]4)c(-c4c(F)cccc4F)c4nc(c(-c5c(F)cccc5F)c5ccc2[nH]5)C=C4)C=C3)cc1
REMARK SMILES IDX 22 1 21 2 20 3 19 4 18 5 16 6 17 7 4 8 3 9 1 10 2 11 5 13
REMARK SMILES IDX 6 14 7 15 12 16 8 17 11 18 9 19 10 20 13 21 14 22 15 23
REMARK SMILES IDX 23 24 24 25 25 26 26 27 27 28 28 29 29 30 30 31 31 32 83 33
REMARK SMILES IDX 32 34 82 35 33 36 34 37 35 38 76 39 36 40 81 41 75 42 77 43
REMARK SMILES IDX 37 44 80 45 74 46 73 47 38 49 64 50 47 51 63 52 48 53 51 54
REMARK SMILES IDX 62 55 78 56 49 57 50 58 61 60 79 61 52 62 39 63 40 64 45 65
REMARK SMILES IDX 41 66 42 67 44 68 46 69 43 70 65 71 66 72 71 73 67 74 68 75
REMARK SMILES IDX 70 76 72 77 69 78 53 79 54 80 59 81 55 82 56 83 58 84 60 85
REMARK SMILES IDX 57 86
REMARK H PARENT 3 12 77 48 51 59
REMARK Flexibility Score: inf
ROOT
ATOM      1  C   UNL A   1      33.361  35.264  28.897  1.00  0.00     0.188 C 
ENDROOT
BRANCH   1   2
ATOM      2  O   UNL A   1      33.455  33.840  28.888  1.00  0.00    -0.376 OA
BRANCH   2   3
ATOM      3  C   UNL A   1      34.329  33.199  27.969  1.00  0.00     0.202 C 
BRANCH   3   4
ATOM      4  C   UNL A   1      34.511  31.681  28.090  1.00  0.00     0.261 C 
BRANCH   4   5
ATOM      5  O   UNL A   1      33.500  30.898  27.422  1.00  0.00    -0.462 OA
BRANCH   5   6
ATOM      6  C   UNL A   1      33.931  29.814  26.727  1.00  0.00     0.329 C 
ATOM      7  O   UNL A   1      34.916  29.146  27.025  1.00  0.00    -0.250 OA
BRANCH   6   8
ATOM      8  C   UNL A   1      33.185  29.605  25.396  1.00  0.00     0.196 C 
BRANCH   8   9
ATOM      9  N   UNL A   1      33.742  28.771  24.336  1.00  0.00    -0.345 N 
ATOM     10  O   UNL A   1      34.214  28.342  22.157  1.00  0.00    -0.279 OA
ATOM     11  C   UNL A   1      33.838  29.119  23.022  1.00  0.00     0.337 C 
ATOM     12  H   UNL A   1      34.077  27.882  24.592  1.00  0.00     0.164 HD
ENDBRANCH   8   9
BRANCH   8  13
ATOM     13  C   UNL A   1      31.721  29.208  25.680  1.00  0.00     0.079 C 
BRANCH  13  14
ATOM     14  C   UNL A   1      30.677  29.037  24.577  1.00  0.00     0.034 A 
ATOM     15  C   UNL A   1      30.189  30.256  24.041  1.00  0.00     0.031 A 
ATOM     16  C   UNL A   1      30.200  27.853  23.961  1.00  0.00     0.272 A 
ATOM     17  C   UNL A   1      29.275  30.298  22.985  1.00  0.00     0.041 A 
ATOM     18  C   UNL A   1      29.249  27.903  22.917  1.00  0.00     0.087 A 
ATOM     19  Cl  UNL A   1      28.775  31.814  22.353  1.00  0.00    -0.084 Cl
ATOM     20  C   UNL A   1      28.791  29.124  22.431  1.00  0.00     0.027 A 
BRANCH  16  21
ATOM     21  N   UNL A   1      30.702  26.511  24.265  1.00  0.00     0.062 N 
ATOM     22  O   UNL A   1      31.859  26.236  23.921  1.00  0.00    -0.258 OA
ATOM     23  O   UNL A   1      29.956  25.754  24.896  1.00  0.00    -0.258 OA
ENDBRANCH  16  21
ENDBRANCH  13  14
ENDBRANCH   8  13
ENDBRANCH   6   8
ENDBRANCH   5   6
ENDBRANCH   4   5
ENDBRANCH   3   4
ENDBRANCH   2   3
ENDBRANCH   1   2
BRANCH   1  24
ATOM     24  C   UNL A   1      32.929  35.998  30.182  1.00  0.00     0.188 C 
BRANCH  24  25
ATOM     25  O   UNL A   1      32.941  35.193  31.330  1.00  0.00    -0.376 OA
BRANCH  25  26
ATOM     26  C   UNL A   1      33.914  35.383  32.331  1.00  0.00     0.202 C 
BRANCH  26  27
ATOM     27  C   UNL A   1      35.401  35.024  32.154  1.00  0.00     0.261 C 
BRANCH  27  28
ATOM     28  O   UNL A   1      35.722  33.864  31.378  1.00  0.00    -0.460 OA
BRANCH  28  29
ATOM     29  C   UNL A   1      35.878  32.697  32.051  1.00  0.00     0.338 C 
ATOM     30  O   UNL A   1      35.115  32.202  32.862  1.00  0.00    -0.246 OA
BRANCH  29  31
ATOM     31  C   UNL A   1      37.066  32.022  31.487  1.00  0.00     0.060 A 
ATOM     32  C   UNL A   1      37.904  31.285  32.335  1.00  0.00     0.016 A 
ATOM     33  C   UNL A   1      37.324  32.081  30.116  1.00  0.00     0.016 A 
ATOM     34  C   UNL A   1      38.996  30.588  31.810  1.00  0.00     0.010 A 
ATOM     35  C   UNL A   1      38.432  31.408  29.598  1.00  0.00     0.010 A 
ATOM     36  C   UNL A   1      39.279  30.663  30.440  1.00  0.00    -0.014 A 
BRANCH  36  37
ATOM     37  C   UNL A   1      40.529  30.088  29.887  1.00  0.00     0.031 A 
ATOM     38  C   UNL A   1      41.710  30.993  29.684  1.00  0.00     0.074 A 
ATOM     39  C   UNL A   1      40.605  28.792  29.532  1.00  0.00     0.049 A 
ATOM     40  N   UNL A   1      42.846  30.756  29.081  1.00  0.00    -0.248 NA
ATOM     41  C   UNL A   1      41.586  32.354  30.231  1.00  0.00     0.031 C 
ATOM     42  C   UNL A   1      39.551  27.798  29.721  1.00  0.00     0.029 A 
ATOM     43  N   UNL A   1      41.617  28.099  28.913  1.00  0.00    -0.354 N 
ATOM     44  C   UNL A   1      43.567  31.940  29.164  1.00  0.00     0.074 A 
ATOM     45  C   UNL A   1      42.733  32.899  29.855  1.00  0.00     0.031 C 
ATOM     46  C   UNL A   1      39.962  26.627  29.204  1.00  0.00     0.029 A 
ATOM     47  C   UNL A   1      41.287  26.801  28.608  1.00  0.00     0.049 A 
ATOM     48  H   UNL A   1      42.495  28.495  28.707  1.00  0.00     0.167 HD
ATOM     49  C   UNL A   1      44.815  32.203  28.705  1.00  0.00     0.037 A 
ATOM     50  C   UNL A   1      41.958  25.876  27.894  1.00  0.00     0.037 A 
ATOM     51  C   UNL A   1      45.639  31.251  28.009  1.00  0.00     0.049 A 
ATOM     52  C   UNL A   1      43.302  26.224  27.303  1.00  0.00     0.074 A 
ATOM     53  C   UNL A   1      46.925  31.417  27.523  1.00  0.00     0.029 A 
ATOM     54  N   UNL A   1      45.256  29.957  27.689  1.00  0.00    -0.354 N 
ATOM     55  N   UNL A   1      43.988  27.337  27.402  1.00  0.00    -0.248 NA
ATOM     56  C   UNL A   1      43.961  25.186  26.495  1.00  0.00     0.031 C 
ATOM     57  C   UNL A   1      47.294  30.246  26.852  1.00  0.00     0.029 A 
ATOM     58  C   UNL A   1      46.264  29.327  26.977  1.00  0.00     0.049 A 
ATOM     59  H   UNL A   1      44.394  29.547  27.931  1.00  0.00     0.167 HD
ATOM     60  C   UNL A   1      45.165  27.126  26.692  1.00  0.00     0.074 A 
ATOM     61  C   UNL A   1      45.109  25.771  26.185  1.00  0.00     0.031 C 
ATOM     62  C   UNL A   1      46.198  27.977  26.477  1.00  0.00     0.037 A 
BRANCH  49  63
ATOM     63  C   UNL A   1      45.348  33.591  28.910  1.00  0.00     0.057 A 
ATOM     64  C   UNL A   1      46.105  33.939  30.036  1.00  0.00     0.134 A 
ATOM     65  C   UNL A   1      45.125  34.586  27.950  1.00  0.00     0.134 A 
ATOM     66  F   UNL A   1      46.343  33.036  30.999  1.00  0.00    -0.206 F 
ATOM     67  C   UNL A   1      46.600  35.232  30.211  1.00  0.00     0.040 A 
ATOM     68  C   UNL A   1      45.640  35.875  28.098  1.00  0.00     0.040 A 
ATOM     69  F   UNL A   1      44.411  34.320  26.845  1.00  0.00    -0.206 F 
ATOM     70  C   UNL A   1      46.376  36.202  29.236  1.00  0.00     0.006 A 
ENDBRANCH  49  63
BRANCH  50  71
ATOM     71  C   UNL A   1      41.360  24.535  27.656  1.00  0.00     0.057 A 
ATOM     72  C   UNL A   1      40.338  24.354  26.716  1.00  0.00     0.134 A 
ATOM     73  C   UNL A   1      41.768  23.412  28.387  1.00  0.00     0.134 A 
ATOM     74  F   UNL A   1      39.882  25.396  26.006  1.00  0.00    -0.206 F 
ATOM     75  C   UNL A   1      39.732  23.110  26.524  1.00  0.00     0.040 A 
ATOM     76  C   UNL A   1      41.191  22.157  28.183  1.00  0.00     0.040 A 
ATOM     77  F   UNL A   1      42.737  23.518  29.307  1.00  0.00    -0.206 F 
ATOM     78  C   UNL A   1      40.164  22.005  27.256  1.00  0.00     0.006 A 
ENDBRANCH  50  71
BRANCH  62  79
ATOM     79  C   UNL A   1      47.368  27.464  25.683  1.00  0.00     0.057 A 
ATOM     80  C   UNL A   1      47.438  27.603  24.292  1.00  0.00     0.134 A 
ATOM     81  C   UNL A   1      48.458  26.861  26.326  1.00  0.00     0.134 A 
ATOM     82  F   UNL A   1      46.424  28.160  23.612  1.00  0.00    -0.206 F 
ATOM     83  C   UNL A   1      48.538  27.142  23.566  1.00  0.00     0.040 A 
ATOM     84  C   UNL A   1      49.576  26.424  25.614  1.00  0.00     0.040 A 
ATOM     85  F   UNL A   1      48.463  26.705  27.658  1.00  0.00    -0.206 F 
ATOM     86  C   UNL A   1      49.615  26.557  24.228  1.00  0.00     0.006 A 
ENDBRANCH  62  79
ENDBRANCH  36  37
ENDBRANCH  29  31
ENDBRANCH  28  29
ENDBRANCH  27  28
ENDBRANCH  26  27
ENDBRANCH  25  26
ENDBRANCH  24  25
ENDBRANCH   1  24
TORSDOF 21
ENDMDL
MODEL 2
REMARK VINA RESULT:      -9.9      5.243      8.382
REMARK SMILES O=CN[C@@H](Cc1cc(Cl)ccc1[N+](=O)[O-])C(=O)OCCOCCOCCOC(=O)c1ccc(-c2c3nc(c(-c4c(F)cccc4F)c4ccc([nH]4)c(-c4c(F)cccc4F)c4nc(c(-c5c(F)cccc5F)c5ccc2[nH]5)C=C4)C=C3)cc1
REMARK SMILES IDX 22 1 21 2 20 3 19 4 18 5 16 6 17 7 4 8 3 9 1 10 2 11 5 13
REMARK SMILES IDX 6 14 7 15 12 16 8 17 11 18 9 19 10 20 13 21 14 22 15 23
REMARK SMILES IDX 23 24 24 25 25 26 26 27 27 28 28 29 29 30 30 31 31 32 83 33
REMARK SMILES IDX 32 34 82 35 33 36 34 37 35 38 76 39 36 40 81 41 75 42 77 43
REMARK SMILES IDX 37 44 80 45 74 46 73 47 38 49 64 50 47 51 63 52 48 53 51 54
REMARK SMILES IDX 62 55 78 56 49 57 50 58 61 60 79 61 52 62 39 63 40 64 45 65
REMARK SMILES IDX 41 66 42 67 44 68 46 69 43 70 65 71 66 72 71 73 67 74 68 75
REMARK SMILES IDX 70 76 72 77 69 78 53 79 54 80 59 81 55 82 56 83 58 84 60 85
REMARK SMILES IDX 57 86
REMARK H PARENT 3 12 77 48 51 59
REMARK Flexibility Score: inf
ROOT
ATOM      1  C   UNL A   1      35.185  34.824  33.982  1.00  0.00     0.188 C 
ENDROOT
BRANCH   1   2
ATOM      2  O   UNL A   1      36.537  34.684  34.418  1.00  0.00    -0.376 OA
BRANCH   2   3
ATOM      3  C   UNL A   1      36.891  33.610  35.277  1.00  0.00     0.202 C 
BRANCH   3   4
ATOM      4  C   UNL A   1      37.308  32.282  34.632  1.00  0.00     0.261 C 
BRANCH   4   5
ATOM      5  O   UNL A   1      38.728  32.028  34.642  1.00  0.00    -0.462 OA
BRANCH   5   6
ATOM      6  C   UNL A   1      39.145  30.932  35.328  1.00  0.00     0.329 C 
ATOM      7  O   UNL A   1      39.217  30.866  36.551  1.00  0.00    -0.250 OA
BRANCH   6   8
ATOM      8  C   UNL A   1      39.719  29.827  34.422  1.00  0.00     0.196 C 
BRANCH   8   9
ATOM      9  N   UNL A   1      39.029  29.407  33.206  1.00  0.00    -0.345 N 
ATOM     10  O   UNL A   1      37.227  28.575  32.105  1.00  0.00    -0.279 OA
ATOM     11  C   UNL A   1      37.726  29.020  33.128  1.00  0.00     0.337 C 
ATOM     12  H   UNL A   1      39.551  29.406  32.371  1.00  0.00     0.164 HD
ENDBRANCH   8   9
BRANCH   8  13
ATOM     13  C   UNL A   1      41.204  30.120  34.124  1.00  0.00     0.079 C 
BRANCH  13  14
ATOM     14  C   UNL A   1      42.338  29.709  35.065  1.00  0.00     0.034 A 
ATOM     15  C   UNL A   1      42.912  30.783  35.791  1.00  0.00     0.031 A 
ATOM     16  C   UNL A   1      42.828  28.417  35.375  1.00  0.00     0.272 A 
ATOM     17  C   UNL A   1      43.918  30.591  36.741  1.00  0.00     0.041 A 
ATOM     18  C   UNL A   1      43.871  28.235  36.312  1.00  0.00     0.087 A 
ATOM     19  Cl  UNL A   1      44.524  31.936  37.622  1.00  0.00    -0.084 Cl
ATOM     20  C   UNL A   1      44.411  29.321  36.993  1.00  0.00     0.027 A 
BRANCH  16  21
ATOM     21  N   UNL A   1      42.257  27.174  34.850  1.00  0.00     0.062 N 
ATOM     22  O   UNL A   1      42.875  26.589  33.952  1.00  0.00    -0.258 OA
ATOM     23  O   UNL A   1      41.219  26.757  35.379  1.00  0.00    -0.258 OA
ENDBRANCH  16  21
ENDBRANCH  13  14
ENDBRANCH   8  13
ENDBRANCH   6   8
ENDBRANCH   5   6
ENDBRANCH   4   5
ENDBRANCH   3   4
ENDBRANCH   2   3
ENDBRANCH   1   2
BRANCH   1  24
ATOM     24  C   UNL A   1      34.860  35.694  32.751  1.00  0.00     0.188 C 
BRANCH  24  25
ATOM     25  O   UNL A   1      33.599  36.304  32.801  1.00  0.00    -0.376 OA
BRANCH  25  26
ATOM     26  C   UNL A   1      33.070  36.955  31.669  1.00  0.00     0.202 C 
BRANCH  26  27
ATOM     27  C   UNL A   1      33.119  36.368  30.246  1.00  0.00     0.261 C 
BRANCH  27  28
ATOM     28  O   UNL A   1      32.636  35.033  30.055  1.00  0.00    -0.460 OA
BRANCH  28  29
ATOM     29  C   UNL A   1      33.097  34.360  28.973  1.00  0.00     0.338 C 
ATOM     30  O   UNL A   1      32.618  34.340  27.852  1.00  0.00    -0.246 OA
BRANCH  29  31
ATOM     31  C   UNL A   1      34.411  33.789  29.339  1.00  0.00     0.060 A 
ATOM     32  C   UNL A   1      35.538  34.110  28.571  1.00  0.00     0.016 A 
ATOM     33  C   UNL A   1      34.533  32.973  30.466  1.00  0.00     0.016 A 
ATOM     34  C   UNL A   1      36.797  33.630  28.939  1.00  0.00     0.010 A 
ATOM     35  C   UNL A   1      35.788  32.470  30.815  1.00  0.00     0.010 A 
ATOM     36  C   UNL A   1      36.927  32.789  30.052  1.00  0.00    -0.014 A 
BRANCH  36  37
ATOM     37  C   UNL A   1      38.215  32.119  30.356  1.00  0.00     0.031 A 
ATOM     38  C   UNL A   1      39.220  32.843  31.205  1.00  0.00     0.074 A 
ATOM     39  C   UNL A   1      38.507  30.905  29.856  1.00  0.00     0.049 A 
ATOM     40  N   UNL A   1      40.461  32.530  31.476  1.00  0.00    -0.248 NA
ATOM     41  C   UNL A   1      38.763  34.097  31.825  1.00  0.00     0.031 C 
ATOM     42  C   UNL A   1      37.603  30.077  29.060  1.00  0.00     0.029 A 
ATOM     43  N   UNL A   1      39.665  30.170  29.927  1.00  0.00    -0.354 N 
ATOM     44  C   UNL A   1      40.936  33.552  32.287  1.00  0.00     0.074 A 
ATOM     45  C   UNL A   1      39.859  34.505  32.445  1.00  0.00     0.031 C 
ATOM     46  C   UNL A   1      38.251  28.956  28.696  1.00  0.00     0.029 A 
ATOM     47  C   UNL A   1      39.626  29.010  29.192  1.00  0.00     0.049 A 
ATOM     48  H   UNL A   1      40.449  30.447  30.455  1.00  0.00     0.167 HD
ATOM     49  C   UNL A   1      42.162  33.682  32.850  1.00  0.00     0.037 A 
ATOM     50  C   UNL A   1      40.599  28.120  28.916  1.00  0.00     0.037 A 
ATOM     51  C   UNL A   1      43.234  32.738  32.683  1.00  0.00     0.049 A 
ATOM     52  C   UNL A   1      41.986  28.339  29.469  1.00  0.00     0.074 A 
ATOM     53  C   UNL A   1      44.506  32.773  33.229  1.00  0.00     0.029 A 
ATOM     54  N   UNL A   1      43.167  31.593  31.903  1.00  0.00    -0.354 N 
ATOM     55  N   UNL A   1      42.425  29.295  30.252  1.00  0.00    -0.248 NA
ATOM     56  C   UNL A   1      43.014  27.357  29.093  1.00  0.00     0.031 C 
ATOM     57  C   UNL A   1      45.228  31.685  32.728  1.00  0.00     0.029 A 
ATOM     58  C   UNL A   1      44.387  30.935  31.921  1.00  0.00     0.049 A 
ATOM     59  H   UNL A   1      42.370  31.293  31.408  1.00  0.00     0.167 HD
ATOM     60  C   UNL A   1      43.768  29.018  30.480  1.00  0.00     0.074 A 
ATOM     61  C   UNL A   1      44.067  27.792  29.770  1.00  0.00     0.031 C 
ATOM     62  C   UNL A   1      44.673  29.715  31.210  1.00  0.00     0.037 A 
BRANCH  49  63
ATOM     63  C   UNL A   1      42.418  34.913  33.669  1.00  0.00     0.057 A 
ATOM     64  C   UNL A   1      42.956  36.080  33.112  1.00  0.00     0.134 A 
ATOM     65  C   UNL A   1      42.091  34.940  35.031  1.00  0.00     0.134 A 
ATOM     66  F   UNL A   1      43.303  36.116  31.816  1.00  0.00    -0.206 F 
ATOM     67  C   UNL A   1      43.183  37.220  33.885  1.00  0.00     0.040 A 
ATOM     68  C   UNL A   1      42.286  36.083  35.808  1.00  0.00     0.040 A 
ATOM     69  F   UNL A   1      41.568  33.858  35.628  1.00  0.00    -0.206 F 
ATOM     70  C   UNL A   1      42.839  37.227  35.235  1.00  0.00     0.006 A 
ENDBRANCH  49  63
BRANCH  50  71
ATOM     71  C   UNL A   1      40.319  26.950  28.041  1.00  0.00     0.057 A 
ATOM     72  C   UNL A   1      39.578  25.858  28.507  1.00  0.00     0.134 A 
ATOM     73  C   UNL A   1      40.817  26.879  26.734  1.00  0.00     0.134 A 
ATOM     74  F   UNL A   1      39.100  25.852  29.760  1.00  0.00    -0.206 F 
ATOM     75  C   UNL A   1      39.356  24.731  27.712  1.00  0.00     0.040 A 
ATOM     76  C   UNL A   1      40.577  25.772  25.919  1.00  0.00     0.040 A 
ATOM     77  F   UNL A   1      41.540  27.889  26.229  1.00  0.00    -0.206 F 
ATOM     78  C   UNL A   1      39.852  24.689  26.410  1.00  0.00     0.006 A 
ENDBRANCH  50  71
BRANCH  62  79
ATOM     79  C   UNL A   1      46.067  29.158  31.304  1.00  0.00     0.057 A 
ATOM     80  C   UNL A   1      47.039  29.424  30.331  1.00  0.00     0.134 A 
ATOM     81  C   UNL A   1      46.454  28.382  32.405  1.00  0.00     0.134 A 
ATOM     82  F   UNL A   1      46.734  30.151  29.245  1.00  0.00    -0.206 F 
ATOM     83  C   UNL A   1      48.337  28.919  30.438  1.00  0.00     0.040 A 
ATOM     84  C   UNL A   1      47.756  27.898  32.538  1.00  0.00     0.040 A 
ATOM     85  F   UNL A   1      45.578  28.097  33.380  1.00  0.00    -0.206 F 
ATOM     86  C   UNL A   1      48.700  28.160  31.548  1.00  0.00     0.006 A 
ENDBRANCH  62  79
ENDBRANCH  36  37
ENDBRANCH  29  31
ENDBRANCH  28  29
ENDBRANCH  27  28
ENDBRANCH  26  27
ENDBRANCH  25  26
ENDBRANCH  24  25
ENDBRANCH   1  24
TORSDOF 21
ENDMDL
MODEL 3
REMARK VINA RESULT:      -9.8      2.263      3.190
REMARK SMILES O=CN[C@@H](Cc1cc(Cl)ccc1[N+](=O)[O-])C(=O)OCCOCCOCCOC(=O)c1ccc(-c2c3nc(c(-c4c(F)cccc4F)c4ccc([nH]4)c(-c4c(F)cccc4F)c4nc(c(-c5c(F)cccc5F)c5ccc2[nH]5)C=C4)C=C3)cc1
REMARK SMILES IDX 22 1 21 2 20 3 19 4 18 5 16 6 17 7 4 8 3 9 1 10 2 11 5 13
REMARK SMILES IDX 6 14 7 15 12 16 8 17 11 18 9 19 10 20 13 21 14 22 15 23
REMARK SMILES IDX 23 24 24 25 25 26 26 27 27 28 28 29 29 30 30 31 31 32 83 33
REMARK SMILES IDX 32 34 82 35 33 36 34 37 35 38 76 39 36 40 81 41 75 42 77 43
REMARK SMILES IDX 37 44 80 45 74 46 73 47 38 49 64 50 47 51 63 52 48 53 51 54
REMARK SMILES IDX 62 55 78 56 49 57 50 58 61 60 79 61 52 62 39 63 40 64 45 65
REMARK SMILES IDX 41 66 42 67 44 68 46 69 43 70 65 71 66 72 71 73 67 74 68 75
REMARK SMILES IDX 70 76 72 77 69 78 53 79 54 80 59 81 55 82 56 83 58 84 60 85
REMARK SMILES IDX 57 86
REMARK H PARENT 3 12 77 48 51 59
REMARK Flexibility Score: inf
ROOT
ATOM      1  C   UNL A   1      34.315  30.992  27.511  1.00  0.00     0.188 C 
ENDROOT
BRANCH   1   2
ATOM      2  O   UNL A   1      32.933  30.652  27.614  1.00  0.00    -0.376 OA
BRANCH   2   3
ATOM      3  C   UNL A   1      32.207  30.301  26.444  1.00  0.00     0.202 C 
BRANCH   3   4
ATOM      4  C   UNL A   1      32.300  28.852  25.949  1.00  0.00     0.261 C 
BRANCH   4   5
ATOM      5  O   UNL A   1      32.849  28.704  24.623  1.00  0.00    -0.462 OA
BRANCH   5   6
ATOM      6  C   UNL A   1      31.982  28.341  23.643  1.00  0.00     0.329 C 
ATOM      7  O   UNL A   1      30.972  28.968  23.343  1.00  0.00    -0.250 OA
BRANCH   6   8
ATOM      8  C   UNL A   1      32.270  26.944  23.059  1.00  0.00     0.196 C 
BRANCH   8   9
ATOM      9  N   UNL A   1      32.491  26.750  21.630  1.00  0.00    -0.345 N 
ATOM     10  O   UNL A   1      33.008  25.460  19.835  1.00  0.00    -0.279 OA
ATOM     11  C   UNL A   1      32.723  25.554  21.019  1.00  0.00     0.337 C 
ATOM     12  H   UNL A   1      32.468  27.551  21.058  1.00  0.00     0.164 HD
ENDBRANCH   8   9
BRANCH   8  13
ATOM     13  C   UNL A   1      33.390  26.264  23.874  1.00  0.00     0.079 C 
BRANCH  13  14
ATOM     14  C   UNL A   1      33.191  24.944  24.620  1.00  0.00     0.034 A 
ATOM     15  C   UNL A   1      31.964  24.852  25.324  1.00  0.00     0.031 A 
ATOM     16  C   UNL A   1      34.005  23.785  24.635  1.00  0.00     0.272 A 
ATOM     17  C   UNL A   1      31.581  23.699  26.014  1.00  0.00     0.041 A 
ATOM     18  C   UNL A   1      33.626  22.635  25.365  1.00  0.00     0.087 A 
ATOM     19  Cl  UNL A   1      30.052  23.644  26.796  1.00  0.00    -0.084 Cl
ATOM     20  C   UNL A   1      32.416  22.594  26.050  1.00  0.00     0.027 A 
BRANCH  16  21
ATOM     21  N   UNL A   1      35.227  23.629  23.843  1.00  0.00     0.062 N 
ATOM     22  O   UNL A   1      35.109  23.265  22.665  1.00  0.00    -0.258 OA
ATOM     23  O   UNL A   1      36.298  23.926  24.385  1.00  0.00    -0.258 OA
ENDBRANCH  16  21
ENDBRANCH  13  14
ENDBRANCH   8  13
ENDBRANCH   6   8
ENDBRANCH   5   6
ENDBRANCH   4   5
ENDBRANCH   3   4
ENDBRANCH   2   3
ENDBRANCH   1   2
BRANCH   1  24
ATOM     24  C   UNL A   1      34.769  32.446  27.753  1.00  0.00     0.188 C 
BRANCH  24  25
ATOM     25  O   UNL A   1      33.808  33.246  28.387  1.00  0.00    -0.376 OA
BRANCH  25  26
ATOM     26  C   UNL A   1      34.185  34.174  29.376  1.00  0.00     0.202 C 
BRANCH  26  27
ATOM     27  C   UNL A   1      34.386  33.807  30.858  1.00  0.00     0.261 C 
BRANCH  27  28
ATOM     28  O   UNL A   1      34.743  32.456  31.171  1.00  0.00    -0.460 OA
BRANCH  28  29
ATOM     29  C   UNL A   1      35.626  32.271  32.183  1.00  0.00     0.338 C 
ATOM     30  O   UNL A   1      35.439  32.455  33.373  1.00  0.00    -0.246 OA
BRANCH  29  31
ATOM     31  C   UNL A   1      36.823  31.621  31.607  1.00  0.00     0.060 A 
ATOM     32  C   UNL A   1      37.699  30.924  32.451  1.00  0.00     0.016 A 
ATOM     33  C   UNL A   1      37.052  31.662  30.231  1.00  0.00     0.016 A 
ATOM     34  C   UNL A   1      38.800  30.251  31.916  1.00  0.00     0.010 A 
ATOM     35  C   UNL A   1      38.169  31.014  29.702  1.00  0.00     0.010 A 
ATOM     36  C   UNL A   1      39.054  30.309  30.540  1.00  0.00    -0.014 A 
BRANCH  36  37
ATOM     37  C   UNL A   1      40.310  29.761  29.972  1.00  0.00     0.031 A 
ATOM     38  C   UNL A   1      41.475  30.687  29.774  1.00  0.00     0.074 A 
ATOM     39  C   UNL A   1      40.404  28.472  29.598  1.00  0.00     0.049 A 
ATOM     40  N   UNL A   1      42.611  30.477  29.161  1.00  0.00    -0.248 NA
ATOM     41  C   UNL A   1      41.333  32.038  30.341  1.00  0.00     0.031 C 
ATOM     42  C   UNL A   1      39.366  27.459  29.779  1.00  0.00     0.029 A 
ATOM     43  N   UNL A   1      41.422  27.803  28.964  1.00  0.00    -0.354 N 
ATOM     44  C   UNL A   1      43.315  31.670  29.257  1.00  0.00     0.074 A 
ATOM     45  C   UNL A   1      42.469  32.606  29.966  1.00  0.00     0.031 C 
ATOM     46  C   UNL A   1      39.792  26.302  29.244  1.00  0.00     0.029 A 
ATOM     47  C   UNL A   1      41.110  26.505  28.643  1.00  0.00     0.049 A 
ATOM     48  H   UNL A   1      42.293  28.215  28.758  1.00  0.00     0.167 HD
ATOM     49  C   UNL A   1      44.555  31.959  28.794  1.00  0.00     0.037 A 
ATOM     50  C   UNL A   1      41.791  25.599  27.912  1.00  0.00     0.037 A 
ATOM     51  C   UNL A   1      45.390  31.029  28.081  1.00  0.00     0.049 A 
ATOM     52  C   UNL A   1      43.126  25.976  27.319  1.00  0.00     0.074 A 
ATOM     53  C   UNL A   1      46.670  31.222  27.589  1.00  0.00     0.029 A 
ATOM     54  N   UNL A   1      45.025  29.734  27.745  1.00  0.00    -0.354 N 
ATOM     55  N   UNL A   1      43.796  27.098  27.429  1.00  0.00    -0.248 NA
ATOM     56  C   UNL A   1      43.797  24.960  26.492  1.00  0.00     0.031 C 
ATOM     57  C   UNL A   1      47.053  30.066  26.901  1.00  0.00     0.029 A 
ATOM     58  C   UNL A   1      46.039  29.130  27.019  1.00  0.00     0.049 A 
ATOM     59  H   UNL A   1      44.171  29.307  27.986  1.00  0.00     0.167 HD
ATOM     60  C   UNL A   1      44.972  26.915  26.709  1.00  0.00     0.074 A 
ATOM     61  C   UNL A   1      44.933  25.567  26.184  1.00  0.00     0.031 C 
ATOM     62  C   UNL A   1      45.991  27.786  26.501  1.00  0.00     0.037 A 
BRANCH  49  63
ATOM     63  C   UNL A   1      45.067  33.351  29.015  1.00  0.00     0.057 A 
ATOM     64  C   UNL A   1      44.818  34.389  28.108  1.00  0.00     0.134 A 
ATOM     65  C   UNL A   1      45.796  33.666  30.170  1.00  0.00     0.134 A 
ATOM     66  F   UNL A   1      44.139  34.153  26.976  1.00  0.00    -0.206 F 
ATOM     67  C   UNL A   1      45.296  35.683  28.329  1.00  0.00     0.040 A 
ATOM     68  C   UNL A   1      46.253  34.961  30.417  1.00  0.00     0.040 A 
ATOM     69  F   UNL A   1      46.067  32.721  31.083  1.00  0.00    -0.206 F 
ATOM     70  C   UNL A   1      46.008  35.973  29.491  1.00  0.00     0.006 A 
ENDBRANCH  49  63
BRANCH  50  71
ATOM     71  C   UNL A   1      41.213  24.253  27.659  1.00  0.00     0.057 A 
ATOM     72  C   UNL A   1      41.697  23.120  28.325  1.00  0.00     0.134 A 
ATOM     73  C   UNL A   1      40.193  24.060  26.720  1.00  0.00     0.134 A 
ATOM     74  F   UNL A   1      42.695  23.235  29.213  1.00  0.00    -0.206 F 
ATOM     75  C   UNL A   1      41.199  21.844  28.054  1.00  0.00     0.040 A 
ATOM     76  C   UNL A   1      39.666  22.793  26.461  1.00  0.00     0.040 A 
ATOM     77  F   UNL A   1      39.689  25.102  26.042  1.00  0.00    -0.206 F 
ATOM     78  C   UNL A   1      40.175  21.679  27.123  1.00  0.00     0.006 A 
ENDBRANCH  50  71
BRANCH  62  79
ATOM     79  C   UNL A   1      47.163  27.302  25.693  1.00  0.00     0.057 A 
ATOM     80  C   UNL A   1      47.270  27.550  24.319  1.00  0.00     0.134 A 
ATOM     81  C   UNL A   1      48.220  26.616  26.308  1.00  0.00     0.134 A 
ATOM     82  F   UNL A   1      46.289  28.190  23.665  1.00  0.00    -0.206 F 
ATOM     83  C   UNL A   1      48.374  27.114  23.582  1.00  0.00     0.040 A 
ATOM     84  C   UNL A   1      49.342  26.203  25.588  1.00  0.00     0.040 A 
ATOM     85  F   UNL A   1      48.189  26.354  27.623  1.00  0.00    -0.206 F 
ATOM     86  C   UNL A   1      49.417  26.445  24.218  1.00  0.00     0.006 A 
ENDBRANCH  62  79
ENDBRANCH  36  37
ENDBRANCH  29  31
ENDBRANCH  28  29
ENDBRANCH  27  28
ENDBRANCH  26  27
ENDBRANCH  25  26
ENDBRANCH  24  25
ENDBRANCH   1  24
TORSDOF 21
ENDMDL
