MODEL 1
REMARK VINA RESULT:     -10.5      0.000      0.000
REMARK SMILES Cc1cc(N2CC[C@H](CC(=O)OCCOCCOCCOC(=O)c3ccc(-c4c5nc(c(-c6c(F)cccc6F)c6ccc([nH]6)c(-c6c(F)cccc6F)c6nc(c(-c7c(F)cccc7F)c7ccc4[nH]7)C=C6)C=C5)cc3)C2)ncc1[N+](=O)[O-]
REMARK SMILES IDX 16 1 15 2 14 3 13 4 12 5 10 6 11 7 9 8 8 9 5 10 6 11 78 12
REMARK SMILES IDX 7 13 4 14 1 15 2 16 3 17 81 18 80 19 79 20 82 21 83 22 84 23
REMARK SMILES IDX 17 24 18 25 19 26 20 27 21 28 22 29 23 30 24 31 25 32 77 33
REMARK SMILES IDX 26 34 76 35 27 36 28 37 29 38 70 39 30 40 75 41 69 42 71 43
REMARK SMILES IDX 31 44 74 45 68 46 67 47 32 49 58 50 41 51 57 52 42 53 45 54
REMARK SMILES IDX 56 55 72 56 43 57 44 58 55 60 73 61 46 62 33 63 34 64 39 65
REMARK SMILES IDX 35 66 36 67 38 68 40 69 37 70 59 71 60 72 65 73 61 74 62 75
REMARK SMILES IDX 64 76 66 77 63 78 47 79 48 80 53 81 49 82 50 83 52 84 54 85
REMARK SMILES IDX 51 86
REMARK H PARENT 71 48 45 59
REMARK Flexibility Score: inf
ROOT
ATOM      1  C   UNL A   1      36.058  23.498  25.147  1.00  0.00     0.188 C 
ENDROOT
BRANCH   1   2
ATOM      2  O   UNL A   1      35.233  23.557  26.306  1.00  0.00    -0.376 OA
BRANCH   2   3
ATOM      3  C   UNL A   1      34.455  22.396  26.597  1.00  0.00     0.202 C 
BRANCH   3   4
ATOM      4  C   UNL A   1      33.187  22.613  27.440  1.00  0.00     0.261 C 
BRANCH   4   5
ATOM      5  O   UNL A   1      31.951  22.519  26.697  1.00  0.00    -0.463 OA
BRANCH   5   6
ATOM      6  C   UNL A   1      31.122  23.591  26.788  1.00  0.00     0.306 C 
ATOM      7  O   UNL A   1      29.971  23.547  27.212  1.00  0.00    -0.252 OA
BRANCH   6   8
ATOM      8  C   UNL A   1      31.757  24.919  26.420  1.00  0.00     0.128 C 
BRANCH   8   9
ATOM      9  C   UNL A   1      32.049  25.267  24.960  1.00  0.00     0.021 C 
ATOM     10  N   UNL A   1      31.451  26.853  23.280  1.00  0.00    -0.356 N 
ATOM     11  C   UNL A   1      31.234  25.518  22.728  1.00  0.00     0.118 C 
ATOM     12  C   UNL A   1      31.818  26.775  24.695  1.00  0.00     0.122 C 
ATOM     13  C   UNL A   1      31.117  24.611  23.948  1.00  0.00     0.027 C 
BRANCH  10  14
ATOM     14  C   UNL A   1      30.549  27.847  22.931  1.00  0.00     0.129 A 
ATOM     15  C   UNL A   1      26.855  28.464  23.453  1.00  0.00     0.052 C 
ATOM     16  C   UNL A   1      28.258  28.717  22.979  1.00  0.00     0.032 A 
ATOM     17  C   UNL A   1      29.197  27.692  23.241  1.00  0.00     0.057 A 
ATOM     18  C   UNL A   1      28.735  29.863  22.328  1.00  0.00     0.290 A 
ATOM     19  C   UNL A   1      30.092  29.932  22.025  1.00  0.00     0.199 A 
ATOM     20  N   UNL A   1      30.994  28.962  22.321  1.00  0.00    -0.232 NA
BRANCH  18  21
ATOM     21  N   UNL A   1      27.913  31.009  21.934  1.00  0.00     0.064 N 
ATOM     22  O   UNL A   1      27.549  31.786  22.830  1.00  0.00    -0.258 OA
ATOM     23  O   UNL A   1      27.646  31.168  20.738  1.00  0.00    -0.258 OA
ENDBRANCH  18  21
ENDBRANCH  10  14
ENDBRANCH   8   9
ENDBRANCH   6   8
ENDBRANCH   5   6
ENDBRANCH   4   5
ENDBRANCH   3   4
ENDBRANCH   2   3
ENDBRANCH   1   2
BRANCH   1  24
ATOM     24  C   UNL A   1      36.075  22.159  24.409  1.00  0.00     0.188 C 
BRANCH  24  25
ATOM     25  O   UNL A   1      37.359  21.611  24.157  1.00  0.00    -0.376 OA
BRANCH  25  26
ATOM     26  C   UNL A   1      37.828  20.606  25.060  1.00  0.00     0.202 C 
BRANCH  26  27
ATOM     27  C   UNL A   1      39.244  20.768  25.660  1.00  0.00     0.261 C 
BRANCH  27  28
ATOM     28  O   UNL A   1      39.924  19.552  26.051  1.00  0.00    -0.460 OA
BRANCH  28  29
ATOM     29  C   UNL A   1      41.276  19.560  26.054  1.00  0.00     0.338 C 
ATOM     30  O   UNL A   1      42.002  18.731  25.531  1.00  0.00    -0.246 OA
BRANCH  29  31
ATOM     31  C   UNL A   1      41.754  20.882  26.553  1.00  0.00     0.060 A 
ATOM     32  C   UNL A   1      41.652  21.134  27.930  1.00  0.00     0.016 A 
ATOM     33  C   UNL A   1      42.353  21.837  25.724  1.00  0.00     0.016 A 
ATOM     34  C   UNL A   1      42.096  22.345  28.468  1.00  0.00     0.010 A 
ATOM     35  C   UNL A   1      42.785  23.060  26.264  1.00  0.00     0.010 A 
ATOM     36  C   UNL A   1      42.626  23.337  27.633  1.00  0.00    -0.014 A 
BRANCH  36  37
ATOM     37  C   UNL A   1      42.819  24.713  28.171  1.00  0.00     0.031 A 
ATOM     38  C   UNL A   1      44.215  25.154  28.534  1.00  0.00     0.074 A 
ATOM     39  C   UNL A   1      41.803  25.591  28.275  1.00  0.00     0.049 A 
ATOM     40  N   UNL A   1      44.634  26.308  28.990  1.00  0.00    -0.248 NA
ATOM     41  C   UNL A   1      45.281  24.157  28.352  1.00  0.00     0.031 C 
ATOM     42  C   UNL A   1      40.410  25.324  27.924  1.00  0.00     0.029 A 
ATOM     43  N   UNL A   1      41.795  26.897  28.707  1.00  0.00    -0.354 N 
ATOM     44  C   UNL A   1      46.009  26.176  29.146  1.00  0.00     0.074 A 
ATOM     45  C   UNL A   1      46.347  24.820  28.775  1.00  0.00     0.031 C 
ATOM     46  C   UNL A   1      39.682  26.430  28.157  1.00  0.00     0.029 A 
ATOM     47  C   UNL A   1      40.549  27.477  28.698  1.00  0.00     0.049 A 
ATOM     48  H   UNL A   1      42.607  27.372  28.996  1.00  0.00     0.167 HD
ATOM     49  C   UNL A   1      46.913  27.099  29.550  1.00  0.00     0.037 A 
ATOM     50  C   UNL A   1      40.150  28.704  29.095  1.00  0.00     0.037 A 
ATOM     51  C   UNL A   1      46.589  28.450  29.928  1.00  0.00     0.049 A 
ATOM     52  C   UNL A   1      41.166  29.688  29.622  1.00  0.00     0.074 A 
ATOM     53  C   UNL A   1      47.445  29.459  30.339  1.00  0.00     0.029 A 
ATOM     54  N   UNL A   1      45.308  28.980  29.953  1.00  0.00    -0.354 N 
ATOM     55  N   UNL A   1      42.466  29.561  29.735  1.00  0.00    -0.248 NA
ATOM     56  C   UNL A   1      40.655  30.993  30.070  1.00  0.00     0.031 C 
ATOM     57  C   UNL A   1      46.677  30.580  30.667  1.00  0.00     0.029 A 
ATOM     58  C   UNL A   1      45.348  30.292  30.400  1.00  0.00     0.049 A 
ATOM     59  H   UNL A   1      44.492  28.497  29.692  1.00  0.00     0.167 HD
ATOM     60  C   UNL A   1      42.928  30.774  30.234  1.00  0.00     0.074 A 
ATOM     61  C   UNL A   1      41.773  31.632  30.383  1.00  0.00     0.031 C 
ATOM     62  C   UNL A   1      44.196  31.144  30.543  1.00  0.00     0.037 A 
BRANCH  49  63
ATOM     63  C   UNL A   1      48.351  26.671  29.628  1.00  0.00     0.057 A 
ATOM     64  C   UNL A   1      49.252  26.904  28.580  1.00  0.00     0.134 A 
ATOM     65  C   UNL A   1      48.849  26.052  30.782  1.00  0.00     0.134 A 
ATOM     66  F   UNL A   1      48.837  27.477  27.441  1.00  0.00    -0.206 F 
ATOM     67  C   UNL A   1      50.591  26.517  28.670  1.00  0.00     0.040 A 
ATOM     68  C   UNL A   1      50.191  25.687  30.895  1.00  0.00     0.040 A 
ATOM     69  F   UNL A   1      48.040  25.804  31.824  1.00  0.00    -0.206 F 
ATOM     70  C   UNL A   1      51.064  25.915  29.834  1.00  0.00     0.006 A 
ENDBRANCH  49  63
BRANCH  50  71
ATOM     71  C   UNL A   1      38.712  29.084  29.035  1.00  0.00     0.057 A 
ATOM     72  C   UNL A   1      38.141  29.599  27.865  1.00  0.00     0.134 A 
ATOM     73  C   UNL A   1      37.891  28.997  30.166  1.00  0.00     0.134 A 
ATOM     74  F   UNL A   1      38.883  29.738  26.756  1.00  0.00    -0.206 F 
ATOM     75  C   UNL A   1      36.816  30.036  27.827  1.00  0.00     0.040 A 
ATOM     76  C   UNL A   1      36.555  29.402  30.134  1.00  0.00     0.040 A 
ATOM     77  F   UNL A   1      38.377  28.521  31.321  1.00  0.00    -0.206 F 
ATOM     78  C   UNL A   1      36.017  29.933  28.964  1.00  0.00     0.006 A 
ENDBRANCH  50  71
BRANCH  62  79
ATOM     79  C   UNL A   1      44.410  32.551  31.032  1.00  0.00     0.057 A 
ATOM     80  C   UNL A   1      44.642  33.618  30.154  1.00  0.00     0.134 A 
ATOM     81  C   UNL A   1      44.362  32.846  32.401  1.00  0.00     0.134 A 
ATOM     82  F   UNL A   1      44.709  33.408  28.830  1.00  0.00    -0.206 F 
ATOM     83  C   UNL A   1      44.853  34.918  30.621  1.00  0.00     0.040 A 
ATOM     84  C   UNL A   1      44.540  34.146  32.877  1.00  0.00     0.040 A 
ATOM     85  F   UNL A   1      44.131  31.876  33.299  1.00  0.00    -0.206 F 
ATOM     86  C   UNL A   1      44.797  35.185  31.987  1.00  0.00     0.006 A 
ENDBRANCH  62  79
ENDBRANCH  36  37
ENDBRANCH  29  31
ENDBRANCH  28  29
ENDBRANCH  27  28
ENDBRANCH  26  27
ENDBRANCH  25  26
ENDBRANCH  24  25
ENDBRANCH   1  24
TORSDOF 20
ENDMDL
MODEL 2
REMARK VINA RESULT:     -10.3      3.638      5.104
REMARK SMILES Cc1cc(N2CC[C@H](CC(=O)OCCOCCOCCOC(=O)c3ccc(-c4c5nc(c(-c6c(F)cccc6F)c6ccc([nH]6)c(-c6c(F)cccc6F)c6nc(c(-c7c(F)cccc7F)c7ccc4[nH]7)C=C6)C=C5)cc3)C2)ncc1[N+](=O)[O-]
REMARK SMILES IDX 16 1 15 2 14 3 13 4 12 5 10 6 11 7 9 8 8 9 5 10 6 11 78 12
REMARK SMILES IDX 7 13 4 14 1 15 2 16 3 17 81 18 80 19 79 20 82 21 83 22 84 23
REMARK SMILES IDX 17 24 18 25 19 26 20 27 21 28 22 29 23 30 24 31 25 32 77 33
REMARK SMILES IDX 26 34 76 35 27 36 28 37 29 38 70 39 30 40 75 41 69 42 71 43
REMARK SMILES IDX 31 44 74 45 68 46 67 47 32 49 58 50 41 51 57 52 42 53 45 54
REMARK SMILES IDX 56 55 72 56 43 57 44 58 55 60 73 61 46 62 33 63 34 64 39 65
REMARK SMILES IDX 35 66 36 67 38 68 40 69 37 70 59 71 60 72 65 73 61 74 62 75
REMARK SMILES IDX 64 76 66 77 63 78 47 79 48 80 53 81 49 82 50 83 52 84 54 85
REMARK SMILES IDX 51 86
REMARK H PARENT 71 48 45 59
REMARK Flexibility Score: inf
ROOT
ATOM      1  C   UNL A   1      39.324  20.433  25.787  1.00  0.00     0.188 C 
ENDROOT
BRANCH   1   2
ATOM      2  O   UNL A   1      38.802  21.738  26.016  1.00  0.00    -0.376 OA
BRANCH   2   3
ATOM      3  C   UNL A   1      37.736  22.159  25.165  1.00  0.00     0.202 C 
BRANCH   3   4
ATOM      4  C   UNL A   1      36.772  23.210  25.743  1.00  0.00     0.261 C 
BRANCH   4   5
ATOM      5  O   UNL A   1      35.413  23.103  25.263  1.00  0.00    -0.463 OA
BRANCH   5   6
ATOM      6  C   UNL A   1      34.699  22.048  25.735  1.00  0.00     0.306 C 
ATOM      7  O   UNL A   1      34.941  21.457  26.783  1.00  0.00    -0.252 OA
BRANCH   6   8
ATOM      8  C   UNL A   1      33.473  21.692  24.915  1.00  0.00     0.128 C 
BRANCH   8   9
ATOM      9  C   UNL A   1      32.090  22.207  25.316  1.00  0.00     0.021 C 
ATOM     10  N   UNL A   1      30.661  24.096  25.020  1.00  0.00    -0.356 N 
ATOM     11  C   UNL A   1      30.785  23.853  26.456  1.00  0.00     0.118 C 
ATOM     12  C   UNL A   1      31.549  23.209  24.267  1.00  0.00     0.122 C 
ATOM     13  C   UNL A   1      32.061  23.030  26.599  1.00  0.00     0.027 C 
BRANCH  10  14
ATOM     14  C   UNL A   1      30.602  25.415  24.596  1.00  0.00     0.129 A 
ATOM     15  C   UNL A   1      33.015  28.321  24.417  1.00  0.00     0.052 C 
ATOM     16  C   UNL A   1      31.723  27.569  24.265  1.00  0.00     0.032 A 
ATOM     17  C   UNL A   1      31.712  26.244  24.760  1.00  0.00     0.057 A 
ATOM     18  C   UNL A   1      30.543  28.033  23.669  1.00  0.00     0.290 A 
ATOM     19  C   UNL A   1      29.467  27.156  23.568  1.00  0.00     0.199 A 
ATOM     20  N   UNL A   1      29.481  25.871  24.005  1.00  0.00    -0.232 NA
BRANCH  18  21
ATOM     21  N   UNL A   1      30.344  29.383  23.138  1.00  0.00     0.064 N 
ATOM     22  O   UNL A   1      30.648  29.581  21.951  1.00  0.00    -0.258 OA
ATOM     23  O   UNL A   1      29.860  30.249  23.875  1.00  0.00    -0.258 OA
ENDBRANCH  18  21
ENDBRANCH  10  14
ENDBRANCH   8   9
ENDBRANCH   6   8
ENDBRANCH   5   6
ENDBRANCH   4   5
ENDBRANCH   3   4
ENDBRANCH   2   3
ENDBRANCH   1   2
BRANCH   1  24
ATOM     24  C   UNL A   1      40.760  20.197  26.254  1.00  0.00     0.188 C 
BRANCH  24  25
ATOM     25  O   UNL A   1      41.651  21.288  26.082  1.00  0.00    -0.376 OA
BRANCH  25  26
ATOM     26  C   UNL A   1      43.036  20.978  25.909  1.00  0.00     0.202 C 
BRANCH  26  27
ATOM     27  C   UNL A   1      43.866  21.860  24.946  1.00  0.00     0.261 C 
BRANCH  27  28
ATOM     28  O   UNL A   1      43.365  23.194  24.698  1.00  0.00    -0.460 OA
BRANCH  28  29
ATOM     29  C   UNL A   1      44.145  24.237  25.062  1.00  0.00     0.338 C 
ATOM     30  O   UNL A   1      45.192  24.573  24.535  1.00  0.00    -0.246 OA
BRANCH  29  31
ATOM     31  C   UNL A   1      43.395  25.088  26.032  1.00  0.00     0.060 A 
ATOM     32  C   UNL A   1      43.871  26.387  26.262  1.00  0.00     0.016 A 
ATOM     33  C   UNL A   1      42.215  24.669  26.657  1.00  0.00     0.016 A 
ATOM     34  C   UNL A   1      43.207  27.244  27.144  1.00  0.00     0.010 A 
ATOM     35  C   UNL A   1      41.557  25.525  27.556  1.00  0.00     0.010 A 
ATOM     36  C   UNL A   1      42.069  26.805  27.834  1.00  0.00    -0.014 A 
BRANCH  36  37
ATOM     37  C   UNL A   1      41.553  27.614  28.974  1.00  0.00     0.031 A 
ATOM     38  C   UNL A   1      42.262  27.520  30.302  1.00  0.00     0.074 A 
ATOM     39  C   UNL A   1      40.524  28.472  28.836  1.00  0.00     0.049 A 
ATOM     40  N   UNL A   1      42.018  28.147  31.425  1.00  0.00    -0.248 NA
ATOM     41  C   UNL A   1      43.405  26.596  30.366  1.00  0.00     0.031 C 
ATOM     42  C   UNL A   1      39.769  28.702  27.607  1.00  0.00     0.029 A 
ATOM     43  N   UNL A   1      39.941  29.317  29.750  1.00  0.00    -0.354 N 
ATOM     44  C   UNL A   1      42.976  27.696  32.326  1.00  0.00     0.074 A 
ATOM     45  C   UNL A   1      43.780  26.715  31.631  1.00  0.00     0.031 C 
ATOM     46  C   UNL A   1      38.820  29.624  27.844  1.00  0.00     0.029 A 
ATOM     47  C   UNL A   1      38.881  30.033  29.248  1.00  0.00     0.049 A 
ATOM     48  H   UNL A   1      40.253  29.401  30.681  1.00  0.00     0.167 HD
ATOM     49  C   UNL A   1      43.180  28.071  33.611  1.00  0.00     0.037 A 
ATOM     50  C   UNL A   1      38.047  30.906  29.851  1.00  0.00     0.037 A 
ATOM     51  C   UNL A   1      42.383  29.041  34.316  1.00  0.00     0.049 A 
ATOM     52  C   UNL A   1      38.243  31.243  31.309  1.00  0.00     0.074 A 
ATOM     53  C   UNL A   1      42.527  29.491  35.618  1.00  0.00     0.029 A 
ATOM     54  N   UNL A   1      41.289  29.705  33.784  1.00  0.00    -0.354 N 
ATOM     55  N   UNL A   1      39.171  30.833  32.140  1.00  0.00    -0.248 NA
ATOM     56  C   UNL A   1      37.275  32.174  31.911  1.00  0.00     0.031 C 
ATOM     57  C   UNL A   1      41.486  30.383  35.892  1.00  0.00     0.029 A 
ATOM     58  C   UNL A   1      40.731  30.538  34.741  1.00  0.00     0.049 A 
ATOM     59  H   UNL A   1      40.958  29.600  32.863  1.00  0.00     0.167 HD
ATOM     60  C   UNL A   1      38.917  31.479  33.346  1.00  0.00     0.074 A 
ATOM     61  C   UNL A   1      37.762  32.322  33.134  1.00  0.00     0.031 C 
ATOM     62  C   UNL A   1      39.582  31.380  34.525  1.00  0.00     0.037 A 
BRANCH  49  63
ATOM     63  C   UNL A   1      44.303  27.406  34.355  1.00  0.00     0.057 A 
ATOM     64  C   UNL A   1      45.588  27.963  34.409  1.00  0.00     0.134 A 
ATOM     65  C   UNL A   1      44.086  26.213  35.057  1.00  0.00     0.134 A 
ATOM     66  F   UNL A   1      45.868  29.094  33.745  1.00  0.00    -0.206 F 
ATOM     67  C   UNL A   1      46.621  27.345  35.118  1.00  0.00     0.040 A 
ATOM     68  C   UNL A   1      45.102  25.603  35.792  1.00  0.00     0.040 A 
ATOM     69  F   UNL A   1      42.878  25.630  35.050  1.00  0.00    -0.206 F 
ATOM     70  C   UNL A   1      46.376  26.167  35.819  1.00  0.00     0.006 A 
ENDBRANCH  49  63
BRANCH  50  71
ATOM     71  C   UNL A   1      36.923  31.521  29.093  1.00  0.00     0.057 A 
ATOM     72  C   UNL A   1      36.987  32.844  28.639  1.00  0.00     0.134 A 
ATOM     73  C   UNL A   1      35.736  30.818  28.859  1.00  0.00     0.134 A 
ATOM     74  F   UNL A   1      38.085  33.582  28.861  1.00  0.00    -0.206 F 
ATOM     75  C   UNL A   1      35.904  33.453  28.001  1.00  0.00     0.040 A 
ATOM     76  C   UNL A   1      34.656  31.405  28.195  1.00  0.00     0.040 A 
ATOM     77  F   UNL A   1      35.605  29.550  29.274  1.00  0.00    -0.206 F 
ATOM     78  C   UNL A   1      34.735  32.730  27.774  1.00  0.00     0.006 A 
ENDBRANCH  50  71
BRANCH  62  79
ATOM     79  C   UNL A   1      39.104  32.236  35.666  1.00  0.00     0.057 A 
ATOM     80  C   UNL A   1      39.503  33.571  35.814  1.00  0.00     0.134 A 
ATOM     81  C   UNL A   1      38.214  31.723  36.620  1.00  0.00     0.134 A 
ATOM     82  F   UNL A   1      40.360  34.126  34.942  1.00  0.00    -0.206 F 
ATOM     83  C   UNL A   1      39.064  34.352  36.886  1.00  0.00     0.040 A 
ATOM     84  C   UNL A   1      37.744  32.503  37.677  1.00  0.00     0.040 A 
ATOM     85  F   UNL A   1      37.780  30.457  36.534  1.00  0.00    -0.206 F 
ATOM     86  C   UNL A   1      38.177  33.819  37.819  1.00  0.00     0.006 A 
ENDBRANCH  62  79
ENDBRANCH  36  37
ENDBRANCH  29  31
ENDBRANCH  28  29
ENDBRANCH  27  28
ENDBRANCH  26  27
ENDBRANCH  25  26
ENDBRANCH  24  25
ENDBRANCH   1  24
TORSDOF 20
ENDMDL
MODEL 3
REMARK VINA RESULT:     -10.2      3.832      5.919
REMARK SMILES Cc1cc(N2CC[C@H](CC(=O)OCCOCCOCCOC(=O)c3ccc(-c4c5nc(c(-c6c(F)cccc6F)c6ccc([nH]6)c(-c6c(F)cccc6F)c6nc(c(-c7c(F)cccc7F)c7ccc4[nH]7)C=C6)C=C5)cc3)C2)ncc1[N+](=O)[O-]
REMARK SMILES IDX 16 1 15 2 14 3 13 4 12 5 10 6 11 7 9 8 8 9 5 10 6 11 78 12
REMARK SMILES IDX 7 13 4 14 1 15 2 16 3 17 81 18 80 19 79 20 82 21 83 22 84 23
REMARK SMILES IDX 17 24 18 25 19 26 20 27 21 28 22 29 23 30 24 31 25 32 77 33
REMARK SMILES IDX 26 34 76 35 27 36 28 37 29 38 70 39 30 40 75 41 69 42 71 43
REMARK SMILES IDX 31 44 74 45 68 46 67 47 32 49 58 50 41 51 57 52 42 53 45 54
REMARK SMILES IDX 56 55 72 56 43 57 44 58 55 60 73 61 46 62 33 63 34 64 39 65
REMARK SMILES IDX 35 66 36 67 38 68 40 69 37 70 59 71 60 72 65 73 61 74 62 75
REMARK SMILES IDX 64 76 66 77 63 78 47 79 48 80 53 81 49 82 50 83 52 84 54 85
REMARK SMILES IDX 51 86
REMARK H PARENT 71 48 45 59
REMARK Flexibility Score: inf
ROOT
ATOM      1  C   UNL A   1      42.906  19.365  26.190  1.00  0.00     0.188 C 
ENDROOT
BRANCH   1   2
ATOM      2  O   UNL A   1      42.200  20.596  26.083  1.00  0.00    -0.376 OA
BRANCH   2   3
ATOM      3  C   UNL A   1      41.397  20.972  27.203  1.00  0.00     0.202 C 
BRANCH   3   4
ATOM      4  C   UNL A   1      39.948  21.386  26.899  1.00  0.00     0.261 C 
BRANCH   4   5
ATOM      5  O   UNL A   1      39.823  22.497  25.982  1.00  0.00    -0.463 OA
BRANCH   5   6
ATOM      6  C   UNL A   1      38.840  23.390  26.265  1.00  0.00     0.306 C 
ATOM      7  O   UNL A   1      39.007  24.602  26.363  1.00  0.00    -0.252 OA
BRANCH   6   8
ATOM      8  C   UNL A   1      37.446  22.796  26.353  1.00  0.00     0.128 C 
BRANCH   8   9
ATOM      9  C   UNL A   1      36.682  22.407  25.087  1.00  0.00     0.021 C 
ATOM     10  N   UNL A   1      34.930  23.190  23.668  1.00  0.00    -0.356 N 
ATOM     11  C   UNL A   1      34.601  21.823  24.067  1.00  0.00     0.118 C 
ATOM     12  C   UNL A   1      36.124  23.661  24.371  1.00  0.00     0.122 C 
ATOM     13  C   UNL A   1      35.423  21.581  25.328  1.00  0.00     0.027 C 
BRANCH  10  14
ATOM     14  C   UNL A   1      33.884  24.094  23.554  1.00  0.00     0.129 A 
ATOM     15  C   UNL A   1      33.491  27.843  23.863  1.00  0.00     0.052 C 
ATOM     16  C   UNL A   1      33.092  26.412  23.636  1.00  0.00     0.032 A 
ATOM     17  C   UNL A   1      34.108  25.445  23.823  1.00  0.00     0.057 A 
ATOM     18  C   UNL A   1      31.833  25.941  23.240  1.00  0.00     0.290 A 
ATOM     19  C   UNL A   1      31.680  24.575  23.020  1.00  0.00     0.199 A 
ATOM     20  N   UNL A   1      32.673  23.660  23.158  1.00  0.00    -0.232 NA
BRANCH  18  21
ATOM     21  N   UNL A   1      30.648  26.777  23.039  1.00  0.00     0.064 N 
ATOM     22  O   UNL A   1      29.765  26.737  23.909  1.00  0.00    -0.258 OA
ATOM     23  O   UNL A   1      30.593  27.501  22.038  1.00  0.00    -0.258 OA
ENDBRANCH  18  21
ENDBRANCH  10  14
ENDBRANCH   8   9
ENDBRANCH   6   8
ENDBRANCH   5   6
ENDBRANCH   4   5
ENDBRANCH   3   4
ENDBRANCH   2   3
ENDBRANCH   1   2
BRANCH   1  24
ATOM     24  C   UNL A   1      43.773  18.986  24.989  1.00  0.00     0.188 C 
BRANCH  24  25
ATOM     25  O   UNL A   1      45.099  19.491  25.004  1.00  0.00    -0.376 OA
BRANCH  25  26
ATOM     26  C   UNL A   1      45.296  20.822  24.518  1.00  0.00     0.202 C 
BRANCH  26  27
ATOM     27  C   UNL A   1      45.774  21.900  25.518  1.00  0.00     0.261 C 
BRANCH  27  28
ATOM     28  O   UNL A   1      44.757  22.768  26.069  1.00  0.00    -0.460 OA
BRANCH  28  29
ATOM     29  C   UNL A   1      44.657  24.019  25.565  1.00  0.00     0.338 C 
ATOM     30  O   UNL A   1      44.960  24.368  24.436  1.00  0.00    -0.246 OA
BRANCH  29  31
ATOM     31  C   UNL A   1      43.860  24.860  26.506  1.00  0.00     0.060 A 
ATOM     32  C   UNL A   1      44.172  26.225  26.583  1.00  0.00     0.016 A 
ATOM     33  C   UNL A   1      42.786  24.358  27.249  1.00  0.00     0.016 A 
ATOM     34  C   UNL A   1      43.454  27.073  27.430  1.00  0.00     0.010 A 
ATOM     35  C   UNL A   1      42.075  25.208  28.113  1.00  0.00     0.010 A 
ATOM     36  C   UNL A   1      42.428  26.564  28.237  1.00  0.00    -0.014 A 
BRANCH  36  37
ATOM     37  C   UNL A   1      41.877  27.409  29.334  1.00  0.00     0.031 A 
ATOM     38  C   UNL A   1      42.564  27.381  30.677  1.00  0.00     0.074 A 
ATOM     39  C   UNL A   1      40.838  28.243  29.143  1.00  0.00     0.049 A 
ATOM     40  N   UNL A   1      42.289  28.049  31.769  1.00  0.00    -0.248 NA
ATOM     41  C   UNL A   1      43.721  26.481  30.799  1.00  0.00     0.031 C 
ATOM     42  C   UNL A   1      40.101  28.409  27.893  1.00  0.00     0.029 A 
ATOM     43  N   UNL A   1      40.223  29.114  30.012  1.00  0.00    -0.354 N 
ATOM     44  C   UNL A   1      43.238  27.651  32.704  1.00  0.00     0.074 A 
ATOM     45  C   UNL A   1      44.071  26.657  32.064  1.00  0.00     0.031 C 
ATOM     46  C   UNL A   1      39.132  29.324  28.076  1.00  0.00     0.029 A 
ATOM     47  C   UNL A   1      39.161  29.791  29.463  1.00  0.00     0.049 A 
ATOM     48  H   UNL A   1      40.518  29.241  30.944  1.00  0.00     0.167 HD
ATOM     49  C   UNL A   1      43.413  28.081  33.976  1.00  0.00     0.037 A 
ATOM     50  C   UNL A   1      38.302  30.672  30.016  1.00  0.00     0.037 A 
ATOM     51  C   UNL A   1      42.587  29.065  34.627  1.00  0.00     0.049 A 
ATOM     52  C   UNL A   1      38.466  31.072  31.462  1.00  0.00     0.074 A 
ATOM     53  C   UNL A   1      42.700  29.570  35.912  1.00  0.00     0.029 A 
ATOM     54  N   UNL A   1      41.492  29.688  34.049  1.00  0.00    -0.354 N 
ATOM     55  N   UNL A   1      39.385  30.712  32.325  1.00  0.00    -0.248 NA
ATOM     56  C   UNL A   1      37.472  32.009  32.009  1.00  0.00     0.031 C 
ATOM     57  C   UNL A   1      41.639  30.454  36.131  1.00  0.00     0.029 A 
ATOM     58  C   UNL A   1      40.903  30.549  34.962  1.00  0.00     0.049 A 
ATOM     59  H   UNL A   1      41.179  29.540  33.128  1.00  0.00     0.167 HD
ATOM     60  C   UNL A   1      39.099  31.401  33.499  1.00  0.00     0.074 A 
ATOM     61  C   UNL A   1      37.934  32.215  33.233  1.00  0.00     0.031 C 
ATOM     62  C   UNL A   1      39.744  31.362  34.692  1.00  0.00     0.037 A 
BRANCH  49  63
ATOM     63  C   UNL A   1      44.533  27.467  34.766  1.00  0.00     0.057 A 
ATOM     64  C   UNL A   1      44.358  26.295  35.514  1.00  0.00     0.134 A 
ATOM     65  C   UNL A   1      45.814  28.035  34.745  1.00  0.00     0.134 A 
ATOM     66  F   UNL A   1      43.154  25.710  35.590  1.00  0.00    -0.206 F 
ATOM     67  C   UNL A   1      45.412  25.723  36.231  1.00  0.00     0.040 A 
ATOM     68  C   UNL A   1      46.881  27.456  35.433  1.00  0.00     0.040 A 
ATOM     69  F   UNL A   1      46.051  29.155  34.045  1.00  0.00    -0.206 F 
ATOM     70  C   UNL A   1      46.680  26.299  36.183  1.00  0.00     0.006 A 
ENDBRANCH  49  63
BRANCH  50  71
ATOM     71  C   UNL A   1      37.182  31.237  29.214  1.00  0.00     0.057 A 
ATOM     72  C   UNL A   1      37.215  32.554  28.739  1.00  0.00     0.134 A 
ATOM     73  C   UNL A   1      36.026  30.490  28.955  1.00  0.00     0.134 A 
ATOM     74  F   UNL A   1      38.281  33.332  28.981  1.00  0.00    -0.206 F 
ATOM     75  C   UNL A   1      36.133  33.115  28.059  1.00  0.00     0.040 A 
ATOM     76  C   UNL A   1      34.949  31.029  28.250  1.00  0.00     0.040 A 
ATOM     77  F   UNL A   1      35.925  29.225  29.389  1.00  0.00    -0.206 F 
ATOM     78  C   UNL A   1      34.996  32.350  27.809  1.00  0.00     0.006 A 
ENDBRANCH  50  71
BRANCH  62  79
ATOM     79  C   UNL A   1      39.232  32.255  35.789  1.00  0.00     0.057 A 
ATOM     80  C   UNL A   1      38.291  31.816  36.729  1.00  0.00     0.134 A 
ATOM     81  C   UNL A   1      39.703  33.569  35.918  1.00  0.00     0.134 A 
ATOM     82  F   UNL A   1      37.789  30.573  36.660  1.00  0.00    -0.206 F 
ATOM     83  C   UNL A   1      37.812  32.659  37.734  1.00  0.00     0.040 A 
ATOM     84  C   UNL A   1      39.256  34.410  36.938  1.00  0.00     0.040 A 
ATOM     85  F   UNL A   1      40.615  34.053  35.062  1.00  0.00    -0.206 F 
ATOM     86  C   UNL A   1      38.298  33.960  37.843  1.00  0.00     0.006 A 
ENDBRANCH  62  79
ENDBRANCH  36  37
ENDBRANCH  29  31
ENDBRANCH  28  29
ENDBRANCH  27  28
ENDBRANCH  26  27
ENDBRANCH  25  26
ENDBRANCH  24  25
ENDBRANCH   1  24
TORSDOF 20
ENDMDL
