MODEL 1
REMARK VINA RESULT:     -11.3      0.000      0.000
REMARK SMILES Cc1nn(C)c(=O)c(C(=O)N2CC[C@@H](C(=O)OCCOCCOCCOC(=O)c3ccc(-c4c5nc(c(-c6c(F)cccc6F)c6ccc([nH]6)c(-c6c(F)cccc6F)c6nc(c(-c7c(F)cccc7F)c7ccc4[nH]7)C=C6)C=C5)cc3)[C@@H]2C)c1C
REMARK SMILES IDX 21 1 20 2 19 3 18 4 17 5 15 6 16 7 14 8 11 9 12 10 83 11
REMARK SMILES IDX 13 12 84 13 9 14 10 15 8 16 1 17 2 18 3 19 85 20 4 21 86 22
REMARK SMILES IDX 5 23 6 24 7 25 22 26 23 27 24 28 25 29 26 30 27 31 28 32
REMARK SMILES IDX 29 33 30 34 82 35 31 36 81 37 32 38 33 39 34 40 75 41 35 42
REMARK SMILES IDX 80 43 74 44 76 45 36 46 79 47 73 48 72 49 37 51 63 52 46 53
REMARK SMILES IDX 62 54 47 55 50 56 61 57 77 58 48 59 49 60 60 62 78 63 51 64
REMARK SMILES IDX 38 65 39 66 44 67 40 68 41 69 43 70 45 71 42 72 64 73 65 74
REMARK SMILES IDX 70 75 66 76 67 77 69 78 71 79 68 80 52 81 53 82 58 83 54 84
REMARK SMILES IDX 55 85 57 86 59 87 56 88
REMARK H PARENT 76 50 50 61
REMARK Flexibility Score: inf
ROOT
ATOM      1  C   UNL A   1      40.291  21.182  26.604  1.00  0.00     0.188 C 
ENDROOT
BRANCH   1   2
ATOM      2  O   UNL A   1      39.200  21.468  25.741  1.00  0.00    -0.376 OA
BRANCH   2   3
ATOM      3  C   UNL A   1      38.429  22.642  25.965  1.00  0.00     0.202 C 
BRANCH   3   4
ATOM      4  C   UNL A   1      36.898  22.568  25.818  1.00  0.00     0.261 C 
BRANCH   4   5
ATOM      5  O   UNL A   1      36.401  21.966  24.595  1.00  0.00    -0.463 OA
BRANCH   5   6
ATOM      6  C   UNL A   1      35.970  22.822  23.639  1.00  0.00     0.311 C 
ATOM      7  O   UNL A   1      36.616  23.097  22.631  1.00  0.00    -0.252 OA
BRANCH   6   8
ATOM      8  C   UNL A   1      34.595  23.445  23.864  1.00  0.00     0.123 C 
ATOM      9  N   UNL A   1      33.673  25.511  23.087  1.00  0.00    -0.335 N 
ATOM     10  C   UNL A   1      32.912  24.464  22.440  1.00  0.00     0.121 C 
ATOM     11  C   UNL A   1      34.402  24.944  24.225  1.00  0.00     0.096 C 
ATOM     12  C   UNL A   1      33.801  23.248  22.561  1.00  0.00     0.039 C 
ATOM     13  C   UNL A   1      33.520  25.064  25.487  1.00  0.00     0.032 C 
BRANCH   9  14
ATOM     14  C   UNL A   1      33.412  26.819  22.724  1.00  0.00     0.260 C 
ATOM     15  O   UNL A   1      34.113  27.328  21.843  1.00  0.00    -0.269 OA
BRANCH  14  16
ATOM     16  C   UNL A   1      32.418  27.695  23.451  1.00  0.00     0.111 A 
ATOM     17  C   UNL A   1      31.779  30.091  26.328  1.00  0.00     0.069 C 
ATOM     18  C   UNL A   1      31.653  29.423  24.974  1.00  0.00     0.062 A 
ATOM     19  N   UNL A   1      30.635  29.777  24.265  1.00  0.00    -0.175 NA
ATOM     20  C   UNL A   1      32.709  28.459  24.527  1.00  0.00    -0.010 A 
ATOM     21  N   UNL A   1      30.433  29.123  23.088  1.00  0.00    -0.232 N 
ATOM     22  C   UNL A   1      34.005  28.583  25.264  1.00  0.00     0.047 C 
ATOM     23  C   UNL A   1      29.330  29.629  22.286  1.00  0.00     0.178 C 
ATOM     24  C   UNL A   1      31.113  27.964  22.728  1.00  0.00     0.279 A 
ATOM     25  O   UNL A   1      30.699  27.214  21.846  1.00  0.00    -0.267 OA
ENDBRANCH  14  16
ENDBRANCH   9  14
ENDBRANCH   6   8
ENDBRANCH   5   6
ENDBRANCH   4   5
ENDBRANCH   3   4
ENDBRANCH   2   3
ENDBRANCH   1   2
BRANCH   1  26
ATOM     26  C   UNL A   1      40.964  19.805  26.519  1.00  0.00     0.188 C 
BRANCH  26  27
ATOM     27  O   UNL A   1      41.935  19.685  25.507  1.00  0.00    -0.376 OA
BRANCH  27  28
ATOM     28  C   UNL A   1      43.271  20.067  25.784  1.00  0.00     0.202 C 
BRANCH  28  29
ATOM     29  C   UNL A   1      43.793  21.423  25.274  1.00  0.00     0.261 C 
BRANCH  29  30
ATOM     30  O   UNL A   1      43.710  22.538  26.177  1.00  0.00    -0.460 OA
BRANCH  30  31
ATOM     31  C   UNL A   1      43.912  23.775  25.667  1.00  0.00     0.338 C 
ATOM     32  O   UNL A   1      44.294  24.050  24.539  1.00  0.00    -0.246 OA
BRANCH  31  33
ATOM     33  C   UNL A   1      43.295  24.736  26.613  1.00  0.00     0.060 A 
ATOM     34  C   UNL A   1      43.762  26.060  26.634  1.00  0.00     0.016 A 
ATOM     35  C   UNL A   1      42.214  24.360  27.411  1.00  0.00     0.016 A 
ATOM     36  C   UNL A   1      43.144  27.011  27.448  1.00  0.00     0.010 A 
ATOM     37  C   UNL A   1      41.619  25.305  28.253  1.00  0.00     0.010 A 
ATOM     38  C   UNL A   1      42.091  26.629  28.290  1.00  0.00    -0.014 A 
BRANCH  38  39
ATOM     39  C   UNL A   1      41.627  27.551  29.354  1.00  0.00     0.031 A 
ATOM     40  C   UNL A   1      42.372  27.552  30.660  1.00  0.00     0.074 A 
ATOM     41  C   UNL A   1      40.593  28.391  29.168  1.00  0.00     0.049 A 
ATOM     42  N   UNL A   1      42.128  28.219  31.757  1.00  0.00    -0.248 NA
ATOM     43  C   UNL A   1      43.557  26.680  30.735  1.00  0.00     0.031 C 
ATOM     44  C   UNL A   1      39.829  28.536  27.932  1.00  0.00     0.029 A 
ATOM     45  N   UNL A   1      40.007  29.285  30.033  1.00  0.00    -0.354 N 
ATOM     46  C   UNL A   1      43.126  27.850  32.650  1.00  0.00     0.074 A 
ATOM     47  C   UNL A   1      43.956  26.871  31.983  1.00  0.00     0.031 C 
ATOM     48  C   UNL A   1      38.874  29.466  28.117  1.00  0.00     0.029 A 
ATOM     49  C   UNL A   1      38.934  29.953  29.495  1.00  0.00     0.049 A 
ATOM     50  H   UNL A   1      40.328  29.433  30.952  1.00  0.00     0.167 HD
ATOM     51  C   UNL A   1      43.342  28.298  33.908  1.00  0.00     0.037 A 
ATOM     52  C   UNL A   1      38.088  30.841  30.058  1.00  0.00     0.037 A 
ATOM     53  C   UNL A   1      42.515  29.267  34.573  1.00  0.00     0.049 A 
ATOM     54  C   UNL A   1      38.281  31.240  31.499  1.00  0.00     0.074 A 
ATOM     55  C   UNL A   1      42.647  29.774  35.853  1.00  0.00     0.029 A 
ATOM     56  N   UNL A   1      41.400  29.872  34.014  1.00  0.00    -0.354 N 
ATOM     57  N   UNL A   1      39.224  30.885  32.337  1.00  0.00    -0.248 NA
ATOM     58  C   UNL A   1      37.288  32.160  32.077  1.00  0.00     0.031 C 
ATOM     59  C   UNL A   1      41.581  30.645  36.089  1.00  0.00     0.029 A 
ATOM     60  C   UNL A   1      40.820  30.729  34.934  1.00  0.00     0.049 A 
ATOM     61  H   UNL A   1      41.069  29.715  33.100  1.00  0.00     0.167 HD
ATOM     62  C   UNL A   1      38.960  31.561  33.523  1.00  0.00     0.074 A 
ATOM     63  C   UNL A   1      37.770  32.352  33.297  1.00  0.00     0.031 C 
ATOM     64  C   UNL A   1      39.646  31.529  34.692  1.00  0.00     0.037 A 
BRANCH  51  65
ATOM     65  C   UNL A   1      44.515  27.735  34.654  1.00  0.00     0.057 A 
ATOM     66  C   UNL A   1      44.396  26.599  35.465  1.00  0.00     0.134 A 
ATOM     67  C   UNL A   1      45.788  28.303  34.518  1.00  0.00     0.134 A 
ATOM     68  F   UNL A   1      43.201  26.019  35.651  1.00  0.00    -0.206 F 
ATOM     69  C   UNL A   1      45.499  26.056  36.125  1.00  0.00     0.040 A 
ATOM     70  C   UNL A   1      46.904  27.751  35.149  1.00  0.00     0.040 A 
ATOM     71  F   UNL A   1      45.971  29.391  33.755  1.00  0.00    -0.206 F 
ATOM     72  C   UNL A   1      46.760  26.627  35.958  1.00  0.00     0.006 A 
ENDBRANCH  51  65
BRANCH  52  73
ATOM     73  C   UNL A   1      36.981  31.424  29.255  1.00  0.00     0.057 A 
ATOM     74  C   UNL A   1      35.819  30.690  28.987  1.00  0.00     0.134 A 
ATOM     75  C   UNL A   1      37.054  32.723  28.736  1.00  0.00     0.134 A 
ATOM     76  F   UNL A   1      35.699  29.431  29.431  1.00  0.00    -0.206 F 
ATOM     77  C   UNL A   1      34.774  31.222  28.229  1.00  0.00     0.040 A 
ATOM     78  C   UNL A   1      36.006  33.277  27.999  1.00  0.00     0.040 A 
ATOM     79  F   UNL A   1      38.141  33.477  28.950  1.00  0.00    -0.206 F 
ATOM     80  C   UNL A   1      34.862  32.525  27.741  1.00  0.00     0.006 A 
ENDBRANCH  52  73
BRANCH  64  81
ATOM     81  C   UNL A   1      39.166  32.395  35.822  1.00  0.00     0.057 A 
ATOM     82  C   UNL A   1      38.339  31.897  36.836  1.00  0.00     0.134 A 
ATOM     83  C   UNL A   1      39.633  33.711  35.956  1.00  0.00     0.134 A 
ATOM     84  F   UNL A   1      37.853  30.649  36.766  1.00  0.00    -0.206 F 
ATOM     85  C   UNL A   1      37.992  32.677  37.941  1.00  0.00     0.040 A 
ATOM     86  C   UNL A   1      39.315  34.490  37.069  1.00  0.00     0.040 A 
ATOM     87  F   UNL A   1      40.440  34.244  35.026  1.00  0.00    -0.206 F 
ATOM     88  C   UNL A   1      38.492  33.973  38.066  1.00  0.00     0.006 A 
ENDBRANCH  64  81
ENDBRANCH  38  39
ENDBRANCH  31  33
ENDBRANCH  30  31
ENDBRANCH  29  30
ENDBRANCH  28  29
ENDBRANCH  27  28
ENDBRANCH  26  27
ENDBRANCH   1  26
TORSDOF 19
ENDMDL
MODEL 2
REMARK VINA RESULT:     -10.5      4.822     10.121
REMARK SMILES Cc1nn(C)c(=O)c(C(=O)N2CC[C@@H](C(=O)OCCOCCOCCOC(=O)c3ccc(-c4c5nc(c(-c6c(F)cccc6F)c6ccc([nH]6)c(-c6c(F)cccc6F)c6nc(c(-c7c(F)cccc7F)c7ccc4[nH]7)C=C6)C=C5)cc3)[C@@H]2C)c1C
REMARK SMILES IDX 21 1 20 2 19 3 18 4 17 5 15 6 16 7 14 8 11 9 12 10 83 11
REMARK SMILES IDX 13 12 84 13 9 14 10 15 8 16 1 17 2 18 3 19 85 20 4 21 86 22
REMARK SMILES IDX 5 23 6 24 7 25 22 26 23 27 24 28 25 29 26 30 27 31 28 32
REMARK SMILES IDX 29 33 30 34 82 35 31 36 81 37 32 38 33 39 34 40 75 41 35 42
REMARK SMILES IDX 80 43 74 44 76 45 36 46 79 47 73 48 72 49 37 51 63 52 46 53
REMARK SMILES IDX 62 54 47 55 50 56 61 57 77 58 48 59 49 60 60 62 78 63 51 64
REMARK SMILES IDX 38 65 39 66 44 67 40 68 41 69 43 70 45 71 42 72 64 73 65 74
REMARK SMILES IDX 70 75 66 76 67 77 69 78 71 79 68 80 52 81 53 82 58 83 54 84
REMARK SMILES IDX 55 85 57 86 59 87 56 88
REMARK H PARENT 76 50 50 61
REMARK Flexibility Score: inf
ROOT
ATOM      1  C   UNL A   1      35.225  34.217  28.629  1.00  0.00     0.188 C 
ENDROOT
BRANCH   1   2
ATOM      2  O   UNL A   1      35.001  33.263  27.599  1.00  0.00    -0.376 OA
BRANCH   2   3
ATOM      3  C   UNL A   1      34.991  31.879  27.929  1.00  0.00     0.202 C 
BRANCH   3   4
ATOM      4  C   UNL A   1      33.693  31.075  27.727  1.00  0.00     0.261 C 
BRANCH   4   5
ATOM      5  O   UNL A   1      33.584  30.337  26.482  1.00  0.00    -0.463 OA
BRANCH   5   6
ATOM      6  C   UNL A   1      34.025  29.057  26.504  1.00  0.00     0.311 C 
ATOM      7  O   UNL A   1      34.892  28.650  27.273  1.00  0.00    -0.252 OA
BRANCH   6   8
ATOM      8  C   UNL A   1      33.370  28.103  25.509  1.00  0.00     0.123 C 
ATOM      9  N   UNL A   1      32.264  26.009  25.852  1.00  0.00    -0.335 N 
ATOM     10  C   UNL A   1      31.248  26.930  25.390  1.00  0.00     0.121 C 
ATOM     11  C   UNL A   1      33.587  26.565  25.554  1.00  0.00     0.096 C 
ATOM     12  C   UNL A   1      31.850  28.290  25.650  1.00  0.00     0.039 C 
ATOM     13  C   UNL A   1      34.033  26.064  24.163  1.00  0.00     0.032 C 
BRANCH   9  14
ATOM     14  C   UNL A   1      31.866  24.742  26.232  1.00  0.00     0.260 C 
ATOM     15  O   UNL A   1      31.165  24.633  27.244  1.00  0.00    -0.269 OA
BRANCH  14  16
ATOM     16  C   UNL A   1      32.364  23.484  25.559  1.00  0.00     0.111 A 
ATOM     17  C   UNL A   1      32.140  21.165  22.560  1.00  0.00     0.069 C 
ATOM     18  C   UNL A   1      32.715  21.902  23.752  1.00  0.00     0.062 A 
ATOM     19  N   UNL A   1      33.876  21.508  24.151  1.00  0.00    -0.175 NA
ATOM     20  C   UNL A   1      31.950  23.042  24.351  1.00  0.00    -0.010 A 
ATOM     21  N   UNL A   1      34.378  22.078  25.280  1.00  0.00    -0.232 N 
ATOM     22  C   UNL A   1      30.911  23.627  23.447  1.00  0.00     0.047 C 
ATOM     23  C   UNL A   1      35.730  21.668  25.627  1.00  0.00     0.178 C 
ATOM     24  C   UNL A   1      33.624  22.873  26.139  1.00  0.00     0.279 A 
ATOM     25  O   UNL A   1      33.977  23.098  27.295  1.00  0.00    -0.267 OA
ENDBRANCH  14  16
ENDBRANCH   9  14
ENDBRANCH   6   8
ENDBRANCH   5   6
ENDBRANCH   4   5
ENDBRANCH   3   4
ENDBRANCH   2   3
ENDBRANCH   1   2
BRANCH   1  26
ATOM     26  C   UNL A   1      34.057  34.610  29.543  1.00  0.00     0.188 C 
BRANCH  26  27
ATOM     27  O   UNL A   1      34.414  34.853  30.882  1.00  0.00    -0.376 OA
BRANCH  27  28
ATOM     28  C   UNL A   1      34.089  33.890  31.868  1.00  0.00     0.202 C 
BRANCH  28  29
ATOM     29  C   UNL A   1      34.730  32.492  31.802  1.00  0.00     0.261 C 
BRANCH  29  30
ATOM     30  O   UNL A   1      35.629  32.133  32.866  1.00  0.00    -0.460 OA
BRANCH  30  31
ATOM     31  C   UNL A   1      36.789  32.823  32.968  1.00  0.00     0.338 C 
ATOM     32  O   UNL A   1      37.044  33.713  33.765  1.00  0.00    -0.246 OA
BRANCH  31  33
ATOM     33  C   UNL A   1      37.792  32.099  32.150  1.00  0.00     0.060 A 
ATOM     34  C   UNL A   1      38.656  31.193  32.785  1.00  0.00     0.016 A 
ATOM     35  C   UNL A   1      37.825  32.247  30.763  1.00  0.00     0.016 A 
ATOM     36  C   UNL A   1      39.551  30.430  32.033  1.00  0.00     0.010 A 
ATOM     37  C   UNL A   1      38.748  31.509  30.015  1.00  0.00     0.010 A 
ATOM     38  C   UNL A   1      39.627  30.610  30.646  1.00  0.00    -0.014 A 
BRANCH  38  39
ATOM     39  C   UNL A   1      40.758  30.024  29.887  1.00  0.00     0.031 A 
ATOM     40  C   UNL A   1      41.958  30.892  29.629  1.00  0.00     0.074 A 
ATOM     41  C   UNL A   1      40.743  28.750  29.458  1.00  0.00     0.049 A 
ATOM     42  N   UNL A   1      43.041  30.632  28.945  1.00  0.00    -0.248 NA
ATOM     43  C   UNL A   1      41.931  32.237  30.229  1.00  0.00     0.031 C 
ATOM     44  C   UNL A   1      39.673  27.786  29.697  1.00  0.00     0.029 A 
ATOM     45  N   UNL A   1      41.671  28.048  28.725  1.00  0.00    -0.354 N 
ATOM     46  C   UNL A   1      43.823  31.777  29.034  1.00  0.00     0.074 A 
ATOM     47  C   UNL A   1      43.075  32.747  29.802  1.00  0.00     0.031 C 
ATOM     48  C   UNL A   1      40.004  26.615  29.122  1.00  0.00     0.029 A 
ATOM     49  C   UNL A   1      41.291  26.759  28.440  1.00  0.00     0.049 A 
ATOM     50  H   UNL A   1      42.528  28.433  28.432  1.00  0.00     0.167 HD
ATOM     51  C   UNL A   1      45.060  31.996  28.533  1.00  0.00     0.037 A 
ATOM     52  C   UNL A   1      41.904  25.812  27.701  1.00  0.00     0.037 A 
ATOM     53  C   UNL A   1      45.801  31.034  27.765  1.00  0.00     0.049 A 
ATOM     54  C   UNL A   1      43.233  26.117  27.056  1.00  0.00     0.074 A 
ATOM     55  C   UNL A   1      47.059  31.168  27.204  1.00  0.00     0.029 A 
ATOM     56  N   UNL A   1      45.353  29.761  27.445  1.00  0.00    -0.354 N 
ATOM     57  N   UNL A   1      43.964  27.202  27.141  1.00  0.00    -0.248 NA
ATOM     58  C   UNL A   1      43.821  25.069  26.206  1.00  0.00     0.031 C 
ATOM     59  C   UNL A   1      47.349  29.998  26.498  1.00  0.00     0.029 A 
ATOM     60  C   UNL A   1      46.300  29.110  26.673  1.00  0.00     0.049 A 
ATOM     61  H   UNL A   1      44.490  29.378  27.725  1.00  0.00     0.167 HD
ATOM     62  C   UNL A   1      45.108  26.956  26.389  1.00  0.00     0.074 A 
ATOM     63  C   UNL A   1      44.978  25.616  25.858  1.00  0.00     0.031 C 
ATOM     64  C   UNL A   1      46.170  27.768  26.165  1.00  0.00     0.037 A 
BRANCH  51  65
ATOM     65  C   UNL A   1      45.688  33.334  28.790  1.00  0.00     0.057 A 
ATOM     66  C   UNL A   1      45.436  34.436  27.963  1.00  0.00     0.134 A 
ATOM     67  C   UNL A   1      46.510  33.535  29.905  1.00  0.00     0.134 A 
ATOM     68  F   UNL A   1      44.672  34.306  26.869  1.00  0.00    -0.206 F 
ATOM     69  C   UNL A   1      45.991  35.688  28.231  1.00  0.00     0.040 A 
ATOM     70  C   UNL A   1      47.046  34.789  30.199  1.00  0.00     0.040 A 
ATOM     71  F   UNL A   1      46.790  32.520  30.738  1.00  0.00    -0.206 F 
ATOM     72  C   UNL A   1      46.790  35.869  29.358  1.00  0.00     0.006 A 
ENDBRANCH  51  65
BRANCH  52  73
ATOM     73  C   UNL A   1      41.273  24.476  27.532  1.00  0.00     0.057 A 
ATOM     74  C   UNL A   1      41.734  23.365  28.248  1.00  0.00     0.134 A 
ATOM     75  C   UNL A   1      40.199  24.276  26.656  1.00  0.00     0.134 A 
ATOM     76  F   UNL A   1      42.776  23.484  29.082  1.00  0.00    -0.206 F 
ATOM     77  C   UNL A   1      41.155  22.103  28.095  1.00  0.00     0.040 A 
ATOM     78  C   UNL A   1      39.593  23.026  26.513  1.00  0.00     0.040 A 
ATOM     79  F   UNL A   1      39.714  25.297  25.935  1.00  0.00    -0.206 F 
ATOM     80  C   UNL A   1      40.074  21.933  27.232  1.00  0.00     0.006 A 
ENDBRANCH  52  73
BRANCH  64  81
ATOM     81  C   UNL A   1      47.307  27.238  25.338  1.00  0.00     0.057 A 
ATOM     82  C   UNL A   1      47.434  27.536  23.977  1.00  0.00     0.134 A 
ATOM     83  C   UNL A   1      48.348  26.516  25.943  1.00  0.00     0.134 A 
ATOM     84  F   UNL A   1      46.471  28.216  23.337  1.00  0.00    -0.206 F 
ATOM     85  C   UNL A   1      48.553  27.134  23.244  1.00  0.00     0.040 A 
ATOM     86  C   UNL A   1      49.483  26.134  25.227  1.00  0.00     0.040 A 
ATOM     87  F   UNL A   1      48.295  26.210  27.248  1.00  0.00    -0.206 F 
ATOM     88  C   UNL A   1      49.588  26.443  23.873  1.00  0.00     0.006 A 
ENDBRANCH  64  81
ENDBRANCH  38  39
ENDBRANCH  31  33
ENDBRANCH  30  31
ENDBRANCH  29  30
ENDBRANCH  28  29
ENDBRANCH  27  28
ENDBRANCH  26  27
ENDBRANCH   1  26
TORSDOF 19
ENDMDL
MODEL 3
REMARK VINA RESULT:     -10.4      1.364      2.066
REMARK SMILES Cc1nn(C)c(=O)c(C(=O)N2CC[C@@H](C(=O)OCCOCCOCCOC(=O)c3ccc(-c4c5nc(c(-c6c(F)cccc6F)c6ccc([nH]6)c(-c6c(F)cccc6F)c6nc(c(-c7c(F)cccc7F)c7ccc4[nH]7)C=C6)C=C5)cc3)[C@@H]2C)c1C
REMARK SMILES IDX 21 1 20 2 19 3 18 4 17 5 15 6 16 7 14 8 11 9 12 10 83 11
REMARK SMILES IDX 13 12 84 13 9 14 10 15 8 16 1 17 2 18 3 19 85 20 4 21 86 22
REMARK SMILES IDX 5 23 6 24 7 25 22 26 23 27 24 28 25 29 26 30 27 31 28 32
REMARK SMILES IDX 29 33 30 34 82 35 31 36 81 37 32 38 33 39 34 40 75 41 35 42
REMARK SMILES IDX 80 43 74 44 76 45 36 46 79 47 73 48 72 49 37 51 63 52 46 53
REMARK SMILES IDX 62 54 47 55 50 56 61 57 77 58 48 59 49 60 60 62 78 63 51 64
REMARK SMILES IDX 38 65 39 66 44 67 40 68 41 69 43 70 45 71 42 72 64 73 65 74
REMARK SMILES IDX 70 75 66 76 67 77 69 78 71 79 68 80 52 81 53 82 58 83 54 84
REMARK SMILES IDX 55 85 57 86 59 87 56 88
REMARK H PARENT 76 50 50 61
REMARK Flexibility Score: inf
ROOT
ATOM      1  C   UNL A   1      41.201  21.807  26.048  1.00  0.00     0.188 C 
ENDROOT
BRANCH   1   2
ATOM      2  O   UNL A   1      39.845  21.644  26.442  1.00  0.00    -0.376 OA
BRANCH   2   3
ATOM      3  C   UNL A   1      38.993  20.813  25.662  1.00  0.00     0.202 C 
BRANCH   3   4
ATOM      4  C   UNL A   1      37.583  21.318  25.304  1.00  0.00     0.261 C 
BRANCH   4   5
ATOM      5  O   UNL A   1      36.625  20.307  24.900  1.00  0.00    -0.463 OA
BRANCH   5   6
ATOM      6  C   UNL A   1      35.319  20.612  25.088  1.00  0.00     0.311 C 
ATOM      7  O   UNL A   1      34.396  19.852  24.805  1.00  0.00    -0.252 OA
BRANCH   6   8
ATOM      8  C   UNL A   1      35.028  21.980  25.699  1.00  0.00     0.123 C 
ATOM      9  N   UNL A   1      32.983  23.210  25.870  1.00  0.00    -0.335 N 
ATOM     10  C   UNL A   1      33.360  22.866  27.224  1.00  0.00     0.121 C 
ATOM     11  C   UNL A   1      34.144  23.045  24.991  1.00  0.00     0.096 C 
ATOM     12  C   UNL A   1      34.334  21.725  27.047  1.00  0.00     0.039 C 
ATOM     13  C   UNL A   1      34.905  24.386  24.920  1.00  0.00     0.032 C 
BRANCH   9  14
ATOM     14  C   UNL A   1      31.767  23.836  25.675  1.00  0.00     0.260 C 
ATOM     15  O   UNL A   1      30.753  23.288  26.121  1.00  0.00    -0.269 OA
BRANCH  14  16
ATOM     16  C   UNL A   1      31.603  25.073  24.823  1.00  0.00     0.111 A 
ATOM     17  C   UNL A   1      31.475  28.867  24.695  1.00  0.00     0.069 C 
ATOM     18  C   UNL A   1      31.702  27.433  24.263  1.00  0.00     0.062 A 
ATOM     19  N   UNL A   1      31.959  27.257  23.011  1.00  0.00    -0.175 NA
ATOM     20  C   UNL A   1      31.667  26.341  25.287  1.00  0.00    -0.010 A 
ATOM     21  N   UNL A   1      32.067  25.974  22.568  1.00  0.00    -0.232 N 
ATOM     22  C   UNL A   1      31.852  26.814  26.695  1.00  0.00     0.047 C 
ATOM     23  C   UNL A   1      32.453  25.837  21.172  1.00  0.00     0.178 C 
ATOM     24  C   UNL A   1      31.693  24.867  23.324  1.00  0.00     0.279 A 
ATOM     25  O   UNL A   1      31.482  23.770  22.811  1.00  0.00    -0.267 OA
ENDBRANCH  14  16
ENDBRANCH   9  14
ENDBRANCH   6   8
ENDBRANCH   5   6
ENDBRANCH   4   5
ENDBRANCH   3   4
ENDBRANCH   2   3
ENDBRANCH   1   2
BRANCH   1  26
ATOM     26  C   UNL A   1      42.138  20.593  26.094  1.00  0.00     0.188 C 
BRANCH  26  27
ATOM     27  O   UNL A   1      43.108  20.559  25.073  1.00  0.00    -0.376 OA
BRANCH  27  28
ATOM     28  C   UNL A   1      44.475  20.451  25.425  1.00  0.00     0.202 C 
BRANCH  28  29
ATOM     29  C   UNL A   1      45.299  21.730  25.662  1.00  0.00     0.261 C 
BRANCH  29  30
ATOM     30  O   UNL A   1      44.660  22.797  26.383  1.00  0.00    -0.460 OA
BRANCH  30  31
ATOM     31  C   UNL A   1      44.300  23.899  25.684  1.00  0.00     0.338 C 
ATOM     32  O   UNL A   1      44.276  24.020  24.468  1.00  0.00    -0.246 OA
BRANCH  31  33
ATOM     33  C   UNL A   1      43.651  24.824  26.645  1.00  0.00     0.060 A 
ATOM     34  C   UNL A   1      44.020  26.178  26.635  1.00  0.00     0.016 A 
ATOM     35  C   UNL A   1      42.632  24.379  27.488  1.00  0.00     0.016 A 
ATOM     36  C   UNL A   1      43.365  27.091  27.464  1.00  0.00     0.010 A 
ATOM     37  C   UNL A   1      42.002  25.288  28.344  1.00  0.00     0.010 A 
ATOM     38  C   UNL A   1      42.377  26.644  28.350  1.00  0.00    -0.014 A 
BRANCH  38  39
ATOM     39  C   UNL A   1      41.887  27.542  29.423  1.00  0.00     0.031 A 
ATOM     40  C   UNL A   1      42.620  27.538  30.735  1.00  0.00     0.074 A 
ATOM     41  C   UNL A   1      40.840  28.366  29.240  1.00  0.00     0.049 A 
ATOM     42  N   UNL A   1      42.355  28.184  31.839  1.00  0.00    -0.248 NA
ATOM     43  C   UNL A   1      43.820  26.685  30.809  1.00  0.00     0.031 C 
ATOM     44  C   UNL A   1      40.085  28.516  27.999  1.00  0.00     0.029 A 
ATOM     45  N   UNL A   1      40.232  29.238  30.112  1.00  0.00    -0.354 N 
ATOM     46  C   UNL A   1      43.352  27.820  32.736  1.00  0.00     0.074 A 
ATOM     47  C   UNL A   1      44.204  26.865  32.062  1.00  0.00     0.031 C 
ATOM     48  C   UNL A   1      39.112  29.426  28.188  1.00  0.00     0.029 A 
ATOM     49  C   UNL A   1      39.151  29.895  29.573  1.00  0.00     0.049 A 
ATOM     50  H   UNL A   1      40.541  29.378  31.035  1.00  0.00     0.167 HD
ATOM     51  C   UNL A   1      43.549  28.253  34.002  1.00  0.00     0.037 A 
ATOM     52  C   UNL A   1      38.285  30.759  30.141  1.00  0.00     0.037 A 
ATOM     53  C   UNL A   1      42.699  29.198  34.673  1.00  0.00     0.049 A 
ATOM     54  C   UNL A   1      38.458  31.142  31.589  1.00  0.00     0.074 A 
ATOM     55  C   UNL A   1      42.811  29.689  35.961  1.00  0.00     0.029 A 
ATOM     56  N   UNL A   1      41.578  29.792  34.112  1.00  0.00    -0.354 N 
ATOM     57  N   UNL A   1      39.400  30.790  32.431  1.00  0.00    -0.248 NA
ATOM     58  C   UNL A   1      37.444  32.036  32.171  1.00  0.00     0.031 C 
ATOM     59  C   UNL A   1      41.728  30.538  36.200  1.00  0.00     0.029 A 
ATOM     60  C   UNL A   1      40.976  30.625  35.040  1.00  0.00     0.049 A 
ATOM     61  H   UNL A   1      41.259  29.642  33.194  1.00  0.00     0.167 HD
ATOM     62  C   UNL A   1      39.114  31.445  33.624  1.00  0.00     0.074 A 
ATOM     63  C   UNL A   1      37.912  32.219  33.398  1.00  0.00     0.031 C 
ATOM     64  C   UNL A   1      39.791  31.408  34.799  1.00  0.00     0.037 A 
BRANCH  51  65
ATOM     65  C   UNL A   1      44.725  27.700  34.750  1.00  0.00     0.057 A 
ATOM     66  C   UNL A   1      44.637  26.511  35.485  1.00  0.00     0.134 A 
ATOM     67  C   UNL A   1      45.971  28.334  34.693  1.00  0.00     0.134 A 
ATOM     68  F   UNL A   1      43.467  25.864  35.596  1.00  0.00    -0.206 F 
ATOM     69  C   UNL A   1      45.745  25.980  36.147  1.00  0.00     0.040 A 
ATOM     70  C   UNL A   1      47.094  27.797  35.325  1.00  0.00     0.040 A 
ATOM     71  F   UNL A   1      46.124  29.476  34.004  1.00  0.00    -0.206 F 
ATOM     72  C   UNL A   1      46.980  26.618  36.058  1.00  0.00     0.006 A 
ENDBRANCH  51  65
BRANCH  52  73
ATOM     73  C   UNL A   1      37.175  31.335  29.336  1.00  0.00     0.057 A 
ATOM     74  C   UNL A   1      36.018  30.594  29.069  1.00  0.00     0.134 A 
ATOM     75  C   UNL A   1      37.241  32.633  28.815  1.00  0.00     0.134 A 
ATOM     76  F   UNL A   1      35.905  29.335  29.516  1.00  0.00    -0.206 F 
ATOM     77  C   UNL A   1      34.970  31.119  28.310  1.00  0.00     0.040 A 
ATOM     78  C   UNL A   1      36.190  33.180  28.077  1.00  0.00     0.040 A 
ATOM     79  F   UNL A   1      38.324  33.394  29.028  1.00  0.00    -0.206 F 
ATOM     80  C   UNL A   1      35.051  32.421  27.819  1.00  0.00     0.006 A 
ENDBRANCH  52  73
BRANCH  64  81
ATOM     81  C   UNL A   1      39.285  32.249  35.936  1.00  0.00     0.057 A 
ATOM     82  C   UNL A   1      39.677  33.583  36.102  1.00  0.00     0.134 A 
ATOM     83  C   UNL A   1      38.305  31.750  36.807  1.00  0.00     0.134 A 
ATOM     84  F   UNL A   1      40.615  34.119  35.307  1.00  0.00    -0.206 F 
ATOM     85  C   UNL A   1      39.115  34.389  37.093  1.00  0.00     0.040 A 
ATOM     86  C   UNL A   1      37.717  32.555  37.783  1.00  0.00     0.040 A 
ATOM     87  F   UNL A   1      37.874  30.484  36.694  1.00  0.00    -0.206 F 
ATOM     88  C   UNL A   1      38.122  33.879  37.928  1.00  0.00     0.006 A 
ENDBRANCH  64  81
ENDBRANCH  38  39
ENDBRANCH  31  33
ENDBRANCH  30  31
ENDBRANCH  29  30
ENDBRANCH  28  29
ENDBRANCH  27  28
ENDBRANCH  26  27
ENDBRANCH   1  26
TORSDOF 19
ENDMDL
