MODEL 1
REMARK VINA RESULT:     -11.7      0.000      0.000
REMARK SMILES CCc1ncc(C[N@H+]2CCC[C@@H](c3cccc(C(=O)OCCOCCOCCOC(=O)c4ccc(-c5c6nc(c(-c7c(F)cccc7F)c7ccc([nH]7)c(-c7c(F)cccc7F)c7nc(c(-c8c(F)cccc8F)c8ccc5[nH]8)C=C7)C=C6)cc4)c3)C2)cn1
REMARK SMILES IDX 24 1 23 2 22 3 21 4 20 5 18 6 19 7 17 8 13 9 14 10 86 11
REMARK SMILES IDX 15 12 16 13 12 14 8 15 9 16 87 17 10 19 11 20 7 21 6 22 3 23
REMARK SMILES IDX 4 24 89 25 5 26 88 27 2 28 1 29 25 30 26 31 27 32 28 33
REMARK SMILES IDX 29 34 30 35 31 36 32 37 33 38 85 39 34 40 84 41 35 42 36 43
REMARK SMILES IDX 37 44 78 45 38 46 83 47 77 48 79 49 39 50 82 51 76 52 75 53
REMARK SMILES IDX 40 55 66 56 49 57 65 58 50 59 53 60 64 61 80 62 51 63 52 64
REMARK SMILES IDX 63 66 81 67 54 68 41 69 42 70 47 71 43 72 44 73 46 74 48 75
REMARK SMILES IDX 45 76 67 77 68 78 73 79 69 80 70 81 72 82 74 83 71 84 55 85
REMARK SMILES IDX 56 86 61 87 57 88 58 89 60 90 62 91 59 92
REMARK H PARENT 8 18 79 54 53 65
REMARK Flexibility Score: inf
ROOT
ATOM      1  C   UNL A   1      40.866  20.046  26.812  1.00  0.00     0.188 C 
ENDROOT
BRANCH   1   2
ATOM      2  O   UNL A   1      40.476  21.218  26.111  1.00  0.00    -0.376 OA
BRANCH   2   3
ATOM      3  C   UNL A   1      39.248  21.860  26.431  1.00  0.00     0.202 C 
BRANCH   3   4
ATOM      4  C   UNL A   1      38.137  22.015  25.378  1.00  0.00     0.261 C 
BRANCH   4   5
ATOM      5  O   UNL A   1      36.819  21.713  25.855  1.00  0.00    -0.460 OA
BRANCH   5   6
ATOM      6  C   UNL A   1      36.205  20.659  25.262  1.00  0.00     0.338 C 
ATOM      7  O   UNL A   1      36.695  19.573  24.999  1.00  0.00    -0.246 OA
BRANCH   6   8
ATOM      8  C   UNL A   1      34.751  20.928  25.184  1.00  0.00     0.060 A 
ATOM      9  C   UNL A   1      32.787  22.270  25.683  1.00  0.00    -0.038 A 
ATOM     10  C   UNL A   1      31.990  21.265  25.103  1.00  0.00     0.004 A 
ATOM     11  C   UNL A   1      34.179  22.081  25.734  1.00  0.00     0.020 A 
ATOM     12  C   UNL A   1      32.563  20.114  24.563  1.00  0.00     0.001 A 
ATOM     13  C   UNL A   1      33.944  19.952  24.587  1.00  0.00     0.016 A 
BRANCH   9  14
ATOM     14  C   UNL A   1      32.203  23.621  26.079  1.00  0.00     0.074 C 
ATOM     15  N   UNL A   1      32.133  25.993  25.198  1.00  0.00    -0.331 N 
ATOM     16  C   UNL A   1      30.670  26.006  25.321  1.00  0.00     0.262 C 
ATOM     17  C   UNL A   1      32.645  24.631  25.001  1.00  0.00     0.270 C 
ATOM     18  H   UNL A   1      32.494  26.335  26.088  1.00  0.00     0.348 HD
ATOM     19  C   UNL A   1      30.192  25.088  26.450  1.00  0.00     0.062 C 
ATOM     20  C   UNL A   1      30.675  23.650  26.243  1.00  0.00     0.020 C 
BRANCH  15  21
ATOM     21  C   UNL A   1      32.643  26.925  24.167  1.00  0.00     0.302 C 
BRANCH  21  22
ATOM     22  C   UNL A   1      31.646  27.890  23.593  1.00  0.00     0.043 A 
ATOM     23  C   UNL A   1      29.632  29.498  22.712  1.00  0.00     0.127 A 
ATOM     24  N   UNL A   1      30.264  29.843  23.851  1.00  0.00    -0.241 NA
ATOM     25  N   UNL A   1      29.964  28.436  21.955  1.00  0.00    -0.241 NA
ATOM     26  C   UNL A   1      31.265  29.038  24.255  1.00  0.00     0.124 A 
ATOM     27  C   UNL A   1      30.973  27.666  22.409  1.00  0.00     0.124 A 
BRANCH  23  28
ATOM     28  C   UNL A   1      28.383  30.243  22.327  1.00  0.00     0.074 C 
ATOM     29  C   UNL A   1      27.659  30.873  23.507  1.00  0.00     0.012 C 
ENDBRANCH  23  28
ENDBRANCH  21  22
ENDBRANCH  15  21
ENDBRANCH   9  14
ENDBRANCH   6   8
ENDBRANCH   5   6
ENDBRANCH   4   5
ENDBRANCH   3   4
ENDBRANCH   2   3
ENDBRANCH   1   2
BRANCH   1  30
ATOM     30  C   UNL A   1      41.796  19.011  26.145  1.00  0.00     0.188 C 
BRANCH  30  31
ATOM     31  O   UNL A   1      42.594  19.499  25.096  1.00  0.00    -0.376 OA
BRANCH  31  32
ATOM     32  C   UNL A   1      43.786  20.211  25.377  1.00  0.00     0.202 C 
BRANCH  32  33
ATOM     33  C   UNL A   1      44.156  21.610  24.839  1.00  0.00     0.261 C 
BRANCH  33  34
ATOM     34  O   UNL A   1      43.377  22.736  25.251  1.00  0.00    -0.460 OA
BRANCH  34  35
ATOM     35  C   UNL A   1      43.966  23.949  25.123  1.00  0.00     0.338 C 
ATOM     36  O   UNL A   1      44.813  24.280  24.314  1.00  0.00    -0.246 OA
BRANCH  35  37
ATOM     37  C   UNL A   1      43.294  24.893  26.037  1.00  0.00     0.060 A 
ATOM     38  C   UNL A   1      43.755  26.215  26.102  1.00  0.00     0.016 A 
ATOM     39  C   UNL A   1      42.242  24.467  26.849  1.00  0.00     0.016 A 
ATOM     40  C   UNL A   1      43.174  27.112  27.000  1.00  0.00     0.010 A 
ATOM     41  C   UNL A   1      41.675  25.361  27.762  1.00  0.00     0.010 A 
ATOM     42  C   UNL A   1      42.156  26.681  27.861  1.00  0.00    -0.014 A 
BRANCH  42  43
ATOM     43  C   UNL A   1      41.702  27.555  28.971  1.00  0.00     0.031 A 
ATOM     44  C   UNL A   1      42.414  27.471  30.294  1.00  0.00     0.074 A 
ATOM     45  C   UNL A   1      40.686  28.421  28.808  1.00  0.00     0.049 A 
ATOM     46  N   UNL A   1      42.151  28.081  31.422  1.00  0.00    -0.248 NA
ATOM     47  C   UNL A   1      43.585  26.579  30.351  1.00  0.00     0.031 C 
ATOM     48  C   UNL A   1      39.940  28.630  27.568  1.00  0.00     0.029 A 
ATOM     49  N   UNL A   1      40.097  29.281  29.703  1.00  0.00    -0.354 N 
ATOM     50  C   UNL A   1      43.119  27.649  32.319  1.00  0.00     0.074 A 
ATOM     51  C   UNL A   1      43.957  26.701  31.617  1.00  0.00     0.031 C 
ATOM     52  C   UNL A   1      38.978  29.545  27.787  1.00  0.00     0.029 A 
ATOM     53  C   UNL A   1      39.020  29.960  29.189  1.00  0.00     0.049 A 
ATOM     54  H   UNL A   1      40.418  29.400  30.628  1.00  0.00     0.167 HD
ATOM     55  C   UNL A   1      43.304  28.020  33.608  1.00  0.00     0.037 A 
ATOM     56  C   UNL A   1      38.150  30.795  29.791  1.00  0.00     0.037 A 
ATOM     57  C   UNL A   1      42.468  28.956  34.312  1.00  0.00     0.049 A 
ATOM     58  C   UNL A   1      38.324  31.119  31.254  1.00  0.00     0.074 A 
ATOM     59  C   UNL A   1      42.570  29.386  35.623  1.00  0.00     0.029 A 
ATOM     60  N   UNL A   1      41.374  29.604  33.762  1.00  0.00    -0.354 N 
ATOM     61  N   UNL A   1      39.252  30.719  32.089  1.00  0.00    -0.248 NA
ATOM     62  C   UNL A   1      37.326  32.016  31.859  1.00  0.00     0.031 C 
ATOM     63  C   UNL A   1      41.512  30.262  35.880  1.00  0.00     0.029 A 
ATOM     64  C   UNL A   1      40.783  30.420  34.714  1.00  0.00     0.049 A 
ATOM     65  H   UNL A   1      41.063  29.502  32.833  1.00  0.00     0.167 HD
ATOM     66  C   UNL A   1      38.973  31.344  33.300  1.00  0.00     0.074 A 
ATOM     67  C   UNL A   1      37.798  32.161  33.088  1.00  0.00     0.031 C 
ATOM     68  C   UNL A   1      39.629  31.248  34.482  1.00  0.00     0.037 A 
BRANCH  55  69
ATOM     69  C   UNL A   1      44.454  27.405  34.351  1.00  0.00     0.057 A 
ATOM     70  C   UNL A   1      44.326  26.180  35.017  1.00  0.00     0.134 A 
ATOM     71  C   UNL A   1      45.717  28.012  34.346  1.00  0.00     0.134 A 
ATOM     72  F   UNL A   1      43.139  25.555  35.071  1.00  0.00    -0.206 F 
ATOM     73  C   UNL A   1      45.411  25.584  35.663  1.00  0.00     0.040 A 
ATOM     74  C   UNL A   1      46.814  27.413  34.966  1.00  0.00     0.040 A 
ATOM     75  F   UNL A   1      45.907  29.184  33.721  1.00  0.00    -0.206 F 
ATOM     76  C   UNL A   1      46.662  26.198  35.628  1.00  0.00     0.006 A 
ENDBRANCH  55  69
BRANCH  56  77
ATOM     77  C   UNL A   1      37.005  31.371  29.035  1.00  0.00     0.057 A 
ATOM     78  C   UNL A   1      36.997  32.712  28.633  1.00  0.00     0.134 A 
ATOM     79  C   UNL A   1      35.861  30.612  28.762  1.00  0.00     0.134 A 
ATOM     80  F   UNL A   1      38.053  33.500  28.889  1.00  0.00    -0.206 F 
ATOM     81  C   UNL A   1      35.881  33.287  28.022  1.00  0.00     0.040 A 
ATOM     82  C   UNL A   1      34.749  31.166  28.123  1.00  0.00     0.040 A 
ATOM     83  F   UNL A   1      35.801  29.322  29.121  1.00  0.00    -0.206 F 
ATOM     84  C   UNL A   1      34.754  32.512  27.764  1.00  0.00     0.006 A 
ENDBRANCH  56  77
BRANCH  68  85
ATOM     85  C   UNL A   1      39.129  32.089  35.622  1.00  0.00     0.057 A 
ATOM     86  C   UNL A   1      39.496  33.432  35.774  1.00  0.00     0.134 A 
ATOM     87  C   UNL A   1      38.235  31.555  36.561  1.00  0.00     0.134 A 
ATOM     88  F   UNL A   1      40.357  34.002  34.917  1.00  0.00    -0.206 F 
ATOM     89  C   UNL A   1      39.015  34.205  36.832  1.00  0.00     0.040 A 
ATOM     90  C   UNL A   1      37.724  32.326  37.605  1.00  0.00     0.040 A 
ATOM     91  F   UNL A   1      37.833  30.278  36.468  1.00  0.00    -0.206 F 
ATOM     92  C   UNL A   1      38.119  33.653  37.748  1.00  0.00     0.006 A 
ENDBRANCH  68  85
ENDBRANCH  42  43
ENDBRANCH  35  37
ENDBRANCH  34  35
ENDBRANCH  33  34
ENDBRANCH  32  33
ENDBRANCH  31  32
ENDBRANCH  30  31
ENDBRANCH   1  30
TORSDOF 21
ENDMDL
MODEL 2
REMARK VINA RESULT:     -11.0      1.331      6.194
REMARK SMILES CCc1ncc(C[N@H+]2CCC[C@@H](c3cccc(C(=O)OCCOCCOCCOC(=O)c4ccc(-c5c6nc(c(-c7c(F)cccc7F)c7ccc([nH]7)c(-c7c(F)cccc7F)c7nc(c(-c8c(F)cccc8F)c8ccc5[nH]8)C=C7)C=C6)cc4)c3)C2)cn1
REMARK SMILES IDX 24 1 23 2 22 3 21 4 20 5 18 6 19 7 17 8 13 9 14 10 86 11
REMARK SMILES IDX 15 12 16 13 12 14 8 15 9 16 87 17 10 19 11 20 7 21 6 22 3 23
REMARK SMILES IDX 4 24 89 25 5 26 88 27 2 28 1 29 25 30 26 31 27 32 28 33
REMARK SMILES IDX 29 34 30 35 31 36 32 37 33 38 85 39 34 40 84 41 35 42 36 43
REMARK SMILES IDX 37 44 78 45 38 46 83 47 77 48 79 49 39 50 82 51 76 52 75 53
REMARK SMILES IDX 40 55 66 56 49 57 65 58 50 59 53 60 64 61 80 62 51 63 52 64
REMARK SMILES IDX 63 66 81 67 54 68 41 69 42 70 47 71 43 72 44 73 46 74 48 75
REMARK SMILES IDX 45 76 67 77 68 78 73 79 69 80 70 81 72 82 74 83 71 84 55 85
REMARK SMILES IDX 56 86 61 87 57 88 58 89 60 90 62 91 59 92
REMARK H PARENT 8 18 79 54 53 65
REMARK Flexibility Score: inf
ROOT
ATOM      1  C   UNL A   1      40.421  21.716  27.221  1.00  0.00     0.188 C 
ENDROOT
BRANCH   1   2
ATOM      2  O   UNL A   1      40.008  22.678  26.261  1.00  0.00    -0.376 OA
BRANCH   2   3
ATOM      3  C   UNL A   1      38.633  23.029  26.155  1.00  0.00     0.202 C 
BRANCH   3   4
ATOM      4  C   UNL A   1      37.705  22.301  25.168  1.00  0.00     0.261 C 
BRANCH   4   5
ATOM      5  O   UNL A   1      36.784  21.387  25.780  1.00  0.00    -0.460 OA
BRANCH   5   6
ATOM      6  C   UNL A   1      36.457  20.298  25.040  1.00  0.00     0.338 C 
ATOM      7  O   UNL A   1      37.188  19.374  24.724  1.00  0.00    -0.246 OA
BRANCH   6   8
ATOM      8  C   UNL A   1      34.988  20.264  24.855  1.00  0.00     0.060 A 
ATOM      9  C   UNL A   1      32.802  21.327  24.832  1.00  0.00    -0.038 A 
ATOM     10  C   UNL A   1      32.222  20.061  24.628  1.00  0.00     0.004 A 
ATOM     11  C   UNL A   1      34.200  21.415  24.963  1.00  0.00     0.020 A 
ATOM     12  C   UNL A   1      33.011  18.915  24.529  1.00  0.00     0.001 A 
ATOM     13  C   UNL A   1      34.394  19.017  24.625  1.00  0.00     0.016 A 
BRANCH   9  14
ATOM     14  C   UNL A   1      31.981  22.607  24.727  1.00  0.00     0.074 C 
ATOM     15  N   UNL A   1      32.316  25.104  24.972  1.00  0.00    -0.331 N 
ATOM     16  C   UNL A   1      31.708  25.325  23.655  1.00  0.00     0.262 C 
ATOM     17  C   UNL A   1      32.931  23.773  25.065  1.00  0.00     0.270 C 
ATOM     18  H   UNL A   1      31.552  25.141  25.646  1.00  0.00     0.348 HD
ATOM     19  C   UNL A   1      30.681  24.238  23.320  1.00  0.00     0.062 C 
ATOM     20  C   UNL A   1      31.310  22.843  23.365  1.00  0.00     0.020 C 
BRANCH  15  21
ATOM     21  C   UNL A   1      33.260  26.173  25.369  1.00  0.00     0.302 C 
BRANCH  21  22
ATOM     22  C   UNL A   1      32.654  27.514  25.669  1.00  0.00     0.043 A 
ATOM     23  C   UNL A   1      31.830  30.038  26.277  1.00  0.00     0.127 A 
ATOM     24  N   UNL A   1      32.218  29.787  25.011  1.00  0.00    -0.241 NA
ATOM     25  N   UNL A   1      31.777  29.109  27.249  1.00  0.00    -0.241 NA
ATOM     26  C   UNL A   1      32.607  28.528  24.736  1.00  0.00     0.124 A 
ATOM     27  C   UNL A   1      32.177  27.866  26.915  1.00  0.00     0.124 A 
BRANCH  23  28
ATOM     28  C   UNL A   1      31.583  31.465  26.685  1.00  0.00     0.074 C 
ATOM     29  C   UNL A   1      30.650  32.216  25.748  1.00  0.00     0.012 C 
ENDBRANCH  23  28
ENDBRANCH  21  22
ENDBRANCH  15  21
ENDBRANCH   9  14
ENDBRANCH   6   8
ENDBRANCH   5   6
ENDBRANCH   4   5
ENDBRANCH   3   4
ENDBRANCH   2   3
ENDBRANCH   1   2
BRANCH   1  30
ATOM     30  C   UNL A   1      41.068  20.391  26.768  1.00  0.00     0.188 C 
BRANCH  30  31
ATOM     31  O   UNL A   1      42.039  20.503  25.759  1.00  0.00    -0.376 OA
BRANCH  31  32
ATOM     32  C   UNL A   1      43.183  21.316  25.954  1.00  0.00     0.202 C 
BRANCH  32  33
ATOM     33  C   UNL A   1      43.698  22.407  24.992  1.00  0.00     0.261 C 
BRANCH  33  34
ATOM     34  O   UNL A   1      43.056  23.685  24.992  1.00  0.00    -0.460 OA
BRANCH  34  35
ATOM     35  C   UNL A   1      43.855  24.753  25.233  1.00  0.00     0.338 C 
ATOM     36  O   UNL A   1      44.862  25.076  24.631  1.00  0.00    -0.246 OA
BRANCH  35  37
ATOM     37  C   UNL A   1      43.215  25.591  26.266  1.00  0.00     0.060 A 
ATOM     38  C   UNL A   1      43.754  26.854  26.542  1.00  0.00     0.016 A 
ATOM     39  C   UNL A   1      42.115  25.116  26.982  1.00  0.00     0.016 A 
ATOM     40  C   UNL A   1      43.203  27.641  27.554  1.00  0.00     0.010 A 
ATOM     41  C   UNL A   1      41.577  25.898  28.009  1.00  0.00     0.010 A 
ATOM     42  C   UNL A   1      42.135  27.153  28.318  1.00  0.00    -0.014 A 
BRANCH  42  43
ATOM     43  C   UNL A   1      41.702  27.878  29.539  1.00  0.00     0.031 A 
ATOM     44  C   UNL A   1      40.515  28.798  29.449  1.00  0.00     0.074 A 
ATOM     45  C   UNL A   1      42.338  27.712  30.713  1.00  0.00     0.049 A 
ATOM     46  N   UNL A   1      40.001  29.587  30.359  1.00  0.00    -0.248 NA
ATOM     47  C   UNL A   1      39.811  28.834  28.155  1.00  0.00     0.031 C 
ATOM     48  C   UNL A   1      43.472  26.821  30.945  1.00  0.00     0.029 A 
ATOM     49  N   UNL A   1      42.121  28.306  31.932  1.00  0.00    -0.354 N 
ATOM     50  C   UNL A   1      38.917  30.207  29.752  1.00  0.00     0.074 A 
ATOM     51  C   UNL A   1      38.865  29.733  28.386  1.00  0.00     0.031 C 
ATOM     52  C   UNL A   1      43.866  26.941  32.226  1.00  0.00     0.029 A 
ATOM     53  C   UNL A   1      43.034  27.942  32.892  1.00  0.00     0.049 A 
ATOM     54  H   UNL A   1      41.381  28.934  32.103  1.00  0.00     0.167 HD
ATOM     55  C   UNL A   1      38.035  31.084  30.288  1.00  0.00     0.037 A 
ATOM     56  C   UNL A   1      43.196  28.390  34.153  1.00  0.00     0.037 A 
ATOM     57  C   UNL A   1      38.089  31.565  31.642  1.00  0.00     0.049 A 
ATOM     58  C   UNL A   1      42.254  29.437  34.696  1.00  0.00     0.074 A 
ATOM     59  C   UNL A   1      37.245  32.463  32.272  1.00  0.00     0.029 A 
ATOM     60  N   UNL A   1      39.042  31.189  32.575  1.00  0.00    -0.354 N 
ATOM     61  N   UNL A   1      41.223  30.006  34.119  1.00  0.00    -0.248 NA
ATOM     62  C   UNL A   1      42.500  29.904  36.070  1.00  0.00     0.031 C 
ATOM     63  C   UNL A   1      37.713  32.663  33.574  1.00  0.00     0.029 A 
ATOM     64  C   UNL A   1      38.815  31.850  33.772  1.00  0.00     0.049 A 
ATOM     65  H   UNL A   1      39.771  30.548  32.413  1.00  0.00     0.167 HD
ATOM     66  C   UNL A   1      40.678  30.862  35.069  1.00  0.00     0.074 A 
ATOM     67  C   UNL A   1      41.483  30.729  36.264  1.00  0.00     0.031 C 
ATOM     68  C   UNL A   1      39.608  31.688  34.962  1.00  0.00     0.037 A 
BRANCH  55  69
ATOM     69  C   UNL A   1      36.934  31.591  29.402  1.00  0.00     0.057 A 
ATOM     70  C   UNL A   1      36.991  32.861  28.815  1.00  0.00     0.134 A 
ATOM     71  C   UNL A   1      35.838  30.778  29.085  1.00  0.00     0.134 A 
ATOM     72  F   UNL A   1      38.008  33.693  29.090  1.00  0.00    -0.206 F 
ATOM     73  C   UNL A   1      35.991  33.310  27.949  1.00  0.00     0.040 A 
ATOM     74  C   UNL A   1      34.846  31.206  28.202  1.00  0.00     0.040 A 
ATOM     75  F   UNL A   1      35.726  29.549  29.612  1.00  0.00    -0.206 F 
ATOM     76  C   UNL A   1      34.920  32.476  27.634  1.00  0.00     0.006 A 
ENDBRANCH  55  69
BRANCH  56  77
ATOM     77  C   UNL A   1      44.311  27.886  34.999  1.00  0.00     0.057 A 
ATOM     78  C   UNL A   1      44.162  26.747  35.799  1.00  0.00     0.134 A 
ATOM     79  C   UNL A   1      45.527  28.576  35.084  1.00  0.00     0.134 A 
ATOM     80  F   UNL A   1      43.012  26.057  35.784  1.00  0.00    -0.206 F 
ATOM     81  C   UNL A   1      45.165  26.333  36.678  1.00  0.00     0.040 A 
ATOM     82  C   UNL A   1      46.551  28.155  35.936  1.00  0.00     0.040 A 
ATOM     83  F   UNL A   1      45.734  29.677  34.347  1.00  0.00    -0.206 F 
ATOM     84  C   UNL A   1      46.365  27.038  36.746  1.00  0.00     0.006 A 
ENDBRANCH  56  77
BRANCH  68  85
ATOM     85  C   UNL A   1      39.209  32.467  36.182  1.00  0.00     0.057 A 
ATOM     86  C   UNL A   1      38.322  31.953  37.137  1.00  0.00     0.134 A 
ATOM     87  C   UNL A   1      39.753  33.737  36.424  1.00  0.00     0.134 A 
ATOM     88  F   UNL A   1      37.757  30.750  36.961  1.00  0.00    -0.206 F 
ATOM     89  C   UNL A   1      37.968  32.685  38.272  1.00  0.00     0.040 A 
ATOM     90  C   UNL A   1      39.431  34.464  37.570  1.00  0.00     0.040 A 
ATOM     91  F   UNL A   1      40.618  34.284  35.557  1.00  0.00    -0.206 F 
ATOM     92  C   UNL A   1      38.530  33.942  38.495  1.00  0.00     0.006 A 
ENDBRANCH  68  85
ENDBRANCH  42  43
ENDBRANCH  35  37
ENDBRANCH  34  35
ENDBRANCH  33  34
ENDBRANCH  32  33
ENDBRANCH  31  32
ENDBRANCH  30  31
ENDBRANCH   1  30
TORSDOF 21
ENDMDL
MODEL 3
REMARK VINA RESULT:     -10.6      1.271      2.273
REMARK SMILES CCc1ncc(C[N@H+]2CCC[C@@H](c3cccc(C(=O)OCCOCCOCCOC(=O)c4ccc(-c5c6nc(c(-c7c(F)cccc7F)c7ccc([nH]7)c(-c7c(F)cccc7F)c7nc(c(-c8c(F)cccc8F)c8ccc5[nH]8)C=C7)C=C6)cc4)c3)C2)cn1
REMARK SMILES IDX 24 1 23 2 22 3 21 4 20 5 18 6 19 7 17 8 13 9 14 10 86 11
REMARK SMILES IDX 15 12 16 13 12 14 8 15 9 16 87 17 10 19 11 20 7 21 6 22 3 23
REMARK SMILES IDX 4 24 89 25 5 26 88 27 2 28 1 29 25 30 26 31 27 32 28 33
REMARK SMILES IDX 29 34 30 35 31 36 32 37 33 38 85 39 34 40 84 41 35 42 36 43
REMARK SMILES IDX 37 44 78 45 38 46 83 47 77 48 79 49 39 50 82 51 76 52 75 53
REMARK SMILES IDX 40 55 66 56 49 57 65 58 50 59 53 60 64 61 80 62 51 63 52 64
REMARK SMILES IDX 63 66 81 67 54 68 41 69 42 70 47 71 43 72 44 73 46 74 48 75
REMARK SMILES IDX 45 76 67 77 68 78 73 79 69 80 70 81 72 82 74 83 71 84 55 85
REMARK SMILES IDX 56 86 61 87 57 88 58 89 60 90 62 91 59 92
REMARK H PARENT 8 18 79 54 53 65
REMARK Flexibility Score: inf
ROOT
ATOM      1  C   UNL A   1      40.322  22.325  27.239  1.00  0.00     0.188 C 
ENDROOT
BRANCH   1   2
ATOM      2  O   UNL A   1      39.829  23.143  26.188  1.00  0.00    -0.376 OA
BRANCH   2   3
ATOM      3  C   UNL A   1      38.455  23.513  26.162  1.00  0.00     0.202 C 
BRANCH   3   4
ATOM      4  C   UNL A   1      37.439  22.725  25.317  1.00  0.00     0.261 C 
BRANCH   4   5
ATOM      5  O   UNL A   1      36.782  21.660  26.016  1.00  0.00    -0.460 OA
BRANCH   5   6
ATOM      6  C   UNL A   1      36.296  20.659  25.241  1.00  0.00     0.338 C 
ATOM      7  O   UNL A   1      36.914  19.710  24.787  1.00  0.00    -0.246 OA
BRANCH   6   8
ATOM      8  C   UNL A   1      34.818  20.748  25.208  1.00  0.00     0.060 A 
ATOM      9  C   UNL A   1      32.716  21.787  25.848  1.00  0.00    -0.038 A 
ATOM     10  C   UNL A   1      32.035  20.740  25.198  1.00  0.00     0.004 A 
ATOM     11  C   UNL A   1      34.122  21.771  25.861  1.00  0.00     0.020 A 
ATOM     12  C   UNL A   1      32.733  19.719  24.554  1.00  0.00     0.001 A 
ATOM     13  C   UNL A   1      34.123  19.731  24.543  1.00  0.00     0.016 A 
BRANCH   9  14
ATOM     14  C   UNL A   1      31.979  23.017  26.366  1.00  0.00     0.074 C 
ATOM     15  N   UNL A   1      31.634  25.438  25.715  1.00  0.00    -0.331 N 
ATOM     16  C   UNL A   1      30.180  25.271  25.822  1.00  0.00     0.262 C 
ATOM     17  C   UNL A   1      32.301  24.170  25.394  1.00  0.00     0.270 C 
ATOM     18  H   UNL A   1      31.953  25.732  26.638  1.00  0.00     0.348 HD
ATOM     19  C   UNL A   1      29.812  24.199  26.853  1.00  0.00     0.062 C 
ATOM     20  C   UNL A   1      30.458  22.853  26.514  1.00  0.00     0.020 C 
BRANCH  15  21
ATOM     21  C   UNL A   1      32.033  26.519  24.785  1.00  0.00     0.302 C 
BRANCH  21  22
ATOM     22  C   UNL A   1      32.189  26.129  23.343  1.00  0.00     0.043 A 
ATOM     23  C   UNL A   1      32.569  25.697  20.681  1.00  0.00     0.127 A 
ATOM     24  N   UNL A   1      33.608  25.480  21.511  1.00  0.00    -0.241 NA
ATOM     25  N   UNL A   1      31.341  26.066  21.087  1.00  0.00    -0.241 NA
ATOM     26  C   UNL A   1      33.387  25.688  22.824  1.00  0.00     0.124 A 
ATOM     27  C   UNL A   1      31.179  26.259  22.411  1.00  0.00     0.124 A 
BRANCH  23  28
ATOM     28  C   UNL A   1      32.818  25.677  19.197  1.00  0.00     0.074 C 
ATOM     29  C   UNL A   1      31.586  25.334  18.375  1.00  0.00     0.012 C 
ENDBRANCH  23  28
ENDBRANCH  21  22
ENDBRANCH  15  21
ENDBRANCH   9  14
ENDBRANCH   6   8
ENDBRANCH   5   6
ENDBRANCH   4   5
ENDBRANCH   3   4
ENDBRANCH   2   3
ENDBRANCH   1   2
BRANCH   1  30
ATOM     30  C   UNL A   1      40.759  20.873  26.957  1.00  0.00     0.188 C 
BRANCH  30  31
ATOM     31  O   UNL A   1      41.680  20.709  25.908  1.00  0.00    -0.376 OA
BRANCH  31  32
ATOM     32  C   UNL A   1      43.016  21.155  26.053  1.00  0.00     0.202 C 
BRANCH  32  33
ATOM     33  C   UNL A   1      43.786  22.057  25.065  1.00  0.00     0.261 C 
BRANCH  33  34
ATOM     34  O   UNL A   1      43.296  23.376  24.809  1.00  0.00    -0.460 OA
BRANCH  34  35
ATOM     35  C   UNL A   1      44.123  24.395  25.142  1.00  0.00     0.338 C 
ATOM     36  O   UNL A   1      45.214  24.651  24.665  1.00  0.00    -0.246 OA
BRANCH  35  37
ATOM     37  C   UNL A   1      43.418  25.280  26.089  1.00  0.00     0.060 A 
ATOM     38  C   UNL A   1      43.721  26.647  26.092  1.00  0.00     0.016 A 
ATOM     39  C   UNL A   1      42.492  24.756  26.993  1.00  0.00     0.016 A 
ATOM     40  C   UNL A   1      43.111  27.495  27.017  1.00  0.00     0.010 A 
ATOM     41  C   UNL A   1      41.896  25.603  27.932  1.00  0.00     0.010 A 
ATOM     42  C   UNL A   1      42.222  26.972  27.967  1.00  0.00    -0.014 A 
BRANCH  42  43
ATOM     43  C   UNL A   1      41.756  27.818  29.093  1.00  0.00     0.031 A 
ATOM     44  C   UNL A   1      42.491  27.744  30.404  1.00  0.00     0.074 A 
ATOM     45  C   UNL A   1      40.709  28.652  28.956  1.00  0.00     0.049 A 
ATOM     46  N   UNL A   1      42.225  28.331  31.543  1.00  0.00    -0.248 NA
ATOM     47  C   UNL A   1      43.692  26.891  30.434  1.00  0.00     0.031 C 
ATOM     48  C   UNL A   1      39.938  28.849  27.730  1.00  0.00     0.029 A 
ATOM     49  N   UNL A   1      40.106  29.481  29.870  1.00  0.00    -0.354 N 
ATOM     50  C   UNL A   1      43.221  27.923  32.421  1.00  0.00     0.074 A 
ATOM     51  C   UNL A   1      44.079  27.011  31.695  1.00  0.00     0.031 C 
ATOM     52  C   UNL A   1      38.949  29.729  27.974  1.00  0.00     0.029 A 
ATOM     53  C   UNL A   1      38.998  30.128  29.380  1.00  0.00     0.049 A 
ATOM     54  H   UNL A   1      40.437  29.600  30.791  1.00  0.00     0.167 HD
ATOM     55  C   UNL A   1      43.413  28.285  33.711  1.00  0.00     0.037 A 
ATOM     56  C   UNL A   1      38.110  30.927  30.004  1.00  0.00     0.037 A 
ATOM     57  C   UNL A   1      42.557  29.184  34.438  1.00  0.00     0.049 A 
ATOM     58  C   UNL A   1      38.296  31.241  31.469  1.00  0.00     0.074 A 
ATOM     59  C   UNL A   1      42.665  29.603  35.753  1.00  0.00     0.029 A 
ATOM     60  N   UNL A   1      41.433  29.801  33.913  1.00  0.00    -0.354 N 
ATOM     61  N   UNL A   1      39.250  30.862  32.285  1.00  0.00    -0.248 NA
ATOM     62  C   UNL A   1      37.278  32.097  32.099  1.00  0.00     0.031 C 
ATOM     63  C   UNL A   1      41.581  30.440  36.036  1.00  0.00     0.029 A 
ATOM     64  C   UNL A   1      40.830  30.586  34.883  1.00  0.00     0.049 A 
ATOM     65  H   UNL A   1      41.112  29.699  32.988  1.00  0.00     0.167 HD
ATOM     66  C   UNL A   1      38.968  31.464  33.507  1.00  0.00     0.074 A 
ATOM     67  C   UNL A   1      37.763  32.243  33.322  1.00  0.00     0.031 C 
ATOM     68  C   UNL A   1      39.645  31.377  34.678  1.00  0.00     0.037 A 
BRANCH  55  69
ATOM     69  C   UNL A   1      44.594  27.701  34.429  1.00  0.00     0.057 A 
ATOM     70  C   UNL A   1      45.830  28.357  34.463  1.00  0.00     0.134 A 
ATOM     71  C   UNL A   1      44.476  26.503  35.145  1.00  0.00     0.134 A 
ATOM     72  F   UNL A   1      46.013  29.501  33.786  1.00  0.00    -0.206 F 
ATOM     73  C   UNL A   1      46.913  27.837  35.176  1.00  0.00     0.040 A 
ATOM     74  C   UNL A   1      45.543  25.986  35.881  1.00  0.00     0.040 A 
ATOM     75  F   UNL A   1      43.317  25.827  35.156  1.00  0.00    -0.206 F 
ATOM     76  C   UNL A   1      46.766  26.653  35.896  1.00  0.00     0.006 A 
ENDBRANCH  55  69
BRANCH  56  77
ATOM     77  C   UNL A   1      36.936  31.473  29.272  1.00  0.00     0.057 A 
ATOM     78  C   UNL A   1      35.826  30.673  28.974  1.00  0.00     0.134 A 
ATOM     79  C   UNL A   1      36.929  32.788  28.789  1.00  0.00     0.134 A 
ATOM     80  F   UNL A   1      35.784  29.397  29.385  1.00  0.00    -0.206 F 
ATOM     81  C   UNL A   1      34.771  31.147  28.192  1.00  0.00     0.040 A 
ATOM     82  C   UNL A   1      35.866  33.284  28.031  1.00  0.00     0.040 A 
ATOM     83  F   UNL A   1      37.962  33.606  29.036  1.00  0.00    -0.206 F 
ATOM     84  C   UNL A   1      34.789  32.458  27.720  1.00  0.00     0.006 A 
ENDBRANCH  56  77
BRANCH  68  85
ATOM     85  C   UNL A   1      39.135  32.188  35.835  1.00  0.00     0.057 A 
ATOM     86  C   UNL A   1      38.254  31.658  36.786  1.00  0.00     0.134 A 
ATOM     87  C   UNL A   1      39.567  33.509  36.022  1.00  0.00     0.134 A 
ATOM     88  F   UNL A   1      37.794  30.404  36.662  1.00  0.00    -0.206 F 
ATOM     89  C   UNL A   1      37.797  32.420  37.863  1.00  0.00     0.040 A 
ATOM     90  C   UNL A   1      39.142  34.270  37.110  1.00  0.00     0.040 A 
ATOM     91  F   UNL A   1      40.420  34.075  35.155  1.00  0.00    -0.206 F 
ATOM     92  C   UNL A   1      38.248  33.729  38.031  1.00  0.00     0.006 A 
ENDBRANCH  68  85
ENDBRANCH  42  43
ENDBRANCH  35  37
ENDBRANCH  34  35
ENDBRANCH  33  34
ENDBRANCH  32  33
ENDBRANCH  31  32
ENDBRANCH  30  31
ENDBRANCH   1  30
TORSDOF 21
ENDMDL
