MODEL 1
REMARK VINA RESULT:     -10.7      0.000      0.000
REMARK SMILES Nc1cc(F)c(OCc2ccc(C(=O)OCCOCCOCCOC(=O)c3ccc(-c4c5nc(c(-c6c(F)cccc6F)c6ccc([nH]6)c(-c6c(F)cccc6F)c6nc(c(-c7c(F)cccc7F)c7ccc4[nH]7)C=C6)C=C5)cc3)cc2)cc1F
REMARK SMILES IDX 19 1 18 2 17 3 16 4 15 5 13 6 14 7 12 8 9 9 10 10 82 11
REMARK SMILES IDX 11 12 81 13 8 14 7 15 6 16 2 17 3 18 84 19 4 20 83 21 85 22
REMARK SMILES IDX 5 23 1 24 20 27 21 28 22 29 23 30 24 31 25 32 26 33 27 34
REMARK SMILES IDX 28 35 80 36 29 37 79 38 30 39 31 40 32 41 73 42 33 43 78 44
REMARK SMILES IDX 72 45 74 46 34 47 77 48 71 49 70 50 35 52 61 53 44 54 60 55
REMARK SMILES IDX 45 56 48 57 59 58 75 59 46 60 47 61 58 63 76 64 49 65 36 66
REMARK SMILES IDX 37 67 42 68 38 69 39 70 41 71 43 72 40 73 62 74 63 75 68 76
REMARK SMILES IDX 64 77 65 78 67 79 69 80 66 81 50 82 51 83 56 84 52 85 53 86
REMARK SMILES IDX 55 87 57 88 54 89
REMARK H PARENT 1 25 1 26 74 51 48 62
REMARK Flexibility Score: inf
ROOT
ATOM      1  C   UNL A   1      44.569  18.691  25.188  1.00  0.00     0.188 C 
ENDROOT
BRANCH   1   2
ATOM      2  O   UNL A   1      43.615  18.887  26.210  1.00  0.00    -0.376 OA
BRANCH   2   3
ATOM      3  C   UNL A   1      42.244  19.077  25.900  1.00  0.00     0.202 C 
BRANCH   3   4
ATOM      4  C   UNL A   1      41.276  19.908  26.755  1.00  0.00     0.261 C 
BRANCH   4   5
ATOM      5  O   UNL A   1      40.308  20.669  26.027  1.00  0.00    -0.460 OA
BRANCH   5   6
ATOM      6  C   UNL A   1      39.809  21.742  26.692  1.00  0.00     0.338 C 
ATOM      7  O   UNL A   1      40.327  22.338  27.621  1.00  0.00    -0.246 OA
BRANCH   6   8
ATOM      8  C   UNL A   1      38.632  22.260  25.970  1.00  0.00     0.060 A 
ATOM      9  C   UNL A   1      36.395  23.124  24.533  1.00  0.00    -0.011 A 
ATOM     10  C   UNL A   1      36.787  21.779  24.484  1.00  0.00     0.008 A 
ATOM     11  C   UNL A   1      37.073  24.008  25.391  1.00  0.00     0.008 A 
ATOM     12  C   UNL A   1      37.920  21.357  25.171  1.00  0.00     0.016 A 
ATOM     13  C   UNL A   1      38.191  23.579  26.111  1.00  0.00     0.016 A 
BRANCH   9  14
ATOM     14  C   UNL A   1      35.305  23.647  23.615  1.00  0.00     0.265 C 
BRANCH  14  15
ATOM     15  O   UNL A   1      34.110  24.061  24.294  1.00  0.00    -0.486 OA
BRANCH  15  16
ATOM     16  C   UNL A   1      33.855  25.398  24.457  1.00  0.00     0.158 A 
ATOM     17  C   UNL A   1      33.430  28.196  24.485  1.00  0.00     0.071 A 
ATOM     18  C   UNL A   1      33.284  27.474  23.303  1.00  0.00     0.071 A 
ATOM     19  C   UNL A   1      33.803  27.497  25.641  1.00  0.00     0.149 A 
ATOM     20  C   UNL A   1      33.490  26.093  23.297  1.00  0.00     0.167 A 
ATOM     21  C   UNL A   1      33.986  26.114  25.644  1.00  0.00     0.091 A 
ATOM     22  F   UNL A   1      33.995  28.171  26.786  1.00  0.00    -0.205 F 
ATOM     23  F   UNL A   1      33.361  25.435  22.135  1.00  0.00    -0.203 F 
BRANCH  17  24
ATOM     24  N   UNL A   1      33.322  29.581  24.491  1.00  0.00    -0.396 N 
ATOM     25  H   UNL A   1      33.870  30.113  25.112  1.00  0.00     0.156 HD
ATOM     26  H   UNL A   1      32.699  30.029  23.876  1.00  0.00     0.156 HD
ENDBRANCH  17  24
ENDBRANCH  15  16
ENDBRANCH  14  15
ENDBRANCH   9  14
ENDBRANCH   6   8
ENDBRANCH   5   6
ENDBRANCH   4   5
ENDBRANCH   3   4
ENDBRANCH   2   3
ENDBRANCH   1   2
BRANCH   1  27
ATOM     27  C   UNL A   1      44.932  19.842  24.228  1.00  0.00     0.188 C 
BRANCH  27  28
ATOM     28  O   UNL A   1      45.790  20.886  24.636  1.00  0.00    -0.376 OA
BRANCH  28  29
ATOM     29  C   UNL A   1      45.332  21.855  25.565  1.00  0.00     0.202 C 
BRANCH  29  30
ATOM     30  C   UNL A   1      43.887  22.373  25.597  1.00  0.00     0.261 C 
BRANCH  30  31
ATOM     31  O   UNL A   1      43.621  23.541  24.812  1.00  0.00    -0.460 OA
BRANCH  31  32
ATOM     32  C   UNL A   1      44.400  24.619  25.098  1.00  0.00     0.338 C 
ATOM     33  O   UNL A   1      45.390  24.996  24.513  1.00  0.00    -0.246 OA
BRANCH  32  34
ATOM     34  C   UNL A   1      43.734  25.403  26.158  1.00  0.00     0.060 A 
ATOM     35  C   UNL A   1      42.629  24.885  26.829  1.00  0.00     0.016 A 
ATOM     36  C   UNL A   1      44.238  26.671  26.479  1.00  0.00     0.016 A 
ATOM     37  C   UNL A   1      42.032  25.638  27.842  1.00  0.00     0.010 A 
ATOM     38  C   UNL A   1      43.630  27.428  27.481  1.00  0.00     0.010 A 
ATOM     39  C   UNL A   1      42.532  26.908  28.182  1.00  0.00    -0.014 A 
BRANCH  39  40
ATOM     40  C   UNL A   1      41.995  27.614  29.369  1.00  0.00     0.031 A 
ATOM     41  C   UNL A   1      42.646  27.513  30.715  1.00  0.00     0.074 A 
ATOM     42  C   UNL A   1      40.892  28.369  29.209  1.00  0.00     0.049 A 
ATOM     43  N   UNL A   1      42.359  28.161  31.816  1.00  0.00    -0.248 NA
ATOM     44  C   UNL A   1      43.755  26.559  30.845  1.00  0.00     0.031 C 
ATOM     45  C   UNL A   1      40.149  28.512  27.956  1.00  0.00     0.029 A 
ATOM     46  N   UNL A   1      40.213  29.162  30.096  1.00  0.00    -0.354 N 
ATOM     47  C   UNL A   1      43.269  27.719  32.767  1.00  0.00     0.074 A 
ATOM     48  C   UNL A   1      44.080  26.703  32.124  1.00  0.00     0.031 C 
ATOM     49  C   UNL A   1      39.133  29.368  28.147  1.00  0.00     0.029 A 
ATOM     50  C   UNL A   1      39.140  29.812  29.537  1.00  0.00     0.049 A 
ATOM     51  H   UNL A   1      40.467  29.257  31.042  1.00  0.00     0.167 HD
ATOM     52  C   UNL A   1      43.421  28.135  34.049  1.00  0.00     0.037 A 
ATOM     53  C   UNL A   1      38.266  30.677  30.082  1.00  0.00     0.037 A 
ATOM     54  C   UNL A   1      42.585  29.121  34.692  1.00  0.00     0.049 A 
ATOM     55  C   UNL A   1      38.423  31.076  31.522  1.00  0.00     0.074 A 
ATOM     56  C   UNL A   1      42.685  29.633  35.976  1.00  0.00     0.029 A 
ATOM     57  N   UNL A   1      41.482  29.727  34.110  1.00  0.00    -0.354 N 
ATOM     58  N   UNL A   1      39.346  30.724  32.383  1.00  0.00    -0.248 NA
ATOM     59  C   UNL A   1      37.419  32.001  32.062  1.00  0.00     0.031 C 
ATOM     60  C   UNL A   1      41.610  30.503  36.188  1.00  0.00     0.029 A 
ATOM     61  C   UNL A   1      40.872  30.581  35.019  1.00  0.00     0.049 A 
ATOM     62  H   UNL A   1      41.174  29.574  33.188  1.00  0.00     0.167 HD
ATOM     63  C   UNL A   1      39.052  31.407  33.556  1.00  0.00     0.074 A 
ATOM     64  C   UNL A   1      37.877  32.209  33.288  1.00  0.00     0.031 C 
ATOM     65  C   UNL A   1      39.698  31.373  34.748  1.00  0.00     0.037 A 
BRANCH  52  66
ATOM     66  C   UNL A   1      44.536  27.520  34.847  1.00  0.00     0.057 A 
ATOM     67  C   UNL A   1      45.785  28.147  34.944  1.00  0.00     0.134 A 
ATOM     68  C   UNL A   1      44.386  26.280  35.484  1.00  0.00     0.134 A 
ATOM     69  F   UNL A   1      46.004  29.328  34.347  1.00  0.00    -0.206 F 
ATOM     70  C   UNL A   1      46.841  27.564  35.647  1.00  0.00     0.040 A 
ATOM     71  C   UNL A   1      45.427  25.701  36.213  1.00  0.00     0.040 A 
ATOM     72  F   UNL A   1      43.216  25.626  35.431  1.00  0.00    -0.206 F 
ATOM     73  C   UNL A   1      46.662  26.341  36.290  1.00  0.00     0.006 A 
ENDBRANCH  52  66
BRANCH  53  74
ATOM     74  C   UNL A   1      37.171  31.245  29.257  1.00  0.00     0.057 A 
ATOM     75  C   UNL A   1      36.015  30.509  28.973  1.00  0.00     0.134 A 
ATOM     76  C   UNL A   1      37.245  32.552  28.759  1.00  0.00     0.134 A 
ATOM     77  F   UNL A   1      35.889  29.249  29.414  1.00  0.00    -0.206 F 
ATOM     78  C   UNL A   1      34.971  31.051  28.223  1.00  0.00     0.040 A 
ATOM     79  C   UNL A   1      36.195  33.116  28.033  1.00  0.00     0.040 A 
ATOM     80  F   UNL A   1      38.320  33.312  29.014  1.00  0.00    -0.206 F 
ATOM     81  C   UNL A   1      35.055  32.363  27.761  1.00  0.00     0.006 A 
ENDBRANCH  53  74
BRANCH  65  82
ATOM     82  C   UNL A   1      39.161  32.256  35.840  1.00  0.00     0.057 A 
ATOM     83  C   UNL A   1      38.229  31.762  36.762  1.00  0.00     0.134 A 
ATOM     84  C   UNL A   1      39.561  33.591  35.980  1.00  0.00     0.134 A 
ATOM     85  F   UNL A   1      37.796  30.495  36.684  1.00  0.00    -0.206 F 
ATOM     86  C   UNL A   1      37.717  32.564  37.784  1.00  0.00     0.040 A 
ATOM     87  C   UNL A   1      39.081  34.392  37.019  1.00  0.00     0.040 A 
ATOM     88  F   UNL A   1      40.465  34.123  35.143  1.00  0.00    -0.206 F 
ATOM     89  C   UNL A   1      38.153  33.881  37.921  1.00  0.00     0.006 A 
ENDBRANCH  65  82
ENDBRANCH  39  40
ENDBRANCH  32  34
ENDBRANCH  31  32
ENDBRANCH  30  31
ENDBRANCH  29  30
ENDBRANCH  28  29
ENDBRANCH  27  28
ENDBRANCH   1  27
TORSDOF 21
ENDMDL
MODEL 2
REMARK VINA RESULT:     -10.5      5.181     10.788
REMARK SMILES Nc1cc(F)c(OCc2ccc(C(=O)OCCOCCOCCOC(=O)c3ccc(-c4c5nc(c(-c6c(F)cccc6F)c6ccc([nH]6)c(-c6c(F)cccc6F)c6nc(c(-c7c(F)cccc7F)c7ccc4[nH]7)C=C6)C=C5)cc3)cc2)cc1F
REMARK SMILES IDX 19 1 18 2 17 3 16 4 15 5 13 6 14 7 12 8 9 9 10 10 82 11
REMARK SMILES IDX 11 12 81 13 8 14 7 15 6 16 2 17 3 18 84 19 4 20 83 21 85 22
REMARK SMILES IDX 5 23 1 24 20 27 21 28 22 29 23 30 24 31 25 32 26 33 27 34
REMARK SMILES IDX 28 35 80 36 29 37 79 38 30 39 31 40 32 41 73 42 33 43 78 44
REMARK SMILES IDX 72 45 74 46 34 47 77 48 71 49 70 50 35 52 61 53 44 54 60 55
REMARK SMILES IDX 45 56 48 57 59 58 75 59 46 60 47 61 58 63 76 64 49 65 36 66
REMARK SMILES IDX 37 67 42 68 38 69 39 70 41 71 43 72 40 73 62 74 63 75 68 76
REMARK SMILES IDX 64 77 65 78 67 79 69 80 66 81 50 82 51 83 56 84 52 85 53 86
REMARK SMILES IDX 55 87 57 88 54 89
REMARK H PARENT 1 25 1 26 74 51 48 62
REMARK Flexibility Score: inf
ROOT
ATOM      1  C   UNL A   1      32.904  35.984  29.651  1.00  0.00     0.188 C 
ENDROOT
BRANCH   1   2
ATOM      2  O   UNL A   1      32.599  34.683  29.199  1.00  0.00    -0.376 OA
BRANCH   2   3
ATOM      3  C   UNL A   1      33.411  34.040  28.229  1.00  0.00     0.202 C 
BRANCH   3   4
ATOM      4  C   UNL A   1      33.957  32.612  28.375  1.00  0.00     0.261 C 
BRANCH   4   5
ATOM      5  O   UNL A   1      33.318  31.622  27.563  1.00  0.00    -0.460 OA
BRANCH   5   6
ATOM      6  C   UNL A   1      34.071  30.522  27.309  1.00  0.00     0.338 C 
ATOM      7  O   UNL A   1      35.233  30.336  27.625  1.00  0.00    -0.246 OA
BRANCH   6   8
ATOM      8  C   UNL A   1      33.204  29.445  26.792  1.00  0.00     0.060 A 
ATOM      9  C   UNL A   1      31.588  27.451  25.686  1.00  0.00    -0.011 A 
ATOM     10  C   UNL A   1      32.435  28.207  24.864  1.00  0.00     0.008 A 
ATOM     11  C   UNL A   1      31.637  27.634  27.079  1.00  0.00     0.008 A 
ATOM     12  C   UNL A   1      33.214  29.222  25.410  1.00  0.00     0.016 A 
ATOM     13  C   UNL A   1      32.444  28.630  27.635  1.00  0.00     0.016 A 
BRANCH   9  14
ATOM     14  C   UNL A   1      30.570  26.500  25.083  1.00  0.00     0.265 C 
BRANCH  14  15
ATOM     15  O   UNL A   1      31.141  25.334  24.470  1.00  0.00    -0.486 OA
BRANCH  15  16
ATOM     16  C   UNL A   1      32.093  24.614  25.147  1.00  0.00     0.158 A 
ATOM     17  C   UNL A   1      33.861  23.151  26.802  1.00  0.00     0.071 A 
ATOM     18  C   UNL A   1      32.485  23.087  27.012  1.00  0.00     0.071 A 
ATOM     19  C   UNL A   1      34.330  23.967  25.764  1.00  0.00     0.149 A 
ATOM     20  C   UNL A   1      31.618  23.807  26.188  1.00  0.00     0.167 A 
ATOM     21  C   UNL A   1      33.466  24.669  24.924  1.00  0.00     0.091 A 
ATOM     22  F   UNL A   1      35.653  24.084  25.564  1.00  0.00    -0.205 F 
ATOM     23  F   UNL A   1      30.301  23.738  26.435  1.00  0.00    -0.203 F 
BRANCH  17  24
ATOM     24  N   UNL A   1      34.743  22.519  27.669  1.00  0.00    -0.396 N 
ATOM     25  H   UNL A   1      35.394  21.868  27.319  1.00  0.00     0.156 HD
ATOM     26  H   UNL A   1      34.717  22.720  28.631  1.00  0.00     0.156 HD
ENDBRANCH  17  24
ENDBRANCH  15  16
ENDBRANCH  14  15
ENDBRANCH   9  14
ENDBRANCH   6   8
ENDBRANCH   5   6
ENDBRANCH   4   5
ENDBRANCH   3   4
ENDBRANCH   2   3
ENDBRANCH   1   2
BRANCH   1  27
ATOM     27  C   UNL A   1      32.904  36.307  31.160  1.00  0.00     0.188 C 
BRANCH  27  28
ATOM     28  O   UNL A   1      32.594  35.316  32.116  1.00  0.00    -0.376 OA
BRANCH  28  29
ATOM     29  C   UNL A   1      33.635  34.564  32.717  1.00  0.00     0.202 C 
BRANCH  29  30
ATOM     30  C   UNL A   1      34.847  34.033  31.938  1.00  0.00     0.261 C 
BRANCH  30  31
ATOM     31  O   UNL A   1      35.108  32.630  32.061  1.00  0.00    -0.460 OA
BRANCH  31  32
ATOM     32  C   UNL A   1      36.113  32.303  32.920  1.00  0.00     0.338 C 
ATOM     33  O   UNL A   1      36.095  32.333  34.129  1.00  0.00    -0.246 OA
BRANCH  32  34
ATOM     34  C   UNL A   1      37.214  31.706  32.137  1.00  0.00     0.060 A 
ATOM     35  C   UNL A   1      37.137  31.641  30.747  1.00  0.00     0.016 A 
ATOM     36  C   UNL A   1      38.337  31.213  32.816  1.00  0.00     0.016 A 
ATOM     37  C   UNL A   1      38.202  31.092  30.030  1.00  0.00     0.010 A 
ATOM     38  C   UNL A   1      39.392  30.649  32.098  1.00  0.00     0.010 A 
ATOM     39  C   UNL A   1      39.339  30.602  30.698  1.00  0.00    -0.014 A 
BRANCH  39  40
ATOM     40  C   UNL A   1      40.525  30.182  29.914  1.00  0.00     0.031 A 
ATOM     41  C   UNL A   1      41.664  31.115  29.637  1.00  0.00     0.074 A 
ATOM     42  C   UNL A   1      40.562  28.918  29.453  1.00  0.00     0.049 A 
ATOM     43  N   UNL A   1      42.814  30.859  29.067  1.00  0.00    -0.248 NA
ATOM     44  C   UNL A   1      41.488  32.515  30.045  1.00  0.00     0.031 C 
ATOM     45  C   UNL A   1      39.495  27.931  29.626  1.00  0.00     0.029 A 
ATOM     46  N   UNL A   1      41.533  28.246  28.757  1.00  0.00    -0.354 N 
ATOM     47  C   UNL A   1      43.517  32.056  29.071  1.00  0.00     0.074 A 
ATOM     48  C   UNL A   1      42.636  33.053  29.650  1.00  0.00     0.031 C 
ATOM     49  C   UNL A   1      39.883  26.769  29.077  1.00  0.00     0.029 A 
ATOM     50  C   UNL A   1      41.210  26.937  28.496  1.00  0.00     0.049 A 
ATOM     51  H   UNL A   1      42.379  28.661  28.472  1.00  0.00     0.167 HD
ATOM     52  C   UNL A   1      44.783  32.295  28.646  1.00  0.00     0.037 A 
ATOM     53  C   UNL A   1      41.911  25.977  27.866  1.00  0.00     0.037 A 
ATOM     54  C   UNL A   1      45.641  31.306  28.037  1.00  0.00     0.049 A 
ATOM     55  C   UNL A   1      43.289  26.286  27.353  1.00  0.00     0.074 A 
ATOM     56  C   UNL A   1      46.950  31.445  27.608  1.00  0.00     0.029 A 
ATOM     57  N   UNL A   1      45.267  30.002  27.749  1.00  0.00    -0.354 N 
ATOM     58  N   UNL A   1      43.980  27.396  27.450  1.00  0.00    -0.248 NA
ATOM     59  C   UNL A   1      43.987  25.202  26.651  1.00  0.00     0.031 C 
ATOM     60  C   UNL A   1      47.348  30.243  27.009  1.00  0.00     0.029 A 
ATOM     61  C   UNL A   1      46.308  29.336  27.117  1.00  0.00     0.049 A 
ATOM     62  H   UNL A   1      44.391  29.605  27.959  1.00  0.00     0.167 HD
ATOM     63  C   UNL A   1      45.204  27.135  26.848  1.00  0.00     0.074 A 
ATOM     64  C   UNL A   1      45.167  25.756  26.408  1.00  0.00     0.031 C 
ATOM     65  C   UNL A   1      46.263  27.964  26.676  1.00  0.00     0.037 A 
BRANCH  52  66
ATOM     66  C   UNL A   1      45.320  33.687  28.823  1.00  0.00     0.057 A 
ATOM     67  C   UNL A   1      45.206  34.639  27.803  1.00  0.00     0.134 A 
ATOM     68  C   UNL A   1      45.995  34.072  29.991  1.00  0.00     0.134 A 
ATOM     69  F   UNL A   1      44.586  34.336  26.653  1.00  0.00    -0.206 F 
ATOM     70  C   UNL A   1      45.739  35.923  27.939  1.00  0.00     0.040 A 
ATOM     71  C   UNL A   1      46.509  35.360  30.149  1.00  0.00     0.040 A 
ATOM     72  F   UNL A   1      46.140  33.208  31.007  1.00  0.00    -0.206 F 
ATOM     73  C   UNL A   1      46.386  36.289  29.117  1.00  0.00     0.006 A 
ENDBRANCH  52  66
BRANCH  53  74
ATOM     74  C   UNL A   1      41.331  24.621  27.701  1.00  0.00     0.057 A 
ATOM     75  C   UNL A   1      40.337  24.364  26.750  1.00  0.00     0.134 A 
ATOM     76  C   UNL A   1      41.781  23.544  28.473  1.00  0.00     0.134 A 
ATOM     77  F   UNL A   1      39.858  25.357  25.986  1.00  0.00    -0.206 F 
ATOM     78  C   UNL A   1      39.811  23.085  26.572  1.00  0.00     0.040 A 
ATOM     79  C   UNL A   1      41.285  22.253  28.285  1.00  0.00     0.040 A 
ATOM     80  F   UNL A   1      42.744  23.725  29.389  1.00  0.00    -0.206 F 
ATOM     81  C   UNL A   1      40.294  22.023  27.334  1.00  0.00     0.006 A 
ENDBRANCH  53  74
BRANCH  65  82
ATOM     82  C   UNL A   1      47.480  27.385  26.010  1.00  0.00     0.057 A 
ATOM     83  C   UNL A   1      48.512  26.823  26.773  1.00  0.00     0.134 A 
ATOM     84  C   UNL A   1      47.635  27.382  24.617  1.00  0.00     0.134 A 
ATOM     85  F   UNL A   1      48.435  26.797  28.112  1.00  0.00    -0.206 F 
ATOM     86  C   UNL A   1      49.651  26.279  26.175  1.00  0.00     0.040 A 
ATOM     87  C   UNL A   1      48.754  26.811  24.007  1.00  0.00     0.040 A 
ATOM     88  F   UNL A   1      46.676  27.887  23.825  1.00  0.00    -0.206 F 
ATOM     89  C   UNL A   1      49.768  26.263  24.787  1.00  0.00     0.006 A 
ENDBRANCH  65  82
ENDBRANCH  39  40
ENDBRANCH  32  34
ENDBRANCH  31  32
ENDBRANCH  30  31
ENDBRANCH  29  30
ENDBRANCH  28  29
ENDBRANCH  27  28
ENDBRANCH   1  27
TORSDOF 21
ENDMDL
MODEL 3
REMARK VINA RESULT:     -10.5      1.352      6.167
REMARK SMILES Nc1cc(F)c(OCc2ccc(C(=O)OCCOCCOCCOC(=O)c3ccc(-c4c5nc(c(-c6c(F)cccc6F)c6ccc([nH]6)c(-c6c(F)cccc6F)c6nc(c(-c7c(F)cccc7F)c7ccc4[nH]7)C=C6)C=C5)cc3)cc2)cc1F
REMARK SMILES IDX 19 1 18 2 17 3 16 4 15 5 13 6 14 7 12 8 9 9 10 10 82 11
REMARK SMILES IDX 11 12 81 13 8 14 7 15 6 16 2 17 3 18 84 19 4 20 83 21 85 22
REMARK SMILES IDX 5 23 1 24 20 27 21 28 22 29 23 30 24 31 25 32 26 33 27 34
REMARK SMILES IDX 28 35 80 36 29 37 79 38 30 39 31 40 32 41 73 42 33 43 78 44
REMARK SMILES IDX 72 45 74 46 34 47 77 48 71 49 70 50 35 52 61 53 44 54 60 55
REMARK SMILES IDX 45 56 48 57 59 58 75 59 46 60 47 61 58 63 76 64 49 65 36 66
REMARK SMILES IDX 37 67 42 68 38 69 39 70 41 71 43 72 40 73 62 74 63 75 68 76
REMARK SMILES IDX 64 77 65 78 67 79 69 80 66 81 50 82 51 83 56 84 52 85 53 86
REMARK SMILES IDX 55 87 57 88 54 89
REMARK H PARENT 1 25 1 26 74 51 48 62
REMARK Flexibility Score: inf
ROOT
ATOM      1  C   UNL A   1      44.958  18.486  25.278  1.00  0.00     0.188 C 
ENDROOT
BRANCH   1   2
ATOM      2  O   UNL A   1      43.624  18.833  24.979  1.00  0.00    -0.376 OA
BRANCH   2   3
ATOM      3  C   UNL A   1      42.628  18.835  25.990  1.00  0.00     0.202 C 
BRANCH   3   4
ATOM      4  C   UNL A   1      42.174  20.091  26.747  1.00  0.00     0.261 C 
BRANCH   4   5
ATOM      5  O   UNL A   1      41.168  20.873  26.097  1.00  0.00    -0.460 OA
BRANCH   5   6
ATOM      6  C   UNL A   1      40.428  21.652  26.926  1.00  0.00     0.338 C 
ATOM      7  O   UNL A   1      40.771  22.120  27.998  1.00  0.00    -0.246 OA
BRANCH   6   8
ATOM      8  C   UNL A   1      39.195  22.071  26.231  1.00  0.00     0.060 A 
ATOM      9  C   UNL A   1      36.868  22.751  24.841  1.00  0.00    -0.011 A 
ATOM     10  C   UNL A   1      37.404  21.461  24.728  1.00  0.00     0.008 A 
ATOM     11  C   UNL A   1      37.451  23.663  25.738  1.00  0.00     0.008 A 
ATOM     12  C   UNL A   1      38.581  21.133  25.393  1.00  0.00     0.016 A 
ATOM     13  C   UNL A   1      38.614  23.326  26.435  1.00  0.00     0.016 A 
BRANCH   9  14
ATOM     14  C   UNL A   1      35.721  23.194  23.951  1.00  0.00     0.265 C 
BRANCH  14  15
ATOM     15  O   UNL A   1      34.501  22.464  24.152  1.00  0.00    -0.486 OA
BRANCH  15  16
ATOM     16  C   UNL A   1      33.343  23.148  24.423  1.00  0.00     0.158 A 
ATOM     17  C   UNL A   1      30.931  24.609  24.663  1.00  0.00     0.071 A 
ATOM     18  C   UNL A   1      31.185  23.851  23.522  1.00  0.00     0.071 A 
ATOM     19  C   UNL A   1      31.908  24.631  25.667  1.00  0.00     0.149 A 
ATOM     20  C   UNL A   1      32.374  23.128  23.412  1.00  0.00     0.167 A 
ATOM     21  C   UNL A   1      33.087  23.892  25.573  1.00  0.00     0.091 A 
ATOM     22  F   UNL A   1      31.713  25.387  26.760  1.00  0.00    -0.205 F 
ATOM     23  F   UNL A   1      32.593  22.427  22.289  1.00  0.00    -0.203 F 
BRANCH  17  24
ATOM     24  N   UNL A   1      29.799  25.408  24.749  1.00  0.00    -0.396 N 
ATOM     25  H   UNL A   1      29.864  26.373  24.563  1.00  0.00     0.156 HD
ATOM     26  H   UNL A   1      28.934  25.011  24.996  1.00  0.00     0.156 HD
ENDBRANCH  17  24
ENDBRANCH  15  16
ENDBRANCH  14  15
ENDBRANCH   9  14
ENDBRANCH   6   8
ENDBRANCH   5   6
ENDBRANCH   4   5
ENDBRANCH   3   4
ENDBRANCH   2   3
ENDBRANCH   1   2
BRANCH   1  27
ATOM     27  C   UNL A   1      46.124  19.363  24.776  1.00  0.00     0.188 C 
BRANCH  27  28
ATOM     28  O   UNL A   1      46.412  20.605  25.381  1.00  0.00    -0.376 OA
BRANCH  28  29
ATOM     29  C   UNL A   1      45.555  21.714  25.163  1.00  0.00     0.202 C 
BRANCH  29  30
ATOM     30  C   UNL A   1      44.951  22.547  26.303  1.00  0.00     0.261 C 
BRANCH  30  31
ATOM     31  O   UNL A   1      43.804  23.335  25.966  1.00  0.00    -0.460 OA
BRANCH  31  32
ATOM     32  C   UNL A   1      44.069  24.626  25.626  1.00  0.00     0.338 C 
ATOM     33  O   UNL A   1      44.602  25.035  24.620  1.00  0.00    -0.246 OA
BRANCH  32  34
ATOM     34  C   UNL A   1      43.422  25.507  26.620  1.00  0.00     0.060 A 
ATOM     35  C   UNL A   1      42.444  25.007  27.476  1.00  0.00     0.016 A 
ATOM     36  C   UNL A   1      43.815  26.851  26.689  1.00  0.00     0.016 A 
ATOM     37  C   UNL A   1      41.864  25.856  28.420  1.00  0.00     0.010 A 
ATOM     38  C   UNL A   1      43.222  27.703  27.623  1.00  0.00     0.010 A 
ATOM     39  C   UNL A   1      42.255  27.205  28.507  1.00  0.00    -0.014 A 
BRANCH  39  40
ATOM     40  C   UNL A   1      41.755  28.042  29.624  1.00  0.00     0.031 A 
ATOM     41  C   UNL A   1      40.549  28.919  29.480  1.00  0.00     0.074 A 
ATOM     42  C   UNL A   1      42.415  27.991  30.796  1.00  0.00     0.049 A 
ATOM     43  N   UNL A   1      39.928  29.616  30.397  1.00  0.00    -0.248 NA
ATOM     44  C   UNL A   1      39.969  29.034  28.135  1.00  0.00     0.031 C 
ATOM     45  C   UNL A   1      43.625  27.205  31.043  1.00  0.00     0.029 A 
ATOM     46  N   UNL A   1      42.159  28.601  31.996  1.00  0.00    -0.354 N 
ATOM     47  C   UNL A   1      38.864  30.233  29.752  1.00  0.00     0.074 A 
ATOM     48  C   UNL A   1      38.962  29.870  28.351  1.00  0.00     0.031 C 
ATOM     49  C   UNL A   1      43.989  27.357  32.326  1.00  0.00     0.029 A 
ATOM     50  C   UNL A   1      43.055  28.266  32.981  1.00  0.00     0.049 A 
ATOM     51  H   UNL A   1      41.407  29.220  32.138  1.00  0.00     0.167 HD
ATOM     52  C   UNL A   1      37.891  31.014  30.284  1.00  0.00     0.037 A 
ATOM     53  C   UNL A   1      43.112  28.644  34.271  1.00  0.00     0.037 A 
ATOM     54  C   UNL A   1      37.822  31.401  31.673  1.00  0.00     0.049 A 
ATOM     55  C   UNL A   1      42.052  29.558  34.819  1.00  0.00     0.074 A 
ATOM     56  C   UNL A   1      36.854  32.159  32.311  1.00  0.00     0.029 A 
ATOM     57  N   UNL A   1      38.769  31.080  32.634  1.00  0.00    -0.354 N 
ATOM     58  N   UNL A   1      40.998  30.056  34.221  1.00  0.00    -0.248 NA
ATOM     59  C   UNL A   1      42.189  29.953  36.226  1.00  0.00     0.031 C 
ATOM     60  C   UNL A   1      37.245  32.344  33.642  1.00  0.00     0.029 A 
ATOM     61  C   UNL A   1      38.427  31.652  33.851  1.00  0.00     0.049 A 
ATOM     62  H   UNL A   1      39.568  30.527  32.477  1.00  0.00     0.167 HD
ATOM     63  C   UNL A   1      40.330  30.798  35.186  1.00  0.00     0.074 A 
ATOM     64  C   UNL A   1      41.089  30.668  36.413  1.00  0.00     0.031 C 
ATOM     65  C   UNL A   1      39.190  31.523  35.067  1.00  0.00     0.037 A 
BRANCH  52  66
ATOM     66  C   UNL A   1      36.817  31.509  29.356  1.00  0.00     0.057 A 
ATOM     67  C   UNL A   1      36.851  32.811  28.842  1.00  0.00     0.134 A 
ATOM     68  C   UNL A   1      35.721  30.707  29.006  1.00  0.00     0.134 A 
ATOM     69  F   UNL A   1      37.862  33.639  29.147  1.00  0.00    -0.206 F 
ATOM     70  C   UNL A   1      35.837  33.296  28.013  1.00  0.00     0.040 A 
ATOM     71  C   UNL A   1      34.715  31.171  28.156  1.00  0.00     0.040 A 
ATOM     72  F   UNL A   1      35.627  29.449  29.463  1.00  0.00    -0.206 F 
ATOM     73  C   UNL A   1      34.769  32.473  27.662  1.00  0.00     0.006 A 
ENDBRANCH  52  66
BRANCH  53  74
ATOM     74  C   UNL A   1      44.201  28.142  35.144  1.00  0.00     0.057 A 
ATOM     75  C   UNL A   1      44.059  26.961  35.881  1.00  0.00     0.134 A 
ATOM     76  C   UNL A   1      45.422  28.820  35.239  1.00  0.00     0.134 A 
ATOM     77  F   UNL A   1      42.909  26.271  35.840  1.00  0.00    -0.206 F 
ATOM     78  C   UNL A   1      45.091  26.470  36.680  1.00  0.00     0.040 A 
ATOM     79  C   UNL A   1      46.474  28.325  36.010  1.00  0.00     0.040 A 
ATOM     80  F   UNL A   1      45.624  29.948  34.543  1.00  0.00    -0.206 F 
ATOM     81  C   UNL A   1      46.307  27.147  36.737  1.00  0.00     0.006 A 
ENDBRANCH  53  74
BRANCH  65  82
ATOM     82  C   UNL A   1      38.681  32.202  36.308  1.00  0.00     0.057 A 
ATOM     83  C   UNL A   1      38.992  33.544  36.566  1.00  0.00     0.134 A 
ATOM     84  C   UNL A   1      37.887  31.534  37.249  1.00  0.00     0.134 A 
ATOM     85  F   UNL A   1      39.754  34.244  35.712  1.00  0.00    -0.206 F 
ATOM     86  C   UNL A   1      38.530  34.195  37.711  1.00  0.00     0.040 A 
ATOM     87  C   UNL A   1      37.392  32.184  38.382  1.00  0.00     0.040 A 
ATOM     88  F   UNL A   1      37.535  30.253  37.056  1.00  0.00    -0.206 F 
ATOM     89  C   UNL A   1      37.718  33.517  38.618  1.00  0.00     0.006 A 
ENDBRANCH  65  82
ENDBRANCH  39  40
ENDBRANCH  32  34
ENDBRANCH  31  32
ENDBRANCH  30  31
ENDBRANCH  29  30
ENDBRANCH  28  29
ENDBRANCH  27  28
ENDBRANCH   1  27
TORSDOF 21
ENDMDL
