MODEL 1
REMARK VINA RESULT:      -8.6      0.000      0.000
REMARK SMILES COc1ccc([C@@H]2C(C#N)=C(N)N3C(=O)[C@H](CC(=O)OCCOCCOCCOC(=O)c4ccc(-c5c6nc(c(-c7c(F)cccc7F)c7ccc([nH]7)c(-c7c(F)cccc7F)c7nc(c(-c8c(F)cccc8F)c8ccc5[nH]8)C=C7)C=C6)cc4)SC3=C2C#N)cc1
REMARK SMILES IDX 24 1 23 2 22 3 21 4 20 5 18 6 19 7 17 8 16 9 7 10 8 11 88 12
REMARK SMILES IDX 11 13 87 14 13 15 86 16 14 17 15 18 6 19 3 20 4 21 92 22
REMARK SMILES IDX 5 23 91 24 2 25 1 26 9 27 10 28 89 29 90 30 12 31 25 34
REMARK SMILES IDX 26 35 27 36 28 37 29 38 30 39 31 40 32 41 33 42 85 43 34 44
REMARK SMILES IDX 84 45 35 46 36 47 37 48 78 49 38 50 83 51 77 52 79 53 39 54
REMARK SMILES IDX 82 55 76 56 75 57 40 59 66 60 49 61 65 62 50 63 53 64 64 65
REMARK SMILES IDX 80 66 51 67 52 68 63 70 81 71 54 72 41 73 42 74 47 75 43 76
REMARK SMILES IDX 44 77 46 78 48 79 45 80 67 81 68 82 73 83 69 84 70 85 72 86
REMARK SMILES IDX 74 87 71 88 55 89 56 90 61 91 57 92 58 93 60 94 62 95 59 96
REMARK H PARENT 12 32 12 33 79 58 53 69
REMARK Flexibility Score: inf
ROOT
ATOM      1  C   UNL A   1      32.929  36.019  29.605  1.00  0.00     0.188 C 
ENDROOT
BRANCH   1   2
ATOM      2  O   UNL A   1      33.644  36.095  30.832  1.00  0.00    -0.376 OA
BRANCH   2   3
ATOM      3  C   UNL A   1      32.961  36.706  31.928  1.00  0.00     0.202 C 
BRANCH   3   4
ATOM      4  C   UNL A   1      33.722  36.751  33.264  1.00  0.00     0.261 C 
BRANCH   4   5
ATOM      5  O   UNL A   1      35.096  36.305  33.175  1.00  0.00    -0.463 OA
BRANCH   5   6
ATOM      6  C   UNL A   1      35.324  34.984  33.383  1.00  0.00     0.307 C 
ATOM      7  O   UNL A   1      34.539  34.225  33.944  1.00  0.00    -0.252 OA
BRANCH   6   8
ATOM      8  C   UNL A   1      36.585  34.448  32.732  1.00  0.00     0.147 C 
BRANCH   8   9
ATOM      9  C   UNL A   1      37.751  34.073  33.627  1.00  0.00     0.154 C 
ATOM     10  C   UNL A   1      41.790  31.299  34.377  1.00  0.00     0.107 C 
ATOM     11  C   UNL A   1      40.639  30.524  34.992  1.00  0.00     0.083 C 
ATOM     12  C   UNL A   1      41.318  32.483  33.559  1.00  0.00     0.073 C 
ATOM     13  C   UNL A   1      39.352  30.952  34.930  1.00  0.00     0.126 C 
ATOM     14  C   UNL A   1      40.018  32.825  33.568  1.00  0.00     0.099 C 
ATOM     15  N   UNL A   1      39.035  32.132  34.250  1.00  0.00    -0.258 N 
ATOM     16  S   UNL A   1      39.342  34.179  32.716  1.00  0.00    -0.093 SA
ATOM     17  C   UNL A   1      37.728  32.657  34.172  1.00  0.00     0.247 C 
ATOM     18  O   UNL A   1      36.706  32.098  34.561  1.00  0.00    -0.273 OA
BRANCH  10  19
ATOM     19  C   UNL A   1      42.755  30.405  33.598  1.00  0.00    -0.034 A 
ATOM     20  C   UNL A   1      44.502  28.691  32.216  1.00  0.00     0.118 A 
ATOM     21  C   UNL A   1      43.125  28.496  32.136  1.00  0.00     0.047 A 
ATOM     22  C   UNL A   1      45.008  29.765  32.945  1.00  0.00     0.047 A 
ATOM     23  C   UNL A   1      42.255  29.339  32.829  1.00  0.00     0.008 A 
ATOM     24  C   UNL A   1      44.141  30.616  33.636  1.00  0.00     0.008 A 
BRANCH  20  25
ATOM     25  O   UNL A   1      45.281  27.822  31.503  1.00  0.00    -0.497 OA
ATOM     26  C   UNL A   1      46.677  27.969  31.758  1.00  0.00     0.278 C 
ENDBRANCH  20  25
ENDBRANCH  10  19
BRANCH  11  27
ATOM     27  C   UNL A   1      40.957  29.317  35.687  1.00  0.00     0.100 C 
ATOM     28  N   UNL A   1      41.189  28.339  36.272  1.00  0.00    -0.193 NA
ENDBRANCH  11  27
BRANCH  12  29
ATOM     29  C   UNL A   1      42.288  33.218  32.815  1.00  0.00     0.098 C 
ATOM     30  N   UNL A   1      43.083  33.800  32.195  1.00  0.00    -0.193 NA
ENDBRANCH  12  29
BRANCH  13  31
ATOM     31  N   UNL A   1      38.343  30.260  35.551  1.00  0.00    -0.384 N 
ATOM     32  H   UNL A   1      38.551  29.643  36.289  1.00  0.00     0.158 HD
ATOM     33  H   UNL A   1      37.411  30.381  35.257  1.00  0.00     0.158 HD
ENDBRANCH  13  31
ENDBRANCH   8   9
ENDBRANCH   6   8
ENDBRANCH   5   6
ENDBRANCH   4   5
ENDBRANCH   3   4
ENDBRANCH   2   3
ENDBRANCH   1   2
BRANCH   1  34
ATOM     34  C   UNL A   1      33.795  36.055  28.350  1.00  0.00     0.188 C 
BRANCH  34  35
ATOM     35  O   UNL A   1      34.703  34.997  28.150  1.00  0.00    -0.376 OA
BRANCH  35  36
ATOM     36  C   UNL A   1      34.261  33.658  28.384  1.00  0.00     0.202 C 
BRANCH  36  37
ATOM     37  C   UNL A   1      35.012  32.373  27.914  1.00  0.00     0.261 C 
BRANCH  37  38
ATOM     38  O   UNL A   1      35.171  31.246  28.804  1.00  0.00    -0.460 OA
BRANCH  38  39
ATOM     39  C   UNL A   1      35.966  31.384  29.893  1.00  0.00     0.338 C 
ATOM     40  O   UNL A   1      35.595  31.725  31.002  1.00  0.00    -0.246 OA
BRANCH  39  41
ATOM     41  C   UNL A   1      37.292  30.739  29.608  1.00  0.00     0.060 A 
ATOM     42  C   UNL A   1      38.131  30.454  30.701  1.00  0.00     0.016 A 
ATOM     43  C   UNL A   1      37.687  30.323  28.332  1.00  0.00     0.016 A 
ATOM     44  C   UNL A   1      39.337  29.762  30.532  1.00  0.00     0.010 A 
ATOM     45  C   UNL A   1      38.923  29.672  28.157  1.00  0.00     0.010 A 
ATOM     46  C   UNL A   1      39.764  29.395  29.252  1.00  0.00    -0.014 A 
BRANCH  46  47
ATOM     47  C   UNL A   1      41.142  28.865  29.035  1.00  0.00     0.031 A 
ATOM     48  C   UNL A   1      42.307  29.815  29.138  1.00  0.00     0.074 A 
ATOM     49  C   UNL A   1      41.378  27.569  28.752  1.00  0.00     0.049 A 
ATOM     50  N   UNL A   1      43.574  29.620  28.866  1.00  0.00    -0.248 NA
ATOM     51  C   UNL A   1      41.995  31.172  29.611  1.00  0.00     0.031 C 
ATOM     52  C   UNL A   1      40.366  26.518  28.690  1.00  0.00     0.029 A 
ATOM     53  N   UNL A   1      42.554  26.922  28.442  1.00  0.00    -0.354 N 
ATOM     54  C   UNL A   1      44.206  30.833  29.116  1.00  0.00     0.074 A 
ATOM     55  C   UNL A   1      43.180  31.761  29.541  1.00  0.00     0.031 C 
ATOM     56  C   UNL A   1      40.958  25.363  28.336  1.00  0.00     0.029 A 
ATOM     57  C   UNL A   1      42.382  25.601  28.098  1.00  0.00     0.049 A 
ATOM     58  H   UNL A   1      43.433  27.363  28.464  1.00  0.00     0.167 HD
ATOM     59  C   UNL A   1      45.519  31.146  29.002  1.00  0.00     0.037 A 
ATOM     60  C   UNL A   1      43.260  24.700  27.609  1.00  0.00     0.037 A 
ATOM     61  C   UNL A   1      46.542  30.225  28.573  1.00  0.00     0.049 A 
ATOM     62  C   UNL A   1      44.697  25.101  27.380  1.00  0.00     0.074 A 
ATOM     63  C   UNL A   1      47.902  30.451  28.443  1.00  0.00     0.029 A 
ATOM     64  N   UNL A   1      46.317  28.912  28.191  1.00  0.00    -0.354 N 
ATOM     65  N   UNL A   1      45.289  26.244  27.633  1.00  0.00    -0.248 NA
ATOM     66  C   UNL A   1      45.588  24.089  26.789  1.00  0.00     0.031 C 
ATOM     67  C   UNL A   1      48.487  29.298  27.910  1.00  0.00     0.029 A 
ATOM     68  C   UNL A   1      47.506  28.329  27.780  1.00  0.00     0.049 A 
ATOM     69  H   UNL A   1      45.442  28.460  28.208  1.00  0.00     0.167 HD
ATOM     70  C   UNL A   1      46.619  26.078  27.260  1.00  0.00     0.074 A 
ATOM     71  C   UNL A   1      46.754  24.719  26.783  1.00  0.00     0.031 C 
ATOM     72  C   UNL A   1      47.637  26.975  27.307  1.00  0.00     0.037 A 
BRANCH  59  73
ATOM     73  C   UNL A   1      45.926  32.562  29.302  1.00  0.00     0.057 A 
ATOM     74  C   UNL A   1      46.350  32.965  30.575  1.00  0.00     0.134 A 
ATOM     75  C   UNL A   1      45.929  33.529  28.287  1.00  0.00     0.134 A 
ATOM     76  F   UNL A   1      46.362  32.094  31.595  1.00  0.00    -0.206 F 
ATOM     77  C   UNL A   1      46.732  34.282  30.835  1.00  0.00     0.040 A 
ATOM     78  C   UNL A   1      46.342  34.841  28.526  1.00  0.00     0.040 A 
ATOM     79  F   UNL A   1      45.545  33.213  27.042  1.00  0.00    -0.206 F 
ATOM     80  C   UNL A   1      46.737  35.223  29.807  1.00  0.00     0.006 A 
ENDBRANCH  59  73
BRANCH  60  81
ATOM     81  C   UNL A   1      42.806  23.327  27.250  1.00  0.00     0.057 A 
ATOM     82  C   UNL A   1      42.599  22.348  28.229  1.00  0.00     0.134 A 
ATOM     83  C   UNL A   1      42.611  22.948  25.914  1.00  0.00     0.134 A 
ATOM     84  F   UNL A   1      42.803  22.635  29.523  1.00  0.00    -0.206 F 
ATOM     85  C   UNL A   1      42.235  21.041  27.896  1.00  0.00     0.040 A 
ATOM     86  C   UNL A   1      42.213  21.654  25.569  1.00  0.00     0.040 A 
ATOM     87  F   UNL A   1      42.801  23.831  24.924  1.00  0.00    -0.206 F 
ATOM     88  C   UNL A   1      42.033  20.694  26.561  1.00  0.00     0.006 A 
ENDBRANCH  60  81
BRANCH  72  89
ATOM     89  C   UNL A   1      48.997  26.514  26.858  1.00  0.00     0.057 A 
ATOM     90  C   UNL A   1      49.886  25.865  27.725  1.00  0.00     0.134 A 
ATOM     91  C   UNL A   1      49.401  26.672  25.525  1.00  0.00     0.134 A 
ATOM     92  F   UNL A   1      49.570  25.688  29.016  1.00  0.00    -0.206 F 
ATOM     93  C   UNL A   1      51.134  25.413  27.289  1.00  0.00     0.040 A 
ATOM     94  C   UNL A   1      50.632  26.193  25.069  1.00  0.00     0.040 A 
ATOM     95  F   UNL A   1      48.597  27.273  24.636  1.00  0.00    -0.206 F 
ATOM     96  C   UNL A   1      51.505  25.567  25.955  1.00  0.00     0.006 A 
ENDBRANCH  72  89
ENDBRANCH  46  47
ENDBRANCH  39  41
ENDBRANCH  38  39
ENDBRANCH  37  38
ENDBRANCH  36  37
ENDBRANCH  35  36
ENDBRANCH  34  35
ENDBRANCH   1  34
TORSDOF 23
ENDMDL
MODEL 2
REMARK VINA RESULT:      -8.5      4.994      9.914
REMARK SMILES COc1ccc([C@@H]2C(C#N)=C(N)N3C(=O)[C@H](CC(=O)OCCOCCOCCOC(=O)c4ccc(-c5c6nc(c(-c7c(F)cccc7F)c7ccc([nH]7)c(-c7c(F)cccc7F)c7nc(c(-c8c(F)cccc8F)c8ccc5[nH]8)C=C7)C=C6)cc4)SC3=C2C#N)cc1
REMARK SMILES IDX 24 1 23 2 22 3 21 4 20 5 18 6 19 7 17 8 16 9 7 10 8 11 88 12
REMARK SMILES IDX 11 13 87 14 13 15 86 16 14 17 15 18 6 19 3 20 4 21 92 22
REMARK SMILES IDX 5 23 91 24 2 25 1 26 9 27 10 28 89 29 90 30 12 31 25 34
REMARK SMILES IDX 26 35 27 36 28 37 29 38 30 39 31 40 32 41 33 42 85 43 34 44
REMARK SMILES IDX 84 45 35 46 36 47 37 48 78 49 38 50 83 51 77 52 79 53 39 54
REMARK SMILES IDX 82 55 76 56 75 57 40 59 66 60 49 61 65 62 50 63 53 64 64 65
REMARK SMILES IDX 80 66 51 67 52 68 63 70 81 71 54 72 41 73 42 74 47 75 43 76
REMARK SMILES IDX 44 77 46 78 48 79 45 80 67 81 68 82 73 83 69 84 70 85 72 86
REMARK SMILES IDX 74 87 71 88 55 89 56 90 61 91 57 92 58 93 60 94 62 95 59 96
REMARK H PARENT 12 32 12 33 79 58 53 69
REMARK Flexibility Score: inf
ROOT
ATOM      1  C   UNL A   1      34.369  33.942  30.556  1.00  0.00     0.188 C 
ENDROOT
BRANCH   1   2
ATOM      2  O   UNL A   1      34.431  34.513  29.255  1.00  0.00    -0.376 OA
BRANCH   2   3
ATOM      3  C   UNL A   1      33.727  33.821  28.223  1.00  0.00     0.202 C 
BRANCH   3   4
ATOM      4  C   UNL A   1      33.888  32.292  28.198  1.00  0.00     0.261 C 
BRANCH   4   5
ATOM      5  O   UNL A   1      33.636  31.694  26.905  1.00  0.00    -0.463 OA
BRANCH   5   6
ATOM      6  C   UNL A   1      32.500  30.965  26.780  1.00  0.00     0.307 C 
ATOM      7  O   UNL A   1      31.440  31.402  26.341  1.00  0.00    -0.252 OA
BRANCH   6   8
ATOM      8  C   UNL A   1      32.656  29.488  27.092  1.00  0.00     0.147 C 
BRANCH   8   9
ATOM      9  C   UNL A   1      31.970  28.485  26.183  1.00  0.00     0.154 C 
ATOM     10  C   UNL A   1      31.920  23.974  24.131  1.00  0.00     0.107 C 
ATOM     11  C   UNL A   1      32.654  24.866  23.146  1.00  0.00     0.083 C 
ATOM     12  C   UNL A   1      31.676  24.659  25.460  1.00  0.00     0.073 C 
ATOM     13  C   UNL A   1      32.913  26.175  23.396  1.00  0.00     0.126 C 
ATOM     14  C   UNL A   1      31.967  25.963  25.601  1.00  0.00     0.099 C 
ATOM     15  N   UNL A   1      32.534  26.747  24.614  1.00  0.00    -0.258 N 
ATOM     16  S   UNL A   1      31.701  26.888  27.047  1.00  0.00    -0.093 SA
ATOM     17  C   UNL A   1      32.738  28.106  24.930  1.00  0.00     0.247 C 
ATOM     18  O   UNL A   1      33.377  28.912  24.258  1.00  0.00    -0.273 OA
BRANCH  10  19
ATOM     19  C   UNL A   1      32.584  22.607  24.298  1.00  0.00    -0.034 A 
ATOM     20  C   UNL A   1      33.870  20.121  24.548  1.00  0.00     0.118 A 
ATOM     21  C   UNL A   1      34.494  21.277  25.009  1.00  0.00     0.047 A 
ATOM     22  C   UNL A   1      32.588  20.193  24.006  1.00  0.00     0.047 A 
ATOM     23  C   UNL A   1      33.862  22.515  24.876  1.00  0.00     0.008 A 
ATOM     24  C   UNL A   1      31.949  21.429  23.877  1.00  0.00     0.008 A 
BRANCH  20  25
ATOM     25  O   UNL A   1      34.557  18.950  24.721  1.00  0.00    -0.497 OA
ATOM     26  C   UNL A   1      33.939  17.830  24.091  1.00  0.00     0.278 C 
ENDBRANCH  20  25
ENDBRANCH  10  19
BRANCH  11  27
ATOM     27  C   UNL A   1      33.045  24.285  21.900  1.00  0.00     0.100 C 
ATOM     28  N   UNL A   1      33.396  23.819  20.894  1.00  0.00    -0.193 NA
ENDBRANCH  11  27
BRANCH  12  29
ATOM     29  C   UNL A   1      31.115  23.889  26.522  1.00  0.00     0.098 C 
ATOM     30  N   UNL A   1      30.641  23.253  27.374  1.00  0.00    -0.193 NA
ENDBRANCH  12  29
BRANCH  13  31
ATOM     31  N   UNL A   1      33.523  26.969  22.458  1.00  0.00    -0.384 N 
ATOM     32  H   UNL A   1      32.995  27.632  21.956  1.00  0.00     0.158 HD
ATOM     33  H   UNL A   1      34.487  26.876  22.286  1.00  0.00     0.158 HD
ENDBRANCH  13  31
ENDBRANCH   8   9
ENDBRANCH   6   8
ENDBRANCH   5   6
ENDBRANCH   4   5
ENDBRANCH   3   4
ENDBRANCH   2   3
ENDBRANCH   1   2
BRANCH   1  34
ATOM     34  C   UNL A   1      34.950  34.808  31.669  1.00  0.00     0.188 C 
BRANCH  34  35
ATOM     35  O   UNL A   1      34.259  34.849  32.895  1.00  0.00    -0.376 OA
BRANCH  35  36
ATOM     36  C   UNL A   1      34.934  34.424  34.081  1.00  0.00     0.202 C 
BRANCH  36  37
ATOM     37  C   UNL A   1      36.342  33.752  34.117  1.00  0.00     0.261 C 
BRANCH  37  38
ATOM     38  O   UNL A   1      36.497  32.350  33.804  1.00  0.00    -0.460 OA
BRANCH  38  39
ATOM     39  C   UNL A   1      37.541  31.675  34.343  1.00  0.00     0.338 C 
ATOM     40  O   UNL A   1      37.587  31.226  35.474  1.00  0.00    -0.246 OA
BRANCH  39  41
ATOM     41  C   UNL A   1      38.483  31.282  33.241  1.00  0.00     0.060 A 
ATOM     42  C   UNL A   1      39.729  30.740  33.605  1.00  0.00     0.016 A 
ATOM     43  C   UNL A   1      38.146  31.338  31.885  1.00  0.00     0.016 A 
ATOM     44  C   UNL A   1      40.622  30.254  32.641  1.00  0.00     0.010 A 
ATOM     45  C   UNL A   1      39.065  30.895  30.914  1.00  0.00     0.010 A 
ATOM     46  C   UNL A   1      40.314  30.360  31.281  1.00  0.00    -0.014 A 
BRANCH  46  47
ATOM     47  C   UNL A   1      41.345  30.058  30.245  1.00  0.00     0.031 A 
ATOM     48  C   UNL A   1      41.337  28.702  29.589  1.00  0.00     0.074 A 
ATOM     49  C   UNL A   1      42.279  30.957  29.876  1.00  0.00     0.049 A 
ATOM     50  N   UNL A   1      42.200  28.165  28.763  1.00  0.00    -0.248 NA
ATOM     51  C   UNL A   1      40.196  27.833  29.915  1.00  0.00     0.031 C 
ATOM     52  C   UNL A   1      42.371  32.331  30.364  1.00  0.00     0.029 A 
ATOM     53  N   UNL A   1      43.344  30.835  29.012  1.00  0.00    -0.354 N 
ATOM     54  C   UNL A   1      41.718  26.891  28.486  1.00  0.00     0.074 A 
ATOM     55  C   UNL A   1      40.499  26.728  29.248  1.00  0.00     0.031 C 
ATOM     56  C   UNL A   1      43.451  32.916  29.816  1.00  0.00     0.029 A 
ATOM     57  C   UNL A   1      44.154  31.947  28.975  1.00  0.00     0.049 A 
ATOM     58  H   UNL A   1      43.511  30.029  28.473  1.00  0.00     0.167 HD
ATOM     59  C   UNL A   1      42.243  25.942  27.674  1.00  0.00     0.037 A 
ATOM     60  C   UNL A   1      45.344  32.147  28.369  1.00  0.00     0.037 A 
ATOM     61  C   UNL A   1      43.460  26.099  26.918  1.00  0.00     0.049 A 
ATOM     62  C   UNL A   1      45.969  31.036  27.560  1.00  0.00     0.074 A 
ATOM     63  C   UNL A   1      44.059  25.196  26.056  1.00  0.00     0.029 A 
ATOM     64  N   UNL A   1      44.272  27.222  26.946  1.00  0.00    -0.354 N 
ATOM     65  N   UNL A   1      45.499  29.841  27.291  1.00  0.00    -0.248 NA
ATOM     66  C   UNL A   1      47.294  31.300  26.975  1.00  0.00     0.031 C 
ATOM     67  C   UNL A   1      45.270  25.744  25.622  1.00  0.00     0.029 A 
ATOM     68  C   UNL A   1      45.389  27.017  26.152  1.00  0.00     0.049 A 
ATOM     69  H   UNL A   1      44.082  28.044  27.454  1.00  0.00     0.167 HD
ATOM     70  C   UNL A   1      46.454  29.226  26.488  1.00  0.00     0.074 A 
ATOM     71  C   UNL A   1      47.521  30.184  26.294  1.00  0.00     0.031 C 
ATOM     72  C   UNL A   1      46.448  27.975  25.960  1.00  0.00     0.037 A 
BRANCH  59  73
ATOM     73  C   UNL A   1      41.526  24.623  27.591  1.00  0.00     0.057 A 
ATOM     74  C   UNL A   1      40.470  24.400  26.698  1.00  0.00     0.134 A 
ATOM     75  C   UNL A   1      41.927  23.546  28.393  1.00  0.00     0.134 A 
ATOM     76  F   UNL A   1      40.028  25.389  25.907  1.00  0.00    -0.206 F 
ATOM     77  C   UNL A   1      39.820  23.166  26.627  1.00  0.00     0.040 A 
ATOM     78  C   UNL A   1      41.309  22.297  28.308  1.00  0.00     0.040 A 
ATOM     79  F   UNL A   1      42.938  23.683  29.264  1.00  0.00    -0.206 F 
ATOM     80  C   UNL A   1      40.245  22.108  27.428  1.00  0.00     0.006 A 
ENDBRANCH  59  73
BRANCH  60  81
ATOM     81  C   UNL A   1      46.063  33.441  28.535  1.00  0.00     0.057 A 
ATOM     82  C   UNL A   1      45.897  34.490  27.623  1.00  0.00     0.134 A 
ATOM     83  C   UNL A   1      46.970  33.643  29.585  1.00  0.00     0.134 A 
ATOM     84  F   UNL A   1      45.072  34.349  26.576  1.00  0.00    -0.206 F 
ATOM     85  C   UNL A   1      46.616  35.682  27.737  1.00  0.00     0.040 A 
ATOM     86  C   UNL A   1      47.670  34.843  29.731  1.00  0.00     0.040 A 
ATOM     87  F   UNL A   1      47.187  32.676  30.490  1.00  0.00    -0.206 F 
ATOM     88  C   UNL A   1      47.500  35.864  28.799  1.00  0.00     0.006 A 
ENDBRANCH  60  81
BRANCH  72  89
ATOM     89  C   UNL A   1      47.614  27.573  25.098  1.00  0.00     0.057 A 
ATOM     90  C   UNL A   1      48.745  26.936  25.627  1.00  0.00     0.134 A 
ATOM     91  C   UNL A   1      47.581  27.774  23.711  1.00  0.00     0.134 A 
ATOM     92  F   UNL A   1      48.849  26.720  26.946  1.00  0.00    -0.206 F 
ATOM     93  C   UNL A   1      49.807  26.537  24.812  1.00  0.00     0.040 A 
ATOM     94  C   UNL A   1      48.622  27.349  22.882  1.00  0.00     0.040 A 
ATOM     95  F   UNL A   1      46.525  28.366  23.133  1.00  0.00    -0.206 F 
ATOM     96  C   UNL A   1      49.743  26.734  23.435  1.00  0.00     0.006 A 
ENDBRANCH  72  89
ENDBRANCH  46  47
ENDBRANCH  39  41
ENDBRANCH  38  39
ENDBRANCH  37  38
ENDBRANCH  36  37
ENDBRANCH  35  36
ENDBRANCH  34  35
ENDBRANCH   1  34
TORSDOF 23
ENDMDL
MODEL 3
REMARK VINA RESULT:      -7.8      5.918     12.728
REMARK SMILES COc1ccc([C@@H]2C(C#N)=C(N)N3C(=O)[C@H](CC(=O)OCCOCCOCCOC(=O)c4ccc(-c5c6nc(c(-c7c(F)cccc7F)c7ccc([nH]7)c(-c7c(F)cccc7F)c7nc(c(-c8c(F)cccc8F)c8ccc5[nH]8)C=C7)C=C6)cc4)SC3=C2C#N)cc1
REMARK SMILES IDX 24 1 23 2 22 3 21 4 20 5 18 6 19 7 17 8 16 9 7 10 8 11 88 12
REMARK SMILES IDX 11 13 87 14 13 15 86 16 14 17 15 18 6 19 3 20 4 21 92 22
REMARK SMILES IDX 5 23 91 24 2 25 1 26 9 27 10 28 89 29 90 30 12 31 25 34
REMARK SMILES IDX 26 35 27 36 28 37 29 38 30 39 31 40 32 41 33 42 85 43 34 44
REMARK SMILES IDX 84 45 35 46 36 47 37 48 78 49 38 50 83 51 77 52 79 53 39 54
REMARK SMILES IDX 82 55 76 56 75 57 40 59 66 60 49 61 65 62 50 63 53 64 64 65
REMARK SMILES IDX 80 66 51 67 52 68 63 70 81 71 54 72 41 73 42 74 47 75 43 76
REMARK SMILES IDX 44 77 46 78 48 79 45 80 67 81 68 82 73 83 69 84 70 85 72 86
REMARK SMILES IDX 74 87 71 88 55 89 56 90 61 91 57 92 58 93 60 94 62 95 59 96
REMARK H PARENT 12 32 12 33 79 58 53 69
REMARK Flexibility Score: inf
ROOT
ATOM      1  C   UNL A   1      43.064  21.148  25.692  1.00  0.00     0.188 C 
ENDROOT
BRANCH   1   2
ATOM      2  O   UNL A   1      41.796  20.676  26.132  1.00  0.00    -0.376 OA
BRANCH   2   3
ATOM      3  C   UNL A   1      40.851  21.671  26.527  1.00  0.00     0.202 C 
BRANCH   3   4
ATOM      4  C   UNL A   1      39.370  21.337  26.281  1.00  0.00     0.261 C 
BRANCH   4   5
ATOM      5  O   UNL A   1      38.681  22.294  25.441  1.00  0.00    -0.463 OA
BRANCH   5   6
ATOM      6  C   UNL A   1      37.344  22.420  25.630  1.00  0.00     0.307 C 
ATOM      7  O   UNL A   1      36.797  23.431  26.060  1.00  0.00    -0.252 OA
BRANCH   6   8
ATOM      8  C   UNL A   1      36.519  21.251  25.125  1.00  0.00     0.147 C 
BRANCH   8   9
ATOM      9  C   UNL A   1      35.090  21.514  24.692  1.00  0.00     0.154 C 
ATOM     10  C   UNL A   1      31.345  24.719  24.172  1.00  0.00     0.107 C 
ATOM     11  C   UNL A   1      31.165  24.095  25.545  1.00  0.00     0.083 C 
ATOM     12  C   UNL A   1      32.677  24.363  23.545  1.00  0.00     0.073 C 
ATOM     13  C   UNL A   1      32.044  23.199  26.063  1.00  0.00     0.126 C 
ATOM     14  C   UNL A   1      33.474  23.460  24.142  1.00  0.00     0.099 C 
ATOM     15  N   UNL A   1      33.190  22.842  25.345  1.00  0.00    -0.258 N 
ATOM     16  S   UNL A   1      35.005  22.924  23.519  1.00  0.00    -0.093 SA
ATOM     17  C   UNL A   1      34.129  21.895  25.803  1.00  0.00     0.247 C 
ATOM     18  O   UNL A   1      34.140  21.374  26.915  1.00  0.00    -0.273 OA
BRANCH  10  19
ATOM     19  C   UNL A   1      31.088  26.226  24.170  1.00  0.00    -0.034 A 
ATOM     20  C   UNL A   1      30.646  29.000  24.081  1.00  0.00     0.118 A 
ATOM     21  C   UNL A   1      29.897  28.149  23.273  1.00  0.00     0.047 A 
ATOM     22  C   UNL A   1      31.583  28.470  24.966  1.00  0.00     0.047 A 
ATOM     23  C   UNL A   1      30.121  26.771  23.308  1.00  0.00     0.008 A 
ATOM     24  C   UNL A   1      31.807  27.091  25.009  1.00  0.00     0.008 A 
BRANCH  20  25
ATOM     25  O   UNL A   1      30.359  30.334  23.987  1.00  0.00    -0.497 OA
ATOM     26  C   UNL A   1      29.057  30.601  23.471  1.00  0.00     0.278 C 
ENDBRANCH  20  25
ENDBRANCH  10  19
BRANCH  11  27
ATOM     27  C   UNL A   1      29.996  24.458  26.283  1.00  0.00     0.100 C 
ATOM     28  N   UNL A   1      29.055  24.731  26.907  1.00  0.00    -0.193 NA
ENDBRANCH  11  27
BRANCH  12  29
ATOM     29  C   UNL A   1      33.033  24.991  22.315  1.00  0.00     0.098 C 
ATOM     30  N   UNL A   1      33.302  25.515  21.311  1.00  0.00    -0.193 NA
ENDBRANCH  12  29
BRANCH  13  31
ATOM     31  N   UNL A   1      31.819  22.607  27.279  1.00  0.00    -0.384 N 
ATOM     32  H   UNL A   1      31.727  21.629  27.341  1.00  0.00     0.158 HD
ATOM     33  H   UNL A   1      31.749  23.160  28.090  1.00  0.00     0.158 HD
ENDBRANCH  13  31
ENDBRANCH   8   9
ENDBRANCH   6   8
ENDBRANCH   5   6
ENDBRANCH   4   5
ENDBRANCH   3   4
ENDBRANCH   2   3
ENDBRANCH   1   2
BRANCH   1  34
ATOM     34  C   UNL A   1      43.046  22.519  25.023  1.00  0.00     0.188 C 
BRANCH  34  35
ATOM     35  O   UNL A   1      43.416  23.633  25.802  1.00  0.00    -0.376 OA
BRANCH  35  36
ATOM     36  C   UNL A   1      44.562  24.393  25.414  1.00  0.00     0.202 C 
BRANCH  36  37
ATOM     37  C   UNL A   1      46.042  23.923  25.568  1.00  0.00     0.261 C 
BRANCH  37  38
ATOM     38  O   UNL A   1      46.559  23.526  26.857  1.00  0.00    -0.460 OA
BRANCH  38  39
ATOM     39  C   UNL A   1      47.323  24.406  27.550  1.00  0.00     0.338 C 
ATOM     40  O   UNL A   1      48.498  24.645  27.337  1.00  0.00    -0.246 OA
BRANCH  39  41
ATOM     41  C   UNL A   1      46.426  25.270  28.389  1.00  0.00     0.060 A 
ATOM     42  C   UNL A   1      46.569  26.664  28.280  1.00  0.00     0.016 A 
ATOM     43  C   UNL A   1      45.399  24.760  29.192  1.00  0.00     0.016 A 
ATOM     44  C   UNL A   1      45.703  27.540  28.950  1.00  0.00     0.010 A 
ATOM     45  C   UNL A   1      44.562  25.641  29.903  1.00  0.00     0.010 A 
ATOM     46  C   UNL A   1      44.713  27.037  29.798  1.00  0.00    -0.014 A 
BRANCH  46  47
ATOM     47  C   UNL A   1      43.939  27.953  30.687  1.00  0.00     0.031 A 
ATOM     48  C   UNL A   1      44.489  28.270  32.054  1.00  0.00     0.074 A 
ATOM     49  C   UNL A   1      42.769  28.504  30.308  1.00  0.00     0.049 A 
ATOM     50  N   UNL A   1      43.941  28.928  33.045  1.00  0.00    -0.248 NA
ATOM     51  C   UNL A   1      45.842  27.771  32.338  1.00  0.00     0.031 C 
ATOM     52  C   UNL A   1      42.146  28.352  28.996  1.00  0.00     0.029 A 
ATOM     53  N   UNL A   1      41.885  29.293  31.010  1.00  0.00    -0.354 N 
ATOM     54  C   UNL A   1      44.874  28.907  34.075  1.00  0.00     0.074 A 
ATOM     55  C   UNL A   1      46.012  28.153  33.595  1.00  0.00     0.031 C 
ATOM     56  C   UNL A   1      40.969  29.001  28.995  1.00  0.00     0.029 A 
ATOM     57  C   UNL A   1      40.729  29.575  30.319  1.00  0.00     0.049 A 
ATOM     58  H   UNL A   1      42.063  29.623  31.920  1.00  0.00     0.167 HD
ATOM     59  C   UNL A   1      44.791  29.462  35.308  1.00  0.00     0.037 A 
ATOM     60  C   UNL A   1      39.594  30.187  30.719  1.00  0.00     0.037 A 
ATOM     61  C   UNL A   1      43.656  30.209  35.791  1.00  0.00     0.049 A 
ATOM     62  C   UNL A   1      39.477  30.699  32.134  1.00  0.00     0.074 A 
ATOM     63  C   UNL A   1      43.491  30.822  37.021  1.00  0.00     0.029 A 
ATOM     64  N   UNL A   1      42.490  30.430  35.075  1.00  0.00    -0.354 N 
ATOM     65  N   UNL A   1      40.369  30.688  33.096  1.00  0.00    -0.248 NA
ATOM     66  C   UNL A   1      38.191  31.303  32.522  1.00  0.00     0.031 C 
ATOM     67  C   UNL A   1      42.197  31.348  37.077  1.00  0.00     0.029 A 
ATOM     68  C   UNL A   1      41.583  31.131  35.855  1.00  0.00     0.049 A 
ATOM     69  H   UNL A   1      42.330  30.134  34.150  1.00  0.00     0.167 HD
ATOM     70  C   UNL A   1      39.763  31.304  34.187  1.00  0.00     0.074 A 
ATOM     71  C   UNL A   1      38.436  31.697  33.764  1.00  0.00     0.031 C 
ATOM     72  C   UNL A   1      40.263  31.522  35.430  1.00  0.00     0.037 A 
BRANCH  59  73
ATOM     73  C   UNL A   1      45.944  29.246  36.248  1.00  0.00     0.057 A 
ATOM     74  C   UNL A   1      46.020  28.134  37.096  1.00  0.00     0.134 A 
ATOM     75  C   UNL A   1      47.017  30.148  36.275  1.00  0.00     0.134 A 
ATOM     76  F   UNL A   1      45.025  27.235  37.129  1.00  0.00    -0.206 F 
ATOM     77  C   UNL A   1      47.102  27.943  37.957  1.00  0.00     0.040 A 
ATOM     78  C   UNL A   1      48.121  29.952  37.106  1.00  0.00     0.040 A 
ATOM     79  F   UNL A   1      47.017  31.231  35.483  1.00  0.00    -0.206 F 
ATOM     80  C   UNL A   1      48.161  28.850  37.958  1.00  0.00     0.006 A 
ENDBRANCH  59  73
BRANCH  60  81
ATOM     81  C   UNL A   1      38.441  30.316  29.784  1.00  0.00     0.057 A 
ATOM     82  C   UNL A   1      37.622  29.221  29.481  1.00  0.00     0.134 A 
ATOM     83  C   UNL A   1      38.158  31.526  29.135  1.00  0.00     0.134 A 
ATOM     84  F   UNL A   1      37.861  28.025  30.039  1.00  0.00    -0.206 F 
ATOM     85  C   UNL A   1      36.579  29.318  28.556  1.00  0.00     0.040 A 
ATOM     86  C   UNL A   1      37.097  31.647  28.235  1.00  0.00     0.040 A 
ATOM     87  F   UNL A   1      38.908  32.613  29.370  1.00  0.00    -0.206 F 
ATOM     88  C   UNL A   1      36.309  30.537  27.937  1.00  0.00     0.006 A 
ENDBRANCH  60  81
BRANCH  72  89
ATOM     89  C   UNL A   1      39.389  32.241  36.420  1.00  0.00     0.057 A 
ATOM     90  C   UNL A   1      39.550  33.605  36.702  1.00  0.00     0.134 A 
ATOM     91  C   UNL A   1      38.333  31.575  37.059  1.00  0.00     0.134 A 
ATOM     92  F   UNL A   1      40.544  34.304  36.134  1.00  0.00    -0.206 F 
ATOM     93  C   UNL A   1      38.711  34.270  37.599  1.00  0.00     0.040 A 
ATOM     94  C   UNL A   1      37.467  32.238  37.931  1.00  0.00     0.040 A 
ATOM     95  F   UNL A   1      38.111  30.272  36.828  1.00  0.00    -0.206 F 
ATOM     96  C   UNL A   1      37.660  33.589  38.208  1.00  0.00     0.006 A 
ENDBRANCH  72  89
ENDBRANCH  46  47
ENDBRANCH  39  41
ENDBRANCH  38  39
ENDBRANCH  37  38
ENDBRANCH  36  37
ENDBRANCH  35  36
ENDBRANCH  34  35
ENDBRANCH   1  34
TORSDOF 23
ENDMDL
