MODEL 1
REMARK VINA RESULT:      -9.6      0.000      0.000
REMARK SMILES Cn1nnnc1SCC[C@@H]1CCC[C@@]1([NH3+])C(=O)OCCOCCOCCOC(=O)c1ccc(-c2c3nc(c(-c4c(F)cccc4F)c4ccc([nH]4)c(-c4c(F)cccc4F)c4nc(c(-c5c(F)cccc5F)c5ccc2[nH]5)C=C4)C=C3)cc1
REMARK SMILES IDX 22 1 21 2 20 3 19 4 18 5 16 6 17 7 14 8 10 9 11 10 12 11
REMARK SMILES IDX 13 12 9 13 8 14 7 15 6 16 1 17 2 18 3 19 4 20 5 21 15 22
REMARK SMILES IDX 23 26 24 27 25 28 26 29 27 30 28 31 29 32 30 33 31 34 83 35
REMARK SMILES IDX 32 36 82 37 33 38 34 39 35 40 76 41 36 42 81 43 75 44 77 45
REMARK SMILES IDX 37 46 80 47 74 48 73 49 38 51 64 52 47 53 63 54 48 55 51 56
REMARK SMILES IDX 62 57 78 58 49 59 50 60 61 62 79 63 52 64 39 65 40 66 45 67
REMARK SMILES IDX 41 68 42 69 44 70 46 71 43 72 65 73 66 74 71 75 67 76 68 77
REMARK SMILES IDX 70 78 72 79 69 80 53 81 54 82 59 83 55 84 56 85 58 86 60 87
REMARK SMILES IDX 57 88
REMARK H PARENT 15 23 15 24 15 25 77 50 51 61
REMARK Flexibility Score: inf
ROOT
ATOM      1  C   UNL A   1      40.280  21.825  26.791  1.00  0.00     0.188 C 
ENDROOT
BRANCH   1   2
ATOM      2  O   UNL A   1      38.942  22.084  26.429  1.00  0.00    -0.376 OA
BRANCH   2   3
ATOM      3  C   UNL A   1      38.396  21.367  25.340  1.00  0.00     0.202 C 
BRANCH   3   4
ATOM      4  C   UNL A   1      36.888  21.112  25.302  1.00  0.00     0.261 C 
BRANCH   4   5
ATOM      5  O   UNL A   1      36.083  22.115  24.623  1.00  0.00    -0.459 OA
BRANCH   5   6
ATOM      6  C   UNL A   1      35.044  22.650  25.328  1.00  0.00     0.368 C 
ATOM      7  O   UNL A   1      35.145  22.993  26.502  1.00  0.00    -0.245 OA
BRANCH   6   8
ATOM      8  C   UNL A   1      33.736  22.869  24.497  1.00  0.00     0.195 C 
ATOM      9  C   UNL A   1      33.849  23.416  23.043  1.00  0.00     0.063 C 
ATOM     10  C   UNL A   1      32.503  22.988  22.427  1.00  0.00     0.011 C 
ATOM     11  C   UNL A   1      32.236  21.601  22.999  1.00  0.00     0.008 C 
ATOM     12  C   UNL A   1      33.175  21.456  24.194  1.00  0.00     0.081 C 
BRANCH   9  13
ATOM     13  C   UNL A   1      34.091  24.911  22.793  1.00  0.00     0.022 C 
BRANCH  13  14
ATOM     14  C   UNL A   1      33.051  25.612  21.907  1.00  0.00     0.079 C 
BRANCH  14  15
ATOM     15  S   UNL A   1      31.960  26.795  22.727  1.00  0.00    -0.085 SA
BRANCH  15  16
ATOM     16  C   UNL A   1      31.780  26.574  24.433  1.00  0.00     0.209 A 
ATOM     17  C   UNL A   1      29.330  26.024  24.930  1.00  0.00     0.179 C 
ATOM     18  N   UNL A   1      30.695  26.298  25.218  1.00  0.00    -0.224 N 
ATOM     19  N   UNL A   1      31.052  26.287  26.515  1.00  0.00    -0.045 NA
ATOM     20  N   UNL A   1      32.336  26.592  26.523  1.00  0.00    -0.023 NA
ATOM     21  N   UNL A   1      32.799  26.773  25.248  1.00  0.00    -0.102 NA
ENDBRANCH  15  16
ENDBRANCH  14  15
ENDBRANCH  13  14
ENDBRANCH   9  13
BRANCH   8  22
ATOM     22  N   UNL A   1      32.695  23.550  25.304  1.00  0.00    -0.343 N 
ATOM     23  H   UNL A   1      32.645  23.119  26.227  1.00  0.00     0.345 HD
ATOM     24  H   UNL A   1      31.792  23.461  24.839  1.00  0.00     0.345 HD
ATOM     25  H   UNL A   1      32.933  24.537  25.401  1.00  0.00     0.345 HD
ENDBRANCH   8  22
ENDBRANCH   6   8
ENDBRANCH   5   6
ENDBRANCH   4   5
ENDBRANCH   3   4
ENDBRANCH   2   3
ENDBRANCH   1   2
BRANCH   1  26
ATOM     26  C   UNL A   1      40.911  20.464  26.431  1.00  0.00     0.188 C 
BRANCH  26  27
ATOM     27  O   UNL A   1      42.135  20.376  25.743  1.00  0.00    -0.376 OA
BRANCH  27  28
ATOM     28  C   UNL A   1      43.190  21.266  26.055  1.00  0.00     0.202 C 
BRANCH  28  29
ATOM     29  C   UNL A   1      43.798  22.247  25.036  1.00  0.00     0.261 C 
BRANCH  29  30
ATOM     30  O   UNL A   1      43.154  23.522  24.900  1.00  0.00    -0.460 OA
BRANCH  30  31
ATOM     31  C   UNL A   1      43.916  24.604  25.197  1.00  0.00     0.338 C 
ATOM     32  O   UNL A   1      44.965  24.933  24.658  1.00  0.00    -0.246 OA
BRANCH  31  33
ATOM     33  C   UNL A   1      43.175  25.501  26.112  1.00  0.00     0.060 A 
ATOM     34  C   UNL A   1      43.645  26.813  26.292  1.00  0.00     0.016 A 
ATOM     35  C   UNL A   1      42.034  25.065  26.786  1.00  0.00     0.016 A 
ATOM     36  C   UNL A   1      43.015  27.672  27.192  1.00  0.00     0.010 A 
ATOM     37  C   UNL A   1      41.419  25.917  27.712  1.00  0.00     0.010 A 
ATOM     38  C   UNL A   1      41.940  27.203  27.956  1.00  0.00    -0.014 A 
BRANCH  38  39
ATOM     39  C   UNL A   1      41.579  27.914  29.211  1.00  0.00     0.031 A 
ATOM     40  C   UNL A   1      40.363  28.804  29.178  1.00  0.00     0.074 A 
ATOM     41  C   UNL A   1      42.264  27.762  30.357  1.00  0.00     0.049 A 
ATOM     42  N   UNL A   1      39.853  29.564  30.112  1.00  0.00    -0.248 NA
ATOM     43  C   UNL A   1      39.627  28.842  27.903  1.00  0.00     0.031 C 
ATOM     44  C   UNL A   1      43.414  26.886  30.552  1.00  0.00     0.029 A 
ATOM     45  N   UNL A   1      42.078  28.358  31.581  1.00  0.00    -0.354 N 
ATOM     46  C   UNL A   1      38.748  30.178  29.534  1.00  0.00     0.074 A 
ATOM     47  C   UNL A   1      38.690  29.737  28.158  1.00  0.00     0.031 C 
ATOM     48  C   UNL A   1      43.834  27.000  31.826  1.00  0.00     0.029 A 
ATOM     49  C   UNL A   1      43.002  27.982  32.523  1.00  0.00     0.049 A 
ATOM     50  H   UNL A   1      41.350  28.995  31.765  1.00  0.00     0.167 HD
ATOM     51  C   UNL A   1      37.854  31.027  30.094  1.00  0.00     0.037 A 
ATOM     52  C   UNL A   1      43.160  28.394  33.797  1.00  0.00     0.037 A 
ATOM     53  C   UNL A   1      37.917  31.480  31.458  1.00  0.00     0.049 A 
ATOM     54  C   UNL A   1      42.217  29.419  34.375  1.00  0.00     0.074 A 
ATOM     55  C   UNL A   1      37.061  32.340  32.123  1.00  0.00     0.029 A 
ATOM     56  N   UNL A   1      38.904  31.119  32.363  1.00  0.00    -0.354 N 
ATOM     57  N   UNL A   1      41.170  29.989  33.827  1.00  0.00    -0.248 NA
ATOM     58  C   UNL A   1      42.479  29.854  35.756  1.00  0.00     0.031 C 
ATOM     59  C   UNL A   1      37.566  32.549  33.410  1.00  0.00     0.029 A 
ATOM     60  C   UNL A   1      38.695  31.761  33.572  1.00  0.00     0.049 A 
ATOM     61  H   UNL A   1      39.645  30.499  32.173  1.00  0.00     0.167 HD
ATOM     62  C   UNL A   1      40.622  30.810  34.808  1.00  0.00     0.074 A 
ATOM     63  C   UNL A   1      41.455  30.665  35.984  1.00  0.00     0.031 C 
ATOM     64  C   UNL A   1      39.522  31.602  34.744  1.00  0.00     0.037 A 
BRANCH  51  65
ATOM     65  C   UNL A   1      36.767  31.551  29.199  1.00  0.00     0.057 A 
ATOM     66  C   UNL A   1      36.786  32.856  28.684  1.00  0.00     0.134 A 
ATOM     67  C   UNL A   1      35.661  30.751  28.882  1.00  0.00     0.134 A 
ATOM     68  F   UNL A   1      37.805  33.683  28.964  1.00  0.00    -0.206 F 
ATOM     69  C   UNL A   1      35.722  33.361  27.933  1.00  0.00     0.040 A 
ATOM     70  C   UNL A   1      34.610  31.234  28.101  1.00  0.00     0.040 A 
ATOM     71  F   UNL A   1      35.578  29.492  29.336  1.00  0.00    -0.206 F 
ATOM     72  C   UNL A   1      34.631  32.547  27.638  1.00  0.00     0.006 A 
ENDBRANCH  51  65
BRANCH  52  73
ATOM     73  C   UNL A   1      44.250  27.824  34.633  1.00  0.00     0.057 A 
ATOM     74  C   UNL A   1      44.030  26.693  35.428  1.00  0.00     0.134 A 
ATOM     75  C   UNL A   1      45.525  28.400  34.673  1.00  0.00     0.134 A 
ATOM     76  F   UNL A   1      42.820  26.113  35.455  1.00  0.00    -0.206 F 
ATOM     77  C   UNL A   1      45.033  26.161  36.239  1.00  0.00     0.040 A 
ATOM     78  C   UNL A   1      46.545  27.864  35.461  1.00  0.00     0.040 A 
ATOM     79  F   UNL A   1      45.800  29.490  33.940  1.00  0.00    -0.206 F 
ATOM     80  C   UNL A   1      46.298  26.744  36.252  1.00  0.00     0.006 A 
ENDBRANCH  52  73
BRANCH  64  81
ATOM     81  C   UNL A   1      39.108  32.324  35.997  1.00  0.00     0.057 A 
ATOM     82  C   UNL A   1      39.519  33.631  36.284  1.00  0.00     0.134 A 
ATOM     83  C   UNL A   1      38.247  31.705  36.915  1.00  0.00     0.134 A 
ATOM     84  F   UNL A   1      40.350  34.281  35.454  1.00  0.00    -0.206 F 
ATOM     85  C   UNL A   1      39.116  34.284  37.451  1.00  0.00     0.040 A 
ATOM     86  C   UNL A   1      37.811  32.359  38.068  1.00  0.00     0.040 A 
ATOM     87  F   UNL A   1      37.801  30.458  36.699  1.00  0.00    -0.206 F 
ATOM     88  C   UNL A   1      38.254  33.651  38.344  1.00  0.00     0.006 A 
ENDBRANCH  64  81
ENDBRANCH  38  39
ENDBRANCH  31  33
ENDBRANCH  30  31
ENDBRANCH  29  30
ENDBRANCH  28  29
ENDBRANCH  27  28
ENDBRANCH  26  27
ENDBRANCH   1  26
TORSDOF 22
ENDMDL
MODEL 2
REMARK VINA RESULT:      -9.6      0.898      6.237
REMARK SMILES Cn1nnnc1SCC[C@@H]1CCC[C@@]1([NH3+])C(=O)OCCOCCOCCOC(=O)c1ccc(-c2c3nc(c(-c4c(F)cccc4F)c4ccc([nH]4)c(-c4c(F)cccc4F)c4nc(c(-c5c(F)cccc5F)c5ccc2[nH]5)C=C4)C=C3)cc1
REMARK SMILES IDX 22 1 21 2 20 3 19 4 18 5 16 6 17 7 14 8 10 9 11 10 12 11
REMARK SMILES IDX 13 12 9 13 8 14 7 15 6 16 1 17 2 18 3 19 4 20 5 21 15 22
REMARK SMILES IDX 23 26 24 27 25 28 26 29 27 30 28 31 29 32 30 33 31 34 83 35
REMARK SMILES IDX 32 36 82 37 33 38 34 39 35 40 76 41 36 42 81 43 75 44 77 45
REMARK SMILES IDX 37 46 80 47 74 48 73 49 38 51 64 52 47 53 63 54 48 55 51 56
REMARK SMILES IDX 62 57 78 58 49 59 50 60 61 62 79 63 52 64 39 65 40 66 45 67
REMARK SMILES IDX 41 68 42 69 44 70 46 71 43 72 65 73 66 74 71 75 67 76 68 77
REMARK SMILES IDX 70 78 72 79 69 80 53 81 54 82 59 83 55 84 56 85 58 86 60 87
REMARK SMILES IDX 57 88
REMARK H PARENT 15 23 15 24 15 25 77 50 51 61
REMARK Flexibility Score: inf
ROOT
ATOM      1  C   UNL A   1      40.099  21.920  26.679  1.00  0.00     0.188 C 
ENDROOT
BRANCH   1   2
ATOM      2  O   UNL A   1      39.049  21.197  26.077  1.00  0.00    -0.376 OA
BRANCH   2   3
ATOM      3  C   UNL A   1      37.987  21.925  25.493  1.00  0.00     0.202 C 
BRANCH   3   4
ATOM      4  C   UNL A   1      36.629  21.243  25.319  1.00  0.00     0.261 C 
BRANCH   4   5
ATOM      5  O   UNL A   1      35.506  22.116  25.019  1.00  0.00    -0.459 OA
BRANCH   5   6
ATOM      6  C   UNL A   1      34.359  21.910  25.731  1.00  0.00     0.368 C 
ATOM      7  O   UNL A   1      34.287  22.101  26.941  1.00  0.00    -0.245 OA
BRANCH   6   8
ATOM      8  C   UNL A   1      33.122  21.491  24.871  1.00  0.00     0.195 C 
ATOM      9  C   UNL A   1      32.996  22.033  23.416  1.00  0.00     0.063 C 
ATOM     10  C   UNL A   1      32.026  21.024  22.772  1.00  0.00     0.011 C 
ATOM     11  C   UNL A   1      32.431  19.672  23.347  1.00  0.00     0.008 C 
ATOM     12  C   UNL A   1      33.300  19.981  24.564  1.00  0.00     0.081 C 
BRANCH   9  13
ATOM     13  C   UNL A   1      32.512  23.468  23.161  1.00  0.00     0.022 C 
BRANCH  13  14
ATOM     14  C   UNL A   1      33.614  24.532  23.064  1.00  0.00     0.079 C 
BRANCH  14  15
ATOM     15  S   UNL A   1      33.907  25.527  24.542  1.00  0.00    -0.085 SA
BRANCH  15  16
ATOM     16  C   UNL A   1      33.191  27.102  24.526  1.00  0.00     0.209 A 
ATOM     17  C   UNL A   1      30.664  26.853  24.844  1.00  0.00     0.179 C 
ATOM     18  N   UNL A   1      31.897  27.528  24.625  1.00  0.00    -0.224 N 
ATOM     19  N   UNL A   1      31.837  28.865  24.490  1.00  0.00    -0.045 NA
ATOM     20  N   UNL A   1      33.081  29.247  24.271  1.00  0.00    -0.023 NA
ATOM     21  N   UNL A   1      33.928  28.171  24.290  1.00  0.00    -0.102 NA
ENDBRANCH  15  16
ENDBRANCH  14  15
ENDBRANCH  13  14
ENDBRANCH   9  13
BRANCH   8  22
ATOM     22  N   UNL A   1      31.866  21.597  25.649  1.00  0.00    -0.343 N 
ATOM     23  H   UNL A   1      31.720  22.567  25.929  1.00  0.00     0.345 HD
ATOM     24  H   UNL A   1      31.930  21.010  26.481  1.00  0.00     0.345 HD
ATOM     25  H   UNL A   1      31.083  21.287  25.074  1.00  0.00     0.345 HD
ENDBRANCH   8  22
ENDBRANCH   6   8
ENDBRANCH   5   6
ENDBRANCH   4   5
ENDBRANCH   3   4
ENDBRANCH   2   3
ENDBRANCH   1   2
BRANCH   1  26
ATOM     26  C   UNL A   1      41.489  21.265  26.812  1.00  0.00     0.188 C 
BRANCH  26  27
ATOM     27  O   UNL A   1      42.059  20.520  25.763  1.00  0.00    -0.376 OA
BRANCH  27  28
ATOM     28  C   UNL A   1      43.461  20.529  25.567  1.00  0.00     0.202 C 
BRANCH  28  29
ATOM     29  C   UNL A   1      44.254  21.793  25.189  1.00  0.00     0.261 C 
BRANCH  29  30
ATOM     30  O   UNL A   1      44.167  22.907  26.089  1.00  0.00    -0.460 OA
BRANCH  30  31
ATOM     31  C   UNL A   1      44.330  24.132  25.530  1.00  0.00     0.338 C 
ATOM     32  O   UNL A   1      44.890  24.388  24.473  1.00  0.00    -0.246 OA
BRANCH  31  33
ATOM     33  C   UNL A   1      43.504  25.125  26.255  1.00  0.00     0.060 A 
ATOM     34  C   UNL A   1      44.023  26.417  26.447  1.00  0.00     0.016 A 
ATOM     35  C   UNL A   1      42.239  24.796  26.742  1.00  0.00     0.016 A 
ATOM     36  C   UNL A   1      43.307  27.364  27.177  1.00  0.00     0.010 A 
ATOM     37  C   UNL A   1      41.534  25.737  27.502  1.00  0.00     0.010 A 
ATOM     38  C   UNL A   1      42.089  27.005  27.767  1.00  0.00    -0.014 A 
BRANCH  38  39
ATOM     39  C   UNL A   1      41.568  27.811  28.901  1.00  0.00     0.031 A 
ATOM     40  C   UNL A   1      42.309  27.725  30.211  1.00  0.00     0.074 A 
ATOM     41  C   UNL A   1      40.505  28.625  28.789  1.00  0.00     0.049 A 
ATOM     42  N   UNL A   1      42.048  28.288  31.363  1.00  0.00    -0.248 NA
ATOM     43  C   UNL A   1      43.511  26.874  30.216  1.00  0.00     0.031 C 
ATOM     44  C   UNL A   1      39.736  28.859  27.571  1.00  0.00     0.029 A 
ATOM     45  N   UNL A   1      39.890  29.409  29.736  1.00  0.00    -0.354 N 
ATOM     46  C   UNL A   1      43.043  27.849  32.228  1.00  0.00     0.074 A 
ATOM     47  C   UNL A   1      43.884  26.939  31.482  1.00  0.00     0.031 C 
ATOM     48  C   UNL A   1      38.749  29.732  27.843  1.00  0.00     0.029 A 
ATOM     49  C   UNL A   1      38.797  30.090  29.262  1.00  0.00     0.049 A 
ATOM     50  H   UNL A   1      40.205  29.476  30.666  1.00  0.00     0.167 HD
ATOM     51  C   UNL A   1      43.250  28.175  33.526  1.00  0.00     0.037 A 
ATOM     52  C   UNL A   1      37.932  30.899  29.906  1.00  0.00     0.037 A 
ATOM     53  C   UNL A   1      42.408  29.068  34.276  1.00  0.00     0.049 A 
ATOM     54  C   UNL A   1      38.116  31.171  31.379  1.00  0.00     0.074 A 
ATOM     55  C   UNL A   1      42.529  29.464  35.597  1.00  0.00     0.029 A 
ATOM     56  N   UNL A   1      41.275  29.691  33.774  1.00  0.00    -0.354 N 
ATOM     57  N   UNL A   1      39.062  30.760  32.188  1.00  0.00    -0.248 NA
ATOM     58  C   UNL A   1      37.108  32.027  32.023  1.00  0.00     0.031 C 
ATOM     59  C   UNL A   1      41.435  30.278  35.910  1.00  0.00     0.029 A 
ATOM     60  C   UNL A   1      40.673  30.448  34.765  1.00  0.00     0.049 A 
ATOM     61  H   UNL A   1      40.948  29.608  32.849  1.00  0.00     0.167 HD
ATOM     62  C   UNL A   1      38.792  31.345  33.422  1.00  0.00     0.074 A 
ATOM     63  C   UNL A   1      37.591  32.136  33.253  1.00  0.00     0.031 C 
ATOM     64  C   UNL A   1      39.483  31.244  34.586  1.00  0.00     0.037 A 
BRANCH  51  65
ATOM     65  C   UNL A   1      44.410  27.512  34.214  1.00  0.00     0.057 A 
ATOM     66  C   UNL A   1      45.695  28.071  34.222  1.00  0.00     0.134 A 
ATOM     67  C   UNL A   1      44.245  26.271  34.844  1.00  0.00     0.134 A 
ATOM     68  F   UNL A   1      45.929  29.248  33.620  1.00  0.00    -0.206 F 
ATOM     69  C   UNL A   1      46.783  27.397  34.781  1.00  0.00     0.040 A 
ATOM     70  C   UNL A   1      45.317  25.605  35.440  1.00  0.00     0.040 A 
ATOM     71  F   UNL A   1      43.042  25.679  34.879  1.00  0.00    -0.206 F 
ATOM     72  C   UNL A   1      46.593  26.161  35.395  1.00  0.00     0.006 A 
ENDBRANCH  51  65
BRANCH  52  73
ATOM     73  C   UNL A   1      36.813  31.535  29.161  1.00  0.00     0.057 A 
ATOM     74  C   UNL A   1      36.882  32.877  28.768  1.00  0.00     0.134 A 
ATOM     75  C   UNL A   1      35.647  30.829  28.842  1.00  0.00     0.134 A 
ATOM     76  F   UNL A   1      37.961  33.614  29.071  1.00  0.00    -0.206 F 
ATOM     77  C   UNL A   1      35.830  33.497  28.092  1.00  0.00     0.040 A 
ATOM     78  C   UNL A   1      34.597  31.429  28.144  1.00  0.00     0.040 A 
ATOM     79  F   UNL A   1      35.515  29.542  29.196  1.00  0.00    -0.206 F 
ATOM     80  C   UNL A   1      34.685  32.770  27.772  1.00  0.00     0.006 A 
ENDBRANCH  52  73
BRANCH  64  81
ATOM     81  C   UNL A   1      39.003  32.060  35.755  1.00  0.00     0.057 A 
ATOM     82  C   UNL A   1      38.173  31.533  36.752  1.00  0.00     0.134 A 
ATOM     83  C   UNL A   1      39.416  33.393  35.902  1.00  0.00     0.134 A 
ATOM     84  F   UNL A   1      37.732  30.268  36.671  1.00  0.00    -0.206 F 
ATOM     85  C   UNL A   1      37.745  32.308  37.832  1.00  0.00     0.040 A 
ATOM     86  C   UNL A   1      39.023  34.167  36.994  1.00  0.00     0.040 A 
ATOM     87  F   UNL A   1      40.223  33.960  34.993  1.00  0.00    -0.206 F 
ATOM     88  C   UNL A   1      38.176  33.627  37.959  1.00  0.00     0.006 A 
ENDBRANCH  64  81
ENDBRANCH  38  39
ENDBRANCH  31  33
ENDBRANCH  30  31
ENDBRANCH  29  30
ENDBRANCH  28  29
ENDBRANCH  27  28
ENDBRANCH  26  27
ENDBRANCH   1  26
TORSDOF 22
ENDMDL
MODEL 3
REMARK VINA RESULT:      -9.5      3.822      6.664
REMARK SMILES Cn1nnnc1SCC[C@@H]1CCC[C@@]1([NH3+])C(=O)OCCOCCOCCOC(=O)c1ccc(-c2c3nc(c(-c4c(F)cccc4F)c4ccc([nH]4)c(-c4c(F)cccc4F)c4nc(c(-c5c(F)cccc5F)c5ccc2[nH]5)C=C4)C=C3)cc1
REMARK SMILES IDX 22 1 21 2 20 3 19 4 18 5 16 6 17 7 14 8 10 9 11 10 12 11
REMARK SMILES IDX 13 12 9 13 8 14 7 15 6 16 1 17 2 18 3 19 4 20 5 21 15 22
REMARK SMILES IDX 23 26 24 27 25 28 26 29 27 30 28 31 29 32 30 33 31 34 83 35
REMARK SMILES IDX 32 36 82 37 33 38 34 39 35 40 76 41 36 42 81 43 75 44 77 45
REMARK SMILES IDX 37 46 80 47 74 48 73 49 38 51 64 52 47 53 63 54 48 55 51 56
REMARK SMILES IDX 62 57 78 58 49 59 50 60 61 62 79 63 52 64 39 65 40 66 45 67
REMARK SMILES IDX 41 68 42 69 44 70 46 71 43 72 65 73 66 74 71 75 67 76 68 77
REMARK SMILES IDX 70 78 72 79 69 80 53 81 54 82 59 83 55 84 56 85 58 86 60 87
REMARK SMILES IDX 57 88
REMARK H PARENT 15 23 15 24 15 25 77 50 51 61
REMARK Flexibility Score: inf
ROOT
ATOM      1  C   UNL A   1      32.854  20.315  24.598  1.00  0.00     0.188 C 
ENDROOT
BRANCH   1   2
ATOM      2  O   UNL A   1      32.445  20.979  25.774  1.00  0.00    -0.376 OA
BRANCH   2   3
ATOM      3  C   UNL A   1      33.365  21.067  26.843  1.00  0.00     0.202 C 
BRANCH   3   4
ATOM      4  C   UNL A   1      33.235  22.220  27.839  1.00  0.00     0.261 C 
BRANCH   4   5
ATOM      5  O   UNL A   1      32.195  23.196  27.560  1.00  0.00    -0.459 OA
BRANCH   5   6
ATOM      6  C   UNL A   1      32.440  24.085  26.553  1.00  0.00     0.368 C 
ATOM      7  O   UNL A   1      33.574  24.373  26.184  1.00  0.00    -0.245 OA
BRANCH   6   8
ATOM      8  C   UNL A   1      31.159  24.644  25.850  1.00  0.00     0.195 C 
ATOM      9  C   UNL A   1      31.130  26.139  25.412  1.00  0.00     0.063 C 
ATOM     10  C   UNL A   1      30.019  26.146  24.344  1.00  0.00     0.011 C 
ATOM     11  C   UNL A   1      30.205  24.841  23.579  1.00  0.00     0.008 C 
ATOM     12  C   UNL A   1      31.103  23.970  24.454  1.00  0.00     0.081 C 
BRANCH   9  13
ATOM     13  C   UNL A   1      30.875  27.245  26.445  1.00  0.00     0.022 C 
BRANCH  13  14
ATOM     14  C   UNL A   1      31.964  28.323  26.542  1.00  0.00     0.079 C 
BRANCH  14  15
ATOM     15  S   UNL A   1      31.696  29.829  25.582  1.00  0.00    -0.085 SA
BRANCH  15  16
ATOM     16  C   UNL A   1      30.929  29.601  24.049  1.00  0.00     0.209 A 
ATOM     17  C   UNL A   1      32.515  28.286  22.530  1.00  0.00     0.179 C 
ATOM     18  N   UNL A   1      31.340  29.001  22.892  1.00  0.00    -0.224 N 
ATOM     19  N   UNL A   1      30.400  29.139  21.939  1.00  0.00    -0.045 NA
ATOM     20  N   UNL A   1      29.440  29.851  22.499  1.00  0.00    -0.023 NA
ATOM     21  N   UNL A   1      29.752  30.143  23.800  1.00  0.00    -0.102 NA
ENDBRANCH  15  16
ENDBRANCH  14  15
ENDBRANCH  13  14
ENDBRANCH   9  13
BRANCH   8  22
ATOM     22  N   UNL A   1      29.928  24.212  26.554  1.00  0.00    -0.343 N 
ATOM     23  H   UNL A   1      30.022  24.403  27.551  1.00  0.00     0.345 HD
ATOM     24  H   UNL A   1      29.787  23.212  26.411  1.00  0.00     0.345 HD
ATOM     25  H   UNL A   1      29.128  24.725  26.184  1.00  0.00     0.345 HD
ENDBRANCH   8  22
ENDBRANCH   6   8
ENDBRANCH   5   6
ENDBRANCH   4   5
ENDBRANCH   3   4
ENDBRANCH   2   3
ENDBRANCH   1   2
BRANCH   1  26
ATOM     26  C   UNL A   1      34.116  19.430  24.629  1.00  0.00     0.188 C 
BRANCH  26  27
ATOM     27  O   UNL A   1      35.404  19.982  24.752  1.00  0.00    -0.376 OA
BRANCH  27  28
ATOM     28  C   UNL A   1      36.527  19.136  24.914  1.00  0.00     0.202 C 
BRANCH  28  29
ATOM     29  C   UNL A   1      37.979  19.613  24.734  1.00  0.00     0.261 C 
BRANCH  29  30
ATOM     30  O   UNL A   1      38.403  20.721  25.542  1.00  0.00    -0.460 OA
BRANCH  30  31
ATOM     31  C   UNL A   1      39.584  20.563  26.189  1.00  0.00     0.338 C 
ATOM     32  O   UNL A   1      40.324  19.590  26.138  1.00  0.00    -0.246 OA
BRANCH  31  33
ATOM     33  C   UNL A   1      40.003  21.852  26.785  1.00  0.00     0.060 A 
ATOM     34  C   UNL A   1      39.340  23.024  26.384  1.00  0.00     0.016 A 
ATOM     35  C   UNL A   1      41.032  21.914  27.725  1.00  0.00     0.016 A 
ATOM     36  C   UNL A   1      39.742  24.267  26.873  1.00  0.00     0.010 A 
ATOM     37  C   UNL A   1      41.457  23.163  28.192  1.00  0.00     0.010 A 
ATOM     38  C   UNL A   1      40.849  24.346  27.727  1.00  0.00    -0.014 A 
BRANCH  38  39
ATOM     39  C   UNL A   1      41.562  25.642  27.867  1.00  0.00     0.031 A 
ATOM     40  C   UNL A   1      40.859  26.743  28.618  1.00  0.00     0.074 A 
ATOM     41  C   UNL A   1      42.802  25.847  27.391  1.00  0.00     0.049 A 
ATOM     42  N   UNL A   1      41.233  27.975  28.850  1.00  0.00    -0.248 NA
ATOM     43  C   UNL A   1      39.539  26.402  29.176  1.00  0.00     0.031 C 
ATOM     44  C   UNL A   1      43.626  24.855  26.709  1.00  0.00     0.029 A 
ATOM     45  N   UNL A   1      43.581  26.979  27.417  1.00  0.00    -0.354 N 
ATOM     46  C   UNL A   1      40.194  28.555  29.567  1.00  0.00     0.074 A 
ATOM     47  C   UNL A   1      39.156  27.555  29.692  1.00  0.00     0.031 C 
ATOM     48  C   UNL A   1      44.802  25.422  26.378  1.00  0.00     0.029 A 
ATOM     49  C   UNL A   1      44.796  26.825  26.797  1.00  0.00     0.049 A 
ATOM     50  H   UNL A   1      43.295  27.819  27.840  1.00  0.00     0.167 HD
ATOM     51  C   UNL A   1      40.107  29.802  30.086  1.00  0.00     0.037 A 
ATOM     52  C   UNL A   1      45.782  27.720  26.585  1.00  0.00     0.037 A 
ATOM     53  C   UNL A   1      41.131  30.804  29.952  1.00  0.00     0.049 A 
ATOM     54  C   UNL A   1      45.626  29.136  27.080  1.00  0.00     0.074 A 
ATOM     55  C   UNL A   1      41.140  32.099  30.439  1.00  0.00     0.029 A 
ATOM     56  N   UNL A   1      42.322  30.626  29.265  1.00  0.00    -0.354 N 
ATOM     57  N   UNL A   1      44.645  29.675  27.764  1.00  0.00    -0.248 NA
ATOM     58  C   UNL A   1      46.723  30.068  26.772  1.00  0.00     0.031 C 
ATOM     59  C   UNL A   1      42.311  32.723  29.994  1.00  0.00     0.029 A 
ATOM     60  C   UNL A   1      43.064  31.795  29.292  1.00  0.00     0.049 A 
ATOM     61  H   UNL A   1      42.600  29.790  28.824  1.00  0.00     0.167 HD
ATOM     62  C   UNL A   1      45.027  30.991  28.010  1.00  0.00     0.074 A 
ATOM     63  C   UNL A   1      46.328  31.168  27.399  1.00  0.00     0.031 C 
ATOM     64  C   UNL A   1      44.365  31.960  28.691  1.00  0.00     0.037 A 
BRANCH  51  65
ATOM     65  C   UNL A   1      38.831  30.152  30.799  1.00  0.00     0.057 A 
ATOM     66  C   UNL A   1      37.793  30.856  30.172  1.00  0.00     0.134 A 
ATOM     67  C   UNL A   1      38.656  29.815  32.147  1.00  0.00     0.134 A 
ATOM     68  F   UNL A   1      37.902  31.228  28.887  1.00  0.00    -0.206 F 
ATOM     69  C   UNL A   1      36.654  31.258  30.874  1.00  0.00     0.040 A 
ATOM     70  C   UNL A   1      37.506  30.178  32.849  1.00  0.00     0.040 A 
ATOM     71  F   UNL A   1      39.606  29.138  32.810  1.00  0.00    -0.206 F 
ATOM     72  C   UNL A   1      36.508  30.916  32.216  1.00  0.00     0.006 A 
ENDBRANCH  51  65
BRANCH  52  73
ATOM     73  C   UNL A   1      47.026  27.304  25.884  1.00  0.00     0.057 A 
ATOM     74  C   UNL A   1      47.182  27.518  24.509  1.00  0.00     0.134 A 
ATOM     75  C   UNL A   1      48.075  26.671  26.560  1.00  0.00     0.134 A 
ATOM     76  F   UNL A   1      46.199  28.094  23.800  1.00  0.00    -0.206 F 
ATOM     77  C   UNL A   1      48.330  27.110  23.829  1.00  0.00     0.040 A 
ATOM     78  C   UNL A   1      49.240  26.279  25.898  1.00  0.00     0.040 A 
ATOM     79  F   UNL A   1      47.985  26.430  27.876  1.00  0.00    -0.206 F 
ATOM     80  C   UNL A   1      49.367  26.494  24.527  1.00  0.00     0.006 A 
ENDBRANCH  52  73
BRANCH  64  81
ATOM     81  C   UNL A   1      45.060  33.282  28.876  1.00  0.00     0.057 A 
ATOM     82  C   UNL A   1      45.920  33.537  29.951  1.00  0.00     0.134 A 
ATOM     83  C   UNL A   1      44.891  34.305  27.932  1.00  0.00     0.134 A 
ATOM     84  F   UNL A   1      46.121  32.605  30.897  1.00  0.00    -0.206 F 
ATOM     85  C   UNL A   1      46.560  34.769  30.099  1.00  0.00     0.040 A 
ATOM     86  C   UNL A   1      45.552  35.529  28.051  1.00  0.00     0.040 A 
ATOM     87  F   UNL A   1      44.093  34.128  26.869  1.00  0.00    -0.206 F 
ATOM     88  C   UNL A   1      46.382  35.767  29.143  1.00  0.00     0.006 A 
ENDBRANCH  64  81
ENDBRANCH  38  39
ENDBRANCH  31  33
ENDBRANCH  30  31
ENDBRANCH  29  30
ENDBRANCH  28  29
ENDBRANCH  27  28
ENDBRANCH  26  27
ENDBRANCH   1  26
TORSDOF 22
ENDMDL
