MODEL 1
REMARK VINA RESULT:     -10.9      0.000      0.000
REMARK SMILES O=C(Cn1cnc(-c2ccccc2)c1-c1ccccc1)OCCOCCOCCOC(=O)c1ccc(-c2c3nc(c(-c4c(F)cccc4F)c4ccc([nH]4)c(-c4c(F)cccc4F)c4nc(c(-c5c(F)cccc5F)c5ccc2[nH]5)C=C4)C=C3)cc1
REMARK SMILES IDX 25 1 24 2 23 3 22 4 21 5 2 6 1 7 3 8 4 9 5 10 14 11 6 12
REMARK SMILES IDX 7 13 15 14 16 15 20 16 17 17 19 18 18 19 8 20 9 21 13 22
REMARK SMILES IDX 10 23 12 24 11 25 26 26 27 27 28 28 29 29 30 30 31 31 32 32
REMARK SMILES IDX 33 33 34 34 86 35 35 36 85 37 36 38 37 39 38 40 79 41 39 42
REMARK SMILES IDX 84 43 78 44 80 45 40 46 83 47 77 48 76 49 41 51 67 52 50 53
REMARK SMILES IDX 66 54 51 55 54 56 65 57 81 58 52 59 53 60 64 62 82 63 55 64
REMARK SMILES IDX 42 65 43 66 48 67 44 68 45 69 47 70 49 71 46 72 68 73 69 74
REMARK SMILES IDX 74 75 70 76 71 77 73 78 75 79 72 80 56 81 57 82 62 83 58 84
REMARK SMILES IDX 59 85 61 86 63 87 60 88
REMARK H PARENT 80 50 54 61
REMARK Flexibility Score: inf
ROOT
ATOM      1  C   UNL A   1      33.904  31.035  27.658  1.00  0.00     0.188 C 
ENDROOT
BRANCH   1   2
ATOM      2  O   UNL A   1      33.266  30.193  26.705  1.00  0.00    -0.376 OA
BRANCH   2   3
ATOM      3  C   UNL A   1      33.875  28.933  26.430  1.00  0.00     0.202 C 
BRANCH   3   4
ATOM      4  C   UNL A   1      33.469  28.223  25.130  1.00  0.00     0.261 C 
BRANCH   4   5
ATOM      5  O   UNL A   1      32.428  27.246  25.255  1.00  0.00    -0.462 OA
BRANCH   5   6
ATOM      6  C   UNL A   1      32.685  25.971  24.895  1.00  0.00     0.326 C 
ATOM      7  O   UNL A   1      32.478  25.587  23.747  1.00  0.00    -0.250 OA
BRANCH   6   8
ATOM      8  C   UNL A   1      32.989  25.032  26.024  1.00  0.00     0.246 C 
BRANCH   8   9
ATOM      9  N   UNL A   1      32.568  23.667  25.788  1.00  0.00    -0.319 N 
ATOM     10  C   UNL A   1      31.260  23.287  25.963  1.00  0.00     0.201 A 
ATOM     11  C   UNL A   1      33.285  22.548  25.404  1.00  0.00     0.076 A 
ATOM     12  N   UNL A   1      31.061  22.041  25.617  1.00  0.00    -0.236 NA
ATOM     13  C   UNL A   1      32.296  21.583  25.251  1.00  0.00     0.096 A 
BRANCH  11  14
ATOM     14  C   UNL A   1      34.707  22.405  25.085  1.00  0.00     0.000 A 
ATOM     15  C   UNL A   1      35.199  22.801  23.830  1.00  0.00     0.010 A 
ATOM     16  C   UNL A   1      35.571  21.732  25.962  1.00  0.00     0.010 A 
ATOM     17  C   UNL A   1      36.543  22.596  23.494  1.00  0.00     0.001 A 
ATOM     18  C   UNL A   1      36.914  21.525  25.623  1.00  0.00     0.001 A 
ATOM     19  C   UNL A   1      37.402  21.968  24.394  1.00  0.00     0.000 A 
ENDBRANCH  11  14
BRANCH  13  20
ATOM     20  C   UNL A   1      32.521  20.306  24.615  1.00  0.00     0.002 A 
ATOM     21  C   UNL A   1      32.887  19.225  25.421  1.00  0.00     0.010 A 
ATOM     22  C   UNL A   1      32.236  20.107  23.261  1.00  0.00     0.010 A 
ATOM     23  C   UNL A   1      32.933  17.942  24.884  1.00  0.00     0.001 A 
ATOM     24  C   UNL A   1      32.282  18.821  22.725  1.00  0.00     0.001 A 
ATOM     25  C   UNL A   1      32.623  17.740  23.539  1.00  0.00     0.000 A 
ENDBRANCH  13  20
ENDBRANCH   8   9
ENDBRANCH   6   8
ENDBRANCH   5   6
ENDBRANCH   4   5
ENDBRANCH   3   4
ENDBRANCH   2   3
ENDBRANCH   1   2
BRANCH   1  26
ATOM     26  C   UNL A   1      33.554  32.538  27.661  1.00  0.00     0.188 C 
BRANCH  26  27
ATOM     27  O   UNL A   1      34.291  33.314  28.603  1.00  0.00    -0.376 OA
BRANCH  27  28
ATOM     28  C   UNL A   1      34.370  34.711  28.358  1.00  0.00     0.202 C 
BRANCH  28  29
ATOM     29  C   UNL A   1      33.369  35.566  29.145  1.00  0.00     0.261 C 
BRANCH  29  30
ATOM     30  O   UNL A   1      32.828  34.944  30.306  1.00  0.00    -0.460 OA
BRANCH  30  31
ATOM     31  C   UNL A   1      33.024  35.606  31.444  1.00  0.00     0.338 C 
ATOM     32  O   UNL A   1      32.552  36.718  31.748  1.00  0.00    -0.246 OA
BRANCH  31  33
ATOM     33  C   UNL A   1      33.989  34.914  32.285  1.00  0.00     0.060 A 
ATOM     34  C   UNL A   1      35.115  35.636  32.690  1.00  0.00     0.016 A 
ATOM     35  C   UNL A   1      33.948  33.513  32.312  1.00  0.00     0.016 A 
ATOM     36  C   UNL A   1      36.292  34.951  32.877  1.00  0.00     0.010 A 
ATOM     37  C   UNL A   1      35.131  32.830  32.484  1.00  0.00     0.010 A 
ATOM     38  C   UNL A   1      36.300  33.572  32.649  1.00  0.00    -0.014 A 
BRANCH  38  39
ATOM     39  C   UNL A   1      37.593  32.954  32.435  1.00  0.00     0.031 A 
ATOM     40  C   UNL A   1      38.535  33.009  33.570  1.00  0.00     0.074 A 
ATOM     41  C   UNL A   1      37.867  32.310  31.284  1.00  0.00     0.049 A 
ATOM     42  N   UNL A   1      39.724  33.513  33.604  1.00  0.00    -0.248 NA
ATOM     43  C   UNL A   1      38.052  32.489  34.857  1.00  0.00     0.031 C 
ATOM     44  C   UNL A   1      36.937  31.932  30.213  1.00  0.00     0.029 A 
ATOM     45  N   UNL A   1      39.043  31.761  30.881  1.00  0.00    -0.354 N 
ATOM     46  C   UNL A   1      40.208  33.236  34.876  1.00  0.00     0.074 A 
ATOM     47  C   UNL A   1      39.105  32.710  35.641  1.00  0.00     0.031 C 
ATOM     48  C   UNL A   1      37.540  31.037  29.400  1.00  0.00     0.029 A 
ATOM     49  C   UNL A   1      38.922  30.878  29.820  1.00  0.00     0.049 A 
ATOM     50  H   UNL A   1      39.906  31.972  31.305  1.00  0.00     0.167 HD
ATOM     51  C   UNL A   1      41.532  33.277  35.178  1.00  0.00     0.037 A 
ATOM     52  C   UNL A   1      39.873  30.018  29.384  1.00  0.00     0.037 A 
ATOM     53  C   UNL A   1      42.286  34.057  34.239  1.00  0.00     0.049 A 
ATOM     54  C   UNL A   1      41.181  30.475  29.916  1.00  0.00     0.074 A 
ATOM     55  C   UNL A   1      42.273  35.384  33.858  1.00  0.00     0.029 A 
ATOM     56  N   UNL A   1      43.017  33.403  33.280  1.00  0.00    -0.354 N 
ATOM     57  N   UNL A   1      41.805  31.550  29.524  1.00  0.00    -0.248 NA
ATOM     58  C   UNL A   1      41.617  29.937  31.196  1.00  0.00     0.031 C 
ATOM     59  C   UNL A   1      42.588  35.380  32.468  1.00  0.00     0.029 A 
ATOM     60  C   UNL A   1      42.790  34.052  32.091  1.00  0.00     0.049 A 
ATOM     61  H   UNL A   1      43.595  32.618  33.418  1.00  0.00     0.167 HD
ATOM     62  C   UNL A   1      42.412  32.050  30.667  1.00  0.00     0.074 A 
ATOM     63  C   UNL A   1      42.353  30.960  31.635  1.00  0.00     0.031 C 
ATOM     64  C   UNL A   1      42.657  33.384  30.816  1.00  0.00     0.037 A 
BRANCH  51  65
ATOM     65  C   UNL A   1      42.157  32.371  36.196  1.00  0.00     0.057 A 
ATOM     66  C   UNL A   1      42.756  32.899  37.348  1.00  0.00     0.134 A 
ATOM     67  C   UNL A   1      42.390  31.000  35.961  1.00  0.00     0.134 A 
ATOM     68  F   UNL A   1      42.647  34.203  37.643  1.00  0.00    -0.206 F 
ATOM     69  C   UNL A   1      43.539  32.115  38.205  1.00  0.00     0.040 A 
ATOM     70  C   UNL A   1      43.123  30.197  36.835  1.00  0.00     0.040 A 
ATOM     71  F   UNL A   1      41.995  30.397  34.831  1.00  0.00    -0.206 F 
ATOM     72  C   UNL A   1      43.717  30.758  37.953  1.00  0.00     0.006 A 
ENDBRANCH  51  65
BRANCH  52  73
ATOM     73  C   UNL A   1      39.679  28.675  28.800  1.00  0.00     0.057 A 
ATOM     74  C   UNL A   1      40.169  28.360  27.526  1.00  0.00     0.134 A 
ATOM     75  C   UNL A   1      39.233  27.590  29.577  1.00  0.00     0.134 A 
ATOM     76  F   UNL A   1      40.659  29.320  26.729  1.00  0.00    -0.206 F 
ATOM     77  C   UNL A   1      40.224  27.041  27.057  1.00  0.00     0.040 A 
ATOM     78  C   UNL A   1      39.271  26.271  29.117  1.00  0.00     0.040 A 
ATOM     79  F   UNL A   1      38.826  27.763  30.844  1.00  0.00    -0.206 F 
ATOM     80  C   UNL A   1      39.781  25.990  27.856  1.00  0.00     0.006 A 
ENDBRANCH  52  73
BRANCH  64  81
ATOM     81  C   UNL A   1      42.490  34.261  29.604  1.00  0.00     0.057 A 
ATOM     82  C   UNL A   1      41.257  34.798  29.202  1.00  0.00     0.134 A 
ATOM     83  C   UNL A   1      43.624  34.693  28.908  1.00  0.00     0.134 A 
ATOM     84  F   UNL A   1      40.132  34.529  29.877  1.00  0.00    -0.206 F 
ATOM     85  C   UNL A   1      41.153  35.682  28.124  1.00  0.00     0.040 A 
ATOM     86  C   UNL A   1      43.537  35.605  27.852  1.00  0.00     0.040 A 
ATOM     87  F   UNL A   1      44.845  34.274  29.275  1.00  0.00    -0.206 F 
ATOM     88  C   UNL A   1      42.297  36.092  27.448  1.00  0.00     0.006 A 
ENDBRANCH  64  81
ENDBRANCH  38  39
ENDBRANCH  31  33
ENDBRANCH  30  31
ENDBRANCH  29  30
ENDBRANCH  28  29
ENDBRANCH  27  28
ENDBRANCH  26  27
ENDBRANCH   1  26
TORSDOF 20
ENDMDL
MODEL 2
REMARK VINA RESULT:     -10.8      5.426     10.434
REMARK SMILES O=C(Cn1cnc(-c2ccccc2)c1-c1ccccc1)OCCOCCOCCOC(=O)c1ccc(-c2c3nc(c(-c4c(F)cccc4F)c4ccc([nH]4)c(-c4c(F)cccc4F)c4nc(c(-c5c(F)cccc5F)c5ccc2[nH]5)C=C4)C=C3)cc1
REMARK SMILES IDX 25 1 24 2 23 3 22 4 21 5 2 6 1 7 3 8 4 9 5 10 14 11 6 12
REMARK SMILES IDX 7 13 15 14 16 15 20 16 17 17 19 18 18 19 8 20 9 21 13 22
REMARK SMILES IDX 10 23 12 24 11 25 26 26 27 27 28 28 29 29 30 30 31 31 32 32
REMARK SMILES IDX 33 33 34 34 86 35 35 36 85 37 36 38 37 39 38 40 79 41 39 42
REMARK SMILES IDX 84 43 78 44 80 45 40 46 83 47 77 48 76 49 41 51 67 52 50 53
REMARK SMILES IDX 66 54 51 55 54 56 65 57 81 58 52 59 53 60 64 62 82 63 55 64
REMARK SMILES IDX 42 65 43 66 48 67 44 68 45 69 47 70 49 71 46 72 68 73 69 74
REMARK SMILES IDX 74 75 70 76 71 77 73 78 75 79 72 80 56 81 57 82 62 83 58 84
REMARK SMILES IDX 59 85 61 86 63 87 60 88
REMARK H PARENT 80 50 54 61
REMARK Flexibility Score: inf
ROOT
ATOM      1  C   UNL A   1      38.633  21.134  25.728  1.00  0.00     0.188 C 
ENDROOT
BRANCH   1   2
ATOM      2  O   UNL A   1      37.522  21.850  25.200  1.00  0.00    -0.376 OA
BRANCH   2   3
ATOM      3  C   UNL A   1      36.218  21.357  25.501  1.00  0.00     0.202 C 
BRANCH   3   4
ATOM      4  C   UNL A   1      35.119  22.393  25.774  1.00  0.00     0.261 C 
BRANCH   4   5
ATOM      5  O   UNL A   1      34.260  22.694  24.667  1.00  0.00    -0.462 OA
BRANCH   5   6
ATOM      6  C   UNL A   1      34.635  23.654  23.794  1.00  0.00     0.326 C 
ATOM      7  O   UNL A   1      35.311  23.378  22.808  1.00  0.00    -0.250 OA
BRANCH   6   8
ATOM      8  C   UNL A   1      34.386  25.064  24.242  1.00  0.00     0.246 C 
BRANCH   8   9
ATOM      9  N   UNL A   1      33.281  25.711  23.569  1.00  0.00    -0.319 N 
ATOM     10  C   UNL A   1      32.823  25.257  22.357  1.00  0.00     0.201 A 
ATOM     11  C   UNL A   1      32.525  26.817  23.917  1.00  0.00     0.076 A 
ATOM     12  N   UNL A   1      31.767  25.915  21.953  1.00  0.00    -0.236 NA
ATOM     13  C   UNL A   1      31.562  26.863  22.916  1.00  0.00     0.096 A 
BRANCH  11  14
ATOM     14  C   UNL A   1      32.596  27.667  25.107  1.00  0.00     0.000 A 
ATOM     15  C   UNL A   1      33.662  28.567  25.277  1.00  0.00     0.010 A 
ATOM     16  C   UNL A   1      31.691  27.493  26.165  1.00  0.00     0.010 A 
ATOM     17  C   UNL A   1      33.773  29.328  26.448  1.00  0.00     0.001 A 
ATOM     18  C   UNL A   1      31.805  28.252  27.336  1.00  0.00     0.001 A 
ATOM     19  C   UNL A   1      32.839  29.178  27.473  1.00  0.00     0.000 A 
ENDBRANCH  11  14
BRANCH  13  20
ATOM     20  C   UNL A   1      30.387  27.700  22.980  1.00  0.00     0.002 A 
ATOM     21  C   UNL A   1      30.437  28.954  22.364  1.00  0.00     0.010 A 
ATOM     22  C   UNL A   1      29.181  27.223  23.503  1.00  0.00     0.010 A 
ATOM     23  C   UNL A   1      29.278  29.713  22.239  1.00  0.00     0.001 A 
ATOM     24  C   UNL A   1      28.021  27.985  23.377  1.00  0.00     0.001 A 
ATOM     25  C   UNL A   1      28.070  29.225  22.738  1.00  0.00     0.000 A 
ENDBRANCH  13  20
ENDBRANCH   8   9
ENDBRANCH   6   8
ENDBRANCH   5   6
ENDBRANCH   4   5
ENDBRANCH   3   4
ENDBRANCH   2   3
ENDBRANCH   1   2
BRANCH   1  26
ATOM     26  C   UNL A   1      39.805  21.936  26.331  1.00  0.00     0.188 C 
BRANCH  26  27
ATOM     27  O   UNL A   1      40.404  21.336  27.477  1.00  0.00    -0.376 OA
BRANCH  27  28
ATOM     28  C   UNL A   1      41.757  20.923  27.349  1.00  0.00     0.202 C 
BRANCH  28  29
ATOM     29  C   UNL A   1      42.102  20.229  26.026  1.00  0.00     0.261 C 
BRANCH  29  30
ATOM     30  O   UNL A   1      43.457  19.809  25.901  1.00  0.00    -0.460 OA
BRANCH  30  31
ATOM     31  C   UNL A   1      44.052  20.153  24.761  1.00  0.00     0.338 C 
ATOM     32  O   UNL A   1      44.243  19.421  23.772  1.00  0.00    -0.246 OA
BRANCH  31  33
ATOM     33  C   UNL A   1      44.583  21.505  24.843  1.00  0.00     0.060 A 
ATOM     34  C   UNL A   1      45.594  21.737  25.780  1.00  0.00     0.016 A 
ATOM     35  C   UNL A   1      43.819  22.544  24.295  1.00  0.00     0.016 A 
ATOM     36  C   UNL A   1      45.667  22.979  26.363  1.00  0.00     0.010 A 
ATOM     37  C   UNL A   1      43.883  23.784  24.890  1.00  0.00     0.010 A 
ATOM     38  C   UNL A   1      44.725  23.943  25.989  1.00  0.00    -0.014 A 
BRANCH  38  39
ATOM     39  C   UNL A   1      44.547  25.064  26.889  1.00  0.00     0.031 A 
ATOM     40  C   UNL A   1      45.677  26.009  26.980  1.00  0.00     0.074 A 
ATOM     41  C   UNL A   1      43.381  25.249  27.537  1.00  0.00     0.049 A 
ATOM     42  N   UNL A   1      46.348  26.362  28.026  1.00  0.00    -0.248 NA
ATOM     43  C   UNL A   1      46.163  26.583  25.718  1.00  0.00     0.031 C 
ATOM     44  C   UNL A   1      42.101  24.566  27.314  1.00  0.00     0.029 A 
ATOM     45  N   UNL A   1      43.075  26.181  28.478  1.00  0.00    -0.354 N 
ATOM     46  C   UNL A   1      47.244  27.328  27.585  1.00  0.00     0.074 A 
ATOM     47  C   UNL A   1      47.169  27.343  26.145  1.00  0.00     0.031 C 
ATOM     48  C   UNL A   1      41.119  25.252  27.939  1.00  0.00     0.029 A 
ATOM     49  C   UNL A   1      41.716  26.338  28.699  1.00  0.00     0.049 A 
ATOM     50  H   UNL A   1      43.758  26.699  28.962  1.00  0.00     0.167 HD
ATOM     51  C   UNL A   1      47.861  28.191  28.431  1.00  0.00     0.037 A 
ATOM     52  C   UNL A   1      41.130  27.347  29.386  1.00  0.00     0.037 A 
ATOM     53  C   UNL A   1      47.868  27.723  29.788  1.00  0.00     0.049 A 
ATOM     54  C   UNL A   1      42.169  27.992  30.226  1.00  0.00     0.074 A 
ATOM     55  C   UNL A   1      48.407  26.624  30.425  1.00  0.00     0.029 A 
ATOM     56  N   UNL A   1      46.964  28.257  30.671  1.00  0.00    -0.354 N 
ATOM     57  N   UNL A   1      42.722  27.443  31.270  1.00  0.00    -0.248 NA
ATOM     58  C   UNL A   1      42.896  29.119  29.658  1.00  0.00     0.031 C 
ATOM     59  C   UNL A   1      47.474  26.285  31.448  1.00  0.00     0.029 A 
ATOM     60  C   UNL A   1      46.430  27.210  31.381  1.00  0.00     0.049 A 
ATOM     61  H   UNL A   1      46.740  29.210  30.776  1.00  0.00     0.167 HD
ATOM     62  C   UNL A   1      44.040  27.877  31.247  1.00  0.00     0.074 A 
ATOM     63  C   UNL A   1      44.058  28.987  30.301  1.00  0.00     0.031 C 
ATOM     64  C   UNL A   1      45.045  27.125  31.784  1.00  0.00     0.037 A 
BRANCH  51  65
ATOM     65  C   UNL A   1      48.221  29.592  28.036  1.00  0.00     0.057 A 
ATOM     66  C   UNL A   1      47.222  30.531  27.748  1.00  0.00     0.134 A 
ATOM     67  C   UNL A   1      49.536  29.982  27.705  1.00  0.00     0.134 A 
ATOM     68  F   UNL A   1      45.929  30.248  27.970  1.00  0.00    -0.206 F 
ATOM     69  C   UNL A   1      47.511  31.771  27.165  1.00  0.00     0.040 A 
ATOM     70  C   UNL A   1      49.843  31.234  27.173  1.00  0.00     0.040 A 
ATOM     71  F   UNL A   1      50.571  29.134  27.797  1.00  0.00    -0.206 F 
ATOM     72  C   UNL A   1      48.826  32.128  26.884  1.00  0.00     0.006 A 
ENDBRANCH  51  65
BRANCH  52  73
ATOM     73  C   UNL A   1      39.814  27.971  29.131  1.00  0.00     0.057 A 
ATOM     74  C   UNL A   1      38.819  27.992  30.116  1.00  0.00     0.134 A 
ATOM     75  C   UNL A   1      39.590  28.785  28.007  1.00  0.00     0.134 A 
ATOM     76  F   UNL A   1      38.964  27.284  31.246  1.00  0.00    -0.206 F 
ATOM     77  C   UNL A   1      37.672  28.787  29.996  1.00  0.00     0.040 A 
ATOM     78  C   UNL A   1      38.444  29.574  27.868  1.00  0.00     0.040 A 
ATOM     79  F   UNL A   1      40.514  28.911  27.043  1.00  0.00    -0.206 F 
ATOM     80  C   UNL A   1      37.486  29.588  28.872  1.00  0.00     0.006 A 
ENDBRANCH  52  73
BRANCH  64  81
ATOM     81  C   UNL A   1      44.653  25.941  32.626  1.00  0.00     0.057 A 
ATOM     82  C   UNL A   1      44.274  26.041  33.974  1.00  0.00     0.134 A 
ATOM     83  C   UNL A   1      44.515  24.686  32.023  1.00  0.00     0.134 A 
ATOM     84  F   UNL A   1      44.267  27.223  34.604  1.00  0.00    -0.206 F 
ATOM     85  C   UNL A   1      43.829  24.933  34.700  1.00  0.00     0.040 A 
ATOM     86  C   UNL A   1      44.038  23.578  32.729  1.00  0.00     0.040 A 
ATOM     87  F   UNL A   1      44.797  24.525  30.721  1.00  0.00    -0.206 F 
ATOM     88  C   UNL A   1      43.705  23.696  34.076  1.00  0.00     0.006 A 
ENDBRANCH  64  81
ENDBRANCH  38  39
ENDBRANCH  31  33
ENDBRANCH  30  31
ENDBRANCH  29  30
ENDBRANCH  28  29
ENDBRANCH  27  28
ENDBRANCH  26  27
ENDBRANCH   1  26
TORSDOF 20
ENDMDL
MODEL 3
REMARK VINA RESULT:     -10.7      4.121      8.311
REMARK SMILES O=C(Cn1cnc(-c2ccccc2)c1-c1ccccc1)OCCOCCOCCOC(=O)c1ccc(-c2c3nc(c(-c4c(F)cccc4F)c4ccc([nH]4)c(-c4c(F)cccc4F)c4nc(c(-c5c(F)cccc5F)c5ccc2[nH]5)C=C4)C=C3)cc1
REMARK SMILES IDX 25 1 24 2 23 3 22 4 21 5 2 6 1 7 3 8 4 9 5 10 14 11 6 12
REMARK SMILES IDX 7 13 15 14 16 15 20 16 17 17 19 18 18 19 8 20 9 21 13 22
REMARK SMILES IDX 10 23 12 24 11 25 26 26 27 27 28 28 29 29 30 30 31 31 32 32
REMARK SMILES IDX 33 33 34 34 86 35 35 36 85 37 36 38 37 39 38 40 79 41 39 42
REMARK SMILES IDX 84 43 78 44 80 45 40 46 83 47 77 48 76 49 41 51 67 52 50 53
REMARK SMILES IDX 66 54 51 55 54 56 65 57 81 58 52 59 53 60 64 62 82 63 55 64
REMARK SMILES IDX 42 65 43 66 48 67 44 68 45 69 47 70 49 71 46 72 68 73 69 74
REMARK SMILES IDX 74 75 70 76 71 77 73 78 75 79 72 80 56 81 57 82 62 83 58 84
REMARK SMILES IDX 59 85 61 86 63 87 60 88
REMARK H PARENT 80 50 54 61
REMARK Flexibility Score: inf
ROOT
ATOM      1  C   UNL A   1      31.998  29.323  25.862  1.00  0.00     0.188 C 
ENDROOT
BRANCH   1   2
ATOM      2  O   UNL A   1      31.097  29.292  24.760  1.00  0.00    -0.376 OA
BRANCH   2   3
ATOM      3  C   UNL A   1      31.474  28.515  23.625  1.00  0.00     0.202 C 
BRANCH   3   4
ATOM      4  C   UNL A   1      31.898  27.061  23.877  1.00  0.00     0.261 C 
BRANCH   4   5
ATOM      5  O   UNL A   1      30.936  26.241  24.551  1.00  0.00    -0.462 OA
BRANCH   5   6
ATOM      6  C   UNL A   1      31.221  25.786  25.790  1.00  0.00     0.326 C 
ATOM      7  O   UNL A   1      30.641  26.233  26.774  1.00  0.00    -0.250 OA
BRANCH   6   8
ATOM      8  C   UNL A   1      32.435  24.908  25.889  1.00  0.00     0.246 C 
BRANCH   8   9
ATOM      9  N   UNL A   1      32.162  23.499  25.703  1.00  0.00    -0.319 N 
ATOM     10  C   UNL A   1      30.910  22.982  25.927  1.00  0.00     0.201 A 
ATOM     11  C   UNL A   1      32.988  22.456  25.326  1.00  0.00     0.076 A 
ATOM     12  N   UNL A   1      30.842  21.712  25.622  1.00  0.00    -0.236 NA
ATOM     13  C   UNL A   1      32.109  21.383  25.230  1.00  0.00     0.096 A 
BRANCH  11  14
ATOM     14  C   UNL A   1      34.408  22.461  24.968  1.00  0.00     0.000 A 
ATOM     15  C   UNL A   1      35.390  22.237  25.948  1.00  0.00     0.010 A 
ATOM     16  C   UNL A   1      34.819  22.840  23.682  1.00  0.00     0.010 A 
ATOM     17  C   UNL A   1      36.751  22.316  25.625  1.00  0.00     0.001 A 
ATOM     18  C   UNL A   1      36.180  22.921  23.361  1.00  0.00     0.001 A 
ATOM     19  C   UNL A   1      37.145  22.648  24.329  1.00  0.00     0.000 A 
ENDBRANCH  11  14
BRANCH  13  20
ATOM     20  C   UNL A   1      32.458  20.120  24.622  1.00  0.00     0.002 A 
ATOM     21  C   UNL A   1      32.844  19.071  25.460  1.00  0.00     0.010 A 
ATOM     22  C   UNL A   1      32.271  19.894  23.255  1.00  0.00     0.010 A 
ATOM     23  C   UNL A   1      33.008  17.790  24.939  1.00  0.00     0.001 A 
ATOM     24  C   UNL A   1      32.436  18.612  22.735  1.00  0.00     0.001 A 
ATOM     25  C   UNL A   1      32.796  17.560  23.580  1.00  0.00     0.000 A 
ENDBRANCH  13  20
ENDBRANCH   8   9
ENDBRANCH   6   8
ENDBRANCH   5   6
ENDBRANCH   4   5
ENDBRANCH   3   4
ENDBRANCH   2   3
ENDBRANCH   1   2
BRANCH   1  26
ATOM     26  C   UNL A   1      32.229  30.667  26.584  1.00  0.00     0.188 C 
BRANCH  26  27
ATOM     27  O   UNL A   1      33.310  30.660  27.513  1.00  0.00    -0.376 OA
BRANCH  27  28
ATOM     28  C   UNL A   1      33.954  31.903  27.755  1.00  0.00     0.202 C 
BRANCH  28  29
ATOM     29  C   UNL A   1      35.379  31.799  28.312  1.00  0.00     0.261 C 
BRANCH  29  30
ATOM     30  O   UNL A   1      35.762  30.500  28.750  1.00  0.00    -0.460 OA
BRANCH  30  31
ATOM     31  C   UNL A   1      36.941  30.436  29.364  1.00  0.00     0.338 C 
ATOM     32  O   UNL A   1      37.371  31.222  30.230  1.00  0.00    -0.246 OA
BRANCH  31  33
ATOM     33  C   UNL A   1      37.759  29.371  28.805  1.00  0.00     0.060 A 
ATOM     34  C   UNL A   1      38.193  28.374  29.683  1.00  0.00     0.016 A 
ATOM     35  C   UNL A   1      38.375  29.599  27.567  1.00  0.00     0.016 A 
ATOM     36  C   UNL A   1      39.406  27.776  29.437  1.00  0.00     0.010 A 
ATOM     37  C   UNL A   1      39.597  29.011  27.330  1.00  0.00     0.010 A 
ATOM     38  C   UNL A   1      40.141  28.200  28.325  1.00  0.00    -0.014 A 
BRANCH  38  39
ATOM     39  C   UNL A   1      41.555  27.885  28.319  1.00  0.00     0.031 A 
ATOM     40  C   UNL A   1      41.929  26.589  27.721  1.00  0.00     0.074 A 
ATOM     41  C   UNL A   1      42.460  28.773  28.773  1.00  0.00     0.049 A 
ATOM     42  N   UNL A   1      42.575  25.610  28.264  1.00  0.00    -0.248 NA
ATOM     43  C   UNL A   1      41.457  26.329  26.354  1.00  0.00     0.031 C 
ATOM     44  C   UNL A   1      42.253  30.186  29.113  1.00  0.00     0.029 A 
ATOM     45  N   UNL A   1      43.800  28.611  28.927  1.00  0.00    -0.354 N 
ATOM     46  C   UNL A   1      42.733  24.666  27.256  1.00  0.00     0.074 A 
ATOM     47  C   UNL A   1      41.931  25.104  26.141  1.00  0.00     0.031 C 
ATOM     48  C   UNL A   1      43.454  30.796  29.220  1.00  0.00     0.029 A 
ATOM     49  C   UNL A   1      44.501  29.797  29.081  1.00  0.00     0.049 A 
ATOM     50  H   UNL A   1      44.237  27.729  28.930  1.00  0.00     0.167 HD
ATOM     51  C   UNL A   1      43.659  23.675  27.324  1.00  0.00     0.037 A 
ATOM     52  C   UNL A   1      45.845  29.946  29.007  1.00  0.00     0.037 A 
ATOM     53  C   UNL A   1      44.099  23.424  28.666  1.00  0.00     0.049 A 
ATOM     54  C   UNL A   1      46.463  28.609  29.182  1.00  0.00     0.074 A 
ATOM     55  C   UNL A   1      43.475  22.997  29.822  1.00  0.00     0.029 A 
ATOM     56  N   UNL A   1      45.312  23.927  29.064  1.00  0.00    -0.354 N 
ATOM     57  N   UNL A   1      46.480  27.942  30.302  1.00  0.00    -0.248 NA
ATOM     58  C   UNL A   1      46.724  27.821  27.986  1.00  0.00     0.031 C 
ATOM     59  C   UNL A   1      44.133  23.687  30.881  1.00  0.00     0.029 A 
ATOM     60  C   UNL A   1      45.128  24.479  30.309  1.00  0.00     0.049 A 
ATOM     61  H   UNL A   1      46.154  23.898  28.555  1.00  0.00     0.167 HD
ATOM     62  C   UNL A   1      46.346  26.612  29.928  1.00  0.00     0.074 A 
ATOM     63  C   UNL A   1      46.612  26.592  28.494  1.00  0.00     0.031 C 
ATOM     64  C   UNL A   1      45.765  25.697  30.757  1.00  0.00     0.037 A 
BRANCH  51  65
ATOM     65  C   UNL A   1      44.345  23.127  26.109  1.00  0.00     0.057 A 
ATOM     66  C   UNL A   1      44.148  21.796  25.718  1.00  0.00     0.134 A 
ATOM     67  C   UNL A   1      45.382  23.811  25.440  1.00  0.00     0.134 A 
ATOM     68  F   UNL A   1      43.227  21.031  26.324  1.00  0.00    -0.206 F 
ATOM     69  C   UNL A   1      44.933  21.186  24.732  1.00  0.00     0.040 A 
ATOM     70  C   UNL A   1      46.135  23.232  24.419  1.00  0.00     0.040 A 
ATOM     71  F   UNL A   1      45.770  25.041  25.806  1.00  0.00    -0.206 F 
ATOM     72  C   UNL A   1      45.924  21.907  24.074  1.00  0.00     0.006 A 
ENDBRANCH  51  65
BRANCH  52  73
ATOM     73  C   UNL A   1      46.599  31.110  28.496  1.00  0.00     0.057 A 
ATOM     74  C   UNL A   1      46.672  31.381  27.124  1.00  0.00     0.134 A 
ATOM     75  C   UNL A   1      47.054  32.128  29.353  1.00  0.00     0.134 A 
ATOM     76  F   UNL A   1      46.220  30.491  26.229  1.00  0.00    -0.206 F 
ATOM     77  C   UNL A   1      47.158  32.600  26.633  1.00  0.00     0.040 A 
ATOM     78  C   UNL A   1      47.552  33.343  28.876  1.00  0.00     0.040 A 
ATOM     79  F   UNL A   1      46.950  32.014  30.686  1.00  0.00    -0.206 F 
ATOM     80  C   UNL A   1      47.593  33.589  27.510  1.00  0.00     0.006 A 
ENDBRANCH  52  73
BRANCH  64  81
ATOM     81  C   UNL A   1      45.509  26.112  32.181  1.00  0.00     0.057 A 
ATOM     82  C   UNL A   1      44.335  26.755  32.602  1.00  0.00     0.134 A 
ATOM     83  C   UNL A   1      46.408  25.721  33.181  1.00  0.00     0.134 A 
ATOM     84  F   UNL A   1      43.367  27.067  31.729  1.00  0.00    -0.206 F 
ATOM     85  C   UNL A   1      44.092  27.045  33.947  1.00  0.00     0.040 A 
ATOM     86  C   UNL A   1      46.160  25.973  34.533  1.00  0.00     0.040 A 
ATOM     87  F   UNL A   1      47.522  25.044  32.863  1.00  0.00    -0.206 F 
ATOM     88  C   UNL A   1      45.005  26.648  34.919  1.00  0.00     0.006 A 
ENDBRANCH  64  81
ENDBRANCH  38  39
ENDBRANCH  31  33
ENDBRANCH  30  31
ENDBRANCH  29  30
ENDBRANCH  28  29
ENDBRANCH  27  28
ENDBRANCH  26  27
ENDBRANCH   1  26
TORSDOF 20
ENDMDL
