MODEL 1
REMARK VINA RESULT:     -10.8      0.000      0.000
REMARK SMILES O=C(OCCOCCOCCOC(=O)c1csc(S(=O)(=O)Nc2cccc(S(=O)(=O)N3CCCC3)c2)c1)c1ccc(-c2c3nc(c(-c4c(F)cccc4F)c4ccc([nH]4)c(-c4c(F)cccc4F)c4nc(c(-c5c(F)cccc5F)c5ccc2[nH]5)C=C4)C=C3)cc1
REMARK SMILES IDX 9 1 8 2 7 3 6 4 5 5 4 6 3 7 2 8 1 9 38 10 39 11 91 12 40 13
REMARK SMILES IDX 90 14 41 15 42 16 43 17 84 18 44 19 89 20 83 21 85 22 45 23
REMARK SMILES IDX 88 24 82 25 81 26 46 28 72 29 55 30 71 31 56 32 59 33 70 34
REMARK SMILES IDX 86 35 57 36 58 37 69 39 87 40 60 41 47 42 48 43 53 44 49 45
REMARK SMILES IDX 50 46 52 47 54 48 51 49 73 50 74 51 79 52 75 53 76 54 78 55
REMARK SMILES IDX 80 56 77 57 61 58 62 59 67 60 63 61 64 62 66 63 68 64 65 65
REMARK SMILES IDX 10 66 11 67 12 68 13 69 14 70 15 71 16 72 37 73 17 74 18 75
REMARK SMILES IDX 19 76 20 77 21 78 22 79 23 81 24 82 36 83 25 84 27 85 26 86
REMARK SMILES IDX 28 87 29 88 30 89 31 90 32 91 35 92 33 93 34 94
REMARK H PARENT 85 27 59 38 22 80
REMARK Flexibility Score: inf
ROOT
ATOM      1  O   UNL A   1      39.798  21.328  26.614  1.00  0.00    -0.376 OA
ENDROOT
BRANCH   1   2
ATOM      2  C   UNL A   1      41.212  21.489  26.555  1.00  0.00     0.188 C 
BRANCH   2   3
ATOM      3  C   UNL A   1      42.042  20.664  27.535  1.00  0.00     0.188 C 
BRANCH   3   4
ATOM      4  O   UNL A   1      42.216  19.297  27.148  1.00  0.00    -0.376 OA
BRANCH   4   5
ATOM      5  C   UNL A   1      42.756  19.167  25.825  1.00  0.00     0.202 C 
BRANCH   5   6
ATOM      6  C   UNL A   1      43.915  18.164  25.659  1.00  0.00     0.261 C 
BRANCH   6   7
ATOM      7  O   UNL A   1      45.068  18.795  25.099  1.00  0.00    -0.460 OA
BRANCH   7   8
ATOM      8  C   UNL A   1      44.844  19.685  24.113  1.00  0.00     0.338 C 
ATOM      9  O   UNL A   1      44.599  19.383  22.956  1.00  0.00    -0.246 OA
BRANCH   8  10
ATOM     10  C   UNL A   1      45.091  21.073  24.572  1.00  0.00     0.060 A 
ATOM     11  C   UNL A   1      45.595  21.355  25.848  1.00  0.00     0.016 A 
ATOM     12  C   UNL A   1      44.759  22.123  23.723  1.00  0.00     0.016 A 
ATOM     13  C   UNL A   1      45.732  22.667  26.298  1.00  0.00     0.010 A 
ATOM     14  C   UNL A   1      44.969  23.437  24.148  1.00  0.00     0.010 A 
ATOM     15  C   UNL A   1      45.427  23.729  25.452  1.00  0.00    -0.014 A 
BRANCH  15  16
ATOM     16  C   UNL A   1      45.433  25.134  25.950  1.00  0.00     0.031 A 
ATOM     17  C   UNL A   1      46.761  25.840  26.005  1.00  0.00     0.074 A 
ATOM     18  C   UNL A   1      44.322  25.771  26.376  1.00  0.00     0.049 A 
ATOM     19  N   UNL A   1      47.104  26.938  26.626  1.00  0.00    -0.248 NA
ATOM     20  C   UNL A   1      47.876  25.167  25.316  1.00  0.00     0.031 C 
ATOM     21  C   UNL A   1      42.955  25.242  26.370  1.00  0.00     0.029 A 
ATOM     22  N   UNL A   1      44.182  27.010  26.954  1.00  0.00    -0.354 N 
ATOM     23  C   UNL A   1      48.476  27.041  26.436  1.00  0.00     0.074 A 
ATOM     24  C   UNL A   1      48.914  25.817  25.806  1.00  0.00     0.031 C 
ATOM     25  C   UNL A   1      42.135  26.114  26.982  1.00  0.00     0.029 A 
ATOM     26  C   UNL A   1      42.907  27.277  27.396  1.00  0.00     0.049 A 
ATOM     27  H   UNL A   1      44.926  27.649  27.044  1.00  0.00     0.167 HD
ATOM     28  C   UNL A   1      49.291  28.100  26.643  1.00  0.00     0.037 A 
ATOM     29  C   UNL A   1      42.422  28.345  28.060  1.00  0.00     0.037 A 
ATOM     30  C   UNL A   1      48.827  29.371  27.113  1.00  0.00     0.049 A 
ATOM     31  C   UNL A   1      43.335  29.515  28.309  1.00  0.00     0.074 A 
ATOM     32  C   UNL A   1      49.526  30.554  27.248  1.00  0.00     0.029 A 
ATOM     33  N   UNL A   1      47.514  29.627  27.481  1.00  0.00    -0.354 N 
ATOM     34  N   UNL A   1      44.617  29.629  28.061  1.00  0.00    -0.248 NA
ATOM     35  C   UNL A   1      42.722  30.725  28.874  1.00  0.00     0.031 C 
ATOM     36  C   UNL A   1      48.629  31.533  27.695  1.00  0.00     0.029 A 
ATOM     37  C   UNL A   1      47.375  30.957  27.826  1.00  0.00     0.049 A 
ATOM     38  H   UNL A   1      46.790  28.959  27.495  1.00  0.00     0.167 HD
ATOM     39  C   UNL A   1      44.947  30.944  28.366  1.00  0.00     0.074 A 
ATOM     40  C   UNL A   1      43.736  31.578  28.842  1.00  0.00     0.031 C 
ATOM     41  C   UNL A   1      46.141  31.574  28.242  1.00  0.00     0.037 A 
BRANCH  28  42
ATOM     42  C   UNL A   1      50.728  27.912  26.256  1.00  0.00     0.057 A 
ATOM     43  C   UNL A   1      51.138  27.999  24.915  1.00  0.00     0.134 A 
ATOM     44  C   UNL A   1      51.682  27.521  27.200  1.00  0.00     0.134 A 
ATOM     45  F   UNL A   1      50.263  28.346  23.959  1.00  0.00    -0.206 F 
ATOM     46  C   UNL A   1      52.418  27.617  24.516  1.00  0.00     0.040 A 
ATOM     47  C   UNL A   1      52.979  27.175  26.816  1.00  0.00     0.040 A 
ATOM     48  F   UNL A   1      51.361  27.429  28.499  1.00  0.00    -0.206 F 
ATOM     49  C   UNL A   1      53.342  27.198  25.470  1.00  0.00     0.006 A 
ENDBRANCH  28  42
BRANCH  29  50
ATOM     50  C   UNL A   1      40.994  28.401  28.464  1.00  0.00     0.057 A 
ATOM     51  C   UNL A   1      40.015  28.886  27.588  1.00  0.00     0.134 A 
ATOM     52  C   UNL A   1      40.580  28.014  29.744  1.00  0.00     0.134 A 
ATOM     53  F   UNL A   1      40.354  29.281  26.353  1.00  0.00    -0.206 F 
ATOM     54  C   UNL A   1      38.682  29.019  27.981  1.00  0.00     0.040 A 
ATOM     55  C   UNL A   1      39.247  28.127  30.144  1.00  0.00     0.040 A 
ATOM     56  F   UNL A   1      41.467  27.531  30.625  1.00  0.00    -0.206 F 
ATOM     57  C   UNL A   1      38.295  28.641  29.265  1.00  0.00     0.006 A 
ENDBRANCH  29  50
BRANCH  41  58
ATOM     58  C   UNL A   1      46.178  33.042  28.530  1.00  0.00     0.057 A 
ATOM     59  C   UNL A   1      46.508  33.540  29.794  1.00  0.00     0.134 A 
ATOM     60  C   UNL A   1      45.958  33.966  27.500  1.00  0.00     0.134 A 
ATOM     61  F   UNL A   1      46.711  32.703  30.822  1.00  0.00    -0.206 F 
ATOM     62  C   UNL A   1      46.617  34.910  30.027  1.00  0.00     0.040 A 
ATOM     63  C   UNL A   1      46.088  35.337  27.715  1.00  0.00     0.040 A 
ATOM     64  F   UNL A   1      45.642  33.548  26.265  1.00  0.00    -0.206 F 
ATOM     65  C   UNL A   1      46.419  35.812  28.982  1.00  0.00     0.006 A 
ENDBRANCH  41  58
ENDBRANCH  15  16
ENDBRANCH   8  10
ENDBRANCH   7   8
ENDBRANCH   6   7
ENDBRANCH   5   6
ENDBRANCH   4   5
ENDBRANCH   3   4
ENDBRANCH   2   3
ENDBRANCH   1   2
BRANCH   1  66
ATOM     66  C   UNL A   1      39.001  22.421  26.182  1.00  0.00     0.202 C 
BRANCH  66  67
ATOM     67  C   UNL A   1      37.762  22.128  25.320  1.00  0.00     0.261 C 
BRANCH  67  68
ATOM     68  O   UNL A   1      36.933  23.238  24.951  1.00  0.00    -0.460 OA
BRANCH  68  69
ATOM     69  C   UNL A   1      36.025  22.975  23.963  1.00  0.00     0.339 C 
ATOM     70  O   UNL A   1      36.238  23.077  22.763  1.00  0.00    -0.246 OA
BRANCH  69  71
ATOM     71  C   UNL A   1      34.736  22.540  24.489  1.00  0.00     0.072 A 
ATOM     72  C   UNL A   1      34.388  21.210  24.622  1.00  0.00     0.082 A 
ATOM     73  C   UNL A   1      33.693  23.397  24.997  1.00  0.00     0.050 A 
ATOM     74  S   UNL A   1      32.908  21.002  25.447  1.00  0.00    -0.130 S 
ATOM     75  C   UNL A   1      32.609  22.695  25.492  1.00  0.00     0.141 A 
BRANCH  75  76
ATOM     76  S   UNL A   1      31.036  23.155  26.194  1.00  0.00     0.271 S 
ATOM     77  O   UNL A   1      30.278  21.928  26.303  1.00  0.00    -0.200 OA
ATOM     78  O   UNL A   1      31.364  23.929  27.371  1.00  0.00    -0.200 OA
BRANCH  76  79
ATOM     79  N   UNL A   1      30.169  24.191  25.181  1.00  0.00    -0.279 N 
ATOM     80  H   UNL A   1      29.187  24.130  25.198  1.00  0.00     0.180 HD
BRANCH  79  81
ATOM     81  C   UNL A   1      30.760  25.151  24.300  1.00  0.00     0.050 A 
ATOM     82  C   UNL A   1      31.031  24.719  22.999  1.00  0.00     0.027 A 
ATOM     83  C   UNL A   1      31.165  26.424  24.676  1.00  0.00     0.048 A 
ATOM     84  C   UNL A   1      31.624  25.572  22.064  1.00  0.00     0.004 A 
ATOM     85  C   UNL A   1      31.769  27.282  23.752  1.00  0.00     0.084 A 
ATOM     86  C   UNL A   1      31.981  26.864  22.436  1.00  0.00     0.022 A 
BRANCH  85  87
ATOM     87  S   UNL A   1      32.255  28.944  24.152  1.00  0.00     0.243 S 
ATOM     88  O   UNL A   1      33.415  29.247  23.329  1.00  0.00    -0.207 OA
ATOM     89  O   UNL A   1      31.052  29.722  24.061  1.00  0.00    -0.207 OA
BRANCH  87  90
ATOM     90  N   UNL A   1      32.754  28.952  25.744  1.00  0.00    -0.198 NA
ATOM     91  C   UNL A   1      32.096  29.812  26.736  1.00  0.00     0.102 C 
ATOM     92  C   UNL A   1      34.153  28.698  26.116  1.00  0.00     0.102 C 
ATOM     93  C   UNL A   1      33.230  30.550  27.404  1.00  0.00     0.018 C 
ATOM     94  C   UNL A   1      34.377  29.559  27.356  1.00  0.00     0.018 C 
ENDBRANCH  87  90
ENDBRANCH  85  87
ENDBRANCH  79  81
ENDBRANCH  76  79
ENDBRANCH  75  76
ENDBRANCH  69  71
ENDBRANCH  68  69
ENDBRANCH  67  68
ENDBRANCH  66  67
ENDBRANCH   1  66
TORSDOF 22
ENDMDL
MODEL 2
REMARK VINA RESULT:     -10.6      5.233      8.328
REMARK SMILES O=C(OCCOCCOCCOC(=O)c1csc(S(=O)(=O)Nc2cccc(S(=O)(=O)N3CCCC3)c2)c1)c1ccc(-c2c3nc(c(-c4c(F)cccc4F)c4ccc([nH]4)c(-c4c(F)cccc4F)c4nc(c(-c5c(F)cccc5F)c5ccc2[nH]5)C=C4)C=C3)cc1
REMARK SMILES IDX 9 1 8 2 7 3 6 4 5 5 4 6 3 7 2 8 1 9 38 10 39 11 91 12 40 13
REMARK SMILES IDX 90 14 41 15 42 16 43 17 84 18 44 19 89 20 83 21 85 22 45 23
REMARK SMILES IDX 88 24 82 25 81 26 46 28 72 29 55 30 71 31 56 32 59 33 70 34
REMARK SMILES IDX 86 35 57 36 58 37 69 39 87 40 60 41 47 42 48 43 53 44 49 45
REMARK SMILES IDX 50 46 52 47 54 48 51 49 73 50 74 51 79 52 75 53 76 54 78 55
REMARK SMILES IDX 80 56 77 57 61 58 62 59 67 60 63 61 64 62 66 63 68 64 65 65
REMARK SMILES IDX 10 66 11 67 12 68 13 69 14 70 15 71 16 72 37 73 17 74 18 75
REMARK SMILES IDX 19 76 20 77 21 78 22 79 23 81 24 82 36 83 25 84 27 85 26 86
REMARK SMILES IDX 28 87 29 88 30 89 31 90 32 91 35 92 33 93 34 94
REMARK H PARENT 85 27 59 38 22 80
REMARK Flexibility Score: inf
ROOT
ATOM      1  O   UNL A   1      46.088  19.931  24.271  1.00  0.00    -0.376 OA
ENDROOT
BRANCH   1   2
ATOM      2  C   UNL A   1      45.984  21.080  25.106  1.00  0.00     0.188 C 
BRANCH   2   3
ATOM      3  C   UNL A   1      45.708  22.413  24.415  1.00  0.00     0.188 C 
BRANCH   3   4
ATOM      4  O   UNL A   1      46.297  23.543  25.069  1.00  0.00    -0.376 OA
BRANCH   4   5
ATOM      5  C   UNL A   1      45.346  24.588  25.319  1.00  0.00     0.202 C 
BRANCH   5   6
ATOM      6  C   UNL A   1      44.454  24.413  26.563  1.00  0.00     0.261 C 
BRANCH   6   7
ATOM      7  O   UNL A   1      43.072  24.355  26.205  1.00  0.00    -0.460 OA
BRANCH   7   8
ATOM      8  C   UNL A   1      42.480  25.530  25.912  1.00  0.00     0.338 C 
ATOM      9  O   UNL A   1      42.289  25.941  24.780  1.00  0.00    -0.246 OA
BRANCH   8  10
ATOM     10  C   UNL A   1      42.237  26.331  27.137  1.00  0.00     0.060 A 
ATOM     11  C   UNL A   1      41.299  25.947  28.103  1.00  0.00     0.016 A 
ATOM     12  C   UNL A   1      42.927  27.528  27.296  1.00  0.00     0.016 A 
ATOM     13  C   UNL A   1      41.015  26.759  29.199  1.00  0.00     0.010 A 
ATOM     14  C   UNL A   1      42.697  28.303  28.434  1.00  0.00     0.010 A 
ATOM     15  C   UNL A   1      41.714  27.948  29.385  1.00  0.00    -0.014 A 
BRANCH  15  16
ATOM     16  C   UNL A   1      41.337  28.899  30.469  1.00  0.00     0.031 A 
ATOM     17  C   UNL A   1      42.068  28.777  31.779  1.00  0.00     0.074 A 
ATOM     18  C   UNL A   1      40.363  29.824  30.334  1.00  0.00     0.049 A 
ATOM     19  N   UNL A   1      41.779  29.272  32.952  1.00  0.00    -0.248 NA
ATOM     20  C   UNL A   1      43.259  27.910  31.771  1.00  0.00     0.031 C 
ATOM     21  C   UNL A   1      39.573  30.090  29.129  1.00  0.00     0.029 A 
ATOM     22  N   UNL A   1      39.833  30.689  31.261  1.00  0.00    -0.354 N 
ATOM     23  C   UNL A   1      42.723  28.729  33.812  1.00  0.00     0.074 A 
ATOM     24  C   UNL A   1      43.467  27.742  33.063  1.00  0.00     0.031 C 
ATOM     25  C   UNL A   1      38.617  30.993  29.410  1.00  0.00     0.029 A 
ATOM     26  C   UNL A   1      38.744  31.396  30.804  1.00  0.00     0.049 A 
ATOM     27  H   UNL A   1      40.199  30.794  32.169  1.00  0.00     0.167 HD
ATOM     28  C   UNL A   1      43.042  29.095  35.075  1.00  0.00     0.037 A 
ATOM     29  C   UNL A   1      37.944  32.269  31.445  1.00  0.00     0.037 A 
ATOM     30  C   UNL A   1      42.416  30.185  35.761  1.00  0.00     0.049 A 
ATOM     31  C   UNL A   1      38.286  32.661  32.857  1.00  0.00     0.074 A 
ATOM     32  C   UNL A   1      42.730  30.732  36.989  1.00  0.00     0.029 A 
ATOM     33  N   UNL A   1      41.366  30.926  35.238  1.00  0.00    -0.354 N 
ATOM     34  N   UNL A   1      39.228  32.190  33.638  1.00  0.00    -0.248 NA
ATOM     35  C   UNL A   1      37.495  33.745  33.455  1.00  0.00     0.031 C 
ATOM     36  C   UNL A   1      41.868  31.815  37.208  1.00  0.00     0.029 A 
ATOM     37  C   UNL A   1      41.029  31.943  36.111  1.00  0.00     0.049 A 
ATOM     38  H   UNL A   1      40.926  30.753  34.374  1.00  0.00     0.167 HD
ATOM     39  C   UNL A   1      39.194  32.972  34.787  1.00  0.00     0.074 A 
ATOM     40  C   UNL A   1      38.120  33.927  34.609  1.00  0.00     0.031 C 
ATOM     41  C   UNL A   1      39.993  32.916  35.880  1.00  0.00     0.037 A 
BRANCH  28  42
ATOM     42  C   UNL A   1      44.180  28.353  35.709  1.00  0.00     0.057 A 
ATOM     43  C   UNL A   1      45.514  28.737  35.489  1.00  0.00     0.134 A 
ATOM     44  C   UNL A   1      43.958  27.180  36.437  1.00  0.00     0.134 A 
ATOM     45  F   UNL A   1      45.793  29.840  34.777  1.00  0.00    -0.206 F 
ATOM     46  C   UNL A   1      46.581  27.936  35.891  1.00  0.00     0.040 A 
ATOM     47  C   UNL A   1      45.021  26.391  36.880  1.00  0.00     0.040 A 
ATOM     48  F   UNL A   1      42.710  26.761  36.694  1.00  0.00    -0.206 F 
ATOM     49  C   UNL A   1      46.335  26.754  36.585  1.00  0.00     0.006 A 
ENDBRANCH  28  42
BRANCH  29  50
ATOM     50  C   UNL A   1      36.794  32.897  30.745  1.00  0.00     0.057 A 
ATOM     51  C   UNL A   1      35.481  32.486  31.003  1.00  0.00     0.134 A 
ATOM     52  C   UNL A   1      36.980  33.888  29.774  1.00  0.00     0.134 A 
ATOM     53  F   UNL A   1      35.241  31.532  31.914  1.00  0.00    -0.206 F 
ATOM     54  C   UNL A   1      34.396  33.009  30.296  1.00  0.00     0.040 A 
ATOM     55  C   UNL A   1      35.903  34.432  29.071  1.00  0.00     0.040 A 
ATOM     56  F   UNL A   1      38.212  34.332  29.489  1.00  0.00    -0.206 F 
ATOM     57  C   UNL A   1      34.607  33.985  29.324  1.00  0.00     0.006 A 
ENDBRANCH  29  50
BRANCH  41  58
ATOM     58  C   UNL A   1      39.806  33.972  36.924  1.00  0.00     0.057 A 
ATOM     59  C   UNL A   1      40.370  35.246  36.796  1.00  0.00     0.134 A 
ATOM     60  C   UNL A   1      38.983  33.729  38.031  1.00  0.00     0.134 A 
ATOM     61  F   UNL A   1      41.181  35.530  35.767  1.00  0.00    -0.206 F 
ATOM     62  C   UNL A   1      40.121  36.245  37.737  1.00  0.00     0.040 A 
ATOM     63  C   UNL A   1      38.707  34.727  38.964  1.00  0.00     0.040 A 
ATOM     64  F   UNL A   1      38.411  32.528  38.204  1.00  0.00    -0.206 F 
ATOM     65  C   UNL A   1      39.278  35.989  38.818  1.00  0.00     0.006 A 
ENDBRANCH  41  58
ENDBRANCH  15  16
ENDBRANCH   8  10
ENDBRANCH   7   8
ENDBRANCH   6   7
ENDBRANCH   5   6
ENDBRANCH   4   5
ENDBRANCH   3   4
ENDBRANCH   2   3
ENDBRANCH   1   2
BRANCH   1  66
ATOM     66  C   UNL A   1      44.887  19.238  23.967  1.00  0.00     0.202 C 
BRANCH  66  67
ATOM     67  C   UNL A   1      43.973  18.814  25.129  1.00  0.00     0.261 C 
BRANCH  67  68
ATOM     68  O   UNL A   1      42.644  19.350  25.158  1.00  0.00    -0.460 OA
BRANCH  68  69
ATOM     69  C   UNL A   1      42.097  19.466  26.405  1.00  0.00     0.339 C 
ATOM     70  O   UNL A   1      42.430  18.817  27.386  1.00  0.00    -0.246 OA
BRANCH  69  71
ATOM     71  C   UNL A   1      41.047  20.478  26.464  1.00  0.00     0.072 A 
ATOM     72  C   UNL A   1      41.189  21.672  27.144  1.00  0.00     0.082 A 
ATOM     73  C   UNL A   1      39.774  20.421  25.788  1.00  0.00     0.050 A 
ATOM     74  S   UNL A   1      39.884  22.738  26.872  1.00  0.00    -0.130 S 
ATOM     75  C   UNL A   1      39.010  21.558  25.976  1.00  0.00     0.141 A 
BRANCH  75  76
ATOM     76  S   UNL A   1      37.381  22.070  25.461  1.00  0.00     0.271 S 
ATOM     77  O   UNL A   1      37.201  23.405  25.989  1.00  0.00    -0.200 OA
ATOM     78  O   UNL A   1      37.348  21.829  24.035  1.00  0.00    -0.200 OA
BRANCH  76  79
ATOM     79  N   UNL A   1      36.172  21.099  26.127  1.00  0.00    -0.279 N 
ATOM     80  H   UNL A   1      36.434  20.458  26.827  1.00  0.00     0.180 HD
BRANCH  79  81
ATOM     81  C   UNL A   1      34.792  21.142  25.748  1.00  0.00     0.050 A 
ATOM     82  C   UNL A   1      34.387  20.228  24.772  1.00  0.00     0.027 A 
ATOM     83  C   UNL A   1      33.876  22.079  26.204  1.00  0.00     0.048 A 
ATOM     84  C   UNL A   1      33.065  20.198  24.317  1.00  0.00     0.004 A 
ATOM     85  C   UNL A   1      32.555  22.065  25.747  1.00  0.00     0.084 A 
ATOM     86  C   UNL A   1      32.141  21.109  24.817  1.00  0.00     0.022 A 
BRANCH  85  87
ATOM     87  S   UNL A   1      31.319  23.198  26.337  1.00  0.00     0.243 S 
ATOM     88  O   UNL A   1      30.036  22.529  26.181  1.00  0.00    -0.207 OA
ATOM     89  O   UNL A   1      31.783  23.629  27.624  1.00  0.00    -0.207 OA
BRANCH  87  90
ATOM     90  N   UNL A   1      31.322  24.519  25.319  1.00  0.00    -0.198 NA
ATOM     91  C   UNL A   1      32.572  25.011  24.727  1.00  0.00     0.102 C 
ATOM     92  C   UNL A   1      30.346  25.609  25.465  1.00  0.00     0.102 C 
ATOM     93  C   UNL A   1      32.579  26.488  25.038  1.00  0.00     0.018 C 
ATOM     94  C   UNL A   1      31.110  26.859  25.036  1.00  0.00     0.018 C 
ENDBRANCH  87  90
ENDBRANCH  85  87
ENDBRANCH  79  81
ENDBRANCH  76  79
ENDBRANCH  75  76
ENDBRANCH  69  71
ENDBRANCH  68  69
ENDBRANCH  67  68
ENDBRANCH  66  67
ENDBRANCH   1  66
TORSDOF 22
ENDMDL
MODEL 3
REMARK VINA RESULT:     -10.0      5.296     11.013
REMARK SMILES O=C(OCCOCCOCCOC(=O)c1csc(S(=O)(=O)Nc2cccc(S(=O)(=O)N3CCCC3)c2)c1)c1ccc(-c2c3nc(c(-c4c(F)cccc4F)c4ccc([nH]4)c(-c4c(F)cccc4F)c4nc(c(-c5c(F)cccc5F)c5ccc2[nH]5)C=C4)C=C3)cc1
REMARK SMILES IDX 9 1 8 2 7 3 6 4 5 5 4 6 3 7 2 8 1 9 38 10 39 11 91 12 40 13
REMARK SMILES IDX 90 14 41 15 42 16 43 17 84 18 44 19 89 20 83 21 85 22 45 23
REMARK SMILES IDX 88 24 82 25 81 26 46 28 72 29 55 30 71 31 56 32 59 33 70 34
REMARK SMILES IDX 86 35 57 36 58 37 69 39 87 40 60 41 47 42 48 43 53 44 49 45
REMARK SMILES IDX 50 46 52 47 54 48 51 49 73 50 74 51 79 52 75 53 76 54 78 55
REMARK SMILES IDX 80 56 77 57 61 58 62 59 67 60 63 61 64 62 66 63 68 64 65 65
REMARK SMILES IDX 10 66 11 67 12 68 13 69 14 70 15 71 16 72 37 73 17 74 18 75
REMARK SMILES IDX 19 76 20 77 21 78 22 79 23 81 24 82 36 83 25 84 27 85 26 86
REMARK SMILES IDX 28 87 29 88 30 89 31 90 32 91 35 92 33 93 34 94
REMARK H PARENT 85 27 59 38 22 80
REMARK Flexibility Score: inf
ROOT
ATOM      1  O   UNL A   1      33.051  36.900  30.759  1.00  0.00    -0.376 OA
ENDROOT
BRANCH   1   2
ATOM      2  C   UNL A   1      32.764  36.474  32.087  1.00  0.00     0.188 C 
BRANCH   2   3
ATOM      3  C   UNL A   1      33.797  36.813  33.159  1.00  0.00     0.188 C 
BRANCH   3   4
ATOM      4  O   UNL A   1      35.113  36.325  32.878  1.00  0.00    -0.376 OA
BRANCH   4   5
ATOM      5  C   UNL A   1      35.405  35.105  33.572  1.00  0.00     0.202 C 
BRANCH   5   6
ATOM      6  C   UNL A   1      36.748  34.430  33.229  1.00  0.00     0.261 C 
BRANCH   6   7
ATOM      7  O   UNL A   1      36.670  33.013  33.390  1.00  0.00    -0.460 OA
BRANCH   7   8
ATOM      8  C   UNL A   1      37.315  32.495  34.454  1.00  0.00     0.338 C 
ATOM      9  O   UNL A   1      36.991  32.685  35.615  1.00  0.00    -0.246 OA
BRANCH   8  10
ATOM     10  C   UNL A   1      38.561  31.802  34.045  1.00  0.00     0.060 A 
ATOM     11  C   UNL A   1      39.804  32.110  34.613  1.00  0.00     0.016 A 
ATOM     12  C   UNL A   1      38.493  30.856  33.028  1.00  0.00     0.016 A 
ATOM     13  C   UNL A   1      40.977  31.517  34.152  1.00  0.00     0.010 A 
ATOM     14  C   UNL A   1      39.659  30.207  32.620  1.00  0.00     0.010 A 
ATOM     15  C   UNL A   1      40.923  30.551  33.151  1.00  0.00    -0.014 A 
BRANCH  15  16
ATOM     16  C   UNL A   1      42.169  30.002  32.544  1.00  0.00     0.031 A 
ATOM     17  C   UNL A   1      42.727  30.724  31.347  1.00  0.00     0.074 A 
ATOM     18  C   UNL A   1      42.782  28.888  32.996  1.00  0.00     0.049 A 
ATOM     19  N   UNL A   1      43.618  30.336  30.473  1.00  0.00    -0.248 NA
ATOM     20  C   UNL A   1      42.139  32.044  31.060  1.00  0.00     0.031 C 
ATOM     21  C   UNL A   1      42.387  28.083  34.155  1.00  0.00     0.029 A 
ATOM     22  N   UNL A   1      43.861  28.206  32.486  1.00  0.00    -0.354 N 
ATOM     23  C   UNL A   1      43.645  31.346  29.520  1.00  0.00     0.074 A 
ATOM     24  C   UNL A   1      42.567  32.257  29.830  1.00  0.00     0.031 C 
ATOM     25  C   UNL A   1      43.160  26.985  34.222  1.00  0.00     0.029 A 
ATOM     26  C   UNL A   1      44.126  27.021  33.133  1.00  0.00     0.049 A 
ATOM     27  H   UNL A   1      44.395  28.535  31.727  1.00  0.00     0.167 HD
ATOM     28  C   UNL A   1      44.554  31.579  28.546  1.00  0.00     0.037 A 
ATOM     29  C   UNL A   1      45.048  26.075  32.870  1.00  0.00     0.037 A 
ATOM     30  C   UNL A   1      45.716  30.768  28.343  1.00  0.00     0.049 A 
ATOM     31  C   UNL A   1      46.047  26.325  31.773  1.00  0.00     0.074 A 
ATOM     32  C   UNL A   1      46.772  30.966  27.475  1.00  0.00     0.029 A 
ATOM     33  N   UNL A   1      45.991  29.616  29.065  1.00  0.00    -0.354 N 
ATOM     34  N   UNL A   1      46.105  27.320  30.922  1.00  0.00    -0.248 NA
ATOM     35  C   UNL A   1      47.141  25.353  31.638  1.00  0.00     0.031 C 
ATOM     36  C   UNL A   1      47.694  29.931  27.679  1.00  0.00     0.029 A 
ATOM     37  C   UNL A   1      47.213  29.099  28.679  1.00  0.00     0.049 A 
ATOM     38  H   UNL A   1      45.403  29.224  29.752  1.00  0.00     0.167 HD
ATOM     39  C   UNL A   1      47.281  27.137  30.204  1.00  0.00     0.074 A 
ATOM     40  C   UNL A   1      47.889  25.920  30.703  1.00  0.00     0.031 C 
ATOM     41  C   UNL A   1      47.819  27.917  29.235  1.00  0.00     0.037 A 
BRANCH  28  42
ATOM     42  C   UNL A   1      44.339  32.816  27.726  1.00  0.00     0.057 A 
ATOM     43  C   UNL A   1      43.843  32.743  26.413  1.00  0.00     0.134 A 
ATOM     44  C   UNL A   1      44.744  34.069  28.194  1.00  0.00     0.134 A 
ATOM     45  F   UNL A   1      43.460  31.564  25.898  1.00  0.00    -0.206 F 
ATOM     46  C   UNL A   1      43.841  33.852  25.569  1.00  0.00     0.040 A 
ATOM     47  C   UNL A   1      44.709  35.196  27.369  1.00  0.00     0.040 A 
ATOM     48  F   UNL A   1      45.218  34.213  29.440  1.00  0.00    -0.206 F 
ATOM     49  C   UNL A   1      44.281  35.084  26.046  1.00  0.00     0.006 A 
ENDBRANCH  28  42
BRANCH  29  50
ATOM     50  C   UNL A   1      45.130  24.846  33.701  1.00  0.00     0.057 A 
ATOM     51  C   UNL A   1      45.851  24.834  34.901  1.00  0.00     0.134 A 
ATOM     52  C   UNL A   1      44.530  23.648  33.298  1.00  0.00     0.134 A 
ATOM     53  F   UNL A   1      46.457  25.950  35.333  1.00  0.00    -0.206 F 
ATOM     54  C   UNL A   1      46.005  23.667  35.653  1.00  0.00     0.040 A 
ATOM     55  C   UNL A   1      44.661  22.477  34.048  1.00  0.00     0.040 A 
ATOM     56  F   UNL A   1      43.817  23.597  32.164  1.00  0.00    -0.206 F 
ATOM     57  C   UNL A   1      45.410  22.483  35.224  1.00  0.00     0.006 A 
ENDBRANCH  29  50
BRANCH  41  58
ATOM     58  C   UNL A   1      49.172  27.539  28.719  1.00  0.00     0.057 A 
ATOM     59  C   UNL A   1      50.348  27.962  29.346  1.00  0.00     0.134 A 
ATOM     60  C   UNL A   1      49.290  26.673  27.625  1.00  0.00     0.134 A 
ATOM     61  F   UNL A   1      50.297  28.807  30.387  1.00  0.00    -0.206 F 
ATOM     62  C   UNL A   1      51.599  27.537  28.901  1.00  0.00     0.040 A 
ATOM     63  C   UNL A   1      50.534  26.221  27.186  1.00  0.00     0.040 A 
ATOM     64  F   UNL A   1      48.197  26.229  26.985  1.00  0.00    -0.206 F 
ATOM     65  C   UNL A   1      51.693  26.654  27.826  1.00  0.00     0.006 A 
ENDBRANCH  41  58
ENDBRANCH  15  16
ENDBRANCH   8  10
ENDBRANCH   7   8
ENDBRANCH   6   7
ENDBRANCH   5   6
ENDBRANCH   4   5
ENDBRANCH   3   4
ENDBRANCH   2   3
ENDBRANCH   1   2
BRANCH   1  66
ATOM     66  C   UNL A   1      32.786  35.980  29.710  1.00  0.00     0.202 C 
BRANCH  66  67
ATOM     67  C   UNL A   1      33.978  35.327  28.991  1.00  0.00     0.261 C 
BRANCH  67  68
ATOM     68  O   UNL A   1      34.983  34.706  29.803  1.00  0.00    -0.460 OA
BRANCH  68  69
ATOM     69  C   UNL A   1      34.624  33.500  30.340  1.00  0.00     0.339 C 
ATOM     70  O   UNL A   1      33.896  33.348  31.310  1.00  0.00    -0.246 OA
BRANCH  69  71
ATOM     71  C   UNL A   1      35.206  32.372  29.620  1.00  0.00     0.072 A 
ATOM     72  C   UNL A   1      34.867  32.055  28.319  1.00  0.00     0.082 A 
ATOM     73  C   UNL A   1      36.235  31.490  30.113  1.00  0.00     0.050 A 
ATOM     74  S   UNL A   1      35.849  30.816  27.673  1.00  0.00    -0.130 S 
ATOM     75  C   UNL A   1      36.636  30.551  29.179  1.00  0.00     0.141 A 
BRANCH  75  76
ATOM     76  S   UNL A   1      37.797  29.198  29.186  1.00  0.00     0.271 S 
ATOM     77  O   UNL A   1      37.668  28.574  30.485  1.00  0.00    -0.200 OA
ATOM     78  O   UNL A   1      37.512  28.455  27.978  1.00  0.00    -0.200 OA
BRANCH  76  79
ATOM     79  N   UNL A   1      39.392  29.731  29.041  1.00  0.00    -0.279 N 
ATOM     80  H   UNL A   1      39.566  30.691  29.169  1.00  0.00     0.180 HD
BRANCH  79  81
ATOM     81  C   UNL A   1      40.509  28.886  28.745  1.00  0.00     0.050 A 
ATOM     82  C   UNL A   1      40.969  28.075  29.786  1.00  0.00     0.027 A 
ATOM     83  C   UNL A   1      41.213  28.898  27.549  1.00  0.00     0.048 A 
ATOM     84  C   UNL A   1      42.065  27.227  29.607  1.00  0.00     0.004 A 
ATOM     85  C   UNL A   1      42.317  28.061  27.364  1.00  0.00     0.084 A 
ATOM     86  C   UNL A   1      42.734  27.207  28.388  1.00  0.00     0.022 A 
BRANCH  85  87
ATOM     87  S   UNL A   1      43.223  27.982  25.837  1.00  0.00     0.243 S 
ATOM     88  O   UNL A   1      42.335  28.488  24.802  1.00  0.00    -0.207 OA
ATOM     89  O   UNL A   1      44.484  28.612  26.111  1.00  0.00    -0.207 OA
BRANCH  87  90
ATOM     90  N   UNL A   1      43.512  26.373  25.507  1.00  0.00    -0.198 NA
ATOM     91  C   UNL A   1      42.402  25.423  25.360  1.00  0.00     0.102 C 
ATOM     92  C   UNL A   1      44.725  25.692  25.984  1.00  0.00     0.102 C 
ATOM     93  C   UNL A   1      42.759  24.283  26.281  1.00  0.00     0.018 C 
ATOM     94  C   UNL A   1      44.274  24.258  26.247  1.00  0.00     0.018 C 
ENDBRANCH  87  90
ENDBRANCH  85  87
ENDBRANCH  79  81
ENDBRANCH  76  79
ENDBRANCH  75  76
ENDBRANCH  69  71
ENDBRANCH  68  69
ENDBRANCH  67  68
ENDBRANCH  66  67
ENDBRANCH   1  66
TORSDOF 22
ENDMDL
