MODEL 1
REMARK VINA RESULT:     -12.5      0.000      0.000
REMARK SMILES Cc1nn(C(C)C)c(C)c1S(=O)(=O)Nc1cccc(C(=O)OCCOCCOCCOC(=O)c2ccc(-c3c4nc(c(-c5c(F)cccc5F)c5ccc([nH]5)c(-c5c(F)cccc5F)c5nc(c(-c6c(F)cccc6F)c6ccc3[nH]6)C=C5)C=C4)cc2)c1C
REMARK SMILES IDX 26 1 25 2 24 3 23 4 22 5 20 6 21 7 19 8 15 9 16 10 88 11
REMARK SMILES IDX 17 12 89 13 18 14 14 15 11 17 12 18 13 19 10 20 1 21 2 22
REMARK SMILES IDX 3 23 4 24 8 25 9 26 5 27 6 28 7 29 27 30 28 31 29 32 30 33
REMARK SMILES IDX 31 34 32 35 33 36 34 37 35 38 87 39 36 40 86 41 37 42 38 43
REMARK SMILES IDX 39 44 80 45 40 46 85 47 79 48 81 49 41 50 84 51 78 52 77 53
REMARK SMILES IDX 42 55 68 56 51 57 67 58 52 59 55 60 66 61 82 62 53 63 54 64
REMARK SMILES IDX 65 66 83 67 56 68 43 69 44 70 49 71 45 72 46 73 48 74 50 75
REMARK SMILES IDX 47 76 69 77 70 78 75 79 71 80 72 81 74 82 76 83 73 84 57 85
REMARK SMILES IDX 58 86 63 87 59 88 60 89 62 90 64 91 61 92
REMARK H PARENT 14 16 81 54 55 65
REMARK Flexibility Score: inf
ROOT
ATOM      1  C   UNL A   1      34.420  33.080  28.142  1.00  0.00     0.188 C 
ENDROOT
BRANCH   1   2
ATOM      2  O   UNL A   1      33.966  31.735  28.281  1.00  0.00    -0.376 OA
BRANCH   2   3
ATOM      3  C   UNL A   1      33.648  30.808  27.252  1.00  0.00     0.202 C 
BRANCH   3   4
ATOM      4  C   UNL A   1      32.030  30.562  26.689  1.00  0.00     0.261 C 
BRANCH   4   5
ATOM      5  O   UNL A   1      31.402  29.638  25.380  1.00  0.00    -0.460 OA
BRANCH   5   6
ATOM      6  C   UNL A   1      31.172  28.318  24.907  1.00  0.00     0.338 C 
ATOM      7  O   UNL A   1      30.672  27.952  23.849  1.00  0.00    -0.246 OA
BRANCH   6   8
ATOM      8  C   UNL A   1      31.427  27.080  25.713  1.00  0.00     0.065 A 
ATOM      9  C   UNL A   1      32.802  25.032  26.043  1.00  0.00     0.053 A 
ATOM     10  C   UNL A   1      31.636  24.297  26.210  1.00  0.00     0.027 A 
ATOM     11  C   UNL A   1      32.726  26.428  25.791  1.00  0.00    -0.012 A 
ATOM     12  C   UNL A   1      30.391  24.931  26.122  1.00  0.00     0.003 A 
ATOM     13  C   UNL A   1      34.066  27.098  25.545  1.00  0.00     0.047 C 
ATOM     14  C   UNL A   1      30.283  26.304  25.879  1.00  0.00     0.016 A 
BRANCH   9  15
ATOM     15  N   UNL A   1      34.089  24.421  26.079  1.00  0.00    -0.279 N 
ATOM     16  H   UNL A   1      34.624  24.588  26.890  1.00  0.00     0.180 HD
BRANCH  15  17
ATOM     17  S   UNL A   1      34.802  23.464  24.925  1.00  0.00     0.265 S 
ATOM     18  O   UNL A   1      36.073  23.001  25.444  1.00  0.00    -0.201 OA
ATOM     19  O   UNL A   1      34.757  24.259  23.712  1.00  0.00    -0.201 OA
BRANCH  17  20
ATOM     20  C   UNL A   1      34.001  22.007  24.464  1.00  0.00     0.131 A 
ATOM     21  C   UNL A   1      31.768  22.702  23.210  1.00  0.00     0.070 C 
ATOM     22  C   UNL A   1      32.757  21.791  23.822  1.00  0.00     0.080 A 
ATOM     23  N   UNL A   1      32.471  20.486  23.754  1.00  0.00    -0.176 NA
ATOM     24  N   UNL A   1      33.548  19.864  24.250  1.00  0.00    -0.266 N 
ATOM     25  C   UNL A   1      34.539  20.731  24.627  1.00  0.00     0.056 A 
ATOM     26  C   UNL A   1      35.878  20.283  25.091  1.00  0.00     0.068 C 
BRANCH  24  27
ATOM     27  C   UNL A   1      33.527  18.405  24.326  1.00  0.00     0.101 C 
ATOM     28  C   UNL A   1      32.801  17.940  25.589  1.00  0.00     0.033 C 
ATOM     29  C   UNL A   1      32.904  17.792  23.071  1.00  0.00     0.033 C 
ENDBRANCH  24  27
ENDBRANCH  17  20
ENDBRANCH  15  17
ENDBRANCH   9  15
ENDBRANCH   6   8
ENDBRANCH   5   6
ENDBRANCH   4   5
ENDBRANCH   3   4
ENDBRANCH   2   3
ENDBRANCH   1   2
BRANCH   1  30
ATOM     30  C   UNL A   1      33.480  34.234  28.481  1.00  0.00     0.188 C 
BRANCH  30  31
ATOM     31  O   UNL A   1      33.842  34.840  29.705  1.00  0.00    -0.376 OA
BRANCH  31  32
ATOM     32  C   UNL A   1      33.074  35.987  30.040  1.00  0.00     0.202 C 
BRANCH  32  33
ATOM     33  C   UNL A   1      32.428  35.950  31.443  1.00  0.00     0.261 C 
BRANCH  33  34
ATOM     34  O   UNL A   1      33.423  35.730  32.469  1.00  0.00    -0.460 OA
BRANCH  34  35
ATOM     35  C   UNL A   1      33.661  34.446  32.894  1.00  0.00     0.338 C 
ATOM     36  O   UNL A   1      32.800  33.648  33.241  1.00  0.00    -0.246 OA
BRANCH  35  37
ATOM     37  C   UNL A   1      35.132  34.273  33.161  1.00  0.00     0.060 A 
ATOM     38  C   UNL A   1      36.161  34.977  32.517  1.00  0.00     0.016 A 
ATOM     39  C   UNL A   1      35.484  33.081  33.685  1.00  0.00     0.016 A 
ATOM     40  C   UNL A   1      37.459  34.359  32.233  1.00  0.00     0.010 A 
ATOM     41  C   UNL A   1      36.597  32.502  33.082  1.00  0.00     0.010 A 
ATOM     42  C   UNL A   1      37.742  33.006  32.462  1.00  0.00    -0.014 A 
BRANCH  42  43
ATOM     43  C   UNL A   1      38.984  32.113  31.845  1.00  0.00     0.031 A 
ATOM     44  C   UNL A   1      39.146  30.855  30.810  1.00  0.00     0.074 A 
ATOM     45  C   UNL A   1      40.220  32.471  32.271  1.00  0.00     0.049 A 
ATOM     46  N   UNL A   1      39.901  29.792  31.055  1.00  0.00    -0.248 NA
ATOM     47  C   UNL A   1      38.570  30.656  29.452  1.00  0.00     0.031 C 
ATOM     48  C   UNL A   1      41.524  31.994  31.805  1.00  0.00     0.029 A 
ATOM     49  N   UNL A   1      40.543  33.315  33.335  1.00  0.00    -0.354 N 
ATOM     50  C   UNL A   1      39.892  28.941  29.935  1.00  0.00     0.074 A 
ATOM     51  C   UNL A   1      38.933  29.450  29.044  1.00  0.00     0.031 C 
ATOM     52  C   UNL A   1      42.438  32.265  32.748  1.00  0.00     0.029 A 
ATOM     53  C   UNL A   1      41.736  32.835  33.881  1.00  0.00     0.049 A 
ATOM     54  H   UNL A   1      40.030  34.098  33.640  1.00  0.00     0.167 HD
ATOM     55  C   UNL A   1      40.758  27.934  29.643  1.00  0.00     0.037 A 
ATOM     56  C   UNL A   1      41.786  32.433  35.178  1.00  0.00     0.037 A 
ATOM     57  C   UNL A   1      41.891  28.012  30.509  1.00  0.00     0.049 A 
ATOM     58  C   UNL A   1      42.230  30.999  35.331  1.00  0.00     0.074 A 
ATOM     59  C   UNL A   1      43.102  28.667  30.384  1.00  0.00     0.029 A 
ATOM     60  N   UNL A   1      41.712  27.734  31.845  1.00  0.00    -0.354 N 
ATOM     61  N   UNL A   1      42.399  30.166  34.339  1.00  0.00    -0.248 NA
ATOM     62  C   UNL A   1      42.506  30.378  36.618  1.00  0.00     0.031 C 
ATOM     63  C   UNL A   1      43.650  28.803  31.682  1.00  0.00     0.029 A 
ATOM     64  C   UNL A   1      42.797  28.174  32.570  1.00  0.00     0.049 A 
ATOM     65  H   UNL A   1      40.923  27.286  32.228  1.00  0.00     0.167 HD
ATOM     66  C   UNL A   1      42.739  28.922  34.818  1.00  0.00     0.074 A 
ATOM     67  C   UNL A   1      42.844  29.130  36.249  1.00  0.00     0.031 C 
ATOM     68  C   UNL A   1      42.864  27.845  33.983  1.00  0.00     0.037 A 
BRANCH  55  69
ATOM     69  C   UNL A   1      40.670  27.182  28.321  1.00  0.00     0.057 A 
ATOM     70  C   UNL A   1      39.923  26.004  28.174  1.00  0.00     0.134 A 
ATOM     71  C   UNL A   1      41.421  27.548  27.181  1.00  0.00     0.134 A 
ATOM     72  F   UNL A   1      39.090  25.582  29.133  1.00  0.00    -0.206 F 
ATOM     73  C   UNL A   1      40.028  25.177  27.040  1.00  0.00     0.040 A 
ATOM     74  C   UNL A   1      41.574  26.709  26.063  1.00  0.00     0.040 A 
ATOM     75  F   UNL A   1      42.089  28.712  27.148  1.00  0.00    -0.206 F 
ATOM     76  C   UNL A   1      40.892  25.502  26.001  1.00  0.00     0.006 A 
ENDBRANCH  55  69
BRANCH  56  77
ATOM     77  C   UNL A   1      40.879  33.215  36.075  1.00  0.00     0.057 A 
ATOM     78  C   UNL A   1      39.601  32.680  36.358  1.00  0.00     0.134 A 
ATOM     79  C   UNL A   1      41.313  34.251  36.905  1.00  0.00     0.134 A 
ATOM     80  F   UNL A   1      39.112  31.672  35.617  1.00  0.00    -0.206 F 
ATOM     81  C   UNL A   1      38.848  33.073  37.470  1.00  0.00     0.040 A 
ATOM     82  C   UNL A   1      40.552  34.675  38.010  1.00  0.00     0.040 A 
ATOM     83  F   UNL A   1      42.538  34.775  36.760  1.00  0.00    -0.206 F 
ATOM     84  C   UNL A   1      39.333  34.064  38.312  1.00  0.00     0.006 A 
ENDBRANCH  56  77
BRANCH  68  85
ATOM     85  C   UNL A   1      43.027  26.364  34.313  1.00  0.00     0.057 A 
ATOM     86  C   UNL A   1      42.155  25.601  35.095  1.00  0.00     0.134 A 
ATOM     87  C   UNL A   1      44.054  25.601  33.685  1.00  0.00     0.134 A 
ATOM     88  F   UNL A   1      41.110  26.140  35.728  1.00  0.00    -0.206 F 
ATOM     89  C   UNL A   1      42.280  24.209  35.232  1.00  0.00     0.040 A 
ATOM     90  C   UNL A   1      44.142  24.208  33.753  1.00  0.00     0.040 A 
ATOM     91  F   UNL A   1      45.026  26.167  32.953  1.00  0.00    -0.206 F 
ATOM     92  C   UNL A   1      43.252  23.503  34.536  1.00  0.00     0.006 A 
ENDBRANCH  68  85
ENDBRANCH  42  43
ENDBRANCH  35  37
ENDBRANCH  34  35
ENDBRANCH  33  34
ENDBRANCH  32  33
ENDBRANCH  31  32
ENDBRANCH  30  31
ENDBRANCH   1  30
TORSDOF 21
ENDMDL
MODEL 2
REMARK VINA RESULT:     -12.0      1.633      2.421
REMARK SMILES Cc1nn(C(C)C)c(C)c1S(=O)(=O)Nc1cccc(C(=O)OCCOCCOCCOC(=O)c2ccc(-c3c4nc(c(-c5c(F)cccc5F)c5ccc([nH]5)c(-c5c(F)cccc5F)c5nc(c(-c6c(F)cccc6F)c6ccc3[nH]6)C=C5)C=C4)cc2)c1C
REMARK SMILES IDX 26 1 25 2 24 3 23 4 22 5 20 6 21 7 19 8 15 9 16 10 88 11
REMARK SMILES IDX 17 12 89 13 18 14 14 15 11 17 12 18 13 19 10 20 1 21 2 22
REMARK SMILES IDX 3 23 4 24 8 25 9 26 5 27 6 28 7 29 27 30 28 31 29 32 30 33
REMARK SMILES IDX 31 34 32 35 33 36 34 37 35 38 87 39 36 40 86 41 37 42 38 43
REMARK SMILES IDX 39 44 80 45 40 46 85 47 79 48 81 49 41 50 84 51 78 52 77 53
REMARK SMILES IDX 42 55 68 56 51 57 67 58 52 59 55 60 66 61 82 62 53 63 54 64
REMARK SMILES IDX 65 66 83 67 56 68 43 69 44 70 49 71 45 72 46 73 48 74 50 75
REMARK SMILES IDX 47 76 69 77 70 78 75 79 71 80 72 81 74 82 76 83 73 84 57 85
REMARK SMILES IDX 58 86 63 87 59 88 60 89 62 90 64 91 61 92
REMARK H PARENT 14 16 81 54 55 65
REMARK Flexibility Score: inf
ROOT
ATOM      1  C   UNL A   1      33.753  32.063  28.004  1.00  0.00     0.188 C 
ENDROOT
BRANCH   1   2
ATOM      2  O   UNL A   1      33.535  31.089  26.986  1.00  0.00    -0.376 OA
BRANCH   2   3
ATOM      3  C   UNL A   1      32.298  30.673  26.423  1.00  0.00     0.202 C 
BRANCH   3   4
ATOM      4  C   UNL A   1      32.185  29.384  25.275  1.00  0.00     0.261 C 
BRANCH   4   5
ATOM      5  O   UNL A   1      30.973  28.191  25.010  1.00  0.00    -0.460 OA
BRANCH   5   6
ATOM      6  C   UNL A   1      30.612  27.073  24.210  1.00  0.00     0.338 C 
ATOM      7  O   UNL A   1      29.543  26.830  23.660  1.00  0.00    -0.246 OA
BRANCH   6   8
ATOM      8  C   UNL A   1      31.498  25.888  23.972  1.00  0.00     0.065 A 
ATOM      9  C   UNL A   1      33.635  24.722  24.493  1.00  0.00     0.053 A 
ATOM     10  C   UNL A   1      33.829  24.509  23.135  1.00  0.00     0.027 A 
ATOM     11  C   UNL A   1      32.475  25.411  24.940  1.00  0.00    -0.012 A 
ATOM     12  C   UNL A   1      32.889  24.981  22.210  1.00  0.00     0.003 A 
ATOM     13  C   UNL A   1      32.424  25.651  26.438  1.00  0.00     0.047 C 
ATOM     14  C   UNL A   1      31.737  25.660  22.619  1.00  0.00     0.016 A 
BRANCH   9  15
ATOM     15  N   UNL A   1      34.586  24.299  25.465  1.00  0.00    -0.279 N 
ATOM     16  H   UNL A   1      35.285  24.954  25.699  1.00  0.00     0.180 HD
BRANCH  15  17
ATOM     17  S   UNL A   1      34.667  22.840  26.253  1.00  0.00     0.265 S 
ATOM     18  O   UNL A   1      34.089  23.006  27.571  1.00  0.00    -0.201 OA
ATOM     19  O   UNL A   1      36.050  22.424  26.112  1.00  0.00    -0.201 OA
BRANCH  17  20
ATOM     20  C   UNL A   1      33.792  21.507  25.595  1.00  0.00     0.131 A 
ATOM     21  C   UNL A   1      31.226  22.182  25.580  1.00  0.00     0.070 C 
ATOM     22  C   UNL A   1      32.403  21.306  25.408  1.00  0.00     0.080 A 
ATOM     23  N   UNL A   1      32.152  20.071  24.959  1.00  0.00    -0.176 NA
ATOM     24  N   UNL A   1      33.355  19.516  24.765  1.00  0.00    -0.266 N 
ATOM     25  C   UNL A   1      34.389  20.365  25.061  1.00  0.00     0.056 A 
ATOM     26  C   UNL A   1      35.814  20.028  24.812  1.00  0.00     0.068 C 
BRANCH  24  27
ATOM     27  C   UNL A   1      33.409  18.137  24.287  1.00  0.00     0.101 C 
ATOM     28  C   UNL A   1      32.902  17.172  25.361  1.00  0.00     0.033 C 
ATOM     29  C   UNL A   1      32.630  17.970  22.980  1.00  0.00     0.033 C 
ENDBRANCH  24  27
ENDBRANCH  17  20
ENDBRANCH  15  17
ENDBRANCH   9  15
ENDBRANCH   6   8
ENDBRANCH   5   6
ENDBRANCH   4   5
ENDBRANCH   3   4
ENDBRANCH   2   3
ENDBRANCH   1   2
BRANCH   1  30
ATOM     30  C   UNL A   1      33.001  33.390  27.955  1.00  0.00     0.188 C 
BRANCH  30  31
ATOM     31  O   UNL A   1      33.898  34.482  27.985  1.00  0.00    -0.376 OA
BRANCH  31  32
ATOM     32  C   UNL A   1      33.478  35.561  28.808  1.00  0.00     0.202 C 
BRANCH  32  33
ATOM     33  C   UNL A   1      33.243  35.195  30.290  1.00  0.00     0.261 C 
BRANCH  33  34
ATOM     34  O   UNL A   1      34.496  35.082  31.004  1.00  0.00    -0.460 OA
BRANCH  34  35
ATOM     35  C   UNL A   1      34.685  34.006  31.836  1.00  0.00     0.338 C 
ATOM     36  O   UNL A   1      34.588  34.034  33.056  1.00  0.00    -0.246 OA
BRANCH  35  37
ATOM     37  C   UNL A   1      35.324  32.884  31.064  1.00  0.00     0.060 A 
ATOM     38  C   UNL A   1      35.525  31.580  31.544  1.00  0.00     0.016 A 
ATOM     39  C   UNL A   1      36.150  33.268  30.068  1.00  0.00     0.016 A 
ATOM     40  C   UNL A   1      36.691  30.785  31.153  1.00  0.00     0.010 A 
ATOM     41  C   UNL A   1      37.357  32.576  30.032  1.00  0.00     0.010 A 
ATOM     42  C   UNL A   1      37.750  31.283  30.383  1.00  0.00    -0.014 A 
BRANCH  42  43
ATOM     43  C   UNL A   1      39.261  30.647  30.205  1.00  0.00     0.031 A 
ATOM     44  C   UNL A   1      39.944  29.421  29.363  1.00  0.00     0.074 A 
ATOM     45  C   UNL A   1      40.234  31.261  30.921  1.00  0.00     0.049 A 
ATOM     46  N   UNL A   1      40.786  28.542  29.892  1.00  0.00    -0.248 NA
ATOM     47  C   UNL A   1      39.827  29.071  27.920  1.00  0.00     0.031 C 
ATOM     48  C   UNL A   1      41.682  31.048  30.870  1.00  0.00     0.029 A 
ATOM     49  N   UNL A   1      40.076  32.182  31.958  1.00  0.00    -0.354 N 
ATOM     50  C   UNL A   1      41.256  27.677  28.888  1.00  0.00     0.074 A 
ATOM     51  C   UNL A   1      40.511  27.955  27.729  1.00  0.00     0.031 C 
ATOM     52  C   UNL A   1      42.222  31.526  32.001  1.00  0.00     0.029 A 
ATOM     53  C   UNL A   1      41.133  31.971  32.847  1.00  0.00     0.049 A 
ATOM     54  H   UNL A   1      39.359  32.851  32.045  1.00  0.00     0.167 HD
ATOM     55  C   UNL A   1      42.343  26.861  28.928  1.00  0.00     0.037 A 
ATOM     56  C   UNL A   1      40.887  31.623  34.137  1.00  0.00     0.037 A 
ATOM     57  C   UNL A   1      43.146  27.193  30.061  1.00  0.00     0.049 A 
ATOM     58  C   UNL A   1      41.532  30.315  34.525  1.00  0.00     0.074 A 
ATOM     59  C   UNL A   1      44.198  28.078  30.217  1.00  0.00     0.029 A 
ATOM     60  N   UNL A   1      42.651  26.920  31.315  1.00  0.00    -0.354 N 
ATOM     61  N   UNL A   1      42.130  29.508  33.691  1.00  0.00    -0.248 NA
ATOM     62  C   UNL A   1      41.542  29.798  35.886  1.00  0.00     0.031 C 
ATOM     63  C   UNL A   1      44.318  28.358  31.599  1.00  0.00     0.029 A 
ATOM     64  C   UNL A   1      43.383  27.592  32.270  1.00  0.00     0.049 A 
ATOM     65  H   UNL A   1      41.885  26.331  31.504  1.00  0.00     0.167 HD
ATOM     66  C   UNL A   1      42.548  28.373  34.346  1.00  0.00     0.074 A 
ATOM     67  C   UNL A   1      42.200  28.637  35.728  1.00  0.00     0.031 C 
ATOM     68  C   UNL A   1      43.106  27.322  33.670  1.00  0.00     0.037 A 
BRANCH  55  69
ATOM     69  C   UNL A   1      42.778  26.071  27.700  1.00  0.00     0.057 A 
ATOM     70  C   UNL A   1      43.586  26.625  26.697  1.00  0.00     0.134 A 
ATOM     71  C   UNL A   1      42.312  24.765  27.426  1.00  0.00     0.134 A 
ATOM     72  F   UNL A   1      44.178  27.815  26.856  1.00  0.00    -0.206 F 
ATOM     73  C   UNL A   1      43.792  25.994  25.456  1.00  0.00     0.040 A 
ATOM     74  C   UNL A   1      42.468  24.144  26.174  1.00  0.00     0.040 A 
ATOM     75  F   UNL A   1      41.625  24.076  28.351  1.00  0.00    -0.206 F 
ATOM     76  C   UNL A   1      43.193  24.773  25.172  1.00  0.00     0.006 A 
ENDBRANCH  55  69
BRANCH  56  77
ATOM     77  C   UNL A   1      39.632  32.227  34.684  1.00  0.00     0.057 A 
ATOM     78  C   UNL A   1      39.671  33.576  35.104  1.00  0.00     0.134 A 
ATOM     79  C   UNL A   1      38.362  31.671  34.507  1.00  0.00     0.134 A 
ATOM     80  F   UNL A   1      40.852  34.192  35.286  1.00  0.00    -0.206 F 
ATOM     81  C   UNL A   1      38.520  34.362  35.230  1.00  0.00     0.040 A 
ATOM     82  C   UNL A   1      37.196  32.443  34.659  1.00  0.00     0.040 A 
ATOM     83  F   UNL A   1      38.221  30.422  34.044  1.00  0.00    -0.206 F 
ATOM     84  C   UNL A   1      37.275  33.798  34.989  1.00  0.00     0.006 A 
ENDBRANCH  56  77
BRANCH  68  85
ATOM     85  C   UNL A   1      43.445  25.915  34.154  1.00  0.00     0.057 A 
ATOM     86  C   UNL A   1      42.563  25.036  34.789  1.00  0.00     0.134 A 
ATOM     87  C   UNL A   1      44.706  25.334  33.834  1.00  0.00     0.134 A 
ATOM     88  F   UNL A   1      41.322  25.394  35.129  1.00  0.00    -0.206 F 
ATOM     89  C   UNL A   1      42.895  23.701  35.071  1.00  0.00     0.040 A 
ATOM     90  C   UNL A   1      45.018  23.987  34.040  1.00  0.00     0.040 A 
ATOM     91  F   UNL A   1      45.707  26.041  33.287  1.00  0.00    -0.206 F 
ATOM     92  C   UNL A   1      44.109  23.162  34.668  1.00  0.00     0.006 A 
ENDBRANCH  68  85
ENDBRANCH  42  43
ENDBRANCH  35  37
ENDBRANCH  34  35
ENDBRANCH  33  34
ENDBRANCH  32  33
ENDBRANCH  31  32
ENDBRANCH  30  31
ENDBRANCH   1  30
TORSDOF 21
ENDMDL
MODEL 3
REMARK VINA RESULT:     -11.4      4.303      8.392
REMARK SMILES Cc1nn(C(C)C)c(C)c1S(=O)(=O)Nc1cccc(C(=O)OCCOCCOCCOC(=O)c2ccc(-c3c4nc(c(-c5c(F)cccc5F)c5ccc([nH]5)c(-c5c(F)cccc5F)c5nc(c(-c6c(F)cccc6F)c6ccc3[nH]6)C=C5)C=C4)cc2)c1C
REMARK SMILES IDX 26 1 25 2 24 3 23 4 22 5 20 6 21 7 19 8 15 9 16 10 88 11
REMARK SMILES IDX 17 12 89 13 18 14 14 15 11 17 12 18 13 19 10 20 1 21 2 22
REMARK SMILES IDX 3 23 4 24 8 25 9 26 5 27 6 28 7 29 27 30 28 31 29 32 30 33
REMARK SMILES IDX 31 34 32 35 33 36 34 37 35 38 87 39 36 40 86 41 37 42 38 43
REMARK SMILES IDX 39 44 80 45 40 46 85 47 79 48 81 49 41 50 84 51 78 52 77 53
REMARK SMILES IDX 42 55 68 56 51 57 67 58 52 59 55 60 66 61 82 62 53 63 54 64
REMARK SMILES IDX 65 66 83 67 56 68 43 69 44 70 49 71 45 72 46 73 48 74 50 75
REMARK SMILES IDX 47 76 69 77 70 78 75 79 71 80 72 81 74 82 76 83 73 84 57 85
REMARK SMILES IDX 58 86 63 87 59 88 60 89 62 90 64 91 61 92
REMARK H PARENT 14 16 81 54 55 65
REMARK Flexibility Score: inf
ROOT
ATOM      1  C   UNL A   1      34.261  34.158  29.648  1.00  0.00     0.188 C 
ENDROOT
BRANCH   1   2
ATOM      2  O   UNL A   1      33.611  33.622  28.497  1.00  0.00    -0.376 OA
BRANCH   2   3
ATOM      3  C   UNL A   1      33.617  32.279  28.034  1.00  0.00     0.202 C 
BRANCH   3   4
ATOM      4  C   UNL A   1      32.467  31.685  26.887  1.00  0.00     0.261 C 
BRANCH   4   5
ATOM      5  O   UNL A   1      32.522  30.355  25.794  1.00  0.00    -0.460 OA
BRANCH   5   6
ATOM      6  C   UNL A   1      31.770  29.279  25.251  1.00  0.00     0.338 C 
ATOM      7  O   UNL A   1      30.750  29.315  24.572  1.00  0.00    -0.246 OA
BRANCH   6   8
ATOM      8  C   UNL A   1      32.062  27.832  25.514  1.00  0.00     0.065 A 
ATOM      9  C   UNL A   1      32.720  25.618  24.588  1.00  0.00     0.053 A 
ATOM     10  C   UNL A   1      31.698  25.028  25.319  1.00  0.00     0.027 A 
ATOM     11  C   UNL A   1      32.924  27.022  24.666  1.00  0.00    -0.012 A 
ATOM     12  C   UNL A   1      30.867  25.817  26.123  1.00  0.00     0.003 A 
ATOM     13  C   UNL A   1      34.018  27.551  23.756  1.00  0.00     0.047 C 
ATOM     14  C   UNL A   1      31.044  27.201  26.223  1.00  0.00     0.016 A 
BRANCH   9  15
ATOM     15  N   UNL A   1      33.561  24.860  23.722  1.00  0.00    -0.279 N 
ATOM     16  H   UNL A   1      33.529  25.103  22.768  1.00  0.00     0.180 HD
BRANCH  15  17
ATOM     17  S   UNL A   1      34.589  23.618  24.121  1.00  0.00     0.265 S 
ATOM     18  O   UNL A   1      35.036  23.822  25.483  1.00  0.00    -0.201 OA
ATOM     19  O   UNL A   1      35.552  23.578  23.036  1.00  0.00    -0.201 OA
BRANCH  17  20
ATOM     20  C   UNL A   1      33.959  22.012  24.139  1.00  0.00     0.131 A 
ATOM     21  C   UNL A   1      31.659  22.054  22.818  1.00  0.00     0.070 C 
ATOM     22  C   UNL A   1      32.747  21.480  23.635  1.00  0.00     0.080 A 
ATOM     23  N   UNL A   1      32.614  20.191  23.966  1.00  0.00    -0.176 NA
ATOM     24  N   UNL A   1      33.755  19.866  24.585  1.00  0.00    -0.266 N 
ATOM     25  C   UNL A   1      34.642  20.909  24.652  1.00  0.00     0.056 A 
ATOM     26  C   UNL A   1      36.024  20.769  25.179  1.00  0.00     0.068 C 
BRANCH  24  27
ATOM     27  C   UNL A   1      33.903  18.503  25.089  1.00  0.00     0.101 C 
ATOM     28  C   UNL A   1      32.550  17.938  25.522  1.00  0.00     0.033 C 
ATOM     29  C   UNL A   1      34.577  17.598  24.055  1.00  0.00     0.033 C 
ENDBRANCH  24  27
ENDBRANCH  17  20
ENDBRANCH  15  17
ENDBRANCH   9  15
ENDBRANCH   6   8
ENDBRANCH   5   6
ENDBRANCH   4   5
ENDBRANCH   3   4
ENDBRANCH   2   3
ENDBRANCH   1   2
BRANCH   1  30
ATOM     30  C   UNL A   1      34.796  33.215  30.722  1.00  0.00     0.188 C 
BRANCH  30  31
ATOM     31  O   UNL A   1      36.100  33.586  31.119  1.00  0.00    -0.376 OA
BRANCH  31  32
ATOM     32  C   UNL A   1      37.048  32.528  31.077  1.00  0.00     0.202 C 
BRANCH  32  33
ATOM     33  C   UNL A   1      37.322  31.956  29.668  1.00  0.00     0.261 C 
BRANCH  33  34
ATOM     34  O   UNL A   1      37.056  30.536  29.622  1.00  0.00    -0.460 OA
BRANCH  34  35
ATOM     35  C   UNL A   1      37.091  29.897  28.406  1.00  0.00     0.338 C 
ATOM     36  O   UNL A   1      36.205  29.937  27.564  1.00  0.00    -0.246 OA
BRANCH  35  37
ATOM     37  C   UNL A   1      38.225  28.907  28.396  1.00  0.00     0.060 A 
ATOM     38  C   UNL A   1      38.775  28.292  29.532  1.00  0.00     0.016 A 
ATOM     39  C   UNL A   1      39.040  28.978  27.324  1.00  0.00     0.016 A 
ATOM     40  C   UNL A   1      40.200  27.964  29.618  1.00  0.00     0.010 A 
ATOM     41  C   UNL A   1      40.396  28.935  27.637  1.00  0.00     0.010 A 
ATOM     42  C   UNL A   1      41.144  28.335  28.651  1.00  0.00    -0.014 A 
BRANCH  42  43
ATOM     43  C   UNL A   1      42.785  28.378  28.802  1.00  0.00     0.031 A 
ATOM     44  C   UNL A   1      43.954  29.523  28.761  1.00  0.00     0.074 A 
ATOM     45  C   UNL A   1      43.377  27.179  29.020  1.00  0.00     0.049 A 
ATOM     46  N   UNL A   1      45.079  29.404  28.067  1.00  0.00    -0.248 NA
ATOM     47  C   UNL A   1      44.037  30.829  29.472  1.00  0.00     0.031 C 
ATOM     48  C   UNL A   1      44.775  26.893  29.350  1.00  0.00     0.029 A 
ATOM     49  N   UNL A   1      42.809  25.911  28.884  1.00  0.00    -0.354 N 
ATOM     50  C   UNL A   1      45.903  30.517  28.314  1.00  0.00     0.074 A 
ATOM     51  C   UNL A   1      45.142  31.431  29.062  1.00  0.00     0.031 C 
ATOM     52  C   UNL A   1      45.025  25.607  29.063  1.00  0.00     0.029 A 
ATOM     53  C   UNL A   1      43.829  25.057  28.457  1.00  0.00     0.049 A 
ATOM     54  H   UNL A   1      41.871  25.666  29.056  1.00  0.00     0.167 HD
ATOM     55  C   UNL A   1      47.235  30.642  28.068  1.00  0.00     0.037 A 
ATOM     56  C   UNL A   1      43.724  24.399  27.274  1.00  0.00     0.037 A 
ATOM     57  C   UNL A   1      47.785  29.360  27.763  1.00  0.00     0.049 A 
ATOM     58  C   UNL A   1      44.862  24.704  26.330  1.00  0.00     0.074 A 
ATOM     59  C   UNL A   1      48.345  28.383  28.566  1.00  0.00     0.029 A 
ATOM     60  N   UNL A   1      47.425  28.760  26.578  1.00  0.00    -0.354 N 
ATOM     61  N   UNL A   1      45.772  25.617  26.538  1.00  0.00    -0.248 NA
ATOM     62  C   UNL A   1      45.060  24.015  25.063  1.00  0.00     0.031 C 
ATOM     63  C   UNL A   1      48.296  27.162  27.850  1.00  0.00     0.029 A 
ATOM     64  C   UNL A   1      47.768  27.425  26.600  1.00  0.00     0.049 A 
ATOM     65  H   UNL A   1      46.985  29.216  25.825  1.00  0.00     0.167 HD
ATOM     66  C   UNL A   1      46.623  25.691  25.459  1.00  0.00     0.074 A 
ATOM     67  C   UNL A   1      46.159  24.627  24.592  1.00  0.00     0.031 C 
ATOM     68  C   UNL A   1      47.599  26.648  25.385  1.00  0.00     0.037 A 
BRANCH  55  69
ATOM     69  C   UNL A   1      48.001  31.883  28.506  1.00  0.00     0.057 A 
ATOM     70  C   UNL A   1      48.305  32.930  27.623  1.00  0.00     0.134 A 
ATOM     71  C   UNL A   1      48.557  32.024  29.798  1.00  0.00     0.134 A 
ATOM     72  F   UNL A   1      47.773  32.984  26.396  1.00  0.00    -0.206 F 
ATOM     73  C   UNL A   1      49.211  33.956  27.949  1.00  0.00     0.040 A 
ATOM     74  C   UNL A   1      49.500  33.015  30.121  1.00  0.00     0.040 A 
ATOM     75  F   UNL A   1      48.251  31.152  30.772  1.00  0.00    -0.206 F 
ATOM     76  C   UNL A   1      49.850  33.975  29.182  1.00  0.00     0.006 A 
ENDBRANCH  55  69
BRANCH  56  77
ATOM     77  C   UNL A   1      42.318  24.024  26.927  1.00  0.00     0.057 A 
ATOM     78  C   UNL A   1      41.800  22.821  27.459  1.00  0.00     0.134 A 
ATOM     79  C   UNL A   1      41.384  24.919  26.399  1.00  0.00     0.134 A 
ATOM     80  F   UNL A   1      42.628  21.911  28.000  1.00  0.00    -0.206 F 
ATOM     81  C   UNL A   1      40.427  22.571  27.565  1.00  0.00     0.040 A 
ATOM     82  C   UNL A   1      40.002  24.666  26.473  1.00  0.00     0.040 A 
ATOM     83  F   UNL A   1      41.771  26.115  25.935  1.00  0.00    -0.206 F 
ATOM     84  C   UNL A   1      39.521  23.506  27.085  1.00  0.00     0.006 A 
ENDBRANCH  56  77
BRANCH  68  85
ATOM     85  C   UNL A   1      48.501  27.038  24.217  1.00  0.00     0.057 A 
ATOM     86  C   UNL A   1      49.854  26.711  24.086  1.00  0.00     0.134 A 
ATOM     87  C   UNL A   1      47.945  27.662  23.062  1.00  0.00     0.134 A 
ATOM     88  F   UNL A   1      50.533  26.087  25.051  1.00  0.00    -0.206 F 
ATOM     89  C   UNL A   1      50.586  26.968  22.915  1.00  0.00     0.040 A 
ATOM     90  C   UNL A   1      48.643  27.851  21.867  1.00  0.00     0.040 A 
ATOM     91  F   UNL A   1      46.681  28.110  23.025  1.00  0.00    -0.206 F 
ATOM     92  C   UNL A   1      49.976  27.507  21.791  1.00  0.00     0.006 A 
ENDBRANCH  68  85
ENDBRANCH  42  43
ENDBRANCH  35  37
ENDBRANCH  34  35
ENDBRANCH  33  34
ENDBRANCH  32  33
ENDBRANCH  31  32
ENDBRANCH  30  31
ENDBRANCH   1  30
TORSDOF 21
ENDMDL
