MODEL 1
REMARK VINA RESULT:     -10.9      0.000      0.000
REMARK SMILES CN1C(=O)[C@H](CC(=O)OCCOCCOCCOC(=O)c2ccc(-c3c4nc(c(-c5c(F)cccc5F)c5ccc([nH]5)c(-c5c(F)cccc5F)c5nc(c(-c6c(F)cccc6F)c6ccc3[nH]6)C=C5)C=C4)cc2)S/C1=[NH+]\N=C\c1ccc(O)cc1O
REMARK SMILES IDX 13 1 12 2 11 3 10 4 9 5 7 6 8 7 6 8 5 9 1 10 2 11 3 12 76 13
REMARK SMILES IDX 4 14 75 15 77 16 78 18 79 19 80 20 81 21 86 22 82 23 85 24
REMARK SMILES IDX 83 25 87 26 84 28 14 30 15 31 16 32 17 33 18 34 19 35 20 36
REMARK SMILES IDX 21 37 22 38 74 39 23 40 73 41 24 42 25 43 26 44 67 45 27 46
REMARK SMILES IDX 72 47 66 48 68 49 28 50 71 51 65 52 64 53 29 55 55 56 38 57
REMARK SMILES IDX 54 58 39 59 42 60 53 61 69 62 40 63 41 64 52 66 70 67 43 68
REMARK SMILES IDX 30 69 31 70 36 71 32 72 33 73 35 74 37 75 34 76 56 77 57 78
REMARK SMILES IDX 62 79 58 80 59 81 61 82 63 83 60 84 44 85 45 86 50 87 46 88
REMARK SMILES IDX 47 89 49 90 51 91 48 92
REMARK H PARENT 77 17 87 27 84 29 68 54 42 65
REMARK Flexibility Score: inf
ROOT
ATOM      1  C   UNL A   1      40.534  21.533  27.192  1.00  0.00     0.188 C 
ENDROOT
BRANCH   1   2
ATOM      2  O   UNL A   1      39.197  21.530  26.712  1.00  0.00    -0.376 OA
BRANCH   2   3
ATOM      3  C   UNL A   1      38.777  22.688  25.988  1.00  0.00     0.202 C 
BRANCH   3   4
ATOM      4  C   UNL A   1      37.349  22.668  25.410  1.00  0.00     0.261 C 
BRANCH   4   5
ATOM      5  O   UNL A   1      36.644  23.929  25.532  1.00  0.00    -0.463 OA
BRANCH   5   6
ATOM      6  C   UNL A   1      35.286  23.853  25.574  1.00  0.00     0.307 C 
ATOM      7  O   UNL A   1      34.664  22.869  25.958  1.00  0.00    -0.252 OA
BRANCH   6   8
ATOM      8  C   UNL A   1      34.590  25.177  25.306  1.00  0.00     0.150 C 
BRANCH   8   9
ATOM      9  C   UNL A   1      34.061  25.537  23.926  1.00  0.00     0.185 C 
ATOM     10  C   UNL A   1      31.043  23.451  23.240  1.00  0.00     0.301 C 
ATOM     11  N   UNL A   1      31.938  24.543  23.547  1.00  0.00    -0.191 N 
ATOM     12  C   UNL A   1      33.261  24.482  23.223  1.00  0.00     0.324 C 
ATOM     13  C   UNL A   1      31.512  25.822  23.711  1.00  0.00     0.339 C 
ATOM     14  O   UNL A   1      33.741  23.784  22.345  1.00  0.00    -0.245 OA
ATOM     15  S   UNL A   1      32.873  26.905  23.995  1.00  0.00    -0.020 SA
ATOM     16  N   UNL A   1      30.272  26.178  23.598  1.00  0.00    -0.142 N 
ATOM     17  H   UNL A   1      29.515  25.550  23.581  1.00  0.00     0.343 HD
BRANCH  16  18
ATOM     18  N   UNL A   1      30.147  27.549  23.504  1.00  0.00    -0.093 NA
ATOM     19  C   UNL A   1      28.978  27.948  23.137  1.00  0.00     0.170 C 
BRANCH  19  20
ATOM     20  C   UNL A   1      28.772  29.386  22.923  1.00  0.00     0.039 A 
ATOM     21  C   UNL A   1      27.738  30.015  23.615  1.00  0.00     0.017 A 
ATOM     22  C   UNL A   1      29.593  30.124  22.053  1.00  0.00     0.128 A 
ATOM     23  C   UNL A   1      27.538  31.385  23.445  1.00  0.00     0.047 A 
ATOM     24  C   UNL A   1      29.378  31.484  21.866  1.00  0.00     0.093 A 
ATOM     25  C   UNL A   1      28.353  32.104  22.572  1.00  0.00     0.119 A 
BRANCH  22  26
ATOM     26  O   UNL A   1      30.628  29.573  21.343  1.00  0.00    -0.507 OA
ATOM     27  H   UNL A   1      30.475  28.832  20.791  1.00  0.00     0.293 HD
ENDBRANCH  22  26
BRANCH  25  28
ATOM     28  O   UNL A   1      28.115  33.440  22.438  1.00  0.00    -0.508 OA
ATOM     29  H   UNL A   1      27.462  33.742  21.837  1.00  0.00     0.293 HD
ENDBRANCH  25  28
ENDBRANCH  19  20
ENDBRANCH  16  18
ENDBRANCH   8   9
ENDBRANCH   6   8
ENDBRANCH   5   6
ENDBRANCH   4   5
ENDBRANCH   3   4
ENDBRANCH   2   3
ENDBRANCH   1   2
BRANCH   1  30
ATOM     30  C   UNL A   1      41.195  20.168  27.439  1.00  0.00     0.188 C 
BRANCH  30  31
ATOM     31  O   UNL A   1      42.118  19.737  26.449  1.00  0.00    -0.376 OA
BRANCH  31  32
ATOM     32  C   UNL A   1      42.677  20.743  25.598  1.00  0.00     0.202 C 
BRANCH  32  33
ATOM     33  C   UNL A   1      44.072  21.252  25.981  1.00  0.00     0.261 C 
BRANCH  33  34
ATOM     34  O   UNL A   1      44.096  22.534  26.637  1.00  0.00    -0.460 OA
BRANCH  34  35
ATOM     35  C   UNL A   1      44.006  23.654  25.879  1.00  0.00     0.338 C 
ATOM     36  O   UNL A   1      44.167  23.748  24.676  1.00  0.00    -0.246 OA
BRANCH  35  37
ATOM     37  C   UNL A   1      43.435  24.723  26.741  1.00  0.00     0.060 A 
ATOM     38  C   UNL A   1      43.912  26.037  26.615  1.00  0.00     0.016 A 
ATOM     39  C   UNL A   1      42.367  24.448  27.599  1.00  0.00     0.016 A 
ATOM     40  C   UNL A   1      43.341  27.070  27.370  1.00  0.00     0.010 A 
ATOM     41  C   UNL A   1      41.805  25.475  28.357  1.00  0.00     0.010 A 
ATOM     42  C   UNL A   1      42.307  26.786  28.272  1.00  0.00    -0.014 A 
BRANCH  42  43
ATOM     43  C   UNL A   1      41.872  27.772  29.294  1.00  0.00     0.031 A 
ATOM     44  C   UNL A   1      42.584  27.761  30.620  1.00  0.00     0.074 A 
ATOM     45  C   UNL A   1      40.836  28.607  29.095  1.00  0.00     0.049 A 
ATOM     46  N   UNL A   1      42.281  28.371  31.736  1.00  0.00    -0.248 NA
ATOM     47  C   UNL A   1      43.796  26.928  30.696  1.00  0.00     0.031 C 
ATOM     48  C   UNL A   1      40.087  28.749  27.849  1.00  0.00     0.029 A 
ATOM     49  N   UNL A   1      40.217  29.474  29.963  1.00  0.00    -0.354 N 
ATOM     50  C   UNL A   1      43.249  27.978  32.651  1.00  0.00     0.074 A 
ATOM     51  C   UNL A   1      44.133  27.059  31.968  1.00  0.00     0.031 C 
ATOM     52  C   UNL A   1      39.093  29.636  28.040  1.00  0.00     0.029 A 
ATOM     53  C   UNL A   1      39.106  30.084  29.432  1.00  0.00     0.049 A 
ATOM     54  H   UNL A   1      40.540  29.643  30.877  1.00  0.00     0.167 HD
ATOM     55  C   UNL A   1      43.394  28.352  33.944  1.00  0.00     0.037 A 
ATOM     56  C   UNL A   1      38.186  30.878  30.017  1.00  0.00     0.037 A 
ATOM     57  C   UNL A   1      42.513  29.264  34.622  1.00  0.00     0.049 A 
ATOM     58  C   UNL A   1      38.316  31.216  31.483  1.00  0.00     0.074 A 
ATOM     59  C   UNL A   1      42.585  29.719  35.926  1.00  0.00     0.029 A 
ATOM     60  N   UNL A   1      41.395  29.852  34.051  1.00  0.00    -0.354 N 
ATOM     61  N   UNL A   1      39.244  30.858  32.338  1.00  0.00    -0.248 NA
ATOM     62  C   UNL A   1      37.266  32.065  32.068  1.00  0.00     0.031 C 
ATOM     63  C   UNL A   1      41.476  30.537  36.162  1.00  0.00     0.029 A 
ATOM     64  C   UNL A   1      40.752  30.645  34.986  1.00  0.00     0.049 A 
ATOM     65  H   UNL A   1      41.101  29.724  33.121  1.00  0.00     0.167 HD
ATOM     66  C   UNL A   1      38.912  31.466  33.544  1.00  0.00     0.074 A 
ATOM     67  C   UNL A   1      37.698  32.220  33.311  1.00  0.00     0.031 C 
ATOM     68  C   UNL A   1      39.556  31.409  34.735  1.00  0.00     0.037 A 
BRANCH  55  69
ATOM     69  C   UNL A   1      44.529  27.746  34.717  1.00  0.00     0.057 A 
ATOM     70  C   UNL A   1      44.386  26.547  35.428  1.00  0.00     0.134 A 
ATOM     71  C   UNL A   1      45.788  28.358  34.730  1.00  0.00     0.134 A 
ATOM     72  F   UNL A   1      43.202  25.918  35.471  1.00  0.00    -0.206 F 
ATOM     73  C   UNL A   1      45.448  25.994  36.146  1.00  0.00     0.040 A 
ATOM     74  C   UNL A   1      46.865  27.798  35.417  1.00  0.00     0.040 A 
ATOM     75  F   UNL A   1      45.995  29.506  34.067  1.00  0.00    -0.206 F 
ATOM     76  C   UNL A   1      46.694  26.616  36.135  1.00  0.00     0.006 A 
ENDBRANCH  55  69
BRANCH  56  77
ATOM     77  C   UNL A   1      37.036  31.400  29.230  1.00  0.00     0.057 A 
ATOM     78  C   UNL A   1      37.031  32.711  28.735  1.00  0.00     0.134 A 
ATOM     79  C   UNL A   1      35.899  30.619  28.986  1.00  0.00     0.134 A 
ATOM     80  F   UNL A   1      38.077  33.520  28.960  1.00  0.00    -0.206 F 
ATOM     81  C   UNL A   1      35.935  33.230  28.044  1.00  0.00     0.040 A 
ATOM     82  C   UNL A   1      34.807  31.115  28.273  1.00  0.00     0.040 A 
ATOM     83  F   UNL A   1      35.835  29.358  29.438  1.00  0.00    -0.206 F 
ATOM     84  C   UNL A   1      34.820  32.429  27.806  1.00  0.00     0.006 A 
ENDBRANCH  56  77
BRANCH  68  85
ATOM     85  C   UNL A   1      39.008  32.228  35.871  1.00  0.00     0.057 A 
ATOM     86  C   UNL A   1      38.164  31.681  36.845  1.00  0.00     0.134 A 
ATOM     87  C   UNL A   1      39.398  33.565  36.030  1.00  0.00     0.134 A 
ATOM     88  F   UNL A   1      37.745  30.411  36.747  1.00  0.00    -0.206 F 
ATOM     89  C   UNL A   1      37.717  32.439  37.929  1.00  0.00     0.040 A 
ATOM     90  C   UNL A   1      38.981  34.323  37.124  1.00  0.00     0.040 A 
ATOM     91  F   UNL A   1      40.216  34.147  35.140  1.00  0.00    -0.206 F 
ATOM     92  C   UNL A   1      38.134  33.761  38.077  1.00  0.00     0.006 A 
ENDBRANCH  68  85
ENDBRANCH  42  43
ENDBRANCH  35  37
ENDBRANCH  34  35
ENDBRANCH  33  34
ENDBRANCH  32  33
ENDBRANCH  31  32
ENDBRANCH  30  31
ENDBRANCH   1  30
TORSDOF 22
ENDMDL
MODEL 2
REMARK VINA RESULT:     -10.8      2.541      4.941
REMARK SMILES CN1C(=O)[C@H](CC(=O)OCCOCCOCCOC(=O)c2ccc(-c3c4nc(c(-c5c(F)cccc5F)c5ccc([nH]5)c(-c5c(F)cccc5F)c5nc(c(-c6c(F)cccc6F)c6ccc3[nH]6)C=C5)C=C4)cc2)S/C1=[NH+]\N=C\c1ccc(O)cc1O
REMARK SMILES IDX 13 1 12 2 11 3 10 4 9 5 7 6 8 7 6 8 5 9 1 10 2 11 3 12 76 13
REMARK SMILES IDX 4 14 75 15 77 16 78 18 79 19 80 20 81 21 86 22 82 23 85 24
REMARK SMILES IDX 83 25 87 26 84 28 14 30 15 31 16 32 17 33 18 34 19 35 20 36
REMARK SMILES IDX 21 37 22 38 74 39 23 40 73 41 24 42 25 43 26 44 67 45 27 46
REMARK SMILES IDX 72 47 66 48 68 49 28 50 71 51 65 52 64 53 29 55 55 56 38 57
REMARK SMILES IDX 54 58 39 59 42 60 53 61 69 62 40 63 41 64 52 66 70 67 43 68
REMARK SMILES IDX 30 69 31 70 36 71 32 72 33 73 35 74 37 75 34 76 56 77 57 78
REMARK SMILES IDX 62 79 58 80 59 81 61 82 63 83 60 84 44 85 45 86 50 87 46 88
REMARK SMILES IDX 47 89 49 90 51 91 48 92
REMARK H PARENT 77 17 87 27 84 29 68 54 42 65
REMARK Flexibility Score: inf
ROOT
ATOM      1  C   UNL A   1      40.711  20.888  26.920  1.00  0.00     0.188 C 
ENDROOT
BRANCH   1   2
ATOM      2  O   UNL A   1      39.388  20.623  26.477  1.00  0.00    -0.376 OA
BRANCH   2   3
ATOM      3  C   UNL A   1      38.890  21.451  25.424  1.00  0.00     0.202 C 
BRANCH   3   4
ATOM      4  C   UNL A   1      37.362  21.485  25.228  1.00  0.00     0.261 C 
BRANCH   4   5
ATOM      5  O   UNL A   1      36.858  22.747  24.722  1.00  0.00    -0.463 OA
BRANCH   5   6
ATOM      6  C   UNL A   1      36.683  23.733  25.644  1.00  0.00     0.307 C 
ATOM      7  O   UNL A   1      37.551  24.107  26.424  1.00  0.00    -0.252 OA
BRANCH   6   8
ATOM      8  C   UNL A   1      35.375  24.491  25.487  1.00  0.00     0.150 C 
BRANCH   8   9
ATOM      9  C   UNL A   1      34.093  24.020  26.156  1.00  0.00     0.185 C 
ATOM     10  C   UNL A   1      31.250  24.624  23.814  1.00  0.00     0.301 C 
ATOM     11  N   UNL A   1      32.286  24.014  24.616  1.00  0.00    -0.191 N 
ATOM     12  C   UNL A   1      32.822  24.663  25.688  1.00  0.00     0.324 C 
ATOM     13  C   UNL A   1      32.462  22.669  24.693  1.00  0.00     0.339 C 
ATOM     14  O   UNL A   1      32.275  25.552  26.321  1.00  0.00    -0.245 OA
ATOM     15  S   UNL A   1      33.758  22.271  25.818  1.00  0.00    -0.020 SA
ATOM     16  N   UNL A   1      31.714  21.818  24.068  1.00  0.00    -0.142 N 
ATOM     17  H   UNL A   1      31.094  22.054  23.341  1.00  0.00     0.343 HD
BRANCH  16  18
ATOM     18  N   UNL A   1      31.896  20.537  24.547  1.00  0.00    -0.093 NA
ATOM     19  C   UNL A   1      32.782  19.855  23.908  1.00  0.00     0.170 C 
BRANCH  19  20
ATOM     20  C   UNL A   1      32.984  18.450  24.289  1.00  0.00     0.039 A 
ATOM     21  C   UNL A   1      33.248  17.524  23.280  1.00  0.00     0.017 A 
ATOM     22  C   UNL A   1      32.925  18.038  25.631  1.00  0.00     0.128 A 
ATOM     23  C   UNL A   1      33.465  16.189  23.621  1.00  0.00     0.047 A 
ATOM     24  C   UNL A   1      33.118  16.704  25.967  1.00  0.00     0.093 A 
ATOM     25  C   UNL A   1      33.395  15.791  24.955  1.00  0.00     0.119 A 
BRANCH  22  26
ATOM     26  O   UNL A   1      32.673  18.893  26.673  1.00  0.00    -0.507 OA
ATOM     27  H   UNL A   1      32.770  19.817  26.555  1.00  0.00     0.293 HD
ENDBRANCH  22  26
BRANCH  25  28
ATOM     28  O   UNL A   1      33.612  14.474  25.236  1.00  0.00    -0.508 OA
ATOM     29  H   UNL A   1      33.481  14.153  26.107  1.00  0.00     0.293 HD
ENDBRANCH  25  28
ENDBRANCH  19  20
ENDBRANCH  16  18
ENDBRANCH   8   9
ENDBRANCH   6   8
ENDBRANCH   5   6
ENDBRANCH   4   5
ENDBRANCH   3   4
ENDBRANCH   2   3
ENDBRANCH   1   2
BRANCH   1  30
ATOM     30  C   UNL A   1      41.475  19.733  27.585  1.00  0.00     0.188 C 
BRANCH  30  31
ATOM     31  O   UNL A   1      42.640  19.287  26.905  1.00  0.00    -0.376 OA
BRANCH  31  32
ATOM     32  C   UNL A   1      42.918  19.879  25.633  1.00  0.00     0.202 C 
BRANCH  32  33
ATOM     33  C   UNL A   1      44.053  20.909  25.599  1.00  0.00     0.261 C 
BRANCH  33  34
ATOM     34  O   UNL A   1      43.743  22.179  26.204  1.00  0.00    -0.460 OA
BRANCH  34  35
ATOM     35  C   UNL A   1      43.379  23.210  25.403  1.00  0.00     0.338 C 
ATOM     36  O   UNL A   1      43.262  23.199  24.191  1.00  0.00    -0.246 OA
BRANCH  35  37
ATOM     37  C   UNL A   1      42.905  24.307  26.288  1.00  0.00     0.060 A 
ATOM     38  C   UNL A   1      43.452  25.592  26.142  1.00  0.00     0.016 A 
ATOM     39  C   UNL A   1      41.859  24.093  27.188  1.00  0.00     0.016 A 
ATOM     40  C   UNL A   1      42.973  26.655  26.920  1.00  0.00     0.010 A 
ATOM     41  C   UNL A   1      41.388  25.149  27.968  1.00  0.00     0.010 A 
ATOM     42  C   UNL A   1      41.962  26.428  27.863  1.00  0.00    -0.014 A 
BRANCH  42  43
ATOM     43  C   UNL A   1      41.627  27.435  28.902  1.00  0.00     0.031 A 
ATOM     44  C   UNL A   1      42.392  27.383  30.196  1.00  0.00     0.074 A 
ATOM     45  C   UNL A   1      40.631  28.327  28.746  1.00  0.00     0.049 A 
ATOM     46  N   UNL A   1      42.171  28.006  31.324  1.00  0.00    -0.248 NA
ATOM     47  C   UNL A   1      43.558  26.483  30.221  1.00  0.00     0.031 C 
ATOM     48  C   UNL A   1      39.839  28.514  27.533  1.00  0.00     0.029 A 
ATOM     49  N   UNL A   1      40.099  29.226  29.639  1.00  0.00    -0.354 N 
ATOM     50  C   UNL A   1      43.154  27.558  32.197  1.00  0.00     0.074 A 
ATOM     51  C   UNL A   1      43.956  26.592  31.478  1.00  0.00     0.031 C 
ATOM     52  C   UNL A   1      38.905  29.454  27.766  1.00  0.00     0.029 A 
ATOM     53  C   UNL A   1      39.002  29.898  29.156  1.00  0.00     0.049 A 
ATOM     54  H   UNL A   1      40.470  29.376  30.538  1.00  0.00     0.167 HD
ATOM     55  C   UNL A   1      43.374  27.922  33.482  1.00  0.00     0.037 A 
ATOM     56  C   UNL A   1      38.154  30.742  29.778  1.00  0.00     0.037 A 
ATOM     57  C   UNL A   1      42.575  28.880  34.197  1.00  0.00     0.049 A 
ATOM     58  C   UNL A   1      38.364  31.069  31.237  1.00  0.00     0.074 A 
ATOM     59  C   UNL A   1      42.727  29.328  35.497  1.00  0.00     0.029 A 
ATOM     60  N   UNL A   1      41.468  29.530  33.673  1.00  0.00    -0.354 N 
ATOM     61  N   UNL A   1      39.306  30.658  32.052  1.00  0.00    -0.248 NA
ATOM     62  C   UNL A   1      37.389  31.974  31.865  1.00  0.00     0.031 C 
ATOM     63  C   UNL A   1      41.677  30.207  35.779  1.00  0.00     0.029 A 
ATOM     64  C   UNL A   1      40.911  30.357  34.634  1.00  0.00     0.049 A 
ATOM     65  H   UNL A   1      41.129  29.421  32.756  1.00  0.00     0.167 HD
ATOM     66  C   UNL A   1      39.060  31.282  33.271  1.00  0.00     0.074 A 
ATOM     67  C   UNL A   1      37.882  32.103  33.090  1.00  0.00     0.031 C 
ATOM     68  C   UNL A   1      39.750  31.187  34.434  1.00  0.00     0.037 A 
BRANCH  55  69
ATOM     69  C   UNL A   1      44.505  27.252  34.207  1.00  0.00     0.057 A 
ATOM     70  C   UNL A   1      44.362  25.992  34.805  1.00  0.00     0.134 A 
ATOM     71  C   UNL A   1      45.761  27.865  34.287  1.00  0.00     0.134 A 
ATOM     72  F   UNL A   1      43.179  25.358  34.779  1.00  0.00    -0.206 F 
ATOM     73  C   UNL A   1      45.419  25.380  35.478  1.00  0.00     0.040 A 
ATOM     74  C   UNL A   1      46.835  27.248  34.930  1.00  0.00     0.040 A 
ATOM     75  F   UNL A   1      45.969  29.069  33.733  1.00  0.00    -0.206 F 
ATOM     76  C   UNL A   1      46.663  26.005  35.535  1.00  0.00     0.006 A 
ENDBRANCH  55  69
BRANCH  56  77
ATOM     77  C   UNL A   1      37.002  31.328  29.041  1.00  0.00     0.057 A 
ATOM     78  C   UNL A   1      37.018  32.663  28.614  1.00  0.00     0.134 A 
ATOM     79  C   UNL A   1      35.845  30.586  28.777  1.00  0.00     0.134 A 
ATOM     80  F   UNL A   1      38.085  33.437  28.863  1.00  0.00    -0.206 F 
ATOM     81  C   UNL A   1      35.923  33.241  27.972  1.00  0.00     0.040 A 
ATOM     82  C   UNL A   1      34.752  31.142  28.110  1.00  0.00     0.040 A 
ATOM     83  F   UNL A   1      35.760  29.304  29.164  1.00  0.00    -0.206 F 
ATOM     84  C   UNL A   1      34.786  32.477  27.712  1.00  0.00     0.006 A 
ENDBRANCH  56  77
BRANCH  68  85
ATOM     85  C   UNL A   1      39.298  32.033  35.591  1.00  0.00     0.057 A 
ATOM     86  C   UNL A   1      38.443  31.541  36.585  1.00  0.00     0.134 A 
ATOM     87  C   UNL A   1      39.791  33.335  35.750  1.00  0.00     0.134 A 
ATOM     88  F   UNL A   1      37.927  30.307  36.489  1.00  0.00    -0.206 F 
ATOM     89  C   UNL A   1      38.084  32.320  37.687  1.00  0.00     0.040 A 
ATOM     90  C   UNL A   1      39.463  34.112  36.861  1.00  0.00     0.040 A 
ATOM     91  F   UNL A   1      40.625  33.864  34.840  1.00  0.00    -0.206 F 
ATOM     92  C   UNL A   1      38.603  33.606  37.833  1.00  0.00     0.006 A 
ENDBRANCH  68  85
ENDBRANCH  42  43
ENDBRANCH  35  37
ENDBRANCH  34  35
ENDBRANCH  33  34
ENDBRANCH  32  33
ENDBRANCH  31  32
ENDBRANCH  30  31
ENDBRANCH   1  30
TORSDOF 22
ENDMDL
MODEL 3
REMARK VINA RESULT:     -10.7      3.252      9.267
REMARK SMILES CN1C(=O)[C@H](CC(=O)OCCOCCOCCOC(=O)c2ccc(-c3c4nc(c(-c5c(F)cccc5F)c5ccc([nH]5)c(-c5c(F)cccc5F)c5nc(c(-c6c(F)cccc6F)c6ccc3[nH]6)C=C5)C=C4)cc2)S/C1=[NH+]\N=C\c1ccc(O)cc1O
REMARK SMILES IDX 13 1 12 2 11 3 10 4 9 5 7 6 8 7 6 8 5 9 1 10 2 11 3 12 76 13
REMARK SMILES IDX 4 14 75 15 77 16 78 18 79 19 80 20 81 21 86 22 82 23 85 24
REMARK SMILES IDX 83 25 87 26 84 28 14 30 15 31 16 32 17 33 18 34 19 35 20 36
REMARK SMILES IDX 21 37 22 38 74 39 23 40 73 41 24 42 25 43 26 44 67 45 27 46
REMARK SMILES IDX 72 47 66 48 68 49 28 50 71 51 65 52 64 53 29 55 55 56 38 57
REMARK SMILES IDX 54 58 39 59 42 60 53 61 69 62 40 63 41 64 52 66 70 67 43 68
REMARK SMILES IDX 30 69 31 70 36 71 32 72 33 73 35 74 37 75 34 76 56 77 57 78
REMARK SMILES IDX 62 79 58 80 59 81 61 82 63 83 60 84 44 85 45 86 50 87 46 88
REMARK SMILES IDX 47 89 49 90 51 91 48 92
REMARK H PARENT 77 17 87 27 84 29 68 54 42 65
REMARK Flexibility Score: inf
ROOT
ATOM      1  C   UNL A   1      31.019  29.117  24.433  1.00  0.00     0.188 C 
ENDROOT
BRANCH   1   2
ATOM      2  O   UNL A   1      30.646  29.344  23.082  1.00  0.00    -0.376 OA
BRANCH   2   3
ATOM      3  C   UNL A   1      30.079  28.235  22.381  1.00  0.00     0.202 C 
BRANCH   3   4
ATOM      4  C   UNL A   1      30.829  26.892  22.480  1.00  0.00     0.261 C 
BRANCH   4   5
ATOM      5  O   UNL A   1      31.311  26.389  21.209  1.00  0.00    -0.463 OA
BRANCH   5   6
ATOM      6  C   UNL A   1      32.620  26.019  21.170  1.00  0.00     0.307 C 
ATOM      7  O   UNL A   1      33.148  25.456  20.217  1.00  0.00    -0.252 OA
BRANCH   6   8
ATOM      8  C   UNL A   1      33.442  26.554  22.330  1.00  0.00     0.150 C 
BRANCH   8   9
ATOM      9  C   UNL A   1      33.977  25.639  23.421  1.00  0.00     0.185 C 
ATOM     10  C   UNL A   1      31.461  25.489  26.174  1.00  0.00     0.301 C 
ATOM     11  N   UNL A   1      32.301  25.180  25.040  1.00  0.00    -0.191 N 
ATOM     12  C   UNL A   1      33.451  25.874  24.805  1.00  0.00     0.324 C 
ATOM     13  C   UNL A   1      32.308  23.963  24.437  1.00  0.00     0.339 C 
ATOM     14  O   UNL A   1      34.094  26.481  25.647  1.00  0.00    -0.245 OA
ATOM     15  S   UNL A   1      33.504  23.910  23.145  1.00  0.00    -0.020 SA
ATOM     16  N   UNL A   1      31.572  22.973  24.829  1.00  0.00    -0.142 N 
ATOM     17  H   UNL A   1      30.815  23.056  25.452  1.00  0.00     0.343 HD
BRANCH  16  18
ATOM     18  N   UNL A   1      31.983  21.783  24.262  1.00  0.00    -0.093 NA
ATOM     19  C   UNL A   1      31.964  20.780  25.069  1.00  0.00     0.170 C 
BRANCH  19  20
ATOM     20  C   UNL A   1      32.468  19.488  24.582  1.00  0.00     0.039 A 
ATOM     21  C   UNL A   1      32.490  19.265  23.206  1.00  0.00     0.017 A 
ATOM     22  C   UNL A   1      32.927  18.498  25.468  1.00  0.00     0.128 A 
ATOM     23  C   UNL A   1      32.985  18.055  22.720  1.00  0.00     0.047 A 
ATOM     24  C   UNL A   1      33.398  17.285  24.983  1.00  0.00     0.093 A 
ATOM     25  C   UNL A   1      33.429  17.077  23.609  1.00  0.00     0.119 A 
BRANCH  22  26
ATOM     26  O   UNL A   1      32.937  18.650  26.831  1.00  0.00    -0.507 OA
ATOM     27  H   UNL A   1      32.514  18.016  27.375  1.00  0.00     0.293 HD
ENDBRANCH  22  26
BRANCH  25  28
ATOM     28  O   UNL A   1      33.901  15.910  23.084  1.00  0.00    -0.508 OA
ATOM     29  H   UNL A   1      34.406  15.327  23.618  1.00  0.00     0.293 HD
ENDBRANCH  25  28
ENDBRANCH  19  20
ENDBRANCH  16  18
ENDBRANCH   8   9
ENDBRANCH   6   8
ENDBRANCH   5   6
ENDBRANCH   4   5
ENDBRANCH   3   4
ENDBRANCH   2   3
ENDBRANCH   1   2
BRANCH   1  30
ATOM     30  C   UNL A   1      32.481  29.397  24.815  1.00  0.00     0.188 C 
BRANCH  30  31
ATOM     31  O   UNL A   1      32.679  30.143  26.006  1.00  0.00    -0.376 OA
BRANCH  31  32
ATOM     32  C   UNL A   1      31.743  31.190  26.283  1.00  0.00     0.202 C 
BRANCH  32  33
ATOM     33  C   UNL A   1      32.058  32.077  27.493  1.00  0.00     0.261 C 
BRANCH  33  34
ATOM     34  O   UNL A   1      33.082  33.066  27.276  1.00  0.00    -0.460 OA
BRANCH  34  35
ATOM     35  C   UNL A   1      33.222  34.066  28.180  1.00  0.00     0.338 C 
ATOM     36  O   UNL A   1      32.427  34.954  28.429  1.00  0.00    -0.246 OA
BRANCH  35  37
ATOM     37  C   UNL A   1      34.424  33.754  28.998  1.00  0.00     0.060 A 
ATOM     38  C   UNL A   1      35.672  34.266  28.609  1.00  0.00     0.016 A 
ATOM     39  C   UNL A   1      34.304  33.042  30.194  1.00  0.00     0.016 A 
ATOM     40  C   UNL A   1      36.805  34.040  29.402  1.00  0.00     0.010 A 
ATOM     41  C   UNL A   1      35.434  32.810  30.978  1.00  0.00     0.010 A 
ATOM     42  C   UNL A   1      36.696  33.278  30.573  1.00  0.00    -0.014 A 
BRANCH  42  43
ATOM     43  C   UNL A   1      37.895  32.767  31.284  1.00  0.00     0.031 A 
ATOM     44  C   UNL A   1      38.569  31.544  30.724  1.00  0.00     0.074 A 
ATOM     45  C   UNL A   1      38.342  33.315  32.429  1.00  0.00     0.049 A 
ATOM     46  N   UNL A   1      39.499  30.789  31.247  1.00  0.00    -0.248 NA
ATOM     47  C   UNL A   1      38.112  31.107  29.395  1.00  0.00     0.031 C 
ATOM     48  C   UNL A   1      37.810  34.521  33.059  1.00  0.00     0.029 A 
ATOM     49  N   UNL A   1      39.336  32.898  33.283  1.00  0.00    -0.354 N 
ATOM     50  C   UNL A   1      39.721  29.776  30.323  1.00  0.00     0.074 A 
ATOM     51  C   UNL A   1      38.812  29.998  29.220  1.00  0.00     0.031 C 
ATOM     52  C   UNL A   1      38.469  34.734  34.213  1.00  0.00     0.029 A 
ATOM     53  C   UNL A   1      39.432  33.655  34.426  1.00  0.00     0.049 A 
ATOM     54  H   UNL A   1      39.923  32.132  33.092  1.00  0.00     0.167 HD
ATOM     55  C   UNL A   1      40.606  28.754  30.384  1.00  0.00     0.037 A 
ATOM     56  C   UNL A   1      40.183  33.471  35.531  1.00  0.00     0.037 A 
ATOM     57  C   UNL A   1      41.508  28.532  31.481  1.00  0.00     0.049 A 
ATOM     58  C   UNL A   1      41.103  32.276  35.618  1.00  0.00     0.074 A 
ATOM     59  C   UNL A   1      42.454  27.534  31.630  1.00  0.00     0.029 A 
ATOM     60  N   UNL A   1      41.567  29.317  32.623  1.00  0.00    -0.354 N 
ATOM     61  N   UNL A   1      41.322  31.332  34.733  1.00  0.00    -0.248 NA
ATOM     62  C   UNL A   1      41.875  32.117  36.859  1.00  0.00     0.031 C 
ATOM     63  C   UNL A   1      43.047  27.681  32.888  1.00  0.00     0.029 A 
ATOM     64  C   UNL A   1      42.516  28.808  33.494  1.00  0.00     0.049 A 
ATOM     65  H   UNL A   1      41.016  30.115  32.791  1.00  0.00     0.167 HD
ATOM     66  C   UNL A   1      42.281  30.495  35.294  1.00  0.00     0.074 A 
ATOM     67  C   UNL A   1      42.605  31.042  36.594  1.00  0.00     0.031 C 
ATOM     68  C   UNL A   1      42.846  29.376  34.777  1.00  0.00     0.037 A 
BRANCH  55  69
ATOM     69  C   UNL A   1      40.615  27.778  29.243  1.00  0.00     0.057 A 
ATOM     70  C   UNL A   1      41.527  27.882  28.184  1.00  0.00     0.134 A 
ATOM     71  C   UNL A   1      39.715  26.705  29.217  1.00  0.00     0.134 A 
ATOM     72  F   UNL A   1      42.406  28.895  28.140  1.00  0.00    -0.206 F 
ATOM     73  C   UNL A   1      41.525  26.970  27.128  1.00  0.00     0.040 A 
ATOM     74  C   UNL A   1      39.724  25.770  28.182  1.00  0.00     0.040 A 
ATOM     75  F   UNL A   1      38.818  26.544  30.201  1.00  0.00    -0.206 F 
ATOM     76  C   UNL A   1      40.626  25.905  27.129  1.00  0.00     0.006 A 
ENDBRANCH  55  69
BRANCH  56  77
ATOM     77  C   UNL A   1      40.090  34.424  36.669  1.00  0.00     0.057 A 
ATOM     78  C   UNL A   1      40.937  35.537  36.754  1.00  0.00     0.134 A 
ATOM     79  C   UNL A   1      39.183  34.229  37.718  1.00  0.00     0.134 A 
ATOM     80  F   UNL A   1      41.849  35.764  35.797  1.00  0.00    -0.206 F 
ATOM     81  C   UNL A   1      40.898  36.407  37.845  1.00  0.00     0.040 A 
ATOM     82  C   UNL A   1      39.113  35.106  38.801  1.00  0.00     0.040 A 
ATOM     83  F   UNL A   1      38.347  33.179  37.703  1.00  0.00    -0.206 F 
ATOM     84  C   UNL A   1      39.979  36.196  38.871  1.00  0.00     0.006 A 
ENDBRANCH  56  77
BRANCH  68  85
ATOM     85  C   UNL A   1      43.918  28.695  35.579  1.00  0.00     0.057 A 
ATOM     86  C   UNL A   1      45.273  29.023  35.444  1.00  0.00     0.134 A 
ATOM     87  C   UNL A   1      43.577  27.751  36.558  1.00  0.00     0.134 A 
ATOM     88  F   UNL A   1      45.669  29.910  34.519  1.00  0.00    -0.206 F 
ATOM     89  C   UNL A   1      46.250  28.426  36.243  1.00  0.00     0.040 A 
ATOM     90  C   UNL A   1      44.541  27.171  37.382  1.00  0.00     0.040 A 
ATOM     91  F   UNL A   1      42.296  27.400  36.749  1.00  0.00    -0.206 F 
ATOM     92  C   UNL A   1      45.884  27.504  37.223  1.00  0.00     0.006 A 
ENDBRANCH  68  85
ENDBRANCH  42  43
ENDBRANCH  35  37
ENDBRANCH  34  35
ENDBRANCH  33  34
ENDBRANCH  32  33
ENDBRANCH  31  32
ENDBRANCH  30  31
ENDBRANCH   1  30
TORSDOF 22
ENDMDL
