MODEL 1
REMARK VINA RESULT:     -12.4      0.000      0.000
REMARK SMILES Cc1ccc(Nc2c(C)cccc2Cl)c(CC(=O)OCCOCCOCCOC(=O)c2ccc(-c3c4nc(c(-c5c(F)cccc5F)c5ccc([nH]5)c(-c5c(F)cccc5F)c5nc(c(-c6c(F)cccc6F)c6ccc3[nH]6)C=C5)C=C4)cc2)c1
REMARK SMILES IDX 23 1 22 2 21 3 20 4 19 5 17 6 18 7 16 8 15 9 1 10 2 11 3 12
REMARK SMILES IDX 85 13 4 14 5 15 6 16 7 18 8 19 13 20 9 21 10 22 12 23 14 24
REMARK SMILES IDX 11 25 24 26 25 27 26 28 27 29 28 30 29 31 30 32 31 33 32 34
REMARK SMILES IDX 84 35 33 36 83 37 34 38 35 39 36 40 77 41 37 42 82 43 76 44
REMARK SMILES IDX 78 45 38 46 81 47 75 48 74 49 39 51 65 52 48 53 64 54 49 55
REMARK SMILES IDX 52 56 63 57 79 58 50 59 51 60 62 62 80 63 53 64 40 65 41 66
REMARK SMILES IDX 46 67 42 68 43 69 45 70 47 71 44 72 66 73 67 74 72 75 68 76
REMARK SMILES IDX 69 77 71 78 73 79 70 80 54 81 55 82 60 83 56 84 57 85 59 86
REMARK SMILES IDX 61 87 58 88
REMARK H PARENT 6 17 78 50 52 61
REMARK Flexibility Score: inf
ROOT
ATOM      1  C   UNL A   1      38.701  24.016  26.884  1.00  0.00     0.188 C 
ENDROOT
BRANCH   1   2
ATOM      2  O   UNL A   1      37.976  23.736  25.711  1.00  0.00    -0.376 OA
BRANCH   2   3
ATOM      3  C   UNL A   1      36.608  23.387  25.754  1.00  0.00     0.202 C 
BRANCH   3   4
ATOM      4  C   UNL A   1      35.233  24.259  25.718  1.00  0.00     0.261 C 
BRANCH   4   5
ATOM      5  O   UNL A   1      33.506  24.091  26.226  1.00  0.00    -0.463 OA
BRANCH   5   6
ATOM      6  C   UNL A   1      32.349  23.084  26.803  1.00  0.00     0.310 C 
ATOM      7  O   UNL A   1      31.777  22.942  27.892  1.00  0.00    -0.252 OA
BRANCH   6   8
ATOM      8  C   UNL A   1      31.639  22.407  25.769  1.00  0.00     0.160 C 
BRANCH   8   9
ATOM      9  C   UNL A   1      32.671  22.383  24.699  1.00  0.00    -0.013 A 
ATOM     10  C   UNL A   1      32.860  18.630  23.925  1.00  0.00     0.044 C 
ATOM     11  C   UNL A   1      32.718  20.104  23.734  1.00  0.00    -0.051 A 
ATOM     12  C   UNL A   1      32.153  20.668  22.619  1.00  0.00     0.005 A 
ATOM     13  C   UNL A   1      33.048  20.972  24.748  1.00  0.00     0.009 A 
ATOM     14  C   UNL A   1      31.959  22.077  22.552  1.00  0.00     0.026 A 
ATOM     15  C   UNL A   1      32.403  23.218  23.588  1.00  0.00     0.042 A 
BRANCH  15  16
ATOM     16  N   UNL A   1      32.819  25.125  23.065  1.00  0.00    -0.354 N 
ATOM     17  H   UNL A   1      33.345  25.204  22.237  1.00  0.00     0.167 HD
BRANCH  16  18
ATOM     18  C   UNL A   1      32.405  26.743  23.838  1.00  0.00     0.060 A 
ATOM     19  C   UNL A   1      33.219  28.093  23.681  1.00  0.00    -0.026 A 
ATOM     20  C   UNL A   1      31.523  26.744  24.946  1.00  0.00     0.064 A 
ATOM     21  C   UNL A   1      34.354  28.657  22.760  1.00  0.00     0.046 C 
ATOM     22  C   UNL A   1      33.080  29.126  24.652  1.00  0.00     0.005 A 
ATOM     23  C   UNL A   1      31.521  27.822  25.884  1.00  0.00     0.023 A 
ATOM     24  Cl  UNL A   1      30.269  25.647  25.247  1.00  0.00    -0.082 Cl
ATOM     25  C   UNL A   1      32.297  28.969  25.766  1.00  0.00     0.002 A 
ENDBRANCH  16  18
ENDBRANCH  15  16
ENDBRANCH   8   9
ENDBRANCH   6   8
ENDBRANCH   5   6
ENDBRANCH   4   5
ENDBRANCH   3   4
ENDBRANCH   2   3
ENDBRANCH   1   2
BRANCH   1  26
ATOM     26  C   UNL A   1      40.205  23.780  26.974  1.00  0.00     0.188 C 
BRANCH  26  27
ATOM     27  O   UNL A   1      40.957  24.386  25.947  1.00  0.00    -0.376 OA
BRANCH  27  28
ATOM     28  C   UNL A   1      42.365  24.173  26.030  1.00  0.00     0.202 C 
BRANCH  28  29
ATOM     29  C   UNL A   1      43.346  25.090  25.178  1.00  0.00     0.261 C 
BRANCH  29  30
ATOM     30  O   UNL A   1      43.496  26.499  25.635  1.00  0.00    -0.460 OA
BRANCH  30  31
ATOM     31  C   UNL A   1      42.456  27.460  25.687  1.00  0.00     0.338 C 
ATOM     32  O   UNL A   1      42.375  28.247  24.765  1.00  0.00    -0.246 OA
BRANCH  31  33
ATOM     33  C   UNL A   1      41.536  27.317  27.117  1.00  0.00     0.060 A 
ATOM     34  C   UNL A   1      39.690  27.428  27.799  1.00  0.00     0.016 A 
ATOM     35  C   UNL A   1      42.653  28.515  27.880  1.00  0.00     0.016 A 
ATOM     36  C   UNL A   1      39.243  28.884  28.928  1.00  0.00     0.010 A 
ATOM     37  C   UNL A   1      42.071  29.838  28.840  1.00  0.00     0.010 A 
ATOM     38  C   UNL A   1      40.430  30.171  29.448  1.00  0.00    -0.014 A 
BRANCH  38  39
ATOM     39  C   UNL A   1      40.393  31.588  30.694  1.00  0.00     0.031 A 
ATOM     40  C   UNL A   1      41.704  32.048  32.005  1.00  0.00     0.074 A 
ATOM     41  C   UNL A   1      39.543  32.634  30.592  1.00  0.00     0.049 A 
ATOM     42  N   UNL A   1      41.569  32.048  33.320  1.00  0.00    -0.248 NA
ATOM     43  C   UNL A   1      43.350  32.018  31.862  1.00  0.00     0.031 C 
ATOM     44  C   UNL A   1      39.702  33.960  31.219  1.00  0.00     0.029 A 
ATOM     45  N   UNL A   1      38.393  32.795  29.824  1.00  0.00    -0.354 N 
ATOM     46  C   UNL A   1      42.882  32.108  33.898  1.00  0.00     0.074 A 
ATOM     47  C   UNL A   1      43.794  31.534  32.999  1.00  0.00     0.031 C 
ATOM     48  C   UNL A   1      38.559  34.658  31.076  1.00  0.00     0.029 A 
ATOM     49  C   UNL A   1      37.594  33.748  30.488  1.00  0.00     0.049 A 
ATOM     50  H   UNL A   1      38.180  32.333  28.981  1.00  0.00     0.167 HD
ATOM     51  C   UNL A   1      43.305  33.121  34.719  1.00  0.00     0.037 A 
ATOM     52  C   UNL A   1      36.449  33.307  31.074  1.00  0.00     0.037 A 
ATOM     53  C   UNL A   1      42.186  34.020  34.844  1.00  0.00     0.049 A 
ATOM     54  C   UNL A   1      36.620  33.317  32.578  1.00  0.00     0.074 A 
ATOM     55  C   UNL A   1      41.828  35.185  34.189  1.00  0.00     0.029 A 
ATOM     56  N   UNL A   1      41.018  33.454  35.311  1.00  0.00    -0.354 N 
ATOM     57  N   UNL A   1      37.784  33.349  33.181  1.00  0.00    -0.248 NA
ATOM     58  C   UNL A   1      35.512  33.445  33.515  1.00  0.00     0.031 C 
ATOM     59  C   UNL A   1      40.403  35.282  34.250  1.00  0.00     0.029 A 
ATOM     60  C   UNL A   1      39.914  34.178  34.931  1.00  0.00     0.049 A 
ATOM     61  H   UNL A   1      40.981  32.632  35.850  1.00  0.00     0.167 HD
ATOM     62  C   UNL A   1      37.610  33.550  34.518  1.00  0.00     0.074 A 
ATOM     63  C   UNL A   1      36.170  33.587  34.680  1.00  0.00     0.031 C 
ATOM     64  C   UNL A   1      38.628  33.705  35.411  1.00  0.00     0.037 A 
BRANCH  51  65
ATOM     65  C   UNL A   1      44.783  33.453  35.013  1.00  0.00     0.057 A 
ATOM     66  C   UNL A   1      45.496  34.327  34.174  1.00  0.00     0.134 A 
ATOM     67  C   UNL A   1      45.557  32.967  36.101  1.00  0.00     0.134 A 
ATOM     68  F   UNL A   1      44.903  34.927  33.135  1.00  0.00    -0.206 F 
ATOM     69  C   UNL A   1      46.854  34.647  34.361  1.00  0.00     0.040 A 
ATOM     70  C   UNL A   1      46.936  33.219  36.257  1.00  0.00     0.040 A 
ATOM     71  F   UNL A   1      45.012  32.257  37.100  1.00  0.00    -0.206 F 
ATOM     72  C   UNL A   1      47.589  34.076  35.389  1.00  0.00     0.006 A 
ENDBRANCH  51  65
BRANCH  52  73
ATOM     73  C   UNL A   1      35.778  32.318  30.169  1.00  0.00     0.057 A 
ATOM     74  C   UNL A   1      35.093  32.850  29.047  1.00  0.00     0.134 A 
ATOM     75  C   UNL A   1      36.189  30.983  30.069  1.00  0.00     0.134 A 
ATOM     76  F   UNL A   1      34.745  34.148  29.023  1.00  0.00    -0.206 F 
ATOM     77  C   UNL A   1      34.888  32.119  27.873  1.00  0.00     0.040 A 
ATOM     78  C   UNL A   1      35.985  30.240  28.895  1.00  0.00     0.040 A 
ATOM     79  F   UNL A   1      36.905  30.415  31.049  1.00  0.00    -0.206 F 
ATOM     80  C   UNL A   1      35.329  30.804  27.802  1.00  0.00     0.006 A 
ENDBRANCH  52  73
BRANCH  64  81
ATOM     81  C   UNL A   1      38.505  33.381  36.886  1.00  0.00     0.057 A 
ATOM     82  C   UNL A   1      38.693  34.331  37.897  1.00  0.00     0.134 A 
ATOM     83  C   UNL A   1      37.980  32.140  37.327  1.00  0.00     0.134 A 
ATOM     84  F   UNL A   1      39.026  35.600  37.627  1.00  0.00    -0.206 F 
ATOM     85  C   UNL A   1      38.489  34.035  39.246  1.00  0.00     0.040 A 
ATOM     86  C   UNL A   1      37.654  31.880  38.656  1.00  0.00     0.040 A 
ATOM     87  F   UNL A   1      37.720  31.125  36.488  1.00  0.00    -0.206 F 
ATOM     88  C   UNL A   1      37.952  32.815  39.629  1.00  0.00     0.006 A 
ENDBRANCH  64  81
ENDBRANCH  38  39
ENDBRANCH  31  33
ENDBRANCH  30  31
ENDBRANCH  29  30
ENDBRANCH  28  29
ENDBRANCH  27  28
ENDBRANCH  26  27
ENDBRANCH   1  26
TORSDOF 20
ENDMDL
MODEL 2
REMARK VINA RESULT:     -12.2      3.825      8.283
REMARK SMILES Cc1ccc(Nc2c(C)cccc2Cl)c(CC(=O)OCCOCCOCCOC(=O)c2ccc(-c3c4nc(c(-c5c(F)cccc5F)c5ccc([nH]5)c(-c5c(F)cccc5F)c5nc(c(-c6c(F)cccc6F)c6ccc3[nH]6)C=C5)C=C4)cc2)c1
REMARK SMILES IDX 23 1 22 2 21 3 20 4 19 5 17 6 18 7 16 8 15 9 1 10 2 11 3 12
REMARK SMILES IDX 85 13 4 14 5 15 6 16 7 18 8 19 13 20 9 21 10 22 12 23 14 24
REMARK SMILES IDX 11 25 24 26 25 27 26 28 27 29 28 30 29 31 30 32 31 33 32 34
REMARK SMILES IDX 84 35 33 36 83 37 34 38 35 39 36 40 77 41 37 42 82 43 76 44
REMARK SMILES IDX 78 45 38 46 81 47 75 48 74 49 39 51 65 52 48 53 64 54 49 55
REMARK SMILES IDX 52 56 63 57 79 58 50 59 51 60 62 62 80 63 53 64 40 65 41 66
REMARK SMILES IDX 46 67 42 68 43 69 45 70 47 71 44 72 66 73 67 74 72 75 68 76
REMARK SMILES IDX 69 77 71 78 73 79 70 80 54 81 55 82 60 83 56 84 57 85 59 86
REMARK SMILES IDX 61 87 58 88
REMARK H PARENT 6 17 78 50 52 61
REMARK Flexibility Score: inf
ROOT
ATOM      1  C   UNL A   1      35.190  31.166  27.638  1.00  0.00     0.188 C 
ENDROOT
BRANCH   1   2
ATOM      2  O   UNL A   1      34.115  30.261  27.569  1.00  0.00    -0.376 OA
BRANCH   2   3
ATOM      3  C   UNL A   1      34.026  29.298  26.539  1.00  0.00     0.202 C 
BRANCH   3   4
ATOM      4  C   UNL A   1      33.865  27.677  26.538  1.00  0.00     0.261 C 
BRANCH   4   5
ATOM      5  O   UNL A   1      32.588  26.441  26.206  1.00  0.00    -0.463 OA
BRANCH   5   6
ATOM      6  C   UNL A   1      32.189  24.853  26.246  1.00  0.00     0.310 C 
ATOM      7  O   UNL A   1      31.143  24.209  26.084  1.00  0.00    -0.252 OA
BRANCH   6   8
ATOM      8  C   UNL A   1      33.324  23.994  26.172  1.00  0.00     0.160 C 
BRANCH   8   9
ATOM      9  C   UNL A   1      34.080  24.635  25.064  1.00  0.00    -0.013 A 
ATOM     10  C   UNL A   1      37.511  22.959  25.430  1.00  0.00     0.044 C 
ATOM     11  C   UNL A   1      36.237  23.446  24.823  1.00  0.00    -0.051 A 
ATOM     12  C   UNL A   1      35.725  22.953  23.650  1.00  0.00     0.005 A 
ATOM     13  C   UNL A   1      35.446  24.348  25.495  1.00  0.00     0.009 A 
ATOM     14  C   UNL A   1      34.454  23.394  23.185  1.00  0.00     0.026 A 
ATOM     15  C   UNL A   1      33.483  24.521  23.785  1.00  0.00     0.042 A 
BRANCH  15  16
ATOM     16  N   UNL A   1      32.188  25.608  22.680  1.00  0.00    -0.354 N 
ATOM     17  H   UNL A   1      32.065  25.268  21.764  1.00  0.00     0.167 HD
BRANCH  16  18
ATOM     18  C   UNL A   1      31.193  27.110  23.054  1.00  0.00     0.060 A 
ATOM     19  C   UNL A   1      29.660  27.144  23.452  1.00  0.00    -0.026 A 
ATOM     20  C   UNL A   1      31.686  28.361  22.610  1.00  0.00     0.064 A 
ATOM     21  C   UNL A   1      28.562  26.124  23.911  1.00  0.00     0.046 C 
ATOM     22  C   UNL A   1      28.903  28.338  23.274  1.00  0.00     0.005 A 
ATOM     23  C   UNL A   1      30.808  29.472  22.416  1.00  0.00     0.023 A 
ATOM     24  Cl  UNL A   1      33.309  28.803  22.418  1.00  0.00    -0.082 Cl
ATOM     25  C   UNL A   1      29.449  29.460  22.706  1.00  0.00     0.002 A 
ENDBRANCH  16  18
ENDBRANCH  15  16
ENDBRANCH   8   9
ENDBRANCH   6   8
ENDBRANCH   5   6
ENDBRANCH   4   5
ENDBRANCH   3   4
ENDBRANCH   2   3
ENDBRANCH   1   2
BRANCH   1  26
ATOM     26  C   UNL A   1      35.012  32.584  28.171  1.00  0.00     0.188 C 
BRANCH  26  27
ATOM     27  O   UNL A   1      33.676  32.950  28.431  1.00  0.00    -0.376 OA
BRANCH  27  28
ATOM     28  C   UNL A   1      33.351  34.301  28.107  1.00  0.00     0.202 C 
BRANCH  28  29
ATOM     29  C   UNL A   1      33.241  35.380  29.270  1.00  0.00     0.261 C 
BRANCH  29  30
ATOM     30  O   UNL A   1      34.069  35.130  30.483  1.00  0.00    -0.460 OA
BRANCH  30  31
ATOM     31  C   UNL A   1      33.707  35.477  31.808  1.00  0.00     0.338 C 
ATOM     32  O   UNL A   1      33.094  36.514  31.967  1.00  0.00    -0.246 OA
BRANCH  31  33
ATOM     33  C   UNL A   1      34.276  34.332  32.937  1.00  0.00     0.060 A 
ATOM     34  C   UNL A   1      35.201  34.181  34.671  1.00  0.00     0.016 A 
ATOM     35  C   UNL A   1      35.164  33.531  31.583  1.00  0.00     0.016 A 
ATOM     36  C   UNL A   1      36.964  33.483  34.684  1.00  0.00     0.010 A 
ATOM     37  C   UNL A   1      36.809  33.004  31.741  1.00  0.00     0.010 A 
ATOM     38  C   UNL A   1      37.843  32.911  33.189  1.00  0.00    -0.014 A 
BRANCH  38  39
ATOM     39  C   UNL A   1      39.457  31.988  32.869  1.00  0.00     0.031 A 
ATOM     40  C   UNL A   1      39.789  30.577  31.624  1.00  0.00     0.074 A 
ATOM     41  C   UNL A   1      40.658  32.440  33.292  1.00  0.00     0.049 A 
ATOM     42  N   UNL A   1      40.149  29.332  31.889  1.00  0.00    -0.248 NA
ATOM     43  C   UNL A   1      39.215  30.413  30.084  1.00  0.00     0.031 C 
ATOM     44  C   UNL A   1      41.980  32.062  32.754  1.00  0.00     0.029 A 
ATOM     45  N   UNL A   1      40.978  33.419  34.230  1.00  0.00    -0.354 N 
ATOM     46  C   UNL A   1      39.935  28.551  30.703  1.00  0.00     0.074 A 
ATOM     47  C   UNL A   1      38.907  29.144  29.954  1.00  0.00     0.031 C 
ATOM     48  C   UNL A   1      42.942  32.539  33.567  1.00  0.00     0.029 A 
ATOM     49  C   UNL A   1      42.264  33.104  34.717  1.00  0.00     0.049 A 
ATOM     50  H   UNL A   1      40.416  34.181  34.499  1.00  0.00     0.167 HD
ATOM     51  C   UNL A   1      40.933  27.878  30.047  1.00  0.00     0.037 A 
ATOM     52  C   UNL A   1      42.355  32.660  35.999  1.00  0.00     0.037 A 
ATOM     53  C   UNL A   1      42.137  28.131  30.796  1.00  0.00     0.049 A 
ATOM     54  C   UNL A   1      42.675  31.180  35.994  1.00  0.00     0.074 A 
ATOM     55  C   UNL A   1      43.161  29.051  30.661  1.00  0.00     0.029 A 
ATOM     56  N   UNL A   1      42.092  27.781  32.129  1.00  0.00    -0.354 N 
ATOM     57  N   UNL A   1      42.488  30.395  34.960  1.00  0.00    -0.248 NA
ATOM     58  C   UNL A   1      43.363  30.499  37.083  1.00  0.00     0.031 C 
ATOM     59  C   UNL A   1      43.708  29.267  31.965  1.00  0.00     0.029 A 
ATOM     60  C   UNL A   1      43.010  28.485  32.871  1.00  0.00     0.049 A 
ATOM     61  H   UNL A   1      41.478  27.110  32.503  1.00  0.00     0.167 HD
ATOM     62  C   UNL A   1      43.049  29.176  35.194  1.00  0.00     0.074 A 
ATOM     63  C   UNL A   1      43.570  29.285  36.543  1.00  0.00     0.031 C 
ATOM     64  C   UNL A   1      43.091  28.161  34.284  1.00  0.00     0.037 A 
BRANCH  51  65
ATOM     65  C   UNL A   1      40.850  27.393  28.584  1.00  0.00     0.057 A 
ATOM     66  C   UNL A   1      40.139  26.225  28.262  1.00  0.00     0.134 A 
ATOM     67  C   UNL A   1      41.425  28.028  27.450  1.00  0.00     0.134 A 
ATOM     68  F   UNL A   1      39.481  25.533  29.200  1.00  0.00    -0.206 F 
ATOM     69  C   UNL A   1      40.051  25.705  26.956  1.00  0.00     0.040 A 
ATOM     70  C   UNL A   1      41.408  27.479  26.152  1.00  0.00     0.040 A 
ATOM     71  F   UNL A   1      41.999  29.239  27.528  1.00  0.00    -0.206 F 
ATOM     72  C   UNL A   1      40.706  26.316  25.897  1.00  0.00     0.006 A 
ENDBRANCH  51  65
BRANCH  52  73
ATOM     73  C   UNL A   1      41.436  33.463  36.870  1.00  0.00     0.057 A 
ATOM     74  C   UNL A   1      41.823  34.801  37.133  1.00  0.00     0.134 A 
ATOM     75  C   UNL A   1      40.072  33.173  37.001  1.00  0.00     0.134 A 
ATOM     76  F   UNL A   1      43.097  35.185  36.943  1.00  0.00    -0.206 F 
ATOM     77  C   UNL A   1      40.900  35.805  37.442  1.00  0.00     0.040 A 
ATOM     78  C   UNL A   1      39.138  34.175  37.313  1.00  0.00     0.040 A 
ATOM     79  F   UNL A   1      39.602  31.955  36.703  1.00  0.00    -0.206 F 
ATOM     80  C   UNL A   1      39.551  35.487  37.541  1.00  0.00     0.006 A 
ENDBRANCH  52  73
BRANCH  64  81
ATOM     81  C   UNL A   1      43.187  26.698  34.666  1.00  0.00     0.057 A 
ATOM     82  C   UNL A   1      42.156  26.007  35.314  1.00  0.00     0.134 A 
ATOM     83  C   UNL A   1      44.247  25.882  34.196  1.00  0.00     0.134 A 
ATOM     84  F   UNL A   1      41.013  26.606  35.671  1.00  0.00    -0.206 F 
ATOM     85  C   UNL A   1      42.228  24.638  35.579  1.00  0.00     0.040 A 
ATOM     86  C   UNL A   1      44.265  24.497  34.345  1.00  0.00     0.040 A 
ATOM     87  F   UNL A   1      45.305  26.379  33.536  1.00  0.00    -0.206 F 
ATOM     88  C   UNL A   1      43.274  23.875  35.081  1.00  0.00     0.006 A 
ENDBRANCH  64  81
ENDBRANCH  38  39
ENDBRANCH  31  33
ENDBRANCH  30  31
ENDBRANCH  29  30
ENDBRANCH  28  29
ENDBRANCH  27  28
ENDBRANCH  26  27
ENDBRANCH   1  26
TORSDOF 20
ENDMDL
MODEL 3
REMARK VINA RESULT:     -12.1      5.607     12.123
REMARK SMILES Cc1ccc(Nc2c(C)cccc2Cl)c(CC(=O)OCCOCCOCCOC(=O)c2ccc(-c3c4nc(c(-c5c(F)cccc5F)c5ccc([nH]5)c(-c5c(F)cccc5F)c5nc(c(-c6c(F)cccc6F)c6ccc3[nH]6)C=C5)C=C4)cc2)c1
REMARK SMILES IDX 23 1 22 2 21 3 20 4 19 5 17 6 18 7 16 8 15 9 1 10 2 11 3 12
REMARK SMILES IDX 85 13 4 14 5 15 6 16 7 18 8 19 13 20 9 21 10 22 12 23 14 24
REMARK SMILES IDX 11 25 24 26 25 27 26 28 27 29 28 30 29 31 30 32 31 33 32 34
REMARK SMILES IDX 84 35 33 36 83 37 34 38 35 39 36 40 77 41 37 42 82 43 76 44
REMARK SMILES IDX 78 45 38 46 81 47 75 48 74 49 39 51 65 52 48 53 64 54 49 55
REMARK SMILES IDX 52 56 63 57 79 58 50 59 51 60 62 62 80 63 53 64 40 65 41 66
REMARK SMILES IDX 46 67 42 68 43 69 45 70 47 71 44 72 66 73 67 74 72 75 68 76
REMARK SMILES IDX 69 77 71 78 73 79 70 80 54 81 55 82 60 83 56 84 57 85 59 86
REMARK SMILES IDX 61 87 58 88
REMARK H PARENT 6 17 78 50 52 61
REMARK Flexibility Score: inf
ROOT
ATOM      1  C   UNL A   1      33.981  36.759  33.554  1.00  0.00     0.188 C 
ENDROOT
BRANCH   1   2
ATOM      2  O   UNL A   1      33.047  37.427  32.739  1.00  0.00    -0.376 OA
BRANCH   2   3
ATOM      3  C   UNL A   1      33.275  37.618  31.359  1.00  0.00     0.202 C 
BRANCH   3   4
ATOM      4  C   UNL A   1      33.168  36.635  30.064  1.00  0.00     0.261 C 
BRANCH   4   5
ATOM      5  O   UNL A   1      33.459  34.899  29.650  1.00  0.00    -0.463 OA
BRANCH   5   6
ATOM      6  C   UNL A   1      33.743  33.814  28.457  1.00  0.00     0.310 C 
ATOM      7  O   UNL A   1      33.040  33.223  27.626  1.00  0.00    -0.252 OA
BRANCH   6   8
ATOM      8  C   UNL A   1      35.120  33.733  28.099  1.00  0.00     0.160 C 
BRANCH   8   9
ATOM      9  C   UNL A   1      35.637  32.871  29.194  1.00  0.00    -0.013 A 
ATOM     10  C   UNL A   1      35.262  29.383  27.641  1.00  0.00     0.044 C 
ATOM     11  C   UNL A   1      35.870  30.571  28.310  1.00  0.00    -0.051 A 
ATOM     12  C   UNL A   1      37.223  30.782  28.384  1.00  0.00     0.005 A 
ATOM     13  C   UNL A   1      35.074  31.585  28.786  1.00  0.00     0.009 A 
ATOM     14  C   UNL A   1      37.728  31.988  28.947  1.00  0.00     0.026 A 
ATOM     15  C   UNL A   1      36.938  33.194  29.651  1.00  0.00     0.042 A 
BRANCH  15  16
ATOM     16  N   UNL A   1      37.726  34.386  31.079  1.00  0.00    -0.354 N 
ATOM     17  H   UNL A   1      37.166  35.165  31.299  1.00  0.00     0.167 HD
BRANCH  16  18
ATOM     18  C   UNL A   1      39.287  34.296  32.049  1.00  0.00     0.060 A 
ATOM     19  C   UNL A   1      39.437  34.536  33.608  1.00  0.00    -0.026 A 
ATOM     20  C   UNL A   1      40.512  34.389  31.346  1.00  0.00     0.064 A 
ATOM     21  C   UNL A   1      38.496  34.647  34.856  1.00  0.00     0.046 C 
ATOM     22  C   UNL A   1      40.704  34.885  34.157  1.00  0.00     0.005 A 
ATOM     23  C   UNL A   1      41.709  34.808  32.004  1.00  0.00     0.023 A 
ATOM     24  Cl  UNL A   1      40.814  33.880  29.759  1.00  0.00    -0.082 Cl
ATOM     25  C   UNL A   1      41.804  35.082  33.363  1.00  0.00     0.002 A 
ENDBRANCH  16  18
ENDBRANCH  15  16
ENDBRANCH   8   9
ENDBRANCH   6   8
ENDBRANCH   5   6
ENDBRANCH   4   5
ENDBRANCH   3   4
ENDBRANCH   2   3
ENDBRANCH   1   2
BRANCH   1  26
ATOM     26  C   UNL A   1      34.841  35.619  33.019  1.00  0.00     0.188 C 
BRANCH  26  27
ATOM     27  O   UNL A   1      35.475  34.845  34.012  1.00  0.00    -0.376 OA
BRANCH  27  28
ATOM     28  C   UNL A   1      35.041  33.488  34.080  1.00  0.00     0.202 C 
BRANCH  28  29
ATOM     29  C   UNL A   1      35.419  32.486  32.905  1.00  0.00     0.261 C 
BRANCH  29  30
ATOM     30  O   UNL A   1      36.798  31.925  32.933  1.00  0.00    -0.460 OA
BRANCH  30  31
ATOM     31  C   UNL A   1      37.171  30.640  32.466  1.00  0.00     0.338 C 
ATOM     32  O   UNL A   1      36.324  29.987  31.890  1.00  0.00    -0.246 OA
BRANCH  31  33
ATOM     33  C   UNL A   1      38.785  30.264  32.875  1.00  0.00     0.060 A 
ATOM     34  C   UNL A   1      40.475  31.090  33.462  1.00  0.00     0.016 A 
ATOM     35  C   UNL A   1      38.920  29.410  31.289  1.00  0.00     0.016 A 
ATOM     36  C   UNL A   1      41.921  31.130  32.236  1.00  0.00     0.010 A 
ATOM     37  C   UNL A   1      40.295  29.608  30.248  1.00  0.00     0.010 A 
ATOM     38  C   UNL A   1      41.850  30.419  30.555  1.00  0.00    -0.014 A 
BRANCH  38  39
ATOM     39  C   UNL A   1      43.119  30.093  29.197  1.00  0.00     0.031 A 
ATOM     40  C   UNL A   1      43.618  28.422  28.419  1.00  0.00     0.074 A 
ATOM     41  C   UNL A   1      43.611  31.069  28.402  1.00  0.00     0.049 A 
ATOM     42  N   UNL A   1      44.802  27.834  28.454  1.00  0.00    -0.248 NA
ATOM     43  C   UNL A   1      42.648  27.143  28.027  1.00  0.00     0.031 C 
ATOM     44  C   UNL A   1      44.242  30.892  27.080  1.00  0.00     0.029 A 
ATOM     45  N   UNL A   1      43.573  32.454  28.539  1.00  0.00    -0.354 N 
ATOM     46  C   UNL A   1      44.625  26.464  28.062  1.00  0.00     0.074 A 
ATOM     47  C   UNL A   1      43.317  26.070  28.383  1.00  0.00     0.031 C 
ATOM     48  C   UNL A   1      44.803  32.055  26.696  1.00  0.00     0.029 A 
ATOM     49  C   UNL A   1      44.676  32.961  27.822  1.00  0.00     0.049 A 
ATOM     50  H   UNL A   1      42.905  32.977  29.040  1.00  0.00     0.167 HD
ATOM     51  C   UNL A   1      45.242  25.900  26.975  1.00  0.00     0.037 A 
ATOM     52  C   UNL A   1      45.700  33.492  28.541  1.00  0.00     0.037 A 
ATOM     53  C   UNL A   1      46.044  26.944  26.391  1.00  0.00     0.049 A 
ATOM     54  C   UNL A   1      46.888  32.555  28.489  1.00  0.00     0.074 A 
ATOM     55  C   UNL A   1      45.833  27.836  25.356  1.00  0.00     0.029 A 
ATOM     56  N   UNL A   1      46.963  27.530  27.237  1.00  0.00    -0.354 N 
ATOM     57  N   UNL A   1      46.806  31.289  28.162  1.00  0.00    -0.248 NA
ATOM     58  C   UNL A   1      48.268  32.993  28.650  1.00  0.00     0.031 C 
ATOM     59  C   UNL A   1      46.630  28.992  25.626  1.00  0.00     0.029 A 
ATOM     60  C   UNL A   1      47.307  28.792  26.819  1.00  0.00     0.049 A 
ATOM     61  H   UNL A   1      47.327  27.097  28.042  1.00  0.00     0.167 HD
ATOM     62  C   UNL A   1      48.055  30.764  28.014  1.00  0.00     0.074 A 
ATOM     63  C   UNL A   1      48.936  31.866  28.346  1.00  0.00     0.031 C 
ATOM     64  C   UNL A   1      48.310  29.489  27.604  1.00  0.00     0.037 A 
BRANCH  51  65
ATOM     65  C   UNL A   1      44.777  24.604  26.277  1.00  0.00     0.057 A 
ATOM     66  C   UNL A   1      45.188  23.350  26.759  1.00  0.00     0.134 A 
ATOM     67  C   UNL A   1      43.920  24.515  25.146  1.00  0.00     0.134 A 
ATOM     68  F   UNL A   1      45.948  23.244  27.856  1.00  0.00    -0.206 F 
ATOM     69  C   UNL A   1      44.832  22.130  26.152  1.00  0.00     0.040 A 
ATOM     70  C   UNL A   1      43.618  23.307  24.485  1.00  0.00     0.040 A 
ATOM     71  F   UNL A   1      43.292  25.589  24.645  1.00  0.00    -0.206 F 
ATOM     72  C   UNL A   1      44.066  22.102  24.997  1.00  0.00     0.006 A 
ENDBRANCH  51  65
BRANCH  52  73
ATOM     73  C   UNL A   1      45.143  34.310  29.668  1.00  0.00     0.057 A 
ATOM     74  C   UNL A   1      45.282  33.770  30.971  1.00  0.00     0.134 A 
ATOM     75  C   UNL A   1      44.980  35.699  29.586  1.00  0.00     0.134 A 
ATOM     76  F   UNL A   1      45.533  32.459  31.134  1.00  0.00    -0.206 F 
ATOM     77  C   UNL A   1      45.322  34.569  32.118  1.00  0.00     0.040 A 
ATOM     78  C   UNL A   1      45.016  36.509  30.733  1.00  0.00     0.040 A 
ATOM     79  F   UNL A   1      44.914  36.309  28.395  1.00  0.00    -0.206 F 
ATOM     80  C   UNL A   1      45.178  35.945  31.998  1.00  0.00     0.006 A 
ENDBRANCH  52  73
BRANCH  64  81
ATOM     81  C   UNL A   1      49.578  28.736  27.951  1.00  0.00     0.057 A 
ATOM     82  C   UNL A   1      50.610  28.513  27.032  1.00  0.00     0.134 A 
ATOM     83  C   UNL A   1      49.892  28.396  29.291  1.00  0.00     0.134 A 
ATOM     84  F   UNL A   1      50.534  28.929  25.761  1.00  0.00    -0.206 F 
ATOM     85  C   UNL A   1      51.810  27.894  27.392  1.00  0.00     0.040 A 
ATOM     86  C   UNL A   1      51.132  27.896  29.680  1.00  0.00     0.040 A 
ATOM     87  F   UNL A   1      49.024  28.564  30.302  1.00  0.00    -0.206 F 
ATOM     88  C   UNL A   1      52.082  27.600  28.721  1.00  0.00     0.006 A 
ENDBRANCH  64  81
ENDBRANCH  38  39
ENDBRANCH  31  33
ENDBRANCH  30  31
ENDBRANCH  29  30
ENDBRANCH  28  29
ENDBRANCH  27  28
ENDBRANCH  26  27
ENDBRANCH   1  26
TORSDOF 20
ENDMDL
