MODEL 1
REMARK VINA RESULT:      -9.3      0.000      0.000
REMARK SMILES O=C(OCCOCCOCCOC(=O)c1ccc(-c2c3nc(c(-c4c(F)cccc4F)c4ccc([nH]4)c(-c4c(F)cccc4F)c4nc(c(-c5c(F)cccc5F)c5ccc2[nH]5)C=C4)C=C3)cc1)C1=Cc2cc(Cl)cc(-c3ccccc3)c2O[C@@H]1C(F)(F)F
REMARK SMILES IDX 8 1 7 2 6 3 5 4 4 5 3 6 2 7 1 8 69 9 70 10 85 11 71 12 84 13
REMARK SMILES IDX 72 14 83 15 73 16 76 17 74 18 75 19 86 20 87 21 88 22 89 23
REMARK SMILES IDX 77 24 78 25 82 26 79 27 81 28 80 29 9 30 10 31 11 32 12 33
REMARK SMILES IDX 13 34 14 35 15 36 16 37 68 38 17 39 67 40 18 41 19 42 20 43
REMARK SMILES IDX 61 44 21 45 66 46 60 47 62 48 22 49 65 50 59 51 58 52 23 54
REMARK SMILES IDX 49 55 32 56 48 57 33 58 36 59 47 60 63 61 34 62 35 63 46 65
REMARK SMILES IDX 64 66 37 67 24 68 25 69 30 70 26 71 27 72 29 73 31 74 28 75
REMARK SMILES IDX 50 76 51 77 56 78 52 79 53 80 55 81 57 82 54 83 38 84 39 85
REMARK SMILES IDX 44 86 40 87 41 88 43 89 45 90 42 91
REMARK H PARENT 62 53 36 64
REMARK Flexibility Score: inf
ROOT
ATOM      1  C   UNL A   1      43.043  18.467  25.791  1.00  0.00     0.188 C 
ENDROOT
BRANCH   1   2
ATOM      2  C   UNL A   1      44.050  19.328  25.016  1.00  0.00     0.188 C 
BRANCH   2   3
ATOM      3  O   UNL A   1      44.543  20.688  25.467  1.00  0.00    -0.376 OA
BRANCH   3   4
ATOM      4  C   UNL A   1      46.061  21.480  25.028  1.00  0.00     0.202 C 
BRANCH   4   5
ATOM      5  C   UNL A   1      46.169  23.563  24.420  1.00  0.00     0.261 C 
BRANCH   5   6
ATOM      6  O   UNL A   1      47.194  24.600  24.922  1.00  0.00    -0.460 OA
BRANCH   6   7
ATOM      7  C   UNL A   1      46.655  25.816  25.084  1.00  0.00     0.338 C 
ATOM      8  O   UNL A   1      46.314  26.618  24.251  1.00  0.00    -0.246 OA
BRANCH   7   9
ATOM      9  C   UNL A   1      47.082  25.981  26.457  1.00  0.00     0.087 C 
ATOM     10  C   UNL A   1      48.140  26.948  26.663  1.00  0.00     0.027 C 
ATOM     11  C   UNL A   1      45.305  26.114  27.164  1.00  0.00     0.316 C 
ATOM     12  C   UNL A   1      47.877  28.571  27.359  1.00  0.00     0.019 A 
ATOM     13  O   UNL A   1      44.956  27.946  27.799  1.00  0.00    -0.475 OA
ATOM     14  C   UNL A   1      48.931  29.446  27.276  1.00  0.00     0.032 A 
ATOM     15  C   UNL A   1      46.330  29.152  27.875  1.00  0.00     0.135 A 
ATOM     16  C   UNL A   1      48.657  30.753  27.677  1.00  0.00     0.042 A 
ATOM     17  C   UNL A   1      46.175  30.456  28.323  1.00  0.00     0.026 A 
ATOM     18  Cl  UNL A   1      49.935  31.915  27.542  1.00  0.00    -0.084 Cl
ATOM     19  C   UNL A   1      47.388  31.210  28.181  1.00  0.00     0.033 A 
BRANCH  11  20
ATOM     20  C   UNL A   1      45.493  24.604  27.958  1.00  0.00     0.430 C 
ATOM     21  F   UNL A   1      46.408  23.701  27.596  1.00  0.00    -0.167 F 
ATOM     22  F   UNL A   1      45.717  24.861  29.277  1.00  0.00    -0.167 F 
ATOM     23  F   UNL A   1      44.328  23.879  27.950  1.00  0.00    -0.167 F 
ENDBRANCH  11  20
BRANCH  17  24
ATOM     24  C   UNL A   1      45.078  31.170  28.970  1.00  0.00    -0.015 A 
ATOM     25  C   UNL A   1      43.744  30.976  28.601  1.00  0.00     0.009 A 
ATOM     26  C   UNL A   1      45.368  32.272  29.805  1.00  0.00     0.009 A 
ATOM     27  C   UNL A   1      42.730  31.785  29.131  1.00  0.00     0.001 A 
ATOM     28  C   UNL A   1      44.355  33.062  30.362  1.00  0.00     0.001 A 
ATOM     29  C   UNL A   1      43.031  32.801  30.038  1.00  0.00     0.000 A 
ENDBRANCH  17  24
ENDBRANCH   7   9
ENDBRANCH   6   7
ENDBRANCH   5   6
ENDBRANCH   4   5
ENDBRANCH   3   4
ENDBRANCH   2   3
ENDBRANCH   1   2
BRANCH   1  30
ATOM     30  O   UNL A   1      41.677  18.745  25.722  1.00  0.00    -0.376 OA
BRANCH  30  31
ATOM     31  C   UNL A   1      41.208  19.702  26.642  1.00  0.00     0.202 C 
BRANCH  31  32
ATOM     32  C   UNL A   1      40.644  21.038  26.168  1.00  0.00     0.261 C 
BRANCH  32  33
ATOM     33  O   UNL A   1      41.004  22.144  26.998  1.00  0.00    -0.460 OA
BRANCH  33  34
ATOM     34  C   UNL A   1      41.621  23.160  26.358  1.00  0.00     0.338 C 
ATOM     35  O   UNL A   1      42.328  23.107  25.367  1.00  0.00    -0.246 OA
BRANCH  34  36
ATOM     36  C   UNL A   1      41.144  24.419  26.941  1.00  0.00     0.060 A 
ATOM     37  C   UNL A   1      41.751  25.618  26.539  1.00  0.00     0.016 A 
ATOM     38  C   UNL A   1      40.168  24.397  27.936  1.00  0.00     0.016 A 
ATOM     39  C   UNL A   1      41.405  26.806  27.161  1.00  0.00     0.010 A 
ATOM     40  C   UNL A   1      39.862  25.580  28.602  1.00  0.00     0.010 A 
ATOM     41  C   UNL A   1      40.526  26.767  28.248  1.00  0.00    -0.014 A 
BRANCH  41  42
ATOM     42  C   UNL A   1      40.612  27.878  29.212  1.00  0.00     0.031 A 
ATOM     43  C   UNL A   1      41.834  27.927  30.086  1.00  0.00     0.074 A 
ATOM     44  C   UNL A   1      39.688  28.848  29.238  1.00  0.00     0.049 A 
ATOM     45  N   UNL A   1      42.190  28.819  30.970  1.00  0.00    -0.248 NA
ATOM     46  C   UNL A   1      42.792  26.816  29.933  1.00  0.00     0.031 C 
ATOM     47  C   UNL A   1      38.507  28.919  28.379  1.00  0.00     0.029 A 
ATOM     48  N   UNL A   1      39.614  29.969  30.019  1.00  0.00    -0.354 N 
ATOM     49  C   UNL A   1      43.406  28.375  31.476  1.00  0.00     0.074 A 
ATOM     50  C   UNL A   1      43.712  27.121  30.831  1.00  0.00     0.031 C 
ATOM     51  C   UNL A   1      37.818  30.032  28.687  1.00  0.00     0.029 A 
ATOM     52  C   UNL A   1      38.500  30.731  29.776  1.00  0.00     0.049 A 
ATOM     53  H   UNL A   1      40.294  30.205  30.690  1.00  0.00     0.167 HD
ATOM     54  C   UNL A   1      44.200  28.969  32.396  1.00  0.00     0.037 A 
ATOM     55  C   UNL A   1      38.087  31.858  30.383  1.00  0.00     0.037 A 
ATOM     56  C   UNL A   1      43.868  30.207  33.043  1.00  0.00     0.049 A 
ATOM     57  C   UNL A   1      38.946  32.452  31.470  1.00  0.00     0.074 A 
ATOM     58  C   UNL A   1      44.590  30.905  33.993  1.00  0.00     0.029 A 
ATOM     59  N   UNL A   1      42.700  30.923  32.817  1.00  0.00    -0.354 N 
ATOM     60  N   UNL A   1      40.105  32.044  31.933  1.00  0.00    -0.248 NA
ATOM     61  C   UNL A   1      38.444  33.675  32.109  1.00  0.00     0.031 C 
ATOM     62  C   UNL A   1      43.823  32.003  34.396  1.00  0.00     0.029 A 
ATOM     63  C   UNL A   1      42.667  32.040  33.632  1.00  0.00     0.049 A 
ATOM     64  H   UNL A   1      42.000  30.673  32.171  1.00  0.00     0.167 HD
ATOM     65  C   UNL A   1      40.494  32.986  32.879  1.00  0.00     0.074 A 
ATOM     66  C   UNL A   1      39.447  33.987  32.916  1.00  0.00     0.031 C 
ATOM     67  C   UNL A   1      41.617  33.028  33.641  1.00  0.00     0.037 A 
BRANCH  54  68
ATOM     68  C   UNL A   1      45.458  28.250  32.788  1.00  0.00     0.057 A 
ATOM     69  C   UNL A   1      46.697  28.521  32.191  1.00  0.00     0.134 A 
ATOM     70  C   UNL A   1      45.424  27.257  33.776  1.00  0.00     0.134 A 
ATOM     71  F   UNL A   1      46.798  29.442  31.220  1.00  0.00    -0.206 F 
ATOM     72  C   UNL A   1      47.848  27.811  32.540  1.00  0.00     0.040 A 
ATOM     73  C   UNL A   1      46.574  26.565  34.158  1.00  0.00     0.040 A 
ATOM     74  F   UNL A   1      44.271  26.942  34.386  1.00  0.00    -0.206 F 
ATOM     75  C   UNL A   1      47.789  26.835  33.531  1.00  0.00     0.006 A 
ENDBRANCH  54  68
BRANCH  55  76
ATOM     76  C   UNL A   1      36.813  32.504  29.977  1.00  0.00     0.057 A 
ATOM     77  C   UNL A   1      36.781  33.495  28.990  1.00  0.00     0.134 A 
ATOM     78  C   UNL A   1      35.599  32.170  30.591  1.00  0.00     0.134 A 
ATOM     79  F   UNL A   1      37.912  33.874  28.376  1.00  0.00    -0.206 F 
ATOM     80  C   UNL A   1      35.598  34.151  28.648  1.00  0.00     0.040 A 
ATOM     81  C   UNL A   1      34.403  32.796  30.238  1.00  0.00     0.040 A 
ATOM     82  F   UNL A   1      35.558  31.225  31.543  1.00  0.00    -0.206 F 
ATOM     83  C   UNL A   1      34.402  33.799  29.272  1.00  0.00     0.006 A 
ENDBRANCH  55  76
BRANCH  67  84
ATOM     84  C   UNL A   1      41.806  34.233  34.520  1.00  0.00     0.057 A 
ATOM     85  C   UNL A   1      42.470  35.388  34.085  1.00  0.00     0.134 A 
ATOM     86  C   UNL A   1      41.286  34.241  35.822  1.00  0.00     0.134 A 
ATOM     87  F   UNL A   1      42.995  35.448  32.852  1.00  0.00    -0.206 F 
ATOM     88  C   UNL A   1      42.651  36.485  34.928  1.00  0.00     0.040 A 
ATOM     89  C   UNL A   1      41.425  35.347  36.660  1.00  0.00     0.040 A 
ATOM     90  F   UNL A   1      40.623  33.176  36.299  1.00  0.00    -0.206 F 
ATOM     91  C   UNL A   1      42.123  36.469  36.218  1.00  0.00     0.006 A 
ENDBRANCH  67  84
ENDBRANCH  41  42
ENDBRANCH  34  36
ENDBRANCH  33  34
ENDBRANCH  32  33
ENDBRANCH  31  32
ENDBRANCH  30  31
ENDBRANCH   1  30
TORSDOF 19
ENDMDL
MODEL 2
REMARK VINA RESULT:      -8.9      5.675     11.469
REMARK SMILES O=C(OCCOCCOCCOC(=O)c1ccc(-c2c3nc(c(-c4c(F)cccc4F)c4ccc([nH]4)c(-c4c(F)cccc4F)c4nc(c(-c5c(F)cccc5F)c5ccc2[nH]5)C=C4)C=C3)cc1)C1=Cc2cc(Cl)cc(-c3ccccc3)c2O[C@@H]1C(F)(F)F
REMARK SMILES IDX 8 1 7 2 6 3 5 4 4 5 3 6 2 7 1 8 69 9 70 10 85 11 71 12 84 13
REMARK SMILES IDX 72 14 83 15 73 16 76 17 74 18 75 19 86 20 87 21 88 22 89 23
REMARK SMILES IDX 77 24 78 25 82 26 79 27 81 28 80 29 9 30 10 31 11 32 12 33
REMARK SMILES IDX 13 34 14 35 15 36 16 37 68 38 17 39 67 40 18 41 19 42 20 43
REMARK SMILES IDX 61 44 21 45 66 46 60 47 62 48 22 49 65 50 59 51 58 52 23 54
REMARK SMILES IDX 49 55 32 56 48 57 33 58 36 59 47 60 63 61 34 62 35 63 46 65
REMARK SMILES IDX 64 66 37 67 24 68 25 69 30 70 26 71 27 72 29 73 31 74 28 75
REMARK SMILES IDX 50 76 51 77 56 78 52 79 53 80 55 81 57 82 54 83 38 84 39 85
REMARK SMILES IDX 44 86 40 87 41 88 43 89 45 90 42 91
REMARK H PARENT 62 53 36 64
REMARK Flexibility Score: inf
ROOT
ATOM      1  C   UNL A   1      39.511  23.561  27.137  1.00  0.00     0.188 C 
ENDROOT
BRANCH   1   2
ATOM      2  C   UNL A   1      38.505  23.210  26.031  1.00  0.00     0.188 C 
BRANCH   2   3
ATOM      3  O   UNL A   1      37.912  21.832  25.817  1.00  0.00    -0.376 OA
BRANCH   3   4
ATOM      4  C   UNL A   1      36.214  21.426  25.539  1.00  0.00     0.202 C 
BRANCH   4   5
ATOM      5  C   UNL A   1      34.800  22.820  24.657  1.00  0.00     0.261 C 
BRANCH   5   6
ATOM      6  O   UNL A   1      35.027  24.331  24.454  1.00  0.00    -0.460 OA
BRANCH   6   7
ATOM      7  C   UNL A   1      34.195  24.857  23.545  1.00  0.00     0.338 C 
ATOM      8  O   UNL A   1      34.450  25.392  22.495  1.00  0.00    -0.246 OA
BRANCH   7   9
ATOM      9  C   UNL A   1      33.067  24.990  24.441  1.00  0.00     0.087 C 
ATOM     10  C   UNL A   1      33.225  25.977  25.490  1.00  0.00     0.027 C 
ATOM     11  C   UNL A   1      31.757  25.060  23.044  1.00  0.00     0.316 C 
ATOM     12  C   UNL A   1      32.423  27.570  25.481  1.00  0.00     0.019 A 
ATOM     13  O   UNL A   1      30.971  26.862  22.930  1.00  0.00    -0.475 OA
ATOM     14  C   UNL A   1      32.852  28.473  26.422  1.00  0.00     0.032 A 
ATOM     15  C   UNL A   1      31.357  28.098  24.223  1.00  0.00     0.135 A 
ATOM     16  C   UNL A   1      32.330  29.760  26.299  1.00  0.00     0.042 A 
ATOM     17  C   UNL A   1      30.835  29.384  24.228  1.00  0.00     0.026 A 
ATOM     18  Cl  UNL A   1      32.879  30.956  27.425  1.00  0.00    -0.084 Cl
ATOM     19  C   UNL A   1      31.382  30.171  25.296  1.00  0.00     0.033 A 
BRANCH  11  20
ATOM     20  C   UNL A   1      31.142  23.531  23.526  1.00  0.00     0.430 C 
ATOM     21  F   UNL A   1      31.095  23.135  24.801  1.00  0.00    -0.167 F 
ATOM     22  F   UNL A   1      29.867  23.436  23.054  1.00  0.00    -0.167 F 
ATOM     23  F   UNL A   1      31.805  22.500  22.909  1.00  0.00    -0.167 F 
ENDBRANCH  11  20
BRANCH  17  24
ATOM     24  C   UNL A   1      29.807  30.052  23.435  1.00  0.00    -0.015 A 
ATOM     25  C   UNL A   1      29.616  29.773  22.079  1.00  0.00     0.009 A 
ATOM     26  C   UNL A   1      29.157  31.190  23.963  1.00  0.00     0.009 A 
ATOM     27  C   UNL A   1      28.728  30.537  21.310  1.00  0.00     0.001 A 
ATOM     28  C   UNL A   1      28.244  31.935  23.206  1.00  0.00     0.001 A 
ATOM     29  C   UNL A   1      28.015  31.592  21.881  1.00  0.00     0.000 A 
ENDBRANCH  17  24
ENDBRANCH   7   9
ENDBRANCH   6   7
ENDBRANCH   5   6
ENDBRANCH   4   5
ENDBRANCH   3   4
ENDBRANCH   2   3
ENDBRANCH   1   2
BRANCH   1  30
ATOM     30  O   UNL A   1      40.194  22.551  27.816  1.00  0.00    -0.376 OA
BRANCH  30  31
ATOM     31  C   UNL A   1      41.456  22.216  27.289  1.00  0.00     0.202 C 
BRANCH  31  32
ATOM     32  C   UNL A   1      41.675  20.896  26.553  1.00  0.00     0.261 C 
BRANCH  32  33
ATOM     33  O   UNL A   1      42.414  21.028  25.338  1.00  0.00    -0.460 OA
BRANCH  33  34
ATOM     34  C   UNL A   1      43.690  20.593  25.397  1.00  0.00     0.338 C 
ATOM     35  O   UNL A   1      44.108  19.461  25.225  1.00  0.00    -0.246 OA
BRANCH  34  36
ATOM     36  C   UNL A   1      44.565  21.764  25.515  1.00  0.00     0.060 A 
ATOM     37  C   UNL A   1      45.094  22.084  26.774  1.00  0.00     0.016 A 
ATOM     38  C   UNL A   1      44.783  22.582  24.407  1.00  0.00     0.016 A 
ATOM     39  C   UNL A   1      45.822  23.251  26.938  1.00  0.00     0.010 A 
ATOM     40  C   UNL A   1      45.464  23.783  24.583  1.00  0.00     0.010 A 
ATOM     41  C   UNL A   1      45.928  24.136  25.861  1.00  0.00    -0.014 A 
BRANCH  41  42
ATOM     42  C   UNL A   1      46.183  25.550  26.187  1.00  0.00     0.031 A 
ATOM     43  C   UNL A   1      45.010  26.362  26.661  1.00  0.00     0.074 A 
ATOM     44  C   UNL A   1      47.423  26.058  26.151  1.00  0.00     0.049 A 
ATOM     45  N   UNL A   1      44.965  27.602  27.067  1.00  0.00    -0.248 NA
ATOM     46  C   UNL A   1      43.706  25.673  26.687  1.00  0.00     0.031 C 
ATOM     47  C   UNL A   1      48.629  25.326  25.771  1.00  0.00     0.029 A 
ATOM     48  N   UNL A   1      47.864  27.318  26.453  1.00  0.00    -0.354 N 
ATOM     49  C   UNL A   1      43.635  27.838  27.392  1.00  0.00     0.074 A 
ATOM     50  C   UNL A   1      42.898  26.630  27.105  1.00  0.00     0.031 C 
ATOM     51  C   UNL A   1      49.682  26.158  25.859  1.00  0.00     0.029 A 
ATOM     52  C   UNL A   1      49.215  27.478  26.277  1.00  0.00     0.049 A 
ATOM     53  H   UNL A   1      47.271  28.037  26.765  1.00  0.00     0.167 HD
ATOM     54  C   UNL A   1      43.080  28.964  27.893  1.00  0.00     0.037 A 
ATOM     55  C   UNL A   1      49.971  28.581  26.431  1.00  0.00     0.037 A 
ATOM     56  C   UNL A   1      43.826  30.164  28.152  1.00  0.00     0.049 A 
ATOM     57  C   UNL A   1      49.311  29.851  26.905  1.00  0.00     0.074 A 
ATOM     58  C   UNL A   1      43.374  31.369  28.657  1.00  0.00     0.029 A 
ATOM     59  N   UNL A   1      45.184  30.312  27.905  1.00  0.00    -0.354 N 
ATOM     60  N   UNL A   1      48.058  30.068  27.233  1.00  0.00    -0.248 NA
ATOM     61  C   UNL A   1      50.178  31.028  27.045  1.00  0.00     0.031 C 
ATOM     62  C   UNL A   1      44.445  32.269  28.643  1.00  0.00     0.029 A 
ATOM     63  C   UNL A   1      45.581  31.599  28.218  1.00  0.00     0.049 A 
ATOM     64  H   UNL A   1      45.776  29.605  27.560  1.00  0.00     0.167 HD
ATOM     65  C   UNL A   1      47.997  31.388  27.665  1.00  0.00     0.074 A 
ATOM     66  C   UNL A   1      49.342  31.917  27.561  1.00  0.00     0.031 C 
ATOM     67  C   UNL A   1      46.931  32.097  28.117  1.00  0.00     0.037 A 
BRANCH  54  68
ATOM     68  C   UNL A   1      41.597  28.957  28.128  1.00  0.00     0.057 A 
ATOM     69  C   UNL A   1      40.670  29.132  27.090  1.00  0.00     0.134 A 
ATOM     70  C   UNL A   1      41.089  28.782  29.422  1.00  0.00     0.134 A 
ATOM     71  F   UNL A   1      41.088  29.329  25.830  1.00  0.00    -0.206 F 
ATOM     72  C   UNL A   1      39.296  29.165  27.336  1.00  0.00     0.040 A 
ATOM     73  C   UNL A   1      39.716  28.779  29.674  1.00  0.00     0.040 A 
ATOM     74  F   UNL A   1      41.918  28.615  30.463  1.00  0.00    -0.206 F 
ATOM     75  C   UNL A   1      38.816  28.981  28.630  1.00  0.00     0.006 A 
ENDBRANCH  54  68
BRANCH  55  76
ATOM     76  C   UNL A   1      51.427  28.536  26.147  1.00  0.00     0.057 A 
ATOM     77  C   UNL A   1      51.921  28.706  24.848  1.00  0.00     0.134 A 
ATOM     78  C   UNL A   1      52.360  28.289  27.162  1.00  0.00     0.134 A 
ATOM     79  F   UNL A   1      51.079  28.929  23.829  1.00  0.00    -0.206 F 
ATOM     80  C   UNL A   1      53.284  28.603  24.563  1.00  0.00     0.040 A 
ATOM     81  C   UNL A   1      53.728  28.213  26.897  1.00  0.00     0.040 A 
ATOM     82  F   UNL A   1      51.955  28.120  28.429  1.00  0.00    -0.206 F 
ATOM     83  C   UNL A   1      54.192  28.358  25.591  1.00  0.00     0.006 A 
ENDBRANCH  55  76
BRANCH  67  84
ATOM     84  C   UNL A   1      47.193  33.495  28.604  1.00  0.00     0.057 A 
ATOM     85  C   UNL A   1      47.108  34.615  27.767  1.00  0.00     0.134 A 
ATOM     86  C   UNL A   1      47.512  33.721  29.951  1.00  0.00     0.134 A 
ATOM     87  F   UNL A   1      46.810  34.472  26.466  1.00  0.00    -0.206 F 
ATOM     88  C   UNL A   1      47.377  35.901  28.239  1.00  0.00     0.040 A 
ATOM     89  C   UNL A   1      47.742  35.005  30.444  1.00  0.00     0.040 A 
ATOM     90  F   UNL A   1      47.593  32.697  30.815  1.00  0.00    -0.206 F 
ATOM     91  C   UNL A   1      47.690  36.098  29.583  1.00  0.00     0.006 A 
ENDBRANCH  67  84
ENDBRANCH  41  42
ENDBRANCH  34  36
ENDBRANCH  33  34
ENDBRANCH  32  33
ENDBRANCH  31  32
ENDBRANCH  30  31
ENDBRANCH   1  30
TORSDOF 19
ENDMDL
MODEL 3
REMARK VINA RESULT:      -8.8      5.068      8.408
REMARK SMILES O=C(OCCOCCOCCOC(=O)c1ccc(-c2c3nc(c(-c4c(F)cccc4F)c4ccc([nH]4)c(-c4c(F)cccc4F)c4nc(c(-c5c(F)cccc5F)c5ccc2[nH]5)C=C4)C=C3)cc1)C1=Cc2cc(Cl)cc(-c3ccccc3)c2O[C@@H]1C(F)(F)F
REMARK SMILES IDX 8 1 7 2 6 3 5 4 4 5 3 6 2 7 1 8 69 9 70 10 85 11 71 12 84 13
REMARK SMILES IDX 72 14 83 15 73 16 76 17 74 18 75 19 86 20 87 21 88 22 89 23
REMARK SMILES IDX 77 24 78 25 82 26 79 27 81 28 80 29 9 30 10 31 11 32 12 33
REMARK SMILES IDX 13 34 14 35 15 36 16 37 68 38 17 39 67 40 18 41 19 42 20 43
REMARK SMILES IDX 61 44 21 45 66 46 60 47 62 48 22 49 65 50 59 51 58 52 23 54
REMARK SMILES IDX 49 55 32 56 48 57 33 58 36 59 47 60 63 61 34 62 35 63 46 65
REMARK SMILES IDX 64 66 37 67 24 68 25 69 30 70 26 71 27 72 29 73 31 74 28 75
REMARK SMILES IDX 50 76 51 77 56 78 52 79 53 80 55 81 57 82 54 83 38 84 39 85
REMARK SMILES IDX 44 86 40 87 41 88 43 89 45 90 42 91
REMARK H PARENT 62 53 36 64
REMARK Flexibility Score: inf
ROOT
ATOM      1  C   UNL A   1      42.237  21.742  25.734  1.00  0.00     0.188 C 
ENDROOT
BRANCH   1   2
ATOM      2  C   UNL A   1      40.952  22.177  26.453  1.00  0.00     0.188 C 
BRANCH   2   3
ATOM      3  O   UNL A   1      39.580  22.214  25.811  1.00  0.00    -0.376 OA
BRANCH   3   4
ATOM      4  C   UNL A   1      38.261  23.338  26.159  1.00  0.00     0.202 C 
BRANCH   4   5
ATOM      5  C   UNL A   1      36.494  23.503  24.905  1.00  0.00     0.261 C 
BRANCH   5   6
ATOM      6  O   UNL A   1      35.575  24.736  24.794  1.00  0.00    -0.460 OA
BRANCH   6   7
ATOM      7  C   UNL A   1      34.561  24.544  23.939  1.00  0.00     0.338 C 
ATOM      8  O   UNL A   1      34.549  24.631  22.737  1.00  0.00    -0.246 OA
BRANCH   7   9
ATOM      9  C   UNL A   1      33.512  24.697  24.924  1.00  0.00     0.087 C 
ATOM     10  C   UNL A   1      33.717  25.760  25.886  1.00  0.00     0.027 C 
ATOM     11  C   UNL A   1      32.082  24.616  23.650  1.00  0.00     0.316 C 
ATOM     12  C   UNL A   1      32.845  27.317  25.842  1.00  0.00     0.019 A 
ATOM     13  O   UNL A   1      31.208  26.374  23.487  1.00  0.00    -0.475 OA
ATOM     14  C   UNL A   1      33.315  28.300  26.678  1.00  0.00     0.032 A 
ATOM     15  C   UNL A   1      31.651  27.712  24.654  1.00  0.00     0.135 A 
ATOM     16  C   UNL A   1      32.727  29.554  26.517  1.00  0.00     0.042 A 
ATOM     17  C   UNL A   1      31.074  28.974  24.619  1.00  0.00     0.026 A 
ATOM     18  Cl  UNL A   1      33.318  30.847  27.506  1.00  0.00    -0.084 Cl
ATOM     19  C   UNL A   1      31.676  29.856  25.579  1.00  0.00     0.033 A 
BRANCH  11  20
ATOM     20  C   UNL A   1      31.581  23.102  24.287  1.00  0.00     0.430 C 
ATOM     21  F   UNL A   1      31.155  22.947  25.544  1.00  0.00    -0.167 F 
ATOM     22  F   UNL A   1      30.581  22.634  23.489  1.00  0.00    -0.167 F 
ATOM     23  F   UNL A   1      32.568  22.156  24.179  1.00  0.00    -0.167 F 
ENDBRANCH  11  20
BRANCH  17  24
ATOM     24  C   UNL A   1      29.951  29.544  23.880  1.00  0.00    -0.015 A 
ATOM     25  C   UNL A   1      29.231  28.806  22.936  1.00  0.00     0.009 A 
ATOM     26  C   UNL A   1      29.738  30.940  23.915  1.00  0.00     0.009 A 
ATOM     27  C   UNL A   1      28.261  29.423  22.135  1.00  0.00     0.001 A 
ATOM     28  C   UNL A   1      28.746  31.553  23.139  1.00  0.00     0.001 A 
ATOM     29  C   UNL A   1      27.993  30.786  22.262  1.00  0.00     0.000 A 
ENDBRANCH  17  24
ENDBRANCH   7   9
ENDBRANCH   6   7
ENDBRANCH   5   6
ENDBRANCH   4   5
ENDBRANCH   3   4
ENDBRANCH   2   3
ENDBRANCH   1   2
BRANCH   1  30
ATOM     30  O   UNL A   1      43.479  22.207  26.167  1.00  0.00    -0.376 OA
BRANCH  30  31
ATOM     31  C   UNL A   1      43.601  23.607  26.262  1.00  0.00     0.202 C 
BRANCH  31  32
ATOM     32  C   UNL A   1      43.447  24.494  25.030  1.00  0.00     0.261 C 
BRANCH  32  33
ATOM     33  O   UNL A   1      43.290  25.881  25.334  1.00  0.00    -0.460 OA
BRANCH  33  34
ATOM     34  C   UNL A   1      42.053  26.242  25.733  1.00  0.00     0.338 C 
ATOM     35  O   UNL A   1      40.990  26.025  25.179  1.00  0.00    -0.246 OA
BRANCH  34  36
ATOM     36  C   UNL A   1      42.156  26.792  27.089  1.00  0.00     0.060 A 
ATOM     37  C   UNL A   1      41.319  26.276  28.090  1.00  0.00     0.016 A 
ATOM     38  C   UNL A   1      43.010  27.865  27.339  1.00  0.00     0.016 A 
ATOM     39  C   UNL A   1      41.310  26.858  29.346  1.00  0.00     0.010 A 
ATOM     40  C   UNL A   1      42.959  28.488  28.583  1.00  0.00     0.010 A 
ATOM     41  C   UNL A   1      42.065  28.015  29.559  1.00  0.00    -0.014 A 
BRANCH  41  42
ATOM     42  C   UNL A   1      41.624  28.906  30.646  1.00  0.00     0.031 A 
ATOM     43  C   UNL A   1      42.470  28.931  31.889  1.00  0.00     0.074 A 
ATOM     44  C   UNL A   1      40.573  29.723  30.492  1.00  0.00     0.049 A 
ATOM     45  N   UNL A   1      42.347  29.662  32.965  1.00  0.00    -0.248 NA
ATOM     46  C   UNL A   1      43.619  28.009  31.917  1.00  0.00     0.031 C 
ATOM     47  C   UNL A   1      39.739  29.815  29.296  1.00  0.00     0.029 A 
ATOM     48  N   UNL A   1      40.040  30.640  31.356  1.00  0.00    -0.354 N 
ATOM     49  C   UNL A   1      43.397  29.284  33.792  1.00  0.00     0.074 A 
ATOM     50  C   UNL A   1      44.127  28.239  33.115  1.00  0.00     0.031 C 
ATOM     51  C   UNL A   1      38.788  30.743  29.506  1.00  0.00     0.029 A 
ATOM     52  C   UNL A   1      38.938  31.285  30.855  1.00  0.00     0.049 A 
ATOM     53  H   UNL A   1      40.411  30.819  32.250  1.00  0.00     0.167 HD
ATOM     54  C   UNL A   1      43.726  29.773  35.008  1.00  0.00     0.037 A 
ATOM     55  C   UNL A   1      38.145  32.201  31.441  1.00  0.00     0.037 A 
ATOM     56  C   UNL A   1      42.975  30.799  35.676  1.00  0.00     0.049 A 
ATOM     57  C   UNL A   1      38.482  32.665  32.835  1.00  0.00     0.074 A 
ATOM     58  C   UNL A   1      43.208  31.374  36.911  1.00  0.00     0.029 A 
ATOM     59  N   UNL A   1      41.827  31.389  35.165  1.00  0.00    -0.354 N 
ATOM     60  N   UNL A   1      39.487  32.323  33.608  1.00  0.00    -0.248 NA
ATOM     61  C   UNL A   1      37.578  33.655  33.433  1.00  0.00     0.031 C 
ATOM     62  C   UNL A   1      42.157  32.258  37.180  1.00  0.00     0.029 A 
ATOM     63  C   UNL A   1      41.322  32.301  36.074  1.00  0.00     0.049 A 
ATOM     64  H   UNL A   1      41.432  31.189  34.286  1.00  0.00     0.167 HD
ATOM     65  C   UNL A   1      39.365  33.093  34.759  1.00  0.00     0.074 A 
ATOM     66  C   UNL A   1      38.191  33.922  34.577  1.00  0.00     0.031 C 
ATOM     67  C   UNL A   1      40.156  33.122  35.863  1.00  0.00     0.037 A 
BRANCH  54  68
ATOM     68  C   UNL A   1      44.906  29.157  35.703  1.00  0.00     0.057 A 
ATOM     69  C   UNL A   1      44.787  28.039  36.542  1.00  0.00     0.134 A 
ATOM     70  C   UNL A   1      46.186  29.703  35.538  1.00  0.00     0.134 A 
ATOM     71  F   UNL A   1      43.586  27.481  36.765  1.00  0.00    -0.206 F 
ATOM     72  C   UNL A   1      45.890  27.508  37.213  1.00  0.00     0.040 A 
ATOM     73  C   UNL A   1      47.302  29.159  36.176  1.00  0.00     0.040 A 
ATOM     74  F   UNL A   1      46.373  30.775  34.755  1.00  0.00    -0.206 F 
ATOM     75  C   UNL A   1      47.152  28.064  37.025  1.00  0.00     0.006 A 
ENDBRANCH  54  68
BRANCH  55  76
ATOM     76  C   UNL A   1      36.970  32.746  30.717  1.00  0.00     0.057 A 
ATOM     77  C   UNL A   1      37.110  33.751  29.752  1.00  0.00     0.134 A 
ATOM     78  C   UNL A   1      35.671  32.300  30.995  1.00  0.00     0.134 A 
ATOM     79  F   UNL A   1      38.325  34.234  29.453  1.00  0.00    -0.206 F 
ATOM     80  C   UNL A   1      36.004  34.313  29.113  1.00  0.00     0.040 A 
ATOM     81  C   UNL A   1      34.559  32.831  30.341  1.00  0.00     0.040 A 
ATOM     82  F   UNL A   1      35.466  31.337  31.905  1.00  0.00    -0.206 F 
ATOM     83  C   UNL A   1      34.723  33.850  29.406  1.00  0.00     0.006 A 
ENDBRANCH  55  76
BRANCH  67  84
ATOM     84  C   UNL A   1      39.819  34.135  36.922  1.00  0.00     0.057 A 
ATOM     85  C   UNL A   1      39.124  33.802  38.091  1.00  0.00     0.134 A 
ATOM     86  C   UNL A   1      40.227  35.469  36.773  1.00  0.00     0.134 A 
ATOM     87  F   UNL A   1      38.702  32.545  38.298  1.00  0.00    -0.206 F 
ATOM     88  C   UNL A   1      38.805  34.766  39.050  1.00  0.00     0.040 A 
ATOM     89  C   UNL A   1      39.951  36.432  37.743  1.00  0.00     0.040 A 
ATOM     90  F   UNL A   1      40.913  35.856  35.686  1.00  0.00    -0.206 F 
ATOM     91  C   UNL A   1      39.224  36.084  38.879  1.00  0.00     0.006 A 
ENDBRANCH  67  84
ENDBRANCH  41  42
ENDBRANCH  34  36
ENDBRANCH  33  34
ENDBRANCH  32  33
ENDBRANCH  31  32
ENDBRANCH  30  31
ENDBRANCH   1  30
TORSDOF 19
ENDMDL
