MODEL 1
REMARK VINA RESULT:      -9.3      0.000      0.000
REMARK SMILES CCCCCC[C@@H](C)N1C[C@H](C(=O)OCCOCCOCCOC(=O)c2ccc(-c3c4nc(c(-c5c(F)cccc5F)c5ccc([nH]5)c(-c5c(F)cccc5F)c5nc(c(-c6c(F)cccc6F)c6ccc3[nH]6)C=C5)C=C4)cc2)CC1=O
REMARK SMILES IDX 16 1 15 2 14 3 12 4 13 5 11 6 9 7 10 8 81 9 80 10 82 11 7 12
REMARK SMILES IDX 8 13 6 14 5 15 4 16 3 17 2 18 1 19 17 20 18 21 19 22 20 23
REMARK SMILES IDX 21 24 22 25 23 26 24 27 25 28 26 29 27 30 79 31 28 32 78 33
REMARK SMILES IDX 29 34 30 35 31 36 72 37 32 38 77 39 71 40 73 41 33 42 76 43
REMARK SMILES IDX 70 44 69 45 34 47 60 48 43 49 59 50 44 51 47 52 58 53 74 54
REMARK SMILES IDX 45 55 46 56 57 58 75 59 48 60 35 61 36 62 41 63 37 64 38 65
REMARK SMILES IDX 40 66 42 67 39 68 61 69 62 70 67 71 63 72 64 73 66 74 68 75
REMARK SMILES IDX 65 76 49 77 50 78 55 79 51 80 52 81 54 82 56 83 53 84
REMARK H PARENT 73 46 47 57
REMARK Flexibility Score: inf
ROOT
ATOM      1  C   UNL A   1      35.146  30.589  27.530  1.00  0.00     0.202 C 
ENDROOT
BRANCH   1   2
ATOM      2  C   UNL A   1      34.373  29.292  27.252  1.00  0.00     0.261 C 
BRANCH   2   3
ATOM      3  O   UNL A   1      33.259  29.437  26.364  1.00  0.00    -0.463 OA
BRANCH   3   4
ATOM      4  C   UNL A   1      33.338  28.744  25.191  1.00  0.00     0.311 C 
ATOM      5  O   UNL A   1      34.375  28.477  24.603  1.00  0.00    -0.252 OA
BRANCH   4   6
ATOM      6  C   UNL A   1      31.956  28.259  24.784  1.00  0.00     0.128 C 
ATOM      7  N   UNL A   1      32.169  25.961  24.689  1.00  0.00    -0.339 N 
ATOM      8  C   UNL A   1      32.079  27.112  23.820  1.00  0.00     0.135 C 
ATOM      9  C   UNL A   1      31.659  26.252  25.962  1.00  0.00     0.223 C 
ATOM     10  C   UNL A   1      31.183  27.681  25.951  1.00  0.00     0.117 C 
ATOM     11  O   UNL A   1      31.564  25.531  26.930  1.00  0.00    -0.275 OA
BRANCH   7  12
ATOM     12  C   UNL A   1      33.031  24.826  24.326  1.00  0.00     0.082 C 
ATOM     13  C   UNL A   1      34.332  24.836  25.143  1.00  0.00     0.031 C 
BRANCH  12  14
ATOM     14  C   UNL A   1      33.326  24.717  22.820  1.00  0.00     0.025 C 
BRANCH  14  15
ATOM     15  C   UNL A   1      33.103  23.327  22.219  1.00  0.00     0.002 C 
BRANCH  15  16
ATOM     16  C   UNL A   1      32.074  22.470  22.969  1.00  0.00     0.000 C 
BRANCH  16  17
ATOM     17  C   UNL A   1      32.095  20.972  22.633  1.00  0.00    -0.000 C 
BRANCH  17  18
ATOM     18  C   UNL A   1      32.529  20.053  23.777  1.00  0.00    -0.003 C 
ATOM     19  C   UNL A   1      33.153  20.797  24.945  1.00  0.00     0.004 C 
ENDBRANCH  17  18
ENDBRANCH  16  17
ENDBRANCH  15  16
ENDBRANCH  14  15
ENDBRANCH  12  14
ENDBRANCH   7  12
ENDBRANCH   4   6
ENDBRANCH   3   4
ENDBRANCH   2   3
ENDBRANCH   1   2
BRANCH   1  20
ATOM     20  O   UNL A   1      34.577  31.863  27.280  1.00  0.00    -0.376 OA
BRANCH  20  21
ATOM     21  C   UNL A   1      33.876  32.559  28.294  1.00  0.00     0.188 C 
BRANCH  21  22
ATOM     22  C   UNL A   1      33.914  34.104  28.382  1.00  0.00     0.188 C 
BRANCH  22  23
ATOM     23  O   UNL A   1      34.637  34.669  29.442  1.00  0.00    -0.376 OA
BRANCH  23  24
ATOM     24  C   UNL A   1      34.007  34.893  30.688  1.00  0.00     0.202 C 
BRANCH  24  25
ATOM     25  C   UNL A   1      34.111  33.987  31.933  1.00  0.00     0.261 C 
BRANCH  25  26
ATOM     26  O   UNL A   1      34.677  32.677  31.789  1.00  0.00    -0.460 OA
BRANCH  26  27
ATOM     27  C   UNL A   1      35.694  32.376  32.638  1.00  0.00     0.338 C 
ATOM     28  O   UNL A   1      35.726  32.559  33.843  1.00  0.00    -0.246 OA
BRANCH  27  29
ATOM     29  C   UNL A   1      36.724  31.597  31.920  1.00  0.00     0.060 A 
ATOM     30  C   UNL A   1      37.517  30.693  32.643  1.00  0.00     0.016 A 
ATOM     31  C   UNL A   1      36.939  31.787  30.555  1.00  0.00     0.016 A 
ATOM     32  C   UNL A   1      38.543  29.990  32.006  1.00  0.00     0.010 A 
ATOM     33  C   UNL A   1      37.984  31.101  29.924  1.00  0.00     0.010 A 
ATOM     34  C   UNL A   1      38.809  30.220  30.649  1.00  0.00    -0.014 A 
BRANCH  34  35
ATOM     35  C   UNL A   1      40.053  29.694  30.029  1.00  0.00     0.031 A 
ATOM     36  C   UNL A   1      41.213  30.634  29.838  1.00  0.00     0.074 A 
ATOM     37  C   UNL A   1      40.162  28.411  29.639  1.00  0.00     0.049 A 
ATOM     38  N   UNL A   1      42.353  30.440  29.226  1.00  0.00    -0.248 NA
ATOM     39  C   UNL A   1      41.062  31.980  30.417  1.00  0.00     0.031 C 
ATOM     40  C   UNL A   1      39.139  27.381  29.808  1.00  0.00     0.029 A 
ATOM     41  N   UNL A   1      41.191  27.762  28.998  1.00  0.00    -0.354 N 
ATOM     42  C   UNL A   1      43.054  31.634  29.347  1.00  0.00     0.074 A 
ATOM     43  C   UNL A   1      42.197  32.559  30.056  1.00  0.00     0.031 C 
ATOM     44  C   UNL A   1      39.582  26.235  29.261  1.00  0.00     0.029 A 
ATOM     45  C   UNL A   1      40.901  26.458  28.671  1.00  0.00     0.049 A 
ATOM     46  H   UNL A   1      42.053  28.190  28.793  1.00  0.00     0.167 HD
ATOM     47  C   UNL A   1      44.302  31.932  28.915  1.00  0.00     0.037 A 
ATOM     48  C   UNL A   1      41.605  25.564  27.948  1.00  0.00     0.037 A 
ATOM     49  C   UNL A   1      45.153  31.020  28.195  1.00  0.00     0.049 A 
ATOM     50  C   UNL A   1      42.950  25.954  27.387  1.00  0.00     0.074 A 
ATOM     51  C   UNL A   1      46.427  31.239  27.702  1.00  0.00     0.029 A 
ATOM     52  N   UNL A   1      44.812  29.719  27.864  1.00  0.00    -0.354 N 
ATOM     53  N   UNL A   1      43.608  27.083  27.510  1.00  0.00    -0.248 NA
ATOM     54  C   UNL A   1      43.655  24.942  26.583  1.00  0.00     0.031 C 
ATOM     55  C   UNL A   1      46.841  30.083  27.031  1.00  0.00     0.029 A 
ATOM     56  C   UNL A   1      45.846  29.127  27.157  1.00  0.00     0.049 A 
ATOM     57  H   UNL A   1      43.962  29.280  28.096  1.00  0.00     0.167 HD
ATOM     58  C   UNL A   1      44.812  26.900  26.838  1.00  0.00     0.074 A 
ATOM     59  C   UNL A   1      44.802  25.551  26.319  1.00  0.00     0.031 C 
ATOM     60  C   UNL A   1      45.835  27.773  26.666  1.00  0.00     0.037 A 
BRANCH  47  61
ATOM     61  C   UNL A   1      44.822  33.310  29.202  1.00  0.00     0.057 A 
ATOM     62  C   UNL A   1      44.665  34.361  28.288  1.00  0.00     0.134 A 
ATOM     63  C   UNL A   1      45.449  33.601  30.420  1.00  0.00     0.134 A 
ATOM     64  F   UNL A   1      44.086  34.146  27.097  1.00  0.00    -0.206 F 
ATOM     65  C   UNL A   1      45.130  35.647  28.569  1.00  0.00     0.040 A 
ATOM     66  C   UNL A   1      45.893  34.890  30.722  1.00  0.00     0.040 A 
ATOM     67  F   UNL A   1      45.628  32.643  31.340  1.00  0.00    -0.206 F 
ATOM     68  C   UNL A   1      45.738  35.916  29.793  1.00  0.00     0.006 A 
ENDBRANCH  47  61
BRANCH  48  69
ATOM     69  C   UNL A   1      41.050  24.212  27.669  1.00  0.00     0.057 A 
ATOM     70  C   UNL A   1      41.535  23.076  28.329  1.00  0.00     0.134 A 
ATOM     71  C   UNL A   1      40.072  24.014  26.685  1.00  0.00     0.134 A 
ATOM     72  F   UNL A   1      42.494  23.193  29.258  1.00  0.00    -0.206 F 
ATOM     73  C   UNL A   1      41.095  21.792  27.997  1.00  0.00     0.040 A 
ATOM     74  C   UNL A   1      39.601  22.740  26.367  1.00  0.00     0.040 A 
ATOM     75  F   UNL A   1      39.568  25.058  26.012  1.00  0.00    -0.206 F 
ATOM     76  C   UNL A   1      40.122  21.623  27.015  1.00  0.00     0.006 A 
ENDBRANCH  48  69
BRANCH  60  77
ATOM     77  C   UNL A   1      47.055  27.280  25.938  1.00  0.00     0.057 A 
ATOM     78  C   UNL A   1      48.105  26.631  26.597  1.00  0.00     0.134 A 
ATOM     79  C   UNL A   1      47.156  27.422  24.546  1.00  0.00     0.134 A 
ATOM     80  F   UNL A   1      48.077  26.470  27.929  1.00  0.00    -0.206 F 
ATOM     81  C   UNL A   1      49.225  26.165  25.905  1.00  0.00     0.040 A 
ATOM     82  C   UNL A   1      48.256  26.934  23.839  1.00  0.00     0.040 A 
ATOM     83  F   UNL A   1      46.180  28.023  23.850  1.00  0.00    -0.206 F 
ATOM     84  C   UNL A   1      49.299  26.310  24.521  1.00  0.00     0.006 A 
ENDBRANCH  60  77
ENDBRANCH  34  35
ENDBRANCH  27  29
ENDBRANCH  26  27
ENDBRANCH  25  26
ENDBRANCH  24  25
ENDBRANCH  23  24
ENDBRANCH  22  23
ENDBRANCH  21  22
ENDBRANCH  20  21
ENDBRANCH   1  20
TORSDOF 23
ENDMDL
MODEL 2
REMARK VINA RESULT:      -9.2      4.534      9.944
REMARK SMILES CCCCCC[C@@H](C)N1C[C@H](C(=O)OCCOCCOCCOC(=O)c2ccc(-c3c4nc(c(-c5c(F)cccc5F)c5ccc([nH]5)c(-c5c(F)cccc5F)c5nc(c(-c6c(F)cccc6F)c6ccc3[nH]6)C=C5)C=C4)cc2)CC1=O
REMARK SMILES IDX 16 1 15 2 14 3 12 4 13 5 11 6 9 7 10 8 81 9 80 10 82 11 7 12
REMARK SMILES IDX 8 13 6 14 5 15 4 16 3 17 2 18 1 19 17 20 18 21 19 22 20 23
REMARK SMILES IDX 21 24 22 25 23 26 24 27 25 28 26 29 27 30 79 31 28 32 78 33
REMARK SMILES IDX 29 34 30 35 31 36 72 37 32 38 77 39 71 40 73 41 33 42 76 43
REMARK SMILES IDX 70 44 69 45 34 47 60 48 43 49 59 50 44 51 47 52 58 53 74 54
REMARK SMILES IDX 45 55 46 56 57 58 75 59 48 60 35 61 36 62 41 63 37 64 38 65
REMARK SMILES IDX 40 66 42 67 39 68 61 69 62 70 67 71 63 72 64 73 66 74 68 75
REMARK SMILES IDX 65 76 49 77 50 78 55 79 51 80 52 81 54 82 56 83 53 84
REMARK H PARENT 73 46 47 57
REMARK Flexibility Score: inf
ROOT
ATOM      1  C   UNL A   1      36.499  21.053  25.009  1.00  0.00     0.202 C 
ENDROOT
BRANCH   1   2
ATOM      2  C   UNL A   1      35.380  21.773  25.775  1.00  0.00     0.261 C 
BRANCH   2   3
ATOM      3  O   UNL A   1      34.640  22.723  25.002  1.00  0.00    -0.463 OA
BRANCH   3   4
ATOM      4  C   UNL A   1      33.497  23.197  25.578  1.00  0.00     0.311 C 
ATOM      5  O   UNL A   1      33.434  23.732  26.674  1.00  0.00    -0.252 OA
BRANCH   4   6
ATOM      6  C   UNL A   1      32.335  23.061  24.607  1.00  0.00     0.128 C 
ATOM      7  N   UNL A   1      32.121  25.166  23.682  1.00  0.00    -0.339 N 
ATOM      8  C   UNL A   1      31.485  24.299  24.647  1.00  0.00     0.135 C 
ATOM      9  C   UNL A   1      32.914  24.429  22.791  1.00  0.00     0.223 C 
ATOM     10  C   UNL A   1      32.796  22.976  23.167  1.00  0.00     0.117 C 
ATOM     11  O   UNL A   1      33.575  24.819  21.855  1.00  0.00    -0.275 OA
BRANCH   7  12
ATOM     12  C   UNL A   1      32.179  26.617  23.916  1.00  0.00     0.082 C 
ATOM     13  C   UNL A   1      33.060  26.947  25.130  1.00  0.00     0.031 C 
BRANCH  12  14
ATOM     14  C   UNL A   1      30.801  27.291  24.036  1.00  0.00     0.025 C 
BRANCH  14  15
ATOM     15  C   UNL A   1      30.836  28.819  24.122  1.00  0.00     0.002 C 
BRANCH  15  16
ATOM     16  C   UNL A   1      30.165  29.536  22.944  1.00  0.00     0.000 C 
BRANCH  16  17
ATOM     17  C   UNL A   1      28.815  30.196  23.258  1.00  0.00    -0.000 C 
BRANCH  17  18
ATOM     18  C   UNL A   1      28.898  31.630  23.786  1.00  0.00    -0.003 C 
ATOM     19  C   UNL A   1      28.563  32.678  22.738  1.00  0.00     0.004 C 
ENDBRANCH  17  18
ENDBRANCH  16  17
ENDBRANCH  15  16
ENDBRANCH  14  15
ENDBRANCH  12  14
ENDBRANCH   7  12
ENDBRANCH   4   6
ENDBRANCH   3   4
ENDBRANCH   2   3
ENDBRANCH   1   2
BRANCH   1  20
ATOM     20  O   UNL A   1      37.785  21.628  24.853  1.00  0.00    -0.376 OA
BRANCH  20  21
ATOM     21  C   UNL A   1      38.683  21.708  25.945  1.00  0.00     0.188 C 
BRANCH  21  22
ATOM     22  C   UNL A   1      39.944  20.814  26.015  1.00  0.00     0.188 C 
BRANCH  22  23
ATOM     23  O   UNL A   1      41.147  21.429  26.390  1.00  0.00    -0.376 OA
BRANCH  23  24
ATOM     24  C   UNL A   1      42.374  20.745  26.220  1.00  0.00     0.202 C 
BRANCH  24  25
ATOM     25  C   UNL A   1      43.691  21.361  25.704  1.00  0.00     0.261 C 
BRANCH  25  26
ATOM     26  O   UNL A   1      44.200  22.540  26.342  1.00  0.00    -0.460 OA
BRANCH  26  27
ATOM     27  C   UNL A   1      44.077  23.694  25.636  1.00  0.00     0.338 C 
ATOM     28  O   UNL A   1      44.329  23.866  24.456  1.00  0.00    -0.246 OA
BRANCH  27  29
ATOM     29  C   UNL A   1      43.396  24.711  26.464  1.00  0.00     0.060 A 
ATOM     30  C   UNL A   1      43.897  26.021  26.476  1.00  0.00     0.016 A 
ATOM     31  C   UNL A   1      42.301  24.368  27.257  1.00  0.00     0.016 A 
ATOM     32  C   UNL A   1      43.315  26.990  27.299  1.00  0.00     0.010 A 
ATOM     33  C   UNL A   1      41.736  25.332  28.100  1.00  0.00     0.010 A 
ATOM     34  C   UNL A   1      42.256  26.641  28.148  1.00  0.00    -0.014 A 
BRANCH  34  35
ATOM     35  C   UNL A   1      41.809  27.574  29.214  1.00  0.00     0.031 A 
ATOM     36  C   UNL A   1      42.520  27.540  30.541  1.00  0.00     0.074 A 
ATOM     37  C   UNL A   1      40.795  28.438  29.022  1.00  0.00     0.049 A 
ATOM     38  N   UNL A   1      42.245  28.175  31.652  1.00  0.00    -0.248 NA
ATOM     39  C   UNL A   1      43.704  26.669  30.622  1.00  0.00     0.031 C 
ATOM     40  C   UNL A   1      40.053  28.612  27.775  1.00  0.00     0.029 A 
ATOM     41  N   UNL A   1      40.204  29.322  29.893  1.00  0.00    -0.354 N 
ATOM     42  C   UNL A   1      43.219  27.781  32.561  1.00  0.00     0.074 A 
ATOM     43  C   UNL A   1      44.069  26.825  31.886  1.00  0.00     0.031 C 
ATOM     44  C   UNL A   1      39.088  29.528  27.970  1.00  0.00     0.029 A 
ATOM     45  C   UNL A   1      39.119  29.977  29.361  1.00  0.00     0.049 A 
ATOM     46  H   UNL A   1      40.527  29.472  30.811  1.00  0.00     0.167 HD
ATOM     47  C   UNL A   1      43.398  28.185  33.842  1.00  0.00     0.037 A 
ATOM     48  C   UNL A   1      38.235  30.813  29.942  1.00  0.00     0.037 A 
ATOM     49  C   UNL A   1      42.545  29.125  34.524  1.00  0.00     0.049 A 
ATOM     50  C   UNL A   1      38.393  31.167  31.400  1.00  0.00     0.074 A 
ATOM     51  C   UNL A   1      42.636  29.582  35.827  1.00  0.00     0.029 A 
ATOM     52  N   UNL A   1      41.444  29.746  33.957  1.00  0.00    -0.354 N 
ATOM     53  N   UNL A   1      39.320  30.796  32.251  1.00  0.00    -0.248 NA
ATOM     54  C   UNL A   1      37.378  32.062  31.981  1.00  0.00     0.031 C 
ATOM     55  C   UNL A   1      41.562  30.446  36.063  1.00  0.00     0.029 A 
ATOM     56  C   UNL A   1      40.837  30.571  34.889  1.00  0.00     0.049 A 
ATOM     57  H   UNL A   1      41.139  29.620  33.029  1.00  0.00     0.167 HD
ATOM     58  C   UNL A   1      39.022  31.440  33.448  1.00  0.00     0.074 A 
ATOM     59  C   UNL A   1      37.838  32.236  33.212  1.00  0.00     0.031 C 
ATOM     60  C   UNL A   1      39.671  31.378  34.636  1.00  0.00     0.037 A 
BRANCH  47  61
ATOM     61  C   UNL A   1      44.557  27.603  34.595  1.00  0.00     0.057 A 
ATOM     62  C   UNL A   1      44.447  26.395  35.295  1.00  0.00     0.134 A 
ATOM     63  C   UNL A   1      45.807  28.235  34.589  1.00  0.00     0.134 A 
ATOM     64  F   UNL A   1      43.274  25.746  35.354  1.00  0.00    -0.206 F 
ATOM     65  C   UNL A   1      45.534  25.845  35.976  1.00  0.00     0.040 A 
ATOM     66  C   UNL A   1      46.908  27.680  35.243  1.00  0.00     0.040 A 
ATOM     67  F   UNL A   1      45.981  29.393  33.935  1.00  0.00    -0.206 F 
ATOM     68  C   UNL A   1      46.772  26.484  35.944  1.00  0.00     0.006 A 
ENDBRANCH  47  61
BRANCH  48  69
ATOM     69  C   UNL A   1      37.087  31.358  29.167  1.00  0.00     0.057 A 
ATOM     70  C   UNL A   1      37.089  32.675  28.692  1.00  0.00     0.134 A 
ATOM     71  C   UNL A   1      35.931  30.598  28.946  1.00  0.00     0.134 A 
ATOM     72  F   UNL A   1      38.153  33.465  28.898  1.00  0.00    -0.206 F 
ATOM     73  C   UNL A   1      35.975  33.227  28.057  1.00  0.00     0.040 A 
ATOM     74  C   UNL A   1      34.822  31.127  28.285  1.00  0.00     0.040 A 
ATOM     75  F   UNL A   1      35.860  29.331  29.380  1.00  0.00    -0.206 F 
ATOM     76  C   UNL A   1      34.837  32.450  27.849  1.00  0.00     0.006 A 
ENDBRANCH  48  69
BRANCH  60  77
ATOM     77  C   UNL A   1      39.155  32.237  35.756  1.00  0.00     0.057 A 
ATOM     78  C   UNL A   1      39.536  33.577  35.905  1.00  0.00     0.134 A 
ATOM     79  C   UNL A   1      38.228  31.725  36.675  1.00  0.00     0.134 A 
ATOM     80  F   UNL A   1      40.427  34.128  35.067  1.00  0.00    -0.206 F 
ATOM     81  C   UNL A   1      39.036  34.367  36.943  1.00  0.00     0.040 A 
ATOM     82  C   UNL A   1      37.698  32.513  37.698  1.00  0.00     0.040 A 
ATOM     83  F   UNL A   1      37.810  30.453  36.583  1.00  0.00    -0.206 F 
ATOM     84  C   UNL A   1      38.109  33.836  37.838  1.00  0.00     0.006 A 
ENDBRANCH  60  77
ENDBRANCH  34  35
ENDBRANCH  27  29
ENDBRANCH  26  27
ENDBRANCH  25  26
ENDBRANCH  24  25
ENDBRANCH  23  24
ENDBRANCH  22  23
ENDBRANCH  21  22
ENDBRANCH  20  21
ENDBRANCH   1  20
TORSDOF 23
ENDMDL
MODEL 3
REMARK VINA RESULT:      -9.0      1.557      3.213
REMARK SMILES CCCCCC[C@@H](C)N1C[C@H](C(=O)OCCOCCOCCOC(=O)c2ccc(-c3c4nc(c(-c5c(F)cccc5F)c5ccc([nH]5)c(-c5c(F)cccc5F)c5nc(c(-c6c(F)cccc6F)c6ccc3[nH]6)C=C5)C=C4)cc2)CC1=O
REMARK SMILES IDX 16 1 15 2 14 3 12 4 13 5 11 6 9 7 10 8 81 9 80 10 82 11 7 12
REMARK SMILES IDX 8 13 6 14 5 15 4 16 3 17 2 18 1 19 17 20 18 21 19 22 20 23
REMARK SMILES IDX 21 24 22 25 23 26 24 27 25 28 26 29 27 30 79 31 28 32 78 33
REMARK SMILES IDX 29 34 30 35 31 36 72 37 32 38 77 39 71 40 73 41 33 42 76 43
REMARK SMILES IDX 70 44 69 45 34 47 60 48 43 49 59 50 44 51 47 52 58 53 74 54
REMARK SMILES IDX 45 55 46 56 57 58 75 59 48 60 35 61 36 62 41 63 37 64 38 65
REMARK SMILES IDX 40 66 42 67 39 68 61 69 62 70 67 71 63 72 64 73 66 74 68 75
REMARK SMILES IDX 65 76 49 77 50 78 55 79 51 80 52 81 54 82 56 83 53 84
REMARK H PARENT 73 46 47 57
REMARK Flexibility Score: inf
ROOT
ATOM      1  C   UNL A   1      35.387  30.583  27.536  1.00  0.00     0.202 C 
ENDROOT
BRANCH   1   2
ATOM      2  C   UNL A   1      34.870  29.140  27.631  1.00  0.00     0.261 C 
BRANCH   2   3
ATOM      3  O   UNL A   1      34.020  28.737  26.552  1.00  0.00    -0.463 OA
BRANCH   3   4
ATOM      4  C   UNL A   1      32.783  28.282  26.907  1.00  0.00     0.311 C 
ATOM      5  O   UNL A   1      31.915  28.957  27.440  1.00  0.00    -0.252 OA
BRANCH   4   6
ATOM      6  C   UNL A   1      32.607  26.846  26.443  1.00  0.00     0.128 C 
ATOM      7  N   UNL A   1      31.593  27.040  24.377  1.00  0.00    -0.339 N 
ATOM      8  C   UNL A   1      31.286  26.690  25.745  1.00  0.00     0.135 C 
ATOM      9  C   UNL A   1      32.967  26.923  24.125  1.00  0.00     0.223 C 
ATOM     10  C   UNL A   1      33.628  26.452  25.394  1.00  0.00     0.117 C 
ATOM     11  O   UNL A   1      33.576  27.121  23.097  1.00  0.00    -0.275 OA
BRANCH   7  12
ATOM     12  C   UNL A   1      30.609  27.768  23.560  1.00  0.00     0.082 C 
ATOM     13  C   UNL A   1      30.793  27.459  22.067  1.00  0.00     0.031 C 
BRANCH  12  14
ATOM     14  C   UNL A   1      30.584  29.285  23.811  1.00  0.00     0.025 C 
BRANCH  14  15
ATOM     15  C   UNL A   1      29.186  29.904  23.877  1.00  0.00     0.002 C 
BRANCH  15  16
ATOM     16  C   UNL A   1      29.158  31.428  23.693  1.00  0.00     0.000 C 
BRANCH  16  17
ATOM     17  C   UNL A   1      28.154  31.946  22.655  1.00  0.00    -0.000 C 
BRANCH  17  18
ATOM     18  C   UNL A   1      28.605  31.830  21.197  1.00  0.00    -0.003 C 
ATOM     19  C   UNL A   1      27.684  32.547  20.223  1.00  0.00     0.004 C 
ENDBRANCH  17  18
ENDBRANCH  16  17
ENDBRANCH  15  16
ENDBRANCH  14  15
ENDBRANCH  12  14
ENDBRANCH   7  12
ENDBRANCH   4   6
ENDBRANCH   3   4
ENDBRANCH   2   3
ENDBRANCH   1   2
BRANCH   1  20
ATOM     20  O   UNL A   1      34.509  31.679  27.344  1.00  0.00    -0.376 OA
BRANCH  20  21
ATOM     21  C   UNL A   1      34.047  32.442  28.443  1.00  0.00     0.188 C 
BRANCH  21  22
ATOM     22  C   UNL A   1      34.351  33.955  28.554  1.00  0.00     0.188 C 
BRANCH  22  23
ATOM     23  O   UNL A   1      35.069  34.384  29.680  1.00  0.00    -0.376 OA
BRANCH  23  24
ATOM     24  C   UNL A   1      34.383  34.714  30.872  1.00  0.00     0.202 C 
BRANCH  24  25
ATOM     25  C   UNL A   1      34.071  33.748  32.035  1.00  0.00     0.261 C 
BRANCH  25  26
ATOM     26  O   UNL A   1      34.687  32.453  32.043  1.00  0.00    -0.460 OA
BRANCH  26  27
ATOM     27  C   UNL A   1      35.800  32.333  32.813  1.00  0.00     0.338 C 
ATOM     28  O   UNL A   1      35.928  32.669  33.978  1.00  0.00    -0.246 OA
BRANCH  27  29
ATOM     29  C   UNL A   1      36.818  31.541  32.092  1.00  0.00     0.060 A 
ATOM     30  C   UNL A   1      37.705  30.745  32.831  1.00  0.00     0.016 A 
ATOM     31  C   UNL A   1      36.928  31.617  30.704  1.00  0.00     0.016 A 
ATOM     32  C   UNL A   1      38.721  30.036  32.184  1.00  0.00     0.010 A 
ATOM     33  C   UNL A   1      37.962  30.927  30.060  1.00  0.00     0.010 A 
ATOM     34  C   UNL A   1      38.881  30.155  30.797  1.00  0.00    -0.014 A 
BRANCH  34  35
ATOM     35  C   UNL A   1      40.105  29.633  30.135  1.00  0.00     0.031 A 
ATOM     36  C   UNL A   1      41.266  30.571  29.934  1.00  0.00     0.074 A 
ATOM     37  C   UNL A   1      40.197  28.357  29.718  1.00  0.00     0.049 A 
ATOM     38  N   UNL A   1      42.390  30.381  29.289  1.00  0.00    -0.248 NA
ATOM     39  C   UNL A   1      41.139  31.905  30.542  1.00  0.00     0.031 C 
ATOM     40  C   UNL A   1      39.172  27.331  29.893  1.00  0.00     0.029 A 
ATOM     41  N   UNL A   1      41.205  27.715  29.039  1.00  0.00    -0.354 N 
ATOM     42  C   UNL A   1      43.101  31.569  29.416  1.00  0.00     0.074 A 
ATOM     43  C   UNL A   1      42.268  32.485  30.165  1.00  0.00     0.031 C 
ATOM     44  C   UNL A   1      39.594  26.193  29.313  1.00  0.00     0.029 A 
ATOM     45  C   UNL A   1      40.899  26.420  28.694  1.00  0.00     0.049 A 
ATOM     46  H   UNL A   1      42.065  28.142  28.820  1.00  0.00     0.167 HD
ATOM     47  C   UNL A   1      44.340  31.868  28.959  1.00  0.00     0.037 A 
ATOM     48  C   UNL A   1      41.579  25.536  27.936  1.00  0.00     0.037 A 
ATOM     49  C   UNL A   1      45.167  30.966  28.201  1.00  0.00     0.049 A 
ATOM     50  C   UNL A   1      42.912  25.930  27.349  1.00  0.00     0.074 A 
ATOM     51  C   UNL A   1      46.430  31.186  27.680  1.00  0.00     0.029 A 
ATOM     52  N   UNL A   1      44.810  29.673  27.853  1.00  0.00    -0.354 N 
ATOM     53  N   UNL A   1      43.580  27.051  27.478  1.00  0.00    -0.248 NA
ATOM     54  C   UNL A   1      43.590  24.929  26.508  1.00  0.00     0.031 C 
ATOM     55  C   UNL A   1      46.819  30.041  26.976  1.00  0.00     0.029 A 
ATOM     56  C   UNL A   1      45.822  29.089  27.109  1.00  0.00     0.049 A 
ATOM     57  H   UNL A   1      43.963  29.235  28.097  1.00  0.00     0.167 HD
ATOM     58  C   UNL A   1      44.766  26.875  26.772  1.00  0.00     0.074 A 
ATOM     59  C   UNL A   1      44.734  25.536  26.227  1.00  0.00     0.031 C 
ATOM     60  C   UNL A   1      45.789  27.745  26.592  1.00  0.00     0.037 A 
BRANCH  47  61
ATOM     61  C   UNL A   1      44.876  33.237  29.260  1.00  0.00     0.057 A 
ATOM     62  C   UNL A   1      44.624  34.327  28.416  1.00  0.00     0.134 A 
ATOM     63  C   UNL A   1      45.615  33.478  30.424  1.00  0.00     0.134 A 
ATOM     64  F   UNL A   1      43.935  34.161  27.277  1.00  0.00    -0.206 F 
ATOM     65  C   UNL A   1      45.105  35.604  28.711  1.00  0.00     0.040 A 
ATOM     66  C   UNL A   1      46.078  34.756  30.743  1.00  0.00     0.040 A 
ATOM     67  F   UNL A   1      45.889  32.480  31.277  1.00  0.00    -0.206 F 
ATOM     68  C   UNL A   1      45.827  35.823  29.882  1.00  0.00     0.006 A 
ENDBRANCH  47  61
BRANCH  48  69
ATOM     69  C   UNL A   1      41.009  24.193  27.645  1.00  0.00     0.057 A 
ATOM     70  C   UNL A   1      41.513  23.039  28.259  1.00  0.00     0.134 A 
ATOM     71  C   UNL A   1      39.995  24.023  26.693  1.00  0.00     0.134 A 
ATOM     72  F   UNL A   1      42.504  23.131  29.156  1.00  0.00    -0.206 F 
ATOM     73  C   UNL A   1      41.055  21.766  27.913  1.00  0.00     0.040 A 
ATOM     74  C   UNL A   1      39.507  22.758  26.361  1.00  0.00     0.040 A 
ATOM     75  F   UNL A   1      39.471  25.084  26.064  1.00  0.00    -0.206 F 
ATOM     76  C   UNL A   1      40.046  21.624  26.963  1.00  0.00     0.006 A 
ENDBRANCH  48  69
BRANCH  60  77
ATOM     77  C   UNL A   1      46.987  27.259  25.824  1.00  0.00     0.057 A 
ATOM     78  C   UNL A   1      47.141  27.498  24.452  1.00  0.00     0.134 A 
ATOM     79  C   UNL A   1      48.024  26.580  26.480  1.00  0.00     0.134 A 
ATOM     80  F   UNL A   1      46.184  28.134  23.761  1.00  0.00    -0.206 F 
ATOM     81  C   UNL A   1      48.268  27.054  23.756  1.00  0.00     0.040 A 
ATOM     82  C   UNL A   1      49.168  26.158  25.801  1.00  0.00     0.040 A 
ATOM     83  F   UNL A   1      47.947  26.329  27.796  1.00  0.00    -0.206 F 
ATOM     84  C   UNL A   1      49.288  26.388  24.433  1.00  0.00     0.006 A 
ENDBRANCH  60  77
ENDBRANCH  34  35
ENDBRANCH  27  29
ENDBRANCH  26  27
ENDBRANCH  25  26
ENDBRANCH  24  25
ENDBRANCH  23  24
ENDBRANCH  22  23
ENDBRANCH  21  22
ENDBRANCH  20  21
ENDBRANCH   1  20
TORSDOF 23
ENDMDL
