MODEL 1
REMARK VINA RESULT:     -10.8      0.000      0.000
REMARK SMILES O=C(CNc1nc(-c2ccccc2)c(-c2ccccc2)s1)OCCOCCOCCOC(=O)c1ccc(-c2c3nc(c(-c4c(F)cccc4F)c4ccc([nH]4)c(-c4c(F)cccc4F)c4nc(c(-c5c(F)cccc5F)c5ccc2[nH]5)C=C4)C=C3)cc1
REMARK SMILES IDX 26 1 25 2 24 3 23 4 22 5 2 6 1 7 3 8 4 9 5 11 6 12 21 13
REMARK SMILES IDX 7 14 14 15 8 16 9 17 13 18 10 19 12 20 11 21 15 22 16 23
REMARK SMILES IDX 20 24 17 25 19 26 18 27 27 28 28 29 29 30 30 31 31 32 32 33
REMARK SMILES IDX 33 34 34 35 35 36 87 37 36 38 86 39 37 40 38 41 39 42 80 43
REMARK SMILES IDX 40 44 85 45 79 46 81 47 41 48 84 49 78 50 77 51 42 53 68 54
REMARK SMILES IDX 51 55 67 56 52 57 55 58 66 59 82 60 53 61 54 62 65 64 83 65
REMARK SMILES IDX 56 66 43 67 44 68 49 69 45 70 46 71 48 72 50 73 47 74 69 75
REMARK SMILES IDX 70 76 75 77 71 78 72 79 74 80 76 81 73 82 57 83 58 84 63 85
REMARK SMILES IDX 59 86 60 87 62 88 64 89 61 90
REMARK H PARENT 4 10 81 52 55 63
REMARK Flexibility Score: inf
ROOT
ATOM      1  C   UNL A   1      39.211  21.770  25.809  1.00  0.00     0.188 C 
ENDROOT
BRANCH   1   2
ATOM      2  O   UNL A   1      37.975  21.091  25.724  1.00  0.00    -0.376 OA
BRANCH   2   3
ATOM      3  C   UNL A   1      36.880  21.740  25.108  1.00  0.00     0.202 C 
BRANCH   3   4
ATOM      4  C   UNL A   1      35.751  22.146  26.058  1.00  0.00     0.261 C 
BRANCH   4   5
ATOM      5  O   UNL A   1      34.505  21.410  25.959  1.00  0.00    -0.462 OA
BRANCH   5   6
ATOM      6  C   UNL A   1      33.981  20.736  24.913  1.00  0.00     0.325 C 
ATOM      7  O   UNL A   1      34.080  19.509  24.879  1.00  0.00    -0.250 OA
BRANCH   6   8
ATOM      8  C   UNL A   1      33.277  21.487  23.793  1.00  0.00     0.238 C 
BRANCH   8   9
ATOM      9  N   UNL A   1      32.024  22.061  24.244  1.00  0.00    -0.351 N 
ATOM     10  H   UNL A   1      31.290  21.458  24.495  1.00  0.00     0.163 HD
BRANCH   9  11
ATOM     11  C   UNL A   1      31.828  23.389  24.329  1.00  0.00     0.184 A 
ATOM     12  N   UNL A   1      32.358  24.199  25.216  1.00  0.00    -0.220 NA
ATOM     13  S   UNL A   1      30.704  24.114  23.255  1.00  0.00    -0.096 S 
ATOM     14  C   UNL A   1      31.797  25.467  25.102  1.00  0.00     0.091 A 
ATOM     15  C   UNL A   1      30.822  25.587  24.122  1.00  0.00     0.064 A 
BRANCH  14  16
ATOM     16  C   UNL A   1      32.242  26.576  25.938  1.00  0.00     0.002 A 
ATOM     17  C   UNL A   1      31.382  27.187  26.862  1.00  0.00     0.010 A 
ATOM     18  C   UNL A   1      33.530  27.096  25.765  1.00  0.00     0.010 A 
ATOM     19  C   UNL A   1      31.784  28.330  27.558  1.00  0.00     0.001 A 
ATOM     20  C   UNL A   1      33.932  28.240  26.461  1.00  0.00     0.001 A 
ATOM     21  C   UNL A   1      33.054  28.863  27.348  1.00  0.00     0.000 A 
ENDBRANCH  14  16
BRANCH  15  22
ATOM     22  C   UNL A   1      29.990  26.710  23.707  1.00  0.00    -0.006 A 
ATOM     23  C   UNL A   1      28.596  26.645  23.846  1.00  0.00     0.009 A 
ATOM     24  C   UNL A   1      30.575  27.860  23.168  1.00  0.00     0.009 A 
ATOM     25  C   UNL A   1      27.799  27.713  23.436  1.00  0.00     0.001 A 
ATOM     26  C   UNL A   1      29.775  28.925  22.757  1.00  0.00     0.001 A 
ATOM     27  C   UNL A   1      28.388  28.850  22.887  1.00  0.00     0.000 A 
ENDBRANCH  15  22
ENDBRANCH   9  11
ENDBRANCH   8   9
ENDBRANCH   6   8
ENDBRANCH   5   6
ENDBRANCH   4   5
ENDBRANCH   3   4
ENDBRANCH   2   3
ENDBRANCH   1   2
BRANCH   1  28
ATOM     28  C   UNL A   1      40.285  20.882  26.455  1.00  0.00     0.188 C 
BRANCH  28  29
ATOM     29  O   UNL A   1      41.579  21.451  26.638  1.00  0.00    -0.376 OA
BRANCH  29  30
ATOM     30  C   UNL A   1      42.681  20.845  25.953  1.00  0.00     0.202 C 
BRANCH  30  31
ATOM     31  C   UNL A   1      43.834  21.755  25.504  1.00  0.00     0.261 C 
BRANCH  31  32
ATOM     32  O   UNL A   1      43.957  22.980  26.259  1.00  0.00    -0.460 OA
BRANCH  32  33
ATOM     33  C   UNL A   1      43.966  24.108  25.506  1.00  0.00     0.338 C 
ATOM     34  O   UNL A   1      44.494  24.266  24.419  1.00  0.00    -0.246 OA
BRANCH  33  35
ATOM     35  C   UNL A   1      43.131  25.169  26.100  1.00  0.00     0.060 A 
ATOM     36  C   UNL A   1      43.739  26.398  26.383  1.00  0.00     0.016 A 
ATOM     37  C   UNL A   1      41.862  24.875  26.601  1.00  0.00     0.016 A 
ATOM     38  C   UNL A   1      43.110  27.310  27.233  1.00  0.00     0.010 A 
ATOM     39  C   UNL A   1      41.236  25.786  27.463  1.00  0.00     0.010 A 
ATOM     40  C   UNL A   1      41.884  26.980  27.828  1.00  0.00    -0.014 A 
BRANCH  40  41
ATOM     41  C   UNL A   1      41.414  27.778  28.991  1.00  0.00     0.031 A 
ATOM     42  C   UNL A   1      42.157  27.662  30.298  1.00  0.00     0.074 A 
ATOM     43  C   UNL A   1      40.386  28.638  28.884  1.00  0.00     0.049 A 
ATOM     44  N   UNL A   1      41.962  28.297  31.426  1.00  0.00    -0.248 NA
ATOM     45  C   UNL A   1      43.272  26.701  30.335  1.00  0.00     0.031 C 
ATOM     46  C   UNL A   1      39.603  28.875  27.675  1.00  0.00     0.029 A 
ATOM     47  N   UNL A   1      39.833  29.480  29.817  1.00  0.00    -0.354 N 
ATOM     48  C   UNL A   1      42.927  27.816  32.304  1.00  0.00     0.074 A 
ATOM     49  C   UNL A   1      43.687  26.814  31.588  1.00  0.00     0.031 C 
ATOM     50  C   UNL A   1      38.667  29.804  27.939  1.00  0.00     0.029 A 
ATOM     51  C   UNL A   1      38.777  30.215  29.339  1.00  0.00     0.049 A 
ATOM     52  H   UNL A   1      40.163  29.550  30.743  1.00  0.00     0.167 HD
ATOM     53  C   UNL A   1      43.170  28.181  33.585  1.00  0.00     0.037 A 
ATOM     54  C   UNL A   1      37.991  31.114  29.961  1.00  0.00     0.037 A 
ATOM     55  C   UNL A   1      42.425  29.178  34.306  1.00  0.00     0.049 A 
ATOM     56  C   UNL A   1      38.246  31.464  31.403  1.00  0.00     0.074 A 
ATOM     57  C   UNL A   1      42.614  29.629  35.601  1.00  0.00     0.029 A 
ATOM     58  N   UNL A   1      41.342  29.875  33.793  1.00  0.00    -0.354 N 
ATOM     59  N   UNL A   1      39.186  31.032  32.208  1.00  0.00    -0.248 NA
ATOM     60  C   UNL A   1      37.331  32.437  32.021  1.00  0.00     0.031 C 
ATOM     61  C   UNL A   1      41.620  30.571  35.886  1.00  0.00     0.029 A 
ATOM     62  C   UNL A   1      40.838  30.736  34.754  1.00  0.00     0.049 A 
ATOM     63  H   UNL A   1      40.984  29.772  32.882  1.00  0.00     0.167 HD
ATOM     64  C   UNL A   1      38.999  31.705  33.410  1.00  0.00     0.074 A 
ATOM     65  C   UNL A   1      37.857  32.577  33.230  1.00  0.00     0.031 C 
ATOM     66  C   UNL A   1      39.712  31.611  34.559  1.00  0.00     0.037 A 
BRANCH  53  67
ATOM     67  C   UNL A   1      44.285  27.477  34.298  1.00  0.00     0.057 A 
ATOM     68  C   UNL A   1      44.072  26.286  35.006  1.00  0.00     0.134 A 
ATOM     69  C   UNL A   1      45.590  27.983  34.259  1.00  0.00     0.134 A 
ATOM     70  F   UNL A   1      42.841  25.758  35.091  1.00  0.00    -0.206 F 
ATOM     71  C   UNL A   1      45.114  25.636  35.668  1.00  0.00     0.040 A 
ATOM     72  C   UNL A   1      46.644  27.330  34.900  1.00  0.00     0.040 A 
ATOM     73  F   UNL A   1      45.861  29.116  33.595  1.00  0.00    -0.206 F 
ATOM     74  C   UNL A   1      46.406  26.156  35.612  1.00  0.00     0.006 A 
ENDBRANCH  53  67
BRANCH  54  75
ATOM     75  C   UNL A   1      36.882  31.768  29.222  1.00  0.00     0.057 A 
ATOM     76  C   UNL A   1      37.002  33.080  28.750  1.00  0.00     0.134 A 
ATOM     77  C   UNL A   1      35.666  31.110  29.005  1.00  0.00     0.134 A 
ATOM     78  F   UNL A   1      38.133  33.770  28.953  1.00  0.00    -0.206 F 
ATOM     79  C   UNL A   1      35.944  33.722  28.102  1.00  0.00     0.040 A 
ATOM     80  C   UNL A   1      34.608  31.732  28.340  1.00  0.00     0.040 A 
ATOM     81  F   UNL A   1      35.489  29.853  29.437  1.00  0.00    -0.206 F 
ATOM     82  C   UNL A   1      34.745  33.046  27.893  1.00  0.00     0.006 A 
ENDBRANCH  54  75
BRANCH  66  83
ATOM     83  C   UNL A   1      39.310  32.505  35.695  1.00  0.00     0.057 A 
ATOM     84  C   UNL A   1      38.415  32.086  36.687  1.00  0.00     0.134 A 
ATOM     85  C   UNL A   1      39.856  33.789  35.816  1.00  0.00     0.134 A 
ATOM     86  F   UNL A   1      37.849  30.871  36.622  1.00  0.00    -0.206 F 
ATOM     87  C   UNL A   1      38.058  32.922  37.747  1.00  0.00     0.040 A 
ATOM     88  C   UNL A   1      39.524  34.626  36.883  1.00  0.00     0.040 A 
ATOM     89  F   UNL A   1      40.726  34.249  34.904  1.00  0.00    -0.206 F 
ATOM     90  C   UNL A   1      38.618  34.195  37.850  1.00  0.00     0.006 A 
ENDBRANCH  66  83
ENDBRANCH  40  41
ENDBRANCH  33  35
ENDBRANCH  32  33
ENDBRANCH  31  32
ENDBRANCH  30  31
ENDBRANCH  29  30
ENDBRANCH  28  29
ENDBRANCH   1  28
TORSDOF 21
ENDMDL
MODEL 2
REMARK VINA RESULT:     -10.8      3.585      4.850
REMARK SMILES O=C(CNc1nc(-c2ccccc2)c(-c2ccccc2)s1)OCCOCCOCCOC(=O)c1ccc(-c2c3nc(c(-c4c(F)cccc4F)c4ccc([nH]4)c(-c4c(F)cccc4F)c4nc(c(-c5c(F)cccc5F)c5ccc2[nH]5)C=C4)C=C3)cc1
REMARK SMILES IDX 26 1 25 2 24 3 23 4 22 5 2 6 1 7 3 8 4 9 5 11 6 12 21 13
REMARK SMILES IDX 7 14 14 15 8 16 9 17 13 18 10 19 12 20 11 21 15 22 16 23
REMARK SMILES IDX 20 24 17 25 19 26 18 27 27 28 28 29 29 30 30 31 31 32 32 33
REMARK SMILES IDX 33 34 34 35 35 36 87 37 36 38 86 39 37 40 38 41 39 42 80 43
REMARK SMILES IDX 40 44 85 45 79 46 81 47 41 48 84 49 78 50 77 51 42 53 68 54
REMARK SMILES IDX 51 55 67 56 52 57 55 58 66 59 82 60 53 61 54 62 65 64 83 65
REMARK SMILES IDX 56 66 43 67 44 68 49 69 45 70 46 71 48 72 50 73 47 74 69 75
REMARK SMILES IDX 70 76 75 77 71 78 72 79 74 80 76 81 73 82 57 83 58 84 63 85
REMARK SMILES IDX 59 86 60 87 62 88 64 89 61 90
REMARK H PARENT 4 10 81 52 55 63
REMARK Flexibility Score: inf
ROOT
ATOM      1  C   UNL A   1      35.221  23.224  26.272  1.00  0.00     0.188 C 
ENDROOT
BRANCH   1   2
ATOM      2  O   UNL A   1      33.830  23.437  26.392  1.00  0.00    -0.376 OA
BRANCH   2   3
ATOM      3  C   UNL A   1      32.993  22.339  26.697  1.00  0.00     0.202 C 
BRANCH   3   4
ATOM      4  C   UNL A   1      31.678  22.291  25.919  1.00  0.00     0.261 C 
BRANCH   4   5
ATOM      5  O   UNL A   1      31.733  22.604  24.504  1.00  0.00    -0.462 OA
BRANCH   5   6
ATOM      6  C   UNL A   1      32.388  21.973  23.505  1.00  0.00     0.325 C 
ATOM      7  O   UNL A   1      32.544  20.753  23.568  1.00  0.00    -0.250 OA
BRANCH   6   8
ATOM      8  C   UNL A   1      32.922  22.763  22.320  1.00  0.00     0.238 C 
BRANCH   8   9
ATOM      9  N   UNL A   1      33.680  23.920  22.750  1.00  0.00    -0.351 N 
ATOM     10  H   UNL A   1      34.661  23.853  22.798  1.00  0.00     0.163 HD
BRANCH   9  11
ATOM     11  C   UNL A   1      33.095  25.083  23.086  1.00  0.00     0.184 A 
ATOM     12  N   UNL A   1      33.335  25.792  24.165  1.00  0.00    -0.220 NA
ATOM     13  S   UNL A   1      31.837  25.679  22.083  1.00  0.00    -0.096 S 
ATOM     14  C   UNL A   1      32.425  26.840  24.261  1.00  0.00     0.091 A 
ATOM     15  C   UNL A   1      31.487  26.894  23.240  1.00  0.00     0.064 A 
BRANCH  14  16
ATOM     16  C   UNL A   1      32.496  27.816  25.343  1.00  0.00     0.002 A 
ATOM     17  C   UNL A   1      31.699  27.694  26.490  1.00  0.00     0.010 A 
ATOM     18  C   UNL A   1      33.320  28.940  25.206  1.00  0.00     0.010 A 
ATOM     19  C   UNL A   1      31.685  28.706  27.455  1.00  0.00     0.001 A 
ATOM     20  C   UNL A   1      33.304  29.951  26.170  1.00  0.00     0.001 A 
ATOM     21  C   UNL A   1      32.478  29.839  27.288  1.00  0.00     0.000 A 
ENDBRANCH  14  16
BRANCH  15  22
ATOM     22  C   UNL A   1      30.371  27.796  22.988  1.00  0.00    -0.006 A 
ATOM     23  C   UNL A   1      30.587  29.027  22.352  1.00  0.00     0.009 A 
ATOM     24  C   UNL A   1      29.075  27.443  23.378  1.00  0.00     0.009 A 
ATOM     25  C   UNL A   1      29.522  29.897  22.122  1.00  0.00     0.001 A 
ATOM     26  C   UNL A   1      28.012  28.316  23.150  1.00  0.00     0.001 A 
ATOM     27  C   UNL A   1      28.237  29.543  22.527  1.00  0.00     0.000 A 
ENDBRANCH  15  22
ENDBRANCH   9  11
ENDBRANCH   8   9
ENDBRANCH   6   8
ENDBRANCH   5   6
ENDBRANCH   4   5
ENDBRANCH   3   4
ENDBRANCH   2   3
ENDBRANCH   1   2
BRANCH   1  28
ATOM     28  C   UNL A   1      35.519  22.010  25.379  1.00  0.00     0.188 C 
BRANCH  28  29
ATOM     29  O   UNL A   1      36.874  21.573  25.302  1.00  0.00    -0.376 OA
BRANCH  29  30
ATOM     30  C   UNL A   1      37.120  20.227  24.880  1.00  0.00     0.202 C 
BRANCH  30  31
ATOM     31  C   UNL A   1      38.549  19.682  25.022  1.00  0.00     0.261 C 
BRANCH  31  32
ATOM     32  O   UNL A   1      39.342  20.341  26.033  1.00  0.00    -0.460 OA
BRANCH  32  33
ATOM     33  C   UNL A   1      40.644  19.962  26.066  1.00  0.00     0.338 C 
ATOM     34  O   UNL A   1      41.126  18.938  25.613  1.00  0.00    -0.246 OA
BRANCH  33  35
ATOM     35  C   UNL A   1      41.507  21.015  26.633  1.00  0.00     0.060 A 
ATOM     36  C   UNL A   1      41.442  21.241  28.013  1.00  0.00     0.016 A 
ATOM     37  C   UNL A   1      42.160  21.923  25.796  1.00  0.00     0.016 A 
ATOM     38  C   UNL A   1      41.967  22.416  28.554  1.00  0.00     0.010 A 
ATOM     39  C   UNL A   1      42.676  23.107  26.339  1.00  0.00     0.010 A 
ATOM     40  C   UNL A   1      42.529  23.384  27.711  1.00  0.00    -0.014 A 
BRANCH  40  41
ATOM     41  C   UNL A   1      42.742  24.758  28.238  1.00  0.00     0.031 A 
ATOM     42  C   UNL A   1      44.143  25.188  28.593  1.00  0.00     0.074 A 
ATOM     43  C   UNL A   1      41.730  25.636  28.345  1.00  0.00     0.049 A 
ATOM     44  N   UNL A   1      44.576  26.348  29.018  1.00  0.00    -0.248 NA
ATOM     45  C   UNL A   1      45.198  24.171  28.447  1.00  0.00     0.031 C 
ATOM     46  C   UNL A   1      40.335  25.365  28.005  1.00  0.00     0.029 A 
ATOM     47  N   UNL A   1      41.729  26.942  28.767  1.00  0.00    -0.354 N 
ATOM     48  C   UNL A   1      45.948  26.203  29.187  1.00  0.00     0.074 A 
ATOM     49  C   UNL A   1      46.273  24.833  28.849  1.00  0.00     0.031 C 
ATOM     50  C   UNL A   1      39.611  26.476  28.232  1.00  0.00     0.029 A 
ATOM     51  C   UNL A   1      40.488  27.528  28.746  1.00  0.00     0.049 A 
ATOM     52  H   UNL A   1      42.543  27.415  29.058  1.00  0.00     0.167 HD
ATOM     53  C   UNL A   1      46.860  27.124  29.576  1.00  0.00     0.037 A 
ATOM     54  C   UNL A   1      40.105  28.769  29.102  1.00  0.00     0.037 A 
ATOM     55  C   UNL A   1      46.552  28.489  29.911  1.00  0.00     0.049 A 
ATOM     56  C   UNL A   1      41.130  29.761  29.584  1.00  0.00     0.074 A 
ATOM     57  C   UNL A   1      47.415  29.501  30.295  1.00  0.00     0.029 A 
ATOM     58  N   UNL A   1      45.276  29.031  29.908  1.00  0.00    -0.354 N 
ATOM     59  N   UNL A   1      42.428  29.622  29.700  1.00  0.00    -0.248 NA
ATOM     60  C   UNL A   1      40.633  31.089  29.977  1.00  0.00     0.031 C 
ATOM     61  C   UNL A   1      46.656  30.645  30.562  1.00  0.00     0.029 A 
ATOM     62  C   UNL A   1      45.326  30.357  30.304  1.00  0.00     0.049 A 
ATOM     63  H   UNL A   1      44.456  28.545  29.661  1.00  0.00     0.167 HD
ATOM     64  C   UNL A   1      42.905  30.851  30.142  1.00  0.00     0.074 A 
ATOM     65  C   UNL A   1      41.759  31.725  30.271  1.00  0.00     0.031 C 
ATOM     66  C   UNL A   1      44.181  31.222  30.414  1.00  0.00     0.037 A 
BRANCH  53  67
ATOM     67  C   UNL A   1      48.287  26.675  29.679  1.00  0.00     0.057 A 
ATOM     68  C   UNL A   1      48.785  26.061  30.836  1.00  0.00     0.134 A 
ATOM     69  C   UNL A   1      49.167  26.839  28.603  1.00  0.00     0.134 A 
ATOM     70  F   UNL A   1      47.995  25.888  31.907  1.00  0.00    -0.206 F 
ATOM     71  C   UNL A   1      50.114  25.647  30.926  1.00  0.00     0.040 A 
ATOM     72  C   UNL A   1      50.493  26.409  28.674  1.00  0.00     0.040 A 
ATOM     73  F   UNL A   1      48.751  27.417  27.466  1.00  0.00    -0.206 F 
ATOM     74  C   UNL A   1      50.972  25.816  29.840  1.00  0.00     0.006 A 
ENDBRANCH  53  67
BRANCH  54  75
ATOM     75  C   UNL A   1      38.677  29.162  29.008  1.00  0.00     0.057 A 
ATOM     76  C   UNL A   1      37.829  29.078  30.117  1.00  0.00     0.134 A 
ATOM     77  C   UNL A   1      38.121  29.594  27.798  1.00  0.00     0.134 A 
ATOM     78  F   UNL A   1      38.300  28.644  31.296  1.00  0.00    -0.206 F 
ATOM     79  C   UNL A   1      36.472  29.394  30.025  1.00  0.00     0.040 A 
ATOM     80  C   UNL A   1      36.771  29.934  27.696  1.00  0.00     0.040 A 
ATOM     81  F   UNL A   1      38.882  29.691  26.699  1.00  0.00    -0.206 F 
ATOM     82  C   UNL A   1      35.941  29.826  28.812  1.00  0.00     0.006 A 
ENDBRANCH  54  75
BRANCH  66  83
ATOM     83  C   UNL A   1      44.411  32.645  30.830  1.00  0.00     0.057 A 
ATOM     84  C   UNL A   1      44.428  33.029  32.177  1.00  0.00     0.134 A 
ATOM     85  C   UNL A   1      44.656  33.636  29.872  1.00  0.00     0.134 A 
ATOM     86  F   UNL A   1      44.189  32.129  33.143  1.00  0.00    -0.206 F 
ATOM     87  C   UNL A   1      44.656  34.354  32.554  1.00  0.00     0.040 A 
ATOM     88  C   UNL A   1      44.907  34.959  30.238  1.00  0.00     0.040 A 
ATOM     89  F   UNL A   1      44.663  33.333  28.565  1.00  0.00    -0.206 F 
ATOM     90  C   UNL A   1      44.902  35.323  31.583  1.00  0.00     0.006 A 
ENDBRANCH  66  83
ENDBRANCH  40  41
ENDBRANCH  33  35
ENDBRANCH  32  33
ENDBRANCH  31  32
ENDBRANCH  30  31
ENDBRANCH  29  30
ENDBRANCH  28  29
ENDBRANCH   1  28
TORSDOF 21
ENDMDL
MODEL 3
REMARK VINA RESULT:     -10.7      3.687      5.331
REMARK SMILES O=C(CNc1nc(-c2ccccc2)c(-c2ccccc2)s1)OCCOCCOCCOC(=O)c1ccc(-c2c3nc(c(-c4c(F)cccc4F)c4ccc([nH]4)c(-c4c(F)cccc4F)c4nc(c(-c5c(F)cccc5F)c5ccc2[nH]5)C=C4)C=C3)cc1
REMARK SMILES IDX 26 1 25 2 24 3 23 4 22 5 2 6 1 7 3 8 4 9 5 11 6 12 21 13
REMARK SMILES IDX 7 14 14 15 8 16 9 17 13 18 10 19 12 20 11 21 15 22 16 23
REMARK SMILES IDX 20 24 17 25 19 26 18 27 27 28 28 29 29 30 30 31 31 32 32 33
REMARK SMILES IDX 33 34 34 35 35 36 87 37 36 38 86 39 37 40 38 41 39 42 80 43
REMARK SMILES IDX 40 44 85 45 79 46 81 47 41 48 84 49 78 50 77 51 42 53 68 54
REMARK SMILES IDX 51 55 67 56 52 57 55 58 66 59 82 60 53 61 54 62 65 64 83 65
REMARK SMILES IDX 56 66 43 67 44 68 49 69 45 70 46 71 48 72 50 73 47 74 69 75
REMARK SMILES IDX 70 76 75 77 71 78 72 79 74 80 76 81 73 82 57 83 58 84 63 85
REMARK SMILES IDX 59 86 60 87 62 88 64 89 61 90
REMARK H PARENT 4 10 81 52 55 63
REMARK Flexibility Score: inf
ROOT
ATOM      1  C   UNL A   1      34.510  23.199  26.527  1.00  0.00     0.188 C 
ENDROOT
BRANCH   1   2
ATOM      2  O   UNL A   1      33.306  22.649  27.020  1.00  0.00    -0.376 OA
BRANCH   2   3
ATOM      3  C   UNL A   1      32.109  22.870  26.301  1.00  0.00     0.202 C 
BRANCH   3   4
ATOM      4  C   UNL A   1      31.789  21.818  25.237  1.00  0.00     0.261 C 
BRANCH   4   5
ATOM      5  O   UNL A   1      31.526  22.295  23.892  1.00  0.00    -0.462 OA
BRANCH   5   6
ATOM      6  C   UNL A   1      32.248  22.131  22.762  1.00  0.00     0.325 C 
ATOM      7  O   UNL A   1      32.042  21.143  22.057  1.00  0.00    -0.250 OA
BRANCH   6   8
ATOM      8  C   UNL A   1      33.299  23.158  22.369  1.00  0.00     0.238 C 
BRANCH   8   9
ATOM      9  N   UNL A   1      32.705  24.302  21.707  1.00  0.00    -0.351 N 
ATOM     10  H   UNL A   1      32.706  24.333  20.724  1.00  0.00     0.163 HD
BRANCH   9  11
ATOM     11  C   UNL A   1      32.152  25.323  22.385  1.00  0.00     0.184 A 
ATOM     12  N   UNL A   1      31.200  26.119  21.956  1.00  0.00    -0.220 NA
ATOM     13  S   UNL A   1      32.797  25.718  23.926  1.00  0.00    -0.096 S 
ATOM     14  C   UNL A   1      31.002  27.159  22.858  1.00  0.00     0.091 A 
ATOM     15  C   UNL A   1      31.837  27.137  23.966  1.00  0.00     0.064 A 
BRANCH  14  16
ATOM     16  C   UNL A   1      29.965  28.164  22.649  1.00  0.00     0.002 A 
ATOM     17  C   UNL A   1      30.250  29.392  22.035  1.00  0.00     0.010 A 
ATOM     18  C   UNL A   1      28.673  27.933  23.137  1.00  0.00     0.010 A 
ATOM     19  C   UNL A   1      29.276  30.391  21.962  1.00  0.00     0.001 A 
ATOM     20  C   UNL A   1      27.700  28.933  23.065  1.00  0.00     0.001 A 
ATOM     21  C   UNL A   1      28.006  30.166  22.488  1.00  0.00     0.000 A 
ENDBRANCH  14  16
BRANCH  15  22
ATOM     22  C   UNL A   1      31.970  28.037  25.105  1.00  0.00    -0.006 A 
ATOM     23  C   UNL A   1      31.559  27.625  26.381  1.00  0.00     0.009 A 
ATOM     24  C   UNL A   1      32.507  29.317  24.935  1.00  0.00     0.009 A 
ATOM     25  C   UNL A   1      31.673  28.490  27.469  1.00  0.00     0.001 A 
ATOM     26  C   UNL A   1      32.617  30.181  26.023  1.00  0.00     0.001 A 
ATOM     27  C   UNL A   1      32.197  29.769  27.288  1.00  0.00     0.000 A 
ENDBRANCH  15  22
ENDBRANCH   9  11
ENDBRANCH   8   9
ENDBRANCH   6   8
ENDBRANCH   5   6
ENDBRANCH   4   5
ENDBRANCH   3   4
ENDBRANCH   2   3
ENDBRANCH   1   2
BRANCH   1  28
ATOM     28  C   UNL A   1      35.460  22.097  26.034  1.00  0.00     0.188 C 
BRANCH  28  29
ATOM     29  O   UNL A   1      36.823  22.457  25.821  1.00  0.00    -0.376 OA
BRANCH  29  30
ATOM     30  C   UNL A   1      37.709  21.453  25.313  1.00  0.00     0.202 C 
BRANCH  30  31
ATOM     31  C   UNL A   1      39.166  21.470  25.799  1.00  0.00     0.261 C 
BRANCH  31  32
ATOM     32  O   UNL A   1      39.616  20.229  26.384  1.00  0.00    -0.460 OA
BRANCH  32  33
ATOM     33  C   UNL A   1      40.930  19.957  26.190  1.00  0.00     0.338 C 
ATOM     34  O   UNL A   1      41.407  18.998  25.607  1.00  0.00    -0.246 OA
BRANCH  33  35
ATOM     35  C   UNL A   1      41.793  21.048  26.680  1.00  0.00     0.060 A 
ATOM     36  C   UNL A   1      41.863  21.256  28.063  1.00  0.00     0.016 A 
ATOM     37  C   UNL A   1      42.306  21.997  25.794  1.00  0.00     0.016 A 
ATOM     38  C   UNL A   1      42.381  22.451  28.564  1.00  0.00     0.010 A 
ATOM     39  C   UNL A   1      42.816  23.201  26.298  1.00  0.00     0.010 A 
ATOM     40  C   UNL A   1      42.800  23.456  27.682  1.00  0.00    -0.014 A 
BRANCH  40  41
ATOM     41  C   UNL A   1      42.997  24.834  28.205  1.00  0.00     0.031 A 
ATOM     42  C   UNL A   1      44.397  25.293  28.527  1.00  0.00     0.074 A 
ATOM     43  C   UNL A   1      41.970  25.691  28.337  1.00  0.00     0.049 A 
ATOM     44  N   UNL A   1      44.816  26.462  28.942  1.00  0.00    -0.248 NA
ATOM     45  C   UNL A   1      45.469  24.299  28.354  1.00  0.00     0.031 C 
ATOM     46  C   UNL A   1      40.574  25.391  28.030  1.00  0.00     0.029 A 
ATOM     47  N   UNL A   1      41.952  26.996  28.759  1.00  0.00    -0.354 N 
ATOM     48  C   UNL A   1      46.194  26.345  29.079  1.00  0.00     0.074 A 
ATOM     49  C   UNL A   1      46.539  24.983  28.732  1.00  0.00     0.031 C 
ATOM     50  C   UNL A   1      39.832  26.487  28.274  1.00  0.00     0.029 A 
ATOM     51  C   UNL A   1      40.699  27.556  28.768  1.00  0.00     0.049 A 
ATOM     52  H   UNL A   1      42.762  27.487  29.031  1.00  0.00     0.167 HD
ATOM     53  C   UNL A   1      47.096  27.286  29.446  1.00  0.00     0.037 A 
ATOM     54  C   UNL A   1      40.298  28.789  29.134  1.00  0.00     0.037 A 
ATOM     55  C   UNL A   1      46.767  28.643  29.789  1.00  0.00     0.049 A 
ATOM     56  C   UNL A   1      41.314  29.802  29.592  1.00  0.00     0.074 A 
ATOM     57  C   UNL A   1      47.618  29.673  30.154  1.00  0.00     0.029 A 
ATOM     58  N   UNL A   1      45.480  29.158  29.817  1.00  0.00    -0.354 N 
ATOM     59  N   UNL A   1      42.617  29.690  29.678  1.00  0.00    -0.248 NA
ATOM     60  C   UNL A   1      40.799  31.120  29.998  1.00  0.00     0.031 C 
ATOM     61  C   UNL A   1      46.842  30.801  30.440  1.00  0.00     0.029 A 
ATOM     62  C   UNL A   1      45.513  30.485  30.214  1.00  0.00     0.049 A 
ATOM     63  H   UNL A   1      44.665  28.656  29.589  1.00  0.00     0.167 HD
ATOM     64  C   UNL A   1      43.079  30.928  30.110  1.00  0.00     0.074 A 
ATOM     65  C   UNL A   1      41.918  31.779  30.266  1.00  0.00     0.031 C 
ATOM     66  C   UNL A   1      44.352  31.326  30.351  1.00  0.00     0.037 A 
BRANCH  53  67
ATOM     67  C   UNL A   1      48.534  26.866  29.515  1.00  0.00     0.057 A 
ATOM     68  C   UNL A   1      49.101  26.367  30.696  1.00  0.00     0.134 A 
ATOM     69  C   UNL A   1      49.355  26.943  28.384  1.00  0.00     0.134 A 
ATOM     70  F   UNL A   1      48.369  26.282  31.817  1.00  0.00    -0.206 F 
ATOM     71  C   UNL A   1      50.440  25.979  30.753  1.00  0.00     0.040 A 
ATOM     72  C   UNL A   1      50.690  26.538  28.424  1.00  0.00     0.040 A 
ATOM     73  F   UNL A   1      48.872  27.408  27.223  1.00  0.00    -0.206 F 
ATOM     74  C   UNL A   1      51.238  26.060  29.613  1.00  0.00     0.006 A 
ENDBRANCH  53  67
BRANCH  54  75
ATOM     75  C   UNL A   1      38.861  29.152  29.074  1.00  0.00     0.057 A 
ATOM     76  C   UNL A   1      38.040  29.045  30.202  1.00  0.00     0.134 A 
ATOM     77  C   UNL A   1      38.269  29.578  27.880  1.00  0.00     0.134 A 
ATOM     78  F   UNL A   1      38.546  28.616  31.367  1.00  0.00    -0.206 F 
ATOM     79  C   UNL A   1      36.675  29.333  30.142  1.00  0.00     0.040 A 
ATOM     80  C   UNL A   1      36.910  29.890  27.811  1.00  0.00     0.040 A 
ATOM     81  F   UNL A   1      39.002  29.697  26.765  1.00  0.00    -0.206 F 
ATOM     82  C   UNL A   1      36.107  29.760  28.943  1.00  0.00     0.006 A 
ENDBRANCH  54  75
BRANCH  66  83
ATOM     83  C   UNL A   1      44.563  32.754  30.763  1.00  0.00     0.057 A 
ATOM     84  C   UNL A   1      44.627  33.134  32.109  1.00  0.00     0.134 A 
ATOM     85  C   UNL A   1      44.740  33.754  29.799  1.00  0.00     0.134 A 
ATOM     86  F   UNL A   1      44.454  32.225  33.081  1.00  0.00    -0.206 F 
ATOM     87  C   UNL A   1      44.836  34.464  32.482  1.00  0.00     0.040 A 
ATOM     88  C   UNL A   1      44.972  35.082  30.159  1.00  0.00     0.040 A 
ATOM     89  F   UNL A   1      44.699  33.455  28.492  1.00  0.00    -0.206 F 
ATOM     90  C   UNL A   1      45.015  35.441  31.505  1.00  0.00     0.006 A 
ENDBRANCH  66  83
ENDBRANCH  40  41
ENDBRANCH  33  35
ENDBRANCH  32  33
ENDBRANCH  31  32
ENDBRANCH  30  31
ENDBRANCH  29  30
ENDBRANCH  28  29
ENDBRANCH   1  28
TORSDOF 21
ENDMDL
