MODEL 1
REMARK VINA RESULT:     -11.6      0.000      0.000
REMARK SMILES O=C(OCCOCCOCCOC(=O)[C@H]1CCCN(c2cc(-c3ccccn3)nc(-c3ccccc3F)n2)C1)c1ccc(-c2c3nc(c(-c4c(F)cccc4F)c4ccc([nH]4)c(-c4c(F)cccc4F)c4nc(c(-c5c(F)cccc5F)c5ccc2[nH]5)C=C4)C=C3)cc1
REMARK SMILES IDX 7 1 6 2 5 3 4 4 3 5 2 6 1 7 40 8 41 9 93 10 42 11 92 12
REMARK SMILES IDX 43 13 44 14 45 15 86 16 46 17 91 18 85 19 87 20 47 21 90 22
REMARK SMILES IDX 84 23 83 24 48 26 74 27 57 28 73 29 58 30 61 31 72 32 88 33
REMARK SMILES IDX 59 34 60 35 71 37 89 38 62 39 49 40 50 41 55 42 51 43 52 44
REMARK SMILES IDX 54 45 56 46 53 47 75 48 76 49 81 50 77 51 78 52 80 53 82 54
REMARK SMILES IDX 79 55 63 56 64 57 69 58 65 59 66 60 68 61 70 62 67 63 8 64
REMARK SMILES IDX 9 65 10 66 11 67 12 68 13 69 14 70 15 71 16 72 39 73 17 74
REMARK SMILES IDX 19 75 18 76 20 77 21 78 38 79 22 80 30 81 29 82 23 83 24 84
REMARK SMILES IDX 28 85 25 86 27 87 26 88 31 89 32 90 36 91 33 92 35 93 37 94
REMARK SMILES IDX 34 95
REMARK H PARENT 87 25 61 36
REMARK Flexibility Score: inf
ROOT
ATOM      1  C   UNL A   1      46.022  20.229  25.151  1.00  0.00     0.188 C 
ENDROOT
BRANCH   1   2
ATOM      2  O   UNL A   1      46.022  21.611  25.515  1.00  0.00    -0.376 OA
BRANCH   2   3
ATOM      3  C   UNL A   1      45.072  21.933  26.539  1.00  0.00     0.202 C 
BRANCH   3   4
ATOM      4  C   UNL A   1      44.751  23.436  26.662  1.00  0.00     0.261 C 
BRANCH   4   5
ATOM      5  O   UNL A   1      43.339  23.721  26.727  1.00  0.00    -0.460 OA
BRANCH   5   6
ATOM      6  C   UNL A   1      42.670  24.818  26.282  1.00  0.00     0.338 C 
ATOM      7  O   UNL A   1      42.384  24.886  25.087  1.00  0.00    -0.246 OA
BRANCH   6   8
ATOM      8  C   UNL A   1      42.276  25.968  27.158  1.00  0.00     0.060 A 
ATOM      9  C   UNL A   1      42.567  27.298  26.878  1.00  0.00     0.016 A 
ATOM     10  C   UNL A   1      41.544  25.704  28.330  1.00  0.00     0.016 A 
ATOM     11  C   UNL A   1      42.252  28.328  27.730  1.00  0.00     0.010 A 
ATOM     12  C   UNL A   1      41.171  26.751  29.187  1.00  0.00     0.010 A 
ATOM     13  C   UNL A   1      41.560  28.067  28.892  1.00  0.00    -0.014 A 
BRANCH  13  14
ATOM     14  C   UNL A   1      41.434  29.213  29.803  1.00  0.00     0.031 A 
ATOM     15  C   UNL A   1      42.338  29.210  31.032  1.00  0.00     0.074 A 
ATOM     16  C   UNL A   1      40.557  30.190  29.469  1.00  0.00     0.049 A 
ATOM     17  N   UNL A   1      42.353  29.991  32.079  1.00  0.00    -0.248 NA
ATOM     18  C   UNL A   1      43.386  28.169  31.080  1.00  0.00     0.031 C 
ATOM     19  C   UNL A   1      39.645  30.277  28.335  1.00  0.00     0.029 A 
ATOM     20  N   UNL A   1      40.176  31.275  30.199  1.00  0.00    -0.354 N 
ATOM     21  C   UNL A   1      43.303  29.482  32.950  1.00  0.00     0.074 A 
ATOM     22  C   UNL A   1      43.940  28.377  32.267  1.00  0.00     0.031 C 
ATOM     23  C   UNL A   1      38.609  31.083  28.655  1.00  0.00     0.029 A 
ATOM     24  C   UNL A   1      38.786  31.555  30.049  1.00  0.00     0.049 A 
ATOM     25  H   UNL A   1      40.787  31.802  30.762  1.00  0.00     0.167 HD
ATOM     26  C   UNL A   1      43.607  29.870  34.214  1.00  0.00     0.037 A 
ATOM     27  C   UNL A   1      37.736  31.887  31.022  1.00  0.00     0.037 A 
ATOM     28  C   UNL A   1      42.847  30.820  35.000  1.00  0.00     0.049 A 
ATOM     29  C   UNL A   1      37.632  31.993  33.188  1.00  0.00     0.074 A 
ATOM     30  C   UNL A   1      43.262  31.481  36.143  1.00  0.00     0.029 A 
ATOM     31  N   UNL A   1      41.497  31.145  34.823  1.00  0.00    -0.354 N 
ATOM     32  N   UNL A   1      38.546  31.551  34.177  1.00  0.00    -0.248 NA
ATOM     33  C   UNL A   1      36.638  32.778  34.289  1.00  0.00     0.031 C 
ATOM     34  C   UNL A   1      42.164  32.158  36.681  1.00  0.00     0.029 A 
ATOM     35  C   UNL A   1      41.069  32.003  35.839  1.00  0.00     0.049 A 
ATOM     36  H   UNL A   1      40.930  30.816  34.089  1.00  0.00     0.167 HD
ATOM     37  C   UNL A   1      38.631  32.368  35.274  1.00  0.00     0.074 A 
ATOM     38  C   UNL A   1      37.365  33.012  35.377  1.00  0.00     0.031 C 
ATOM     39  C   UNL A   1      39.759  32.642  35.984  1.00  0.00     0.037 A 
BRANCH  26  40
ATOM     40  C   UNL A   1      44.878  29.302  34.807  1.00  0.00     0.057 A 
ATOM     41  C   UNL A   1      46.141  29.841  34.527  1.00  0.00     0.134 A 
ATOM     42  C   UNL A   1      44.844  28.153  35.616  1.00  0.00     0.134 A 
ATOM     43  F   UNL A   1      46.263  30.937  33.764  1.00  0.00    -0.206 F 
ATOM     44  C   UNL A   1      47.313  29.259  35.025  1.00  0.00     0.040 A 
ATOM     45  C   UNL A   1      46.005  27.578  36.139  1.00  0.00     0.040 A 
ATOM     46  F   UNL A   1      43.673  27.579  35.931  1.00  0.00    -0.206 F 
ATOM     47  C   UNL A   1      47.248  28.128  35.837  1.00  0.00     0.006 A 
ENDBRANCH  26  40
BRANCH  27  48
ATOM     48  C   UNL A   1      36.525  32.321  29.859  1.00  0.00     0.057 A 
ATOM     49  C   UNL A   1      35.512  31.454  29.383  1.00  0.00     0.134 A 
ATOM     50  C   UNL A   1      36.423  33.667  29.429  1.00  0.00     0.134 A 
ATOM     51  F   UNL A   1      35.576  30.130  29.568  1.00  0.00    -0.206 F 
ATOM     52  C   UNL A   1      34.350  31.941  28.775  1.00  0.00     0.040 A 
ATOM     53  C   UNL A   1      35.265  34.155  28.809  1.00  0.00     0.040 A 
ATOM     54  F   UNL A   1      37.400  34.548  29.683  1.00  0.00    -0.206 F 
ATOM     55  C   UNL A   1      34.202  33.302  28.534  1.00  0.00     0.006 A 
ENDBRANCH  27  48
BRANCH  39  56
ATOM     56  C   UNL A   1      39.692  33.802  36.942  1.00  0.00     0.057 A 
ATOM     57  C   UNL A   1      39.125  33.631  38.218  1.00  0.00     0.134 A 
ATOM     58  C   UNL A   1      40.086  35.093  36.584  1.00  0.00     0.134 A 
ATOM     59  F   UNL A   1      38.714  32.421  38.630  1.00  0.00    -0.206 F 
ATOM     60  C   UNL A   1      38.937  34.705  39.088  1.00  0.00     0.040 A 
ATOM     61  C   UNL A   1      39.941  36.169  37.463  1.00  0.00     0.040 A 
ATOM     62  F   UNL A   1      40.631  35.330  35.382  1.00  0.00    -0.206 F 
ATOM     63  C   UNL A   1      39.351  35.980  38.712  1.00  0.00     0.006 A 
ENDBRANCH  39  56
ENDBRANCH  13  14
ENDBRANCH   6   8
ENDBRANCH   5   6
ENDBRANCH   4   5
ENDBRANCH   3   4
ENDBRANCH   2   3
ENDBRANCH   1   2
BRANCH   1  64
ATOM     64  C   UNL A   1      44.967  19.900  24.090  1.00  0.00     0.188 C 
BRANCH  64  65
ATOM     65  O   UNL A   1      43.973  18.949  24.458  1.00  0.00    -0.376 OA
BRANCH  65  66
ATOM     66  C   UNL A   1      43.350  19.128  25.724  1.00  0.00     0.202 C 
BRANCH  66  67
ATOM     67  C   UNL A   1      41.815  19.279  25.775  1.00  0.00     0.261 C 
BRANCH  67  68
ATOM     68  O   UNL A   1      41.249  20.616  25.712  1.00  0.00    -0.463 OA
BRANCH  68  69
ATOM     69  C   UNL A   1      40.496  20.945  26.798  1.00  0.00     0.310 C 
ATOM     70  O   UNL A   1      40.799  20.615  27.944  1.00  0.00    -0.252 OA
BRANCH  69  71
ATOM     71  C   UNL A   1      39.210  21.735  26.552  1.00  0.00     0.118 C 
ATOM     72  C   UNL A   1      39.595  23.224  26.470  1.00  0.00     0.019 C 
ATOM     73  C   UNL A   1      38.261  21.404  25.390  1.00  0.00     0.133 C 
ATOM     74  C   UNL A   1      38.353  24.109  26.484  1.00  0.00     0.022 C 
ATOM     75  N   UNL A   1      37.077  22.294  25.448  1.00  0.00    -0.356 N 
ATOM     76  C   UNL A   1      37.356  23.728  25.390  1.00  0.00     0.118 C 
BRANCH  75  77
ATOM     77  C   UNL A   1      35.767  21.860  25.208  1.00  0.00     0.133 A 
ATOM     78  C   UNL A   1      35.491  20.503  25.160  1.00  0.00     0.077 A 
ATOM     79  N   UNL A   1      34.777  22.744  24.926  1.00  0.00    -0.211 NA
ATOM     80  C   UNL A   1      34.214  20.105  24.797  1.00  0.00     0.095 A 
ATOM     81  C   UNL A   1      33.552  22.267  24.537  1.00  0.00     0.165 A 
ATOM     82  N   UNL A   1      33.236  20.977  24.485  1.00  0.00    -0.226 NA
BRANCH  80  83
ATOM     83  C   UNL A   1      33.809  18.696  24.729  1.00  0.00     0.089 A 
ATOM     84  C   UNL A   1      34.511  17.760  23.971  1.00  0.00     0.030 A 
ATOM     85  N   UNL A   1      32.772  18.345  25.533  1.00  0.00    -0.255 NA
ATOM     86  C   UNL A   1      34.168  16.413  24.079  1.00  0.00     0.004 A 
ATOM     87  C   UNL A   1      32.481  17.033  25.639  1.00  0.00     0.112 A 
ATOM     88  C   UNL A   1      33.145  16.039  24.942  1.00  0.00     0.020 A 
ENDBRANCH  80  83
BRANCH  81  89
ATOM     89  C   UNL A   1      32.410  23.207  24.403  1.00  0.00     0.055 A 
ATOM     90  C   UNL A   1      32.017  24.093  22.899  1.00  0.00     0.015 A 
ATOM     91  C   UNL A   1      31.769  23.827  25.951  1.00  0.00     0.134 A 
ATOM     92  C   UNL A   1      31.129  25.690  22.937  1.00  0.00     0.001 A 
ATOM     93  C   UNL A   1      30.819  25.421  26.042  1.00  0.00     0.040 A 
ATOM     94  F   UNL A   1      31.844  23.019  27.003  1.00  0.00    -0.206 F 
ATOM     95  C   UNL A   1      30.531  26.359  24.522  1.00  0.00     0.003 A 
ENDBRANCH  81  89
ENDBRANCH  75  77
ENDBRANCH  69  71
ENDBRANCH  68  69
ENDBRANCH  67  68
ENDBRANCH  66  67
ENDBRANCH  65  66
ENDBRANCH  64  65
ENDBRANCH   1  64
TORSDOF 20
ENDMDL
MODEL 2
REMARK VINA RESULT:     -11.4      5.873     12.890
REMARK SMILES O=C(OCCOCCOCCOC(=O)[C@H]1CCCN(c2cc(-c3ccccn3)nc(-c3ccccc3F)n2)C1)c1ccc(-c2c3nc(c(-c4c(F)cccc4F)c4ccc([nH]4)c(-c4c(F)cccc4F)c4nc(c(-c5c(F)cccc5F)c5ccc2[nH]5)C=C4)C=C3)cc1
REMARK SMILES IDX 7 1 6 2 5 3 4 4 3 5 2 6 1 7 40 8 41 9 93 10 42 11 92 12
REMARK SMILES IDX 43 13 44 14 45 15 86 16 46 17 91 18 85 19 87 20 47 21 90 22
REMARK SMILES IDX 84 23 83 24 48 26 74 27 57 28 73 29 58 30 61 31 72 32 88 33
REMARK SMILES IDX 59 34 60 35 71 37 89 38 62 39 49 40 50 41 55 42 51 43 52 44
REMARK SMILES IDX 54 45 56 46 53 47 75 48 76 49 81 50 77 51 78 52 80 53 82 54
REMARK SMILES IDX 79 55 63 56 64 57 69 58 65 59 66 60 68 61 70 62 67 63 8 64
REMARK SMILES IDX 9 65 10 66 11 67 12 68 13 69 14 70 15 71 16 72 39 73 17 74
REMARK SMILES IDX 19 75 18 76 20 77 21 78 38 79 22 80 30 81 29 82 23 83 24 84
REMARK SMILES IDX 28 85 25 86 27 87 26 88 31 89 32 90 36 91 33 92 35 93 37 94
REMARK SMILES IDX 34 95
REMARK H PARENT 87 25 61 36
REMARK Flexibility Score: inf
ROOT
ATOM      1  C   UNL A   1      41.507  35.194  29.004  1.00  0.00     0.188 C 
ENDROOT
BRANCH   1   2
ATOM      2  O   UNL A   1      42.477  36.149  29.436  1.00  0.00    -0.376 OA
BRANCH   2   3
ATOM      3  C   UNL A   1      43.036  36.923  28.366  1.00  0.00     0.202 C 
BRANCH   3   4
ATOM      4  C   UNL A   1      44.464  37.439  28.629  1.00  0.00     0.261 C 
BRANCH   4   5
ATOM      5  O   UNL A   1      45.478  36.736  27.884  1.00  0.00    -0.460 OA
BRANCH   5   6
ATOM      6  C   UNL A   1      46.209  35.651  28.255  1.00  0.00     0.338 C 
ATOM      7  O   UNL A   1      47.413  35.797  28.463  1.00  0.00    -0.246 OA
BRANCH   6   8
ATOM      8  C   UNL A   1      45.640  34.273  28.407  1.00  0.00     0.060 A 
ATOM      9  C   UNL A   1      45.784  33.492  29.549  1.00  0.00     0.016 A 
ATOM     10  C   UNL A   1      44.891  33.730  27.348  1.00  0.00     0.016 A 
ATOM     11  C   UNL A   1      45.308  32.206  29.639  1.00  0.00     0.010 A 
ATOM     12  C   UNL A   1      44.357  32.436  27.444  1.00  0.00     0.010 A 
ATOM     13  C   UNL A   1      44.599  31.664  28.591  1.00  0.00    -0.014 A 
BRANCH  13  14
ATOM     14  C   UNL A   1      44.296  30.233  28.730  1.00  0.00     0.031 A 
ATOM     15  C   UNL A   1      45.375  29.259  28.267  1.00  0.00     0.074 A 
ATOM     16  C   UNL A   1      43.106  29.892  29.282  1.00  0.00     0.049 A 
ATOM     17  N   UNL A   1      45.344  27.961  28.124  1.00  0.00    -0.248 NA
ATOM     18  C   UNL A   1      46.687  29.841  27.918  1.00  0.00     0.031 C 
ATOM     19  C   UNL A   1      42.012  30.740  29.737  1.00  0.00     0.029 A 
ATOM     20  N   UNL A   1      42.550  28.655  29.402  1.00  0.00    -0.354 N 
ATOM     21  C   UNL A   1      46.557  27.586  27.568  1.00  0.00     0.074 A 
ATOM     22  C   UNL A   1      47.366  28.783  27.496  1.00  0.00     0.031 C 
ATOM     23  C   UNL A   1      40.856  30.041  29.694  1.00  0.00     0.029 A 
ATOM     24  C   UNL A   1      41.142  28.680  29.180  1.00  0.00     0.049 A 
ATOM     25  H   UNL A   1      43.059  27.840  29.618  1.00  0.00     0.167 HD
ATOM     26  C   UNL A   1      46.962  26.368  27.126  1.00  0.00     0.037 A 
ATOM     27  C   UNL A   1      40.251  27.815  28.394  1.00  0.00     0.037 A 
ATOM     28  C   UNL A   1      46.108  25.208  26.982  1.00  0.00     0.049 A 
ATOM     29  C   UNL A   1      40.543  26.149  27.033  1.00  0.00     0.074 A 
ATOM     30  C   UNL A   1      46.505  23.890  26.843  1.00  0.00     0.029 A 
ATOM     31  N   UNL A   1      44.717  25.221  26.822  1.00  0.00    -0.354 N 
ATOM     32  N   UNL A   1      41.724  25.644  26.432  1.00  0.00    -0.248 NA
ATOM     33  C   UNL A   1      39.585  24.882  26.489  1.00  0.00     0.031 C 
ATOM     34  C   UNL A   1      45.376  23.119  26.551  1.00  0.00     0.029 A 
ATOM     35  C   UNL A   1      44.245  23.927  26.589  1.00  0.00     0.049 A 
ATOM     36  H   UNL A   1      44.153  26.026  26.866  1.00  0.00     0.167 HD
ATOM     37  C   UNL A   1      41.756  24.280  26.308  1.00  0.00     0.074 A 
ATOM     38  C   UNL A   1      40.397  23.867  26.212  1.00  0.00     0.031 C 
ATOM     39  C   UNL A   1      42.855  23.489  26.446  1.00  0.00     0.037 A 
BRANCH  26  40
ATOM     40  C   UNL A   1      48.437  26.215  26.827  1.00  0.00     0.057 A 
ATOM     41  C   UNL A   1      48.962  26.386  25.540  1.00  0.00     0.134 A 
ATOM     42  C   UNL A   1      49.338  25.821  27.832  1.00  0.00     0.134 A 
ATOM     43  F   UNL A   1      48.171  26.761  24.524  1.00  0.00    -0.206 F 
ATOM     44  C   UNL A   1      50.317  26.169  25.266  1.00  0.00     0.040 A 
ATOM     45  C   UNL A   1      50.698  25.626  27.576  1.00  0.00     0.040 A 
ATOM     46  F   UNL A   1      48.914  25.639  29.092  1.00  0.00    -0.206 F 
ATOM     47  C   UNL A   1      51.190  25.792  26.285  1.00  0.00     0.006 A 
ENDBRANCH  26  40
BRANCH  27  48
ATOM     48  C   UNL A   1      38.764  28.476  28.991  1.00  0.00     0.057 A 
ATOM     49  C   UNL A   1      38.222  28.220  30.274  1.00  0.00     0.134 A 
ATOM     50  C   UNL A   1      38.078  29.451  28.227  1.00  0.00     0.134 A 
ATOM     51  F   UNL A   1      38.660  27.210  31.034  1.00  0.00    -0.206 F 
ATOM     52  C   UNL A   1      37.263  29.061  30.851  1.00  0.00     0.040 A 
ATOM     53  C   UNL A   1      37.110  30.287  28.798  1.00  0.00     0.040 A 
ATOM     54  F   UNL A   1      38.398  29.672  26.944  1.00  0.00    -0.206 F 
ATOM     55  C   UNL A   1      36.742  30.129  30.130  1.00  0.00     0.006 A 
ENDBRANCH  27  48
BRANCH  39  56
ATOM     56  C   UNL A   1      42.610  22.009  26.586  1.00  0.00     0.057 A 
ATOM     57  C   UNL A   1      41.997  21.503  27.746  1.00  0.00     0.134 A 
ATOM     58  C   UNL A   1      43.059  21.083  25.643  1.00  0.00     0.134 A 
ATOM     59  F   UNL A   1      41.548  22.331  28.703  1.00  0.00    -0.206 F 
ATOM     60  C   UNL A   1      41.861  20.132  27.967  1.00  0.00     0.040 A 
ATOM     61  C   UNL A   1      42.891  19.710  25.834  1.00  0.00     0.040 A 
ATOM     62  F   UNL A   1      43.656  21.495  24.515  1.00  0.00    -0.206 F 
ATOM     63  C   UNL A   1      42.304  19.230  27.004  1.00  0.00     0.006 A 
ENDBRANCH  39  56
ENDBRANCH  13  14
ENDBRANCH   6   8
ENDBRANCH   5   6
ENDBRANCH   4   5
ENDBRANCH   3   4
ENDBRANCH   2   3
ENDBRANCH   1   2
BRANCH   1  64
ATOM     64  C   UNL A   1      41.161  34.173  30.092  1.00  0.00     0.188 C 
BRANCH  64  65
ATOM     65  O   UNL A   1      39.896  34.329  30.728  1.00  0.00    -0.376 OA
BRANCH  65  66
ATOM     66  C   UNL A   1      38.811  34.744  29.908  1.00  0.00     0.202 C 
BRANCH  66  67
ATOM     67  C   UNL A   1      37.747  33.700  29.509  1.00  0.00     0.261 C 
BRANCH  67  68
ATOM     68  O   UNL A   1      36.393  34.157  29.245  1.00  0.00    -0.463 OA
BRANCH  68  69
ATOM     69  C   UNL A   1      35.470  33.673  30.121  1.00  0.00     0.310 C 
ATOM     70  O   UNL A   1      34.438  33.108  29.758  1.00  0.00    -0.252 OA
BRANCH  69  71
ATOM     71  C   UNL A   1      35.737  33.878  31.613  1.00  0.00     0.118 C 
ATOM     72  C   UNL A   1      34.677  34.866  32.136  1.00  0.00     0.019 C 
ATOM     73  C   UNL A   1      35.840  32.698  32.592  1.00  0.00     0.133 C 
ATOM     74  C   UNL A   1      35.017  35.330  33.549  1.00  0.00     0.022 C 
ATOM     75  N   UNL A   1      36.165  33.204  33.947  1.00  0.00    -0.356 N 
ATOM     76  C   UNL A   1      35.214  34.161  34.513  1.00  0.00     0.118 C 
BRANCH  75  77
ATOM     77  C   UNL A   1      37.080  32.587  34.808  1.00  0.00     0.133 A 
ATOM     78  C   UNL A   1      37.952  31.631  34.310  1.00  0.00     0.077 A 
ATOM     79  N   UNL A   1      37.067  32.837  36.140  1.00  0.00    -0.211 NA
ATOM     80  C   UNL A   1      38.759  30.948  35.208  1.00  0.00     0.095 A 
ATOM     81  C   UNL A   1      37.869  32.090  36.965  1.00  0.00     0.165 A 
ATOM     82  N   UNL A   1      38.728  31.170  36.536  1.00  0.00    -0.226 NA
BRANCH  80  83
ATOM     83  C   UNL A   1      39.728  29.928  34.790  1.00  0.00     0.089 A 
ATOM     84  C   UNL A   1      39.854  29.527  33.460  1.00  0.00     0.030 A 
ATOM     85  N   UNL A   1      40.562  29.479  35.763  1.00  0.00    -0.255 NA
ATOM     86  C   UNL A   1      40.900  28.675  33.111  1.00  0.00     0.004 A 
ATOM     87  C   UNL A   1      41.581  28.679  35.391  1.00  0.00     0.112 A 
ATOM     88  C   UNL A   1      41.792  28.255  34.091  1.00  0.00     0.020 A 
ENDBRANCH  80  83
BRANCH  81  89
ATOM     89  C   UNL A   1      38.005  32.469  38.394  1.00  0.00     0.055 A 
ATOM     90  C   UNL A   1      39.394  33.382  39.058  1.00  0.00     0.015 A 
ATOM     91  C   UNL A   1      36.994  31.515  39.517  1.00  0.00     0.134 A 
ATOM     92  C   UNL A   1      39.890  33.221  40.809  1.00  0.00     0.001 A 
ATOM     93  C   UNL A   1      37.427  31.356  41.317  1.00  0.00     0.040 A 
ATOM     94  F   UNL A   1      35.831  31.072  39.054  1.00  0.00    -0.206 F 
ATOM     95  C   UNL A   1      38.901  32.196  41.944  1.00  0.00     0.003 A 
ENDBRANCH  81  89
ENDBRANCH  75  77
ENDBRANCH  69  71
ENDBRANCH  68  69
ENDBRANCH  67  68
ENDBRANCH  66  67
ENDBRANCH  65  66
ENDBRANCH  64  65
ENDBRANCH   1  64
TORSDOF 20
ENDMDL
MODEL 3
REMARK VINA RESULT:     -11.2      1.534      2.226
REMARK SMILES O=C(OCCOCCOCCOC(=O)[C@H]1CCCN(c2cc(-c3ccccn3)nc(-c3ccccc3F)n2)C1)c1ccc(-c2c3nc(c(-c4c(F)cccc4F)c4ccc([nH]4)c(-c4c(F)cccc4F)c4nc(c(-c5c(F)cccc5F)c5ccc2[nH]5)C=C4)C=C3)cc1
REMARK SMILES IDX 7 1 6 2 5 3 4 4 3 5 2 6 1 7 40 8 41 9 93 10 42 11 92 12
REMARK SMILES IDX 43 13 44 14 45 15 86 16 46 17 91 18 85 19 87 20 47 21 90 22
REMARK SMILES IDX 84 23 83 24 48 26 74 27 57 28 73 29 58 30 61 31 72 32 88 33
REMARK SMILES IDX 59 34 60 35 71 37 89 38 62 39 49 40 50 41 55 42 51 43 52 44
REMARK SMILES IDX 54 45 56 46 53 47 75 48 76 49 81 50 77 51 78 52 80 53 82 54
REMARK SMILES IDX 79 55 63 56 64 57 69 58 65 59 66 60 68 61 70 62 67 63 8 64
REMARK SMILES IDX 9 65 10 66 11 67 12 68 13 69 14 70 15 71 16 72 39 73 17 74
REMARK SMILES IDX 19 75 18 76 20 77 21 78 38 79 22 80 30 81 29 82 23 83 24 84
REMARK SMILES IDX 28 85 25 86 27 87 26 88 31 89 32 90 36 91 33 92 35 93 37 94
REMARK SMILES IDX 34 95
REMARK H PARENT 87 25 61 36
REMARK Flexibility Score: inf
ROOT
ATOM      1  C   UNL A   1      44.981  22.850  26.033  1.00  0.00     0.188 C 
ENDROOT
BRANCH   1   2
ATOM      2  O   UNL A   1      44.559  22.886  27.397  1.00  0.00    -0.376 OA
BRANCH   2   3
ATOM      3  C   UNL A   1      44.547  24.205  27.959  1.00  0.00     0.202 C 
BRANCH   3   4
ATOM      4  C   UNL A   1      43.140  24.757  28.263  1.00  0.00     0.261 C 
BRANCH   4   5
ATOM      5  O   UNL A   1      42.563  25.497  27.170  1.00  0.00    -0.460 OA
BRANCH   5   6
ATOM      6  C   UNL A   1      41.673  26.526  27.214  1.00  0.00     0.338 C 
ATOM      7  O   UNL A   1      40.819  26.601  26.331  1.00  0.00    -0.246 OA
BRANCH   6   8
ATOM      8  C   UNL A   1      41.681  27.592  28.266  1.00  0.00     0.060 A 
ATOM      9  C   UNL A   1      41.012  27.492  29.481  1.00  0.00     0.016 A 
ATOM     10  C   UNL A   1      42.425  28.763  28.036  1.00  0.00     0.016 A 
ATOM     11  C   UNL A   1      40.981  28.512  30.403  1.00  0.00     0.010 A 
ATOM     12  C   UNL A   1      42.443  29.793  28.990  1.00  0.00     0.010 A 
ATOM     13  C   UNL A   1      41.687  29.670  30.165  1.00  0.00    -0.014 A 
BRANCH  13  14
ATOM     14  C   UNL A   1      41.438  30.749  31.131  1.00  0.00     0.031 A 
ATOM     15  C   UNL A   1      42.426  30.871  32.288  1.00  0.00     0.074 A 
ATOM     16  C   UNL A   1      40.379  31.564  30.906  1.00  0.00     0.049 A 
ATOM     17  N   UNL A   1      42.389  31.611  33.363  1.00  0.00    -0.248 NA
ATOM     18  C   UNL A   1      43.640  30.031  32.213  1.00  0.00     0.031 C 
ATOM     19  C   UNL A   1      39.377  31.521  29.849  1.00  0.00     0.029 A 
ATOM     20  N   UNL A   1      39.875  32.542  31.709  1.00  0.00    -0.354 N 
ATOM     21  C   UNL A   1      43.482  31.254  34.138  1.00  0.00     0.074 A 
ATOM     22  C   UNL A   1      44.244  30.300  33.363  1.00  0.00     0.031 C 
ATOM     23  C   UNL A   1      38.246  32.120  30.280  1.00  0.00     0.029 A 
ATOM     24  C   UNL A   1      38.450  32.576  31.676  1.00  0.00     0.049 A 
ATOM     25  H   UNL A   1      40.429  33.153  32.247  1.00  0.00     0.167 HD
ATOM     26  C   UNL A   1      43.815  31.653  35.391  1.00  0.00     0.037 A 
ATOM     27  C   UNL A   1      37.442  32.688  32.738  1.00  0.00     0.037 A 
ATOM     28  C   UNL A   1      42.967  32.430  36.272  1.00  0.00     0.049 A 
ATOM     29  C   UNL A   1      37.498  32.711  34.909  1.00  0.00     0.074 A 
ATOM     30  C   UNL A   1      43.352  33.120  37.408  1.00  0.00     0.029 A 
ATOM     31  N   UNL A   1      41.571  32.515  36.211  1.00  0.00    -0.354 N 
ATOM     32  N   UNL A   1      38.553  32.409  35.807  1.00  0.00    -0.248 NA
ATOM     33  C   UNL A   1      36.475  33.275  36.114  1.00  0.00     0.031 C 
ATOM     34  C   UNL A   1      42.201  33.576  38.055  1.00  0.00     0.029 A 
ATOM     35  C   UNL A   1      41.084  33.254  37.292  1.00  0.00     0.049 A 
ATOM     36  H   UNL A   1      41.013  32.112  35.508  1.00  0.00     0.167 HD
ATOM     37  C   UNL A   1      38.582  33.197  36.927  1.00  0.00     0.074 A 
ATOM     38  C   UNL A   1      37.236  33.602  37.153  1.00  0.00     0.031 C 
ATOM     39  C   UNL A   1      39.699  33.645  37.562  1.00  0.00     0.037 A 
BRANCH  26  40
ATOM     40  C   UNL A   1      45.210  31.303  35.862  1.00  0.00     0.057 A 
ATOM     41  C   UNL A   1      46.340  32.023  35.456  1.00  0.00     0.134 A 
ATOM     42  C   UNL A   1      45.433  30.182  36.681  1.00  0.00     0.134 A 
ATOM     43  F   UNL A   1      46.216  33.105  34.673  1.00  0.00    -0.206 F 
ATOM     44  C   UNL A   1      47.631  31.642  35.842  1.00  0.00     0.040 A 
ATOM     45  C   UNL A   1      46.714  29.807  37.094  1.00  0.00     0.040 A 
ATOM     46  F   UNL A   1      44.401  29.442  37.115  1.00  0.00    -0.206 F 
ATOM     47  C   UNL A   1      47.820  30.534  36.666  1.00  0.00     0.006 A 
ENDBRANCH  26  40
BRANCH  27  48
ATOM     48  C   UNL A   1      36.083  32.933  31.689  1.00  0.00     0.057 A 
ATOM     49  C   UNL A   1      35.532  34.195  31.359  1.00  0.00     0.134 A 
ATOM     50  C   UNL A   1      35.540  31.831  30.984  1.00  0.00     0.134 A 
ATOM     51  F   UNL A   1      35.826  35.296  32.060  1.00  0.00    -0.206 F 
ATOM     52  C   UNL A   1      34.723  34.375  30.231  1.00  0.00     0.040 A 
ATOM     53  C   UNL A   1      34.721  32.007  29.861  1.00  0.00     0.040 A 
ATOM     54  F   UNL A   1      35.866  30.573  31.313  1.00  0.00    -0.206 F 
ATOM     55  C   UNL A   1      34.358  33.285  29.449  1.00  0.00     0.006 A 
ENDBRANCH  27  48
BRANCH  39  56
ATOM     56  C   UNL A   1      39.509  34.747  38.571  1.00  0.00     0.057 A 
ATOM     57  C   UNL A   1      39.169  34.435  39.900  1.00  0.00     0.134 A 
ATOM     58  C   UNL A   1      39.560  36.098  38.224  1.00  0.00     0.134 A 
ATOM     59  F   UNL A   1      39.090  33.158  40.307  1.00  0.00    -0.206 F 
ATOM     60  C   UNL A   1      38.868  35.427  40.834  1.00  0.00     0.040 A 
ATOM     61  C   UNL A   1      39.301  37.102  39.161  1.00  0.00     0.040 A 
ATOM     62  F   UNL A   1      39.875  36.469  36.974  1.00  0.00    -0.206 F 
ATOM     63  C   UNL A   1      38.940  36.767  40.465  1.00  0.00     0.006 A 
ENDBRANCH  39  56
ENDBRANCH  13  14
ENDBRANCH   6   8
ENDBRANCH   5   6
ENDBRANCH   4   5
ENDBRANCH   3   4
ENDBRANCH   2   3
ENDBRANCH   1   2
BRANCH   1  64
ATOM     64  C   UNL A   1      43.862  22.416  25.082  1.00  0.00     0.188 C 
BRANCH  64  65
ATOM     65  O   UNL A   1      44.032  21.160  24.433  1.00  0.00    -0.376 OA
BRANCH  65  66
ATOM     66  C   UNL A   1      44.243  20.029  25.268  1.00  0.00     0.202 C 
BRANCH  66  67
ATOM     67  C   UNL A   1      43.045  19.105  25.573  1.00  0.00     0.261 C 
BRANCH  67  68
ATOM     68  O   UNL A   1      41.703  19.651  25.461  1.00  0.00    -0.463 OA
BRANCH  68  69
ATOM     69  C   UNL A   1      41.165  20.035  26.652  1.00  0.00     0.310 C 
ATOM     70  O   UNL A   1      41.573  19.613  27.734  1.00  0.00    -0.252 OA
BRANCH  69  71
ATOM     71  C   UNL A   1      39.987  21.009  26.614  1.00  0.00     0.118 C 
ATOM     72  C   UNL A   1      40.559  22.427  26.806  1.00  0.00     0.019 C 
ATOM     73  C   UNL A   1      38.987  21.033  25.448  1.00  0.00     0.133 C 
ATOM     74  C   UNL A   1      39.441  23.437  27.039  1.00  0.00     0.022 C 
ATOM     75  N   UNL A   1      37.928  22.033  25.722  1.00  0.00    -0.356 N 
ATOM     76  C   UNL A   1      38.388  23.405  25.931  1.00  0.00     0.118 C 
BRANCH  75  77
ATOM     77  C   UNL A   1      36.570  21.819  25.454  1.00  0.00     0.133 A 
ATOM     78  C   UNL A   1      36.093  20.526  25.314  1.00  0.00     0.077 A 
ATOM     79  N   UNL A   1      35.728  22.860  25.233  1.00  0.00    -0.211 NA
ATOM     80  C   UNL A   1      34.774  20.350  24.926  1.00  0.00     0.095 A 
ATOM     81  C   UNL A   1      34.448  22.601  24.813  1.00  0.00     0.165 A 
ATOM     82  N   UNL A   1      33.942  21.380  24.674  1.00  0.00    -0.226 NA
BRANCH  80  83
ATOM     83  C   UNL A   1      34.162  19.027  24.763  1.00  0.00     0.089 A 
ATOM     84  C   UNL A   1      34.793  18.001  24.060  1.00  0.00     0.030 A 
ATOM     85  N   UNL A   1      32.993  18.836  25.428  1.00  0.00    -0.255 NA
ATOM     86  C   UNL A   1      34.229  16.726  24.081  1.00  0.00     0.004 A 
ATOM     87  C   UNL A   1      32.487  17.587  25.454  1.00  0.00     0.112 A 
ATOM     88  C   UNL A   1      33.064  16.509  24.806  1.00  0.00     0.020 A 
ENDBRANCH  80  83
BRANCH  81  89
ATOM     89  C   UNL A   1      33.463  23.709  24.743  1.00  0.00     0.055 A 
ATOM     90  C   UNL A   1      32.738  24.494  26.180  1.00  0.00     0.015 A 
ATOM     91  C   UNL A   1      32.627  23.865  23.172  1.00  0.00     0.134 A 
ATOM     92  C   UNL A   1      31.097  25.293  26.102  1.00  0.00     0.001 A 
ATOM     93  C   UNL A   1      30.979  24.710  23.028  1.00  0.00     0.040 A 
ATOM     94  F   UNL A   1      33.309  23.513  22.088  1.00  0.00    -0.206 F 
ATOM     95  C   UNL A   1      30.211  25.397  24.515  1.00  0.00     0.003 A 
ENDBRANCH  81  89
ENDBRANCH  75  77
ENDBRANCH  69  71
ENDBRANCH  68  69
ENDBRANCH  67  68
ENDBRANCH  66  67
ENDBRANCH  65  66
ENDBRANCH  64  65
ENDBRANCH   1  64
TORSDOF 20
ENDMDL
