MODEL 1
REMARK VINA RESULT:     -11.9      0.000      0.000
REMARK SMILES Cc1cccc(NC(=O)[C@H]2C[C@H]2C(=O)OCCOCCOCCOC(=O)c2ccc(-c3c4nc(c(-c5c(F)cccc5F)c5ccc([nH]5)c(-c5c(F)cccc5F)c5nc(c(-c6c(F)cccc6F)c6ccc3[nH]6)C=C5)C=C4)cc2)c1
REMARK SMILES IDX 19 1 18 2 17 3 16 4 15 5 13 6 14 7 12 8 10 9 11 10 8 11 7 12
REMARK SMILES IDX 9 14 6 15 1 16 2 17 3 18 81 19 4 20 5 21 20 22 21 23 22 24
REMARK SMILES IDX 23 25 24 26 25 27 26 28 27 29 28 30 80 31 29 32 79 33 30 34
REMARK SMILES IDX 31 35 32 36 73 37 33 38 78 39 72 40 74 41 34 42 77 43 71 44
REMARK SMILES IDX 70 45 35 47 61 48 44 49 60 50 45 51 48 52 59 53 75 54 46 55
REMARK SMILES IDX 47 56 58 58 76 59 49 60 36 61 37 62 42 63 38 64 39 65 41 66
REMARK SMILES IDX 43 67 40 68 62 69 63 70 68 71 64 72 65 73 67 74 69 75 66 76
REMARK SMILES IDX 50 77 51 78 56 79 52 80 53 81 55 82 57 83 54 84
REMARK H PARENT 7 13 74 46 48 57
REMARK Flexibility Score: inf
ROOT
ATOM      1  C   UNL A   1      34.632  31.881  28.485  1.00  0.00     0.188 C 
ENDROOT
BRANCH   1   2
ATOM      2  O   UNL A   1      35.109  30.903  27.530  1.00  0.00    -0.376 OA
BRANCH   2   3
ATOM      3  C   UNL A   1      34.347  29.793  27.047  1.00  0.00     0.202 C 
BRANCH   3   4
ATOM      4  C   UNL A   1      32.813  29.875  26.358  1.00  0.00     0.261 C 
BRANCH   4   5
ATOM      5  O   UNL A   1      31.825  28.683  25.602  1.00  0.00    -0.463 OA
BRANCH   5   6
ATOM      6  C   UNL A   1      31.955  27.527  24.755  1.00  0.00     0.309 C 
ATOM      7  O   UNL A   1      32.413  26.431  25.023  1.00  0.00    -0.252 OA
BRANCH   6   8
ATOM      8  C   UNL A   1      31.387  27.370  23.393  1.00  0.00     0.112 C 
ATOM      9  C   UNL A   1      30.275  27.931  22.562  1.00  0.00     0.094 C 
ATOM     10  C   UNL A   1      31.436  28.800  22.770  1.00  0.00     0.030 C 
BRANCH   9  11
ATOM     11  C   UNL A   1      29.006  27.840  23.246  1.00  0.00     0.228 C 
ATOM     12  N   UNL A   1      28.144  28.892  23.081  1.00  0.00    -0.326 N 
ATOM     13  H   UNL A   1      27.305  28.785  23.586  1.00  0.00     0.169 HD
ATOM     14  O   UNL A   1      28.714  26.847  23.898  1.00  0.00    -0.274 OA
BRANCH  12  15
ATOM     15  C   UNL A   1      28.198  30.102  22.342  1.00  0.00     0.041 A 
ATOM     16  C   UNL A   1      29.093  33.659  23.358  1.00  0.00     0.044 C 
ATOM     17  C   UNL A   1      28.686  32.494  22.512  1.00  0.00    -0.049 A 
ATOM     18  C   UNL A   1      28.329  32.680  21.177  1.00  0.00     0.003 A 
ATOM     19  C   UNL A   1      28.606  31.214  23.081  1.00  0.00     0.029 A 
ATOM     20  C   UNL A   1      27.931  31.590  20.417  1.00  0.00     0.002 A 
ATOM     21  C   UNL A   1      27.873  30.313  20.994  1.00  0.00     0.026 A 
ENDBRANCH  12  15
ENDBRANCH   9  11
ENDBRANCH   6   8
ENDBRANCH   5   6
ENDBRANCH   4   5
ENDBRANCH   3   4
ENDBRANCH   2   3
ENDBRANCH   1   2
BRANCH   1  22
ATOM     22  C   UNL A   1      33.835  33.113  28.063  1.00  0.00     0.188 C 
BRANCH  22  23
ATOM     23  O   UNL A   1      33.945  34.075  29.091  1.00  0.00    -0.376 OA
BRANCH  23  24
ATOM     24  C   UNL A   1      33.411  35.354  28.813  1.00  0.00     0.202 C 
BRANCH  24  25
ATOM     25  C   UNL A   1      33.017  36.070  30.114  1.00  0.00     0.261 C 
BRANCH  25  26
ATOM     26  O   UNL A   1      32.786  35.099  31.169  1.00  0.00    -0.460 OA
BRANCH  26  27
ATOM     27  C   UNL A   1      33.163  35.436  32.449  1.00  0.00     0.338 C 
ATOM     28  O   UNL A   1      32.861  36.483  33.004  1.00  0.00    -0.246 OA
BRANCH  27  29
ATOM     29  C   UNL A   1      34.195  34.465  32.973  1.00  0.00     0.060 A 
ATOM     30  C   UNL A   1      35.442  34.789  33.536  1.00  0.00     0.016 A 
ATOM     31  C   UNL A   1      34.089  33.194  32.531  1.00  0.00     0.016 A 
ATOM     32  C   UNL A   1      36.600  33.884  33.447  1.00  0.00     0.010 A 
ATOM     33  C   UNL A   1      35.296  32.563  32.215  1.00  0.00     0.010 A 
ATOM     34  C   UNL A   1      36.622  32.721  32.654  1.00  0.00    -0.014 A 
BRANCH  34  35
ATOM     35  C   UNL A   1      37.975  31.960  32.034  1.00  0.00     0.031 A 
ATOM     36  C   UNL A   1      38.313  30.674  30.968  1.00  0.00     0.074 A 
ATOM     37  C   UNL A   1      39.150  32.461  32.494  1.00  0.00     0.049 A 
ATOM     38  N   UNL A   1      39.284  29.786  31.165  1.00  0.00    -0.248 NA
ATOM     39  C   UNL A   1      37.605  30.198  29.727  1.00  0.00     0.031 C 
ATOM     40  C   UNL A   1      40.495  32.198  31.985  1.00  0.00     0.029 A 
ATOM     41  N   UNL A   1      39.374  33.268  33.616  1.00  0.00    -0.354 N 
ATOM     42  C   UNL A   1      39.294  28.851  30.107  1.00  0.00     0.074 A 
ATOM     43  C   UNL A   1      38.123  29.044  29.370  1.00  0.00     0.031 C 
ATOM     44  C   UNL A   1      41.389  32.557  32.917  1.00  0.00     0.029 A 
ATOM     45  C   UNL A   1      40.649  32.952  34.098  1.00  0.00     0.049 A 
ATOM     46  H   UNL A   1      38.753  33.932  33.993  1.00  0.00     0.167 HD
ATOM     47  C   UNL A   1      40.322  28.048  29.722  1.00  0.00     0.037 A 
ATOM     48  C   UNL A   1      40.848  32.506  35.367  1.00  0.00     0.037 A 
ATOM     49  C   UNL A   1      41.460  28.318  30.536  1.00  0.00     0.049 A 
ATOM     50  C   UNL A   1      41.594  31.197  35.432  1.00  0.00     0.074 A 
ATOM     51  C   UNL A   1      42.509  29.206  30.397  1.00  0.00     0.029 A 
ATOM     52  N   UNL A   1      41.405  27.944  31.858  1.00  0.00    -0.354 N 
ATOM     53  N   UNL A   1      41.783  30.413  34.407  1.00  0.00    -0.248 NA
ATOM     54  C   UNL A   1      42.172  30.652  36.656  1.00  0.00     0.031 C 
ATOM     55  C   UNL A   1      43.095  29.368  31.674  1.00  0.00     0.029 A 
ATOM     56  C   UNL A   1      42.419  28.549  32.561  1.00  0.00     0.049 A 
ATOM     57  H   UNL A   1      40.736  27.332  32.245  1.00  0.00     0.167 HD
ATOM     58  C   UNL A   1      42.403  29.258  34.816  1.00  0.00     0.074 A 
ATOM     59  C   UNL A   1      42.667  29.480  36.221  1.00  0.00     0.031 C 
ATOM     60  C   UNL A   1      42.594  28.213  33.958  1.00  0.00     0.037 A 
BRANCH  47  61
ATOM     61  C   UNL A   1      40.320  27.344  28.367  1.00  0.00     0.057 A 
ATOM     62  C   UNL A   1      39.788  26.053  28.225  1.00  0.00     0.134 A 
ATOM     63  C   UNL A   1      40.940  27.842  27.198  1.00  0.00     0.134 A 
ATOM     64  F   UNL A   1      39.056  25.491  29.195  1.00  0.00    -0.206 F 
ATOM     65  C   UNL A   1      39.999  25.262  27.084  1.00  0.00     0.040 A 
ATOM     66  C   UNL A   1      41.227  27.038  26.080  1.00  0.00     0.040 A 
ATOM     67  F   UNL A   1      41.312  29.129  27.106  1.00  0.00    -0.206 F 
ATOM     68  C   UNL A   1      40.772  25.730  26.031  1.00  0.00     0.006 A 
ENDBRANCH  47  61
BRANCH  48  69
ATOM     69  C   UNL A   1      39.841  33.002  36.348  1.00  0.00     0.057 A 
ATOM     70  C   UNL A   1      38.729  32.187  36.638  1.00  0.00     0.134 A 
ATOM     71  C   UNL A   1      40.102  34.047  37.239  1.00  0.00     0.134 A 
ATOM     72  F   UNL A   1      38.425  31.154  35.835  1.00  0.00    -0.206 F 
ATOM     73  C   UNL A   1      37.973  32.340  37.804  1.00  0.00     0.040 A 
ATOM     74  C   UNL A   1      39.341  34.220  38.407  1.00  0.00     0.040 A 
ATOM     75  F   UNL A   1      41.167  34.844  37.066  1.00  0.00    -0.206 F 
ATOM     76  C   UNL A   1      38.293  33.347  38.706  1.00  0.00     0.006 A 
ENDBRANCH  48  69
BRANCH  60  77
ATOM     77  C   UNL A   1      42.933  26.773  34.294  1.00  0.00     0.057 A 
ATOM     78  C   UNL A   1      42.138  25.931  35.078  1.00  0.00     0.134 A 
ATOM     79  C   UNL A   1      44.019  26.123  33.647  1.00  0.00     0.134 A 
ATOM     80  F   UNL A   1      41.029  26.366  35.685  1.00  0.00    -0.206 F 
ATOM     81  C   UNL A   1      42.410  24.562  35.229  1.00  0.00     0.040 A 
ATOM     82  C   UNL A   1      44.254  24.748  33.730  1.00  0.00     0.040 A 
ATOM     83  F   UNL A   1      44.889  26.787  32.870  1.00  0.00    -0.206 F 
ATOM     84  C   UNL A   1      43.452  23.961  34.536  1.00  0.00     0.006 A 
ENDBRANCH  60  77
ENDBRANCH  34  35
ENDBRANCH  27  29
ENDBRANCH  26  27
ENDBRANCH  25  26
ENDBRANCH  24  25
ENDBRANCH  23  24
ENDBRANCH  22  23
ENDBRANCH   1  22
TORSDOF 19
ENDMDL
MODEL 2
REMARK VINA RESULT:     -11.7      6.443     11.930
REMARK SMILES Cc1cccc(NC(=O)[C@H]2C[C@H]2C(=O)OCCOCCOCCOC(=O)c2ccc(-c3c4nc(c(-c5c(F)cccc5F)c5ccc([nH]5)c(-c5c(F)cccc5F)c5nc(c(-c6c(F)cccc6F)c6ccc3[nH]6)C=C5)C=C4)cc2)c1
REMARK SMILES IDX 19 1 18 2 17 3 16 4 15 5 13 6 14 7 12 8 10 9 11 10 8 11 7 12
REMARK SMILES IDX 9 14 6 15 1 16 2 17 3 18 81 19 4 20 5 21 20 22 21 23 22 24
REMARK SMILES IDX 23 25 24 26 25 27 26 28 27 29 28 30 80 31 29 32 79 33 30 34
REMARK SMILES IDX 31 35 32 36 73 37 33 38 78 39 72 40 74 41 34 42 77 43 71 44
REMARK SMILES IDX 70 45 35 47 61 48 44 49 60 50 45 51 48 52 59 53 75 54 46 55
REMARK SMILES IDX 47 56 58 58 76 59 49 60 36 61 37 62 42 63 38 64 39 65 41 66
REMARK SMILES IDX 43 67 40 68 62 69 63 70 68 71 64 72 65 73 67 74 69 75 66 76
REMARK SMILES IDX 50 77 51 78 56 79 52 80 53 81 55 82 57 83 54 84
REMARK H PARENT 7 13 74 46 48 57
REMARK Flexibility Score: inf
ROOT
ATOM      1  C   UNL A   1      40.627  22.408  27.682  1.00  0.00     0.188 C 
ENDROOT
BRANCH   1   2
ATOM      2  O   UNL A   1      39.668  22.382  26.597  1.00  0.00    -0.376 OA
BRANCH   2   3
ATOM      3  C   UNL A   1      38.962  23.523  26.103  1.00  0.00     0.202 C 
BRANCH   3   4
ATOM      4  C   UNL A   1      37.296  23.758  26.172  1.00  0.00     0.261 C 
BRANCH   4   5
ATOM      5  O   UNL A   1      36.006  23.148  25.207  1.00  0.00    -0.463 OA
BRANCH   5   6
ATOM      6  C   UNL A   1      35.443  21.888  24.797  1.00  0.00     0.309 C 
ATOM      7  O   UNL A   1      35.742  20.765  25.159  1.00  0.00    -0.252 OA
BRANCH   6   8
ATOM      8  C   UNL A   1      34.234  21.700  23.957  1.00  0.00     0.112 C 
ATOM      9  C   UNL A   1      32.763  21.972  24.019  1.00  0.00     0.094 C 
ATOM     10  C   UNL A   1      33.632  23.130  23.793  1.00  0.00     0.030 C 
BRANCH   9  11
ATOM     11  C   UNL A   1      32.174  21.430  25.221  1.00  0.00     0.228 C 
ATOM     12  N   UNL A   1      32.140  20.064  25.326  1.00  0.00    -0.326 N 
ATOM     13  H   UNL A   1      31.711  19.752  26.154  1.00  0.00     0.169 HD
ATOM     14  O   UNL A   1      31.772  22.167  26.111  1.00  0.00    -0.274 OA
BRANCH  12  15
ATOM     15  C   UNL A   1      32.589  19.003  24.498  1.00  0.00     0.041 A 
ATOM     16  C   UNL A   1      35.024  16.146  25.131  1.00  0.00     0.044 C 
ATOM     17  C   UNL A   1      34.044  17.036  24.432  1.00  0.00    -0.049 A 
ATOM     18  C   UNL A   1      33.732  16.828  23.089  1.00  0.00     0.003 A 
ATOM     19  C   UNL A   1      33.481  18.124  25.116  1.00  0.00     0.029 A 
ATOM     20  C   UNL A   1      32.841  17.680  22.454  1.00  0.00     0.002 A 
ATOM     21  C   UNL A   1      32.270  18.751  23.155  1.00  0.00     0.026 A 
ENDBRANCH  12  15
ENDBRANCH   9  11
ENDBRANCH   6   8
ENDBRANCH   5   6
ENDBRANCH   4   5
ENDBRANCH   3   4
ENDBRANCH   2   3
ENDBRANCH   1   2
BRANCH   1  22
ATOM     22  C   UNL A   1      41.933  21.619  27.637  1.00  0.00     0.188 C 
BRANCH  22  23
ATOM     23  O   UNL A   1      42.078  21.092  26.334  1.00  0.00    -0.376 OA
BRANCH  23  24
ATOM     24  C   UNL A   1      42.085  19.684  26.224  1.00  0.00     0.202 C 
BRANCH  24  25
ATOM     25  C   UNL A   1      43.408  19.195  25.614  1.00  0.00     0.261 C 
BRANCH  25  26
ATOM     26  O   UNL A   1      43.725  19.967  24.425  1.00  0.00    -0.460 OA
BRANCH  26  27
ATOM     27  C   UNL A   1      45.047  20.265  24.183  1.00  0.00     0.338 C 
ATOM     28  O   UNL A   1      45.918  19.430  23.989  1.00  0.00    -0.246 OA
BRANCH  27  29
ATOM     29  C   UNL A   1      45.317  21.730  24.439  1.00  0.00     0.060 A 
ATOM     30  C   UNL A   1      46.208  22.265  25.385  1.00  0.00     0.016 A 
ATOM     31  C   UNL A   1      44.372  22.590  24.003  1.00  0.00     0.016 A 
ATOM     32  C   UNL A   1      45.991  23.582  26.007  1.00  0.00     0.010 A 
ATOM     33  C   UNL A   1      44.079  23.650  24.866  1.00  0.00     0.010 A 
ATOM     34  C   UNL A   1      44.807  24.329  25.858  1.00  0.00    -0.014 A 
BRANCH  34  35
ATOM     35  C   UNL A   1      44.220  25.492  26.906  1.00  0.00     0.031 A 
ATOM     36  C   UNL A   1      42.733  26.263  27.218  1.00  0.00     0.074 A 
ATOM     37  C   UNL A   1      45.157  26.002  27.746  1.00  0.00     0.049 A 
ATOM     38  N   UNL A   1      42.617  27.559  27.499  1.00  0.00    -0.248 NA
ATOM     39  C   UNL A   1      41.317  25.758  27.151  1.00  0.00     0.031 C 
ATOM     40  C   UNL A   1      44.940  26.838  28.926  1.00  0.00     0.029 A 
ATOM     41  N   UNL A   1      46.551  25.934  27.641  1.00  0.00    -0.354 N 
ATOM     42  C   UNL A   1      41.257  27.882  27.696  1.00  0.00     0.074 A 
ATOM     43  C   UNL A   1      40.503  26.783  27.277  1.00  0.00     0.031 C 
ATOM     44  C   UNL A   1      46.095  27.437  29.250  1.00  0.00     0.029 A 
ATOM     45  C   UNL A   1      47.061  27.100  28.225  1.00  0.00     0.049 A 
ATOM     46  H   UNL A   1      47.074  25.206  27.235  1.00  0.00     0.167 HD
ATOM     47  C   UNL A   1      40.749  28.955  28.359  1.00  0.00     0.037 A 
ATOM     48  C   UNL A   1      47.845  27.968  27.531  1.00  0.00     0.037 A 
ATOM     49  C   UNL A   1      41.820  29.728  28.895  1.00  0.00     0.049 A 
ATOM     50  C   UNL A   1      47.329  29.385  27.546  1.00  0.00     0.074 A 
ATOM     51  C   UNL A   1      42.481  29.680  30.107  1.00  0.00     0.029 A 
ATOM     52  N   UNL A   1      42.624  30.407  28.009  1.00  0.00    -0.354 N 
ATOM     53  N   UNL A   1      46.125  29.718  27.920  1.00  0.00    -0.248 NA
ATOM     54  C   UNL A   1      48.114  30.539  27.123  1.00  0.00     0.031 C 
ATOM     55  C   UNL A   1      43.715  30.350  29.940  1.00  0.00     0.029 A 
ATOM     56  C   UNL A   1      43.770  30.825  28.642  1.00  0.00     0.049 A 
ATOM     57  H   UNL A   1      42.410  30.570  27.062  1.00  0.00     0.167 HD
ATOM     58  C   UNL A   1      45.934  31.063  27.720  1.00  0.00     0.074 A 
ATOM     59  C   UNL A   1      47.224  31.537  27.266  1.00  0.00     0.031 C 
ATOM     60  C   UNL A   1      44.712  31.642  27.905  1.00  0.00     0.037 A 
BRANCH  47  61
ATOM     61  C   UNL A   1      39.286  29.005  28.796  1.00  0.00     0.057 A 
ATOM     62  C   UNL A   1      38.302  29.558  27.961  1.00  0.00     0.134 A 
ATOM     63  C   UNL A   1      38.813  28.633  30.074  1.00  0.00     0.134 A 
ATOM     64  F   UNL A   1      38.556  29.840  26.677  1.00  0.00    -0.206 F 
ATOM     65  C   UNL A   1      37.010  29.872  28.410  1.00  0.00     0.040 A 
ATOM     66  C   UNL A   1      37.549  29.011  30.564  1.00  0.00     0.040 A 
ATOM     67  F   UNL A   1      39.572  27.906  30.910  1.00  0.00    -0.206 F 
ATOM     68  C   UNL A   1      36.647  29.655  29.732  1.00  0.00     0.006 A 
ENDBRANCH  47  61
BRANCH  48  69
ATOM     69  C   UNL A   1      48.647  27.328  26.450  1.00  0.00     0.057 A 
ATOM     70  C   UNL A   1      48.129  27.331  25.140  1.00  0.00     0.134 A 
ATOM     71  C   UNL A   1      50.008  27.039  26.586  1.00  0.00     0.134 A 
ATOM     72  F   UNL A   1      46.834  27.614  24.930  1.00  0.00    -0.206 F 
ATOM     73  C   UNL A   1      48.939  27.152  24.014  1.00  0.00     0.040 A 
ATOM     74  C   UNL A   1      50.831  26.843  25.463  1.00  0.00     0.040 A 
ATOM     75  F   UNL A   1      50.595  27.060  27.791  1.00  0.00    -0.206 F 
ATOM     76  C   UNL A   1      50.302  26.930  24.174  1.00  0.00     0.006 A 
ENDBRANCH  48  69
BRANCH  60  77
ATOM     77  C   UNL A   1      44.231  32.997  27.419  1.00  0.00     0.057 A 
ATOM     78  C   UNL A   1      44.095  33.356  26.075  1.00  0.00     0.134 A 
ATOM     79  C   UNL A   1      43.692  33.938  28.339  1.00  0.00     0.134 A 
ATOM     80  F   UNL A   1      44.471  32.543  25.082  1.00  0.00    -0.206 F 
ATOM     81  C   UNL A   1      43.495  34.560  25.673  1.00  0.00     0.040 A 
ATOM     82  C   UNL A   1      43.027  35.103  27.946  1.00  0.00     0.040 A 
ATOM     83  F   UNL A   1      43.754  33.756  29.667  1.00  0.00    -0.206 F 
ATOM     84  C   UNL A   1      42.937  35.425  26.605  1.00  0.00     0.006 A 
ENDBRANCH  60  77
ENDBRANCH  34  35
ENDBRANCH  27  29
ENDBRANCH  26  27
ENDBRANCH  25  26
ENDBRANCH  24  25
ENDBRANCH  23  24
ENDBRANCH  22  23
ENDBRANCH   1  22
TORSDOF 19
ENDMDL
MODEL 3
REMARK VINA RESULT:     -11.7      5.540     11.257
REMARK SMILES Cc1cccc(NC(=O)[C@H]2C[C@H]2C(=O)OCCOCCOCCOC(=O)c2ccc(-c3c4nc(c(-c5c(F)cccc5F)c5ccc([nH]5)c(-c5c(F)cccc5F)c5nc(c(-c6c(F)cccc6F)c6ccc3[nH]6)C=C5)C=C4)cc2)c1
REMARK SMILES IDX 19 1 18 2 17 3 16 4 15 5 13 6 14 7 12 8 10 9 11 10 8 11 7 12
REMARK SMILES IDX 9 14 6 15 1 16 2 17 3 18 81 19 4 20 5 21 20 22 21 23 22 24
REMARK SMILES IDX 23 25 24 26 25 27 26 28 27 29 28 30 80 31 29 32 79 33 30 34
REMARK SMILES IDX 31 35 32 36 73 37 33 38 78 39 72 40 74 41 34 42 77 43 71 44
REMARK SMILES IDX 70 45 35 47 61 48 44 49 60 50 45 51 48 52 59 53 75 54 46 55
REMARK SMILES IDX 47 56 58 58 76 59 49 60 36 61 37 62 42 63 38 64 39 65 41 66
REMARK SMILES IDX 43 67 40 68 62 69 63 70 68 71 64 72 65 73 67 74 69 75 66 76
REMARK SMILES IDX 50 77 51 78 56 79 52 80 53 81 55 82 57 83 54 84
REMARK H PARENT 7 13 74 46 48 57
REMARK Flexibility Score: inf
ROOT
ATOM      1  C   UNL A   1      40.537  21.511  26.720  1.00  0.00     0.188 C 
ENDROOT
BRANCH   1   2
ATOM      2  O   UNL A   1      39.470  21.102  25.831  1.00  0.00    -0.376 OA
BRANCH   2   3
ATOM      3  C   UNL A   1      38.260  21.832  25.616  1.00  0.00     0.202 C 
BRANCH   3   4
ATOM      4  C   UNL A   1      36.846  21.220  24.937  1.00  0.00     0.261 C 
BRANCH   4   5
ATOM      5  O   UNL A   1      35.208  21.747  25.017  1.00  0.00    -0.463 OA
BRANCH   5   6
ATOM      6  C   UNL A   1      34.275  22.548  24.267  1.00  0.00     0.309 C 
ATOM      7  O   UNL A   1      33.392  22.185  23.512  1.00  0.00    -0.252 OA
BRANCH   6   8
ATOM      8  C   UNL A   1      34.078  24.013  24.395  1.00  0.00     0.112 C 
ATOM      9  C   UNL A   1      33.744  25.019  25.451  1.00  0.00     0.094 C 
ATOM     10  C   UNL A   1      35.099  24.463  25.486  1.00  0.00     0.030 C 
BRANCH   9  11
ATOM     11  C   UNL A   1      32.538  24.662  26.161  1.00  0.00     0.228 C 
ATOM     12  N   UNL A   1      31.445  25.462  25.956  1.00  0.00    -0.326 N 
ATOM     13  H   UNL A   1      30.660  25.182  26.480  1.00  0.00     0.169 HD
ATOM     14  O   UNL A   1      32.499  23.665  26.870  1.00  0.00    -0.274 OA
BRANCH  12  15
ATOM     15  C   UNL A   1      31.200  26.606  25.153  1.00  0.00     0.041 A 
ATOM     16  C   UNL A   1      31.789  30.315  25.773  1.00  0.00     0.044 C 
ATOM     17  C   UNL A   1      31.390  29.045  25.089  1.00  0.00    -0.049 A 
ATOM     18  C   UNL A   1      30.770  29.078  23.840  1.00  0.00     0.003 A 
ATOM     19  C   UNL A   1      31.587  27.815  25.734  1.00  0.00     0.029 A 
ATOM     20  C   UNL A   1      30.385  27.890  23.235  1.00  0.00     0.002 A 
ATOM     21  C   UNL A   1      30.606  26.667  23.884  1.00  0.00     0.026 A 
ENDBRANCH  12  15
ENDBRANCH   9  11
ENDBRANCH   6   8
ENDBRANCH   5   6
ENDBRANCH   4   5
ENDBRANCH   3   4
ENDBRANCH   2   3
ENDBRANCH   1   2
BRANCH   1  22
ATOM     22  C   UNL A   1      41.729  20.610  27.034  1.00  0.00     0.188 C 
BRANCH  22  23
ATOM     23  O   UNL A   1      42.087  19.931  25.848  1.00  0.00    -0.376 OA
BRANCH  23  24
ATOM     24  C   UNL A   1      42.622  18.634  26.004  1.00  0.00     0.202 C 
BRANCH  24  25
ATOM     25  C   UNL A   1      44.004  18.535  25.340  1.00  0.00     0.261 C 
BRANCH  25  26
ATOM     26  O   UNL A   1      44.163  19.592  24.357  1.00  0.00    -0.460 OA
BRANCH  26  27
ATOM     27  C   UNL A   1      45.390  20.209  24.267  1.00  0.00     0.338 C 
ATOM     28  O   UNL A   1      46.462  19.631  24.372  1.00  0.00    -0.246 OA
BRANCH  27  29
ATOM     29  C   UNL A   1      45.232  21.712  24.274  1.00  0.00     0.060 A 
ATOM     30  C   UNL A   1      46.176  22.652  24.723  1.00  0.00     0.016 A 
ATOM     31  C   UNL A   1      43.965  22.174  24.202  1.00  0.00     0.016 A 
ATOM     32  C   UNL A   1      45.778  23.957  25.276  1.00  0.00     0.010 A 
ATOM     33  C   UNL A   1      43.675  23.266  25.025  1.00  0.00     0.010 A 
ATOM     34  C   UNL A   1      44.447  24.306  25.572  1.00  0.00    -0.014 A 
BRANCH  34  35
ATOM     35  C   UNL A   1      43.935  25.453  26.676  1.00  0.00     0.031 A 
ATOM     36  C   UNL A   1      42.482  26.249  27.075  1.00  0.00     0.074 A 
ATOM     37  C   UNL A   1      44.921  25.919  27.485  1.00  0.00     0.049 A 
ATOM     38  N   UNL A   1      42.409  27.538  27.395  1.00  0.00    -0.248 NA
ATOM     39  C   UNL A   1      41.053  25.776  27.060  1.00  0.00     0.031 C 
ATOM     40  C   UNL A   1      44.778  26.728  28.694  1.00  0.00     0.029 A 
ATOM     41  N   UNL A   1      46.307  25.823  27.314  1.00  0.00    -0.354 N 
ATOM     42  C   UNL A   1      41.068  27.886  27.662  1.00  0.00     0.074 A 
ATOM     43  C   UNL A   1      40.270  26.816  27.250  1.00  0.00     0.031 C 
ATOM     44  C   UNL A   1      45.960  27.292  28.980  1.00  0.00     0.029 A 
ATOM     45  C   UNL A   1      46.870  26.961  27.904  1.00  0.00     0.049 A 
ATOM     46  H   UNL A   1      46.793  25.095  26.865  1.00  0.00     0.167 HD
ATOM     47  C   UNL A   1      40.615  28.952  28.375  1.00  0.00     0.037 A 
ATOM     48  C   UNL A   1      47.642  27.830  27.198  1.00  0.00     0.037 A 
ATOM     49  C   UNL A   1      41.727  29.686  28.882  1.00  0.00     0.049 A 
ATOM     50  C   UNL A   1      47.160  29.257  27.273  1.00  0.00     0.074 A 
ATOM     51  C   UNL A   1      42.441  29.591  30.060  1.00  0.00     0.029 A 
ATOM     52  N   UNL A   1      42.506  30.371  27.978  1.00  0.00    -0.354 N 
ATOM     53  N   UNL A   1      45.982  29.607  27.711  1.00  0.00    -0.248 NA
ATOM     54  C   UNL A   1      47.952  30.405  26.844  1.00  0.00     0.031 C 
ATOM     55  C   UNL A   1      43.682  30.237  29.855  1.00  0.00     0.029 A 
ATOM     56  C   UNL A   1      43.690  30.746  28.568  1.00  0.00     0.049 A 
ATOM     57  H   UNL A   1      42.254  30.564  27.046  1.00  0.00     0.167 HD
ATOM     58  C   UNL A   1      45.815  30.961  27.554  1.00  0.00     0.074 A 
ATOM     59  C   UNL A   1      47.093  31.418  27.054  1.00  0.00     0.031 C 
ATOM     60  C   UNL A   1      44.616  31.562  27.811  1.00  0.00     0.037 A 
BRANCH  47  61
ATOM     61  C   UNL A   1      39.176  29.022  28.880  1.00  0.00     0.057 A 
ATOM     62  C   UNL A   1      38.151  29.536  28.069  1.00  0.00     0.134 A 
ATOM     63  C   UNL A   1      38.766  28.712  30.196  1.00  0.00     0.134 A 
ATOM     64  F   UNL A   1      38.342  29.757  26.763  1.00  0.00    -0.206 F 
ATOM     65  C   UNL A   1      36.881  29.871  28.566  1.00  0.00     0.040 A 
ATOM     66  C   UNL A   1      37.527  29.112  30.729  1.00  0.00     0.040 A 
ATOM     67  F   UNL A   1      39.567  28.025  31.028  1.00  0.00    -0.206 F 
ATOM     68  C   UNL A   1      36.584  29.717  29.913  1.00  0.00     0.006 A 
ENDBRANCH  47  61
BRANCH  48  69
ATOM     69  C   UNL A   1      48.379  27.201  26.065  1.00  0.00     0.057 A 
ATOM     70  C   UNL A   1      47.800  27.248  24.781  1.00  0.00     0.134 A 
ATOM     71  C   UNL A   1      49.738  26.882  26.129  1.00  0.00     0.134 A 
ATOM     72  F   UNL A   1      46.502  27.562  24.639  1.00  0.00    -0.206 F 
ATOM     73  C   UNL A   1      48.553  27.081  23.614  1.00  0.00     0.040 A 
ATOM     74  C   UNL A   1      50.503  26.699  24.964  1.00  0.00     0.040 A 
ATOM     75  F   UNL A   1      50.382  26.862  27.305  1.00  0.00    -0.206 F 
ATOM     76  C   UNL A   1      49.916  26.828  23.703  1.00  0.00     0.006 A 
ENDBRANCH  48  69
BRANCH  60  77
ATOM     77  C   UNL A   1      44.145  32.939  27.383  1.00  0.00     0.057 A 
ATOM     78  C   UNL A   1      44.000  33.353  26.054  1.00  0.00     0.134 A 
ATOM     79  C   UNL A   1      43.625  33.850  28.343  1.00  0.00     0.134 A 
ATOM     80  F   UNL A   1      44.359  32.575  25.027  1.00  0.00    -0.206 F 
ATOM     81  C   UNL A   1      43.411  34.577  25.706  1.00  0.00     0.040 A 
ATOM     82  C   UNL A   1      42.969  35.035  28.003  1.00  0.00     0.040 A 
ATOM     83  F   UNL A   1      43.697  33.615  29.662  1.00  0.00    -0.206 F 
ATOM     84  C   UNL A   1      42.871  35.411  26.676  1.00  0.00     0.006 A 
ENDBRANCH  60  77
ENDBRANCH  34  35
ENDBRANCH  27  29
ENDBRANCH  26  27
ENDBRANCH  25  26
ENDBRANCH  24  25
ENDBRANCH  23  24
ENDBRANCH  22  23
ENDBRANCH   1  22
TORSDOF 19
ENDMDL
