MODEL 1
REMARK VINA RESULT:     -10.7      0.000      0.000
REMARK SMILES CNC(=O)NC1=[NH+]N=CN[C@@H]1C(=O)OCCOCCOCCOC(=O)c1ccc(-c2c3nc(c(-c4c(F)cccc4F)c4ccc([nH]4)c(-c4c(F)cccc4F)c4nc(c(-c5c(F)cccc5F)c5ccc2[nH]5)C=C4)C=C3)cc1
REMARK SMILES IDX 19 1 18 2 17 3 16 4 15 5 14 6 12 7 13 8 11 9 1 10 2 11 3 12
REMARK SMILES IDX 4 14 5 15 6 16 7 18 8 19 10 21 9 22 20 24 21 25 22 26 23 27
REMARK SMILES IDX 24 28 25 29 26 30 27 31 79 32 28 33 78 34 29 35 30 36 31 37
REMARK SMILES IDX 72 38 32 39 77 40 71 41 73 42 33 43 76 44 70 45 69 46 34 48
REMARK SMILES IDX 60 49 43 50 59 51 44 52 47 53 58 54 74 55 45 56 46 57 57 59
REMARK SMILES IDX 75 60 48 61 35 62 36 63 41 64 37 65 38 66 40 67 42 68 39 69
REMARK SMILES IDX 61 70 62 71 67 72 63 73 64 74 66 75 68 76 65 77 49 78 50 79
REMARK SMILES IDX 55 80 51 81 52 82 54 83 56 84 53 85
REMARK H PARENT 2 13 5 17 7 20 10 23 73 47 47 58
REMARK Flexibility Score: inf
ROOT
ATOM      1  C   UNL A   1      33.908  33.746  28.296  1.00  0.00     0.188 C 
ENDROOT
BRANCH   1   2
ATOM      2  C   UNL A   1      34.143  32.237  28.406  1.00  0.00     0.188 C 
BRANCH   2   3
ATOM      3  O   UNL A   1      33.970  31.433  27.262  1.00  0.00    -0.376 OA
BRANCH   3   4
ATOM      4  C   UNL A   1      32.887  30.510  27.222  1.00  0.00     0.202 C 
BRANCH   4   5
ATOM      5  C   UNL A   1      33.112  28.990  27.112  1.00  0.00     0.261 C 
BRANCH   5   6
ATOM      6  O   UNL A   1      33.304  28.515  25.768  1.00  0.00    -0.461 OA
BRANCH   6   7
ATOM      7  C   UNL A   1      32.163  28.235  25.070  1.00  0.00     0.341 C 
ATOM      8  O   UNL A   1      31.182  27.703  25.578  1.00  0.00    -0.249 OA
BRANCH   7   9
ATOM      9  C   UNL A   1      32.161  28.840  23.659  1.00  0.00     0.308 C 
ATOM     10  C   UNL A   1      29.504  30.175  22.036  1.00  0.00     0.147 C 
ATOM     11  N   UNL A   1      29.027  29.221  23.015  1.00  0.00    -0.321 N 
ATOM     12  C   UNL A   1      29.295  27.892  23.092  1.00  0.00     0.406 C 
ATOM     13  H   UNL A   1      28.434  29.581  23.713  1.00  0.00     0.167 HD
ATOM     14  O   UNL A   1      28.499  27.150  23.661  1.00  0.00    -0.221 OA
ATOM     15  N   UNL A   1      30.428  27.412  22.503  1.00  0.00    -0.191 N 
ATOM     16  C   UNL A   1      31.746  27.779  22.645  1.00  0.00     0.311 C 
ATOM     17  H   UNL A   1      30.276  26.677  21.866  1.00  0.00     0.317 HD
ATOM     18  N   UNL A   1      32.585  27.141  21.885  1.00  0.00    -0.148 N 
ATOM     19  N   UNL A   1      33.939  27.534  21.878  1.00  0.00    -0.077 NA
ATOM     20  H   UNL A   1      32.279  26.394  21.321  1.00  0.00     0.342 HD
ATOM     21  N   UNL A   1      33.447  29.398  23.250  1.00  0.00    -0.350 N 
ATOM     22  C   UNL A   1      34.258  28.629  22.484  1.00  0.00     0.241 C 
ATOM     23  H   UNL A   1      33.716  30.304  23.524  1.00  0.00     0.163 HD
ENDBRANCH   7   9
ENDBRANCH   6   7
ENDBRANCH   5   6
ENDBRANCH   4   5
ENDBRANCH   3   4
ENDBRANCH   2   3
ENDBRANCH   1   2
BRANCH   1  24
ATOM     24  O   UNL A   1      33.097  34.436  29.216  1.00  0.00    -0.376 OA
BRANCH  24  25
ATOM     25  C   UNL A   1      33.655  35.035  30.381  1.00  0.00     0.202 C 
BRANCH  25  26
ATOM     26  C   UNL A   1      34.323  34.297  31.569  1.00  0.00     0.261 C 
BRANCH  26  27
ATOM     27  O   UNL A   1      35.680  33.867  31.433  1.00  0.00    -0.460 OA
BRANCH  27  28
ATOM     28  C   UNL A   1      36.083  32.915  32.313  1.00  0.00     0.338 C 
ATOM     29  O   UNL A   1      35.544  32.612  33.367  1.00  0.00    -0.246 OA
BRANCH  28  30
ATOM     30  C   UNL A   1      37.123  32.093  31.655  1.00  0.00     0.060 A 
ATOM     31  C   UNL A   1      38.037  31.398  32.465  1.00  0.00     0.016 A 
ATOM     32  C   UNL A   1      37.181  31.978  30.267  1.00  0.00     0.016 A 
ATOM     33  C   UNL A   1      39.023  30.599  31.890  1.00  0.00     0.010 A 
ATOM     34  C   UNL A   1      38.196  31.210  29.690  1.00  0.00     0.010 A 
ATOM     35  C   UNL A   1      39.136  30.539  30.497  1.00  0.00    -0.014 A 
BRANCH  35  36
ATOM     36  C   UNL A   1      40.357  29.961  29.882  1.00  0.00     0.031 A 
ATOM     37  C   UNL A   1      41.536  30.870  29.664  1.00  0.00     0.074 A 
ATOM     38  C   UNL A   1      40.428  28.666  29.531  1.00  0.00     0.049 A 
ATOM     39  N   UNL A   1      42.667  30.633  29.054  1.00  0.00    -0.248 NA
ATOM     40  C   UNL A   1      41.416  32.234  30.206  1.00  0.00     0.031 C 
ATOM     41  C   UNL A   1      39.381  27.668  29.738  1.00  0.00     0.029 A 
ATOM     42  N   UNL A   1      41.434  27.973  28.903  1.00  0.00    -0.354 N 
ATOM     43  C   UNL A   1      43.385  31.820  29.122  1.00  0.00     0.074 A 
ATOM     44  C   UNL A   1      42.555  32.782  29.813  1.00  0.00     0.031 C 
ATOM     45  C   UNL A   1      39.790  26.495  29.221  1.00  0.00     0.029 A 
ATOM     46  C   UNL A   1      41.108  26.670  28.613  1.00  0.00     0.049 A 
ATOM     47  H   UNL A   1      42.308  28.372  28.681  1.00  0.00     0.167 HD
ATOM     48  C   UNL A   1      44.627  32.084  28.652  1.00  0.00     0.037 A 
ATOM     49  C   UNL A   1      41.783  25.741  27.906  1.00  0.00     0.037 A 
ATOM     50  C   UNL A   1      45.451  31.128  27.965  1.00  0.00     0.049 A 
ATOM     51  C   UNL A   1      43.129  26.087  27.319  1.00  0.00     0.074 A 
ATOM     52  C   UNL A   1      46.731  31.298  27.466  1.00  0.00     0.029 A 
ATOM     53  N   UNL A   1      45.076  29.827  27.671  1.00  0.00    -0.354 N 
ATOM     54  N   UNL A   1      43.810  27.206  27.403  1.00  0.00    -0.248 NA
ATOM     55  C   UNL A   1      43.801  25.039  26.535  1.00  0.00     0.031 C 
ATOM     56  C   UNL A   1      47.107  30.118  26.817  1.00  0.00     0.029 A 
ATOM     57  C   UNL A   1      46.089  29.191  26.973  1.00  0.00     0.049 A 
ATOM     58  H   UNL A   1      44.217  29.416  27.921  1.00  0.00     0.167 HD
ATOM     59  C   UNL A   1      45.001  26.981  26.720  1.00  0.00     0.074 A 
ATOM     60  C   UNL A   1      44.956  25.618  26.237  1.00  0.00     0.031 C 
ATOM     61  C   UNL A   1      46.041  27.827  26.513  1.00  0.00     0.037 A 
BRANCH  48  62
ATOM     62  C   UNL A   1      45.158  33.476  28.837  1.00  0.00     0.057 A 
ATOM     63  C   UNL A   1      45.928  33.836  29.949  1.00  0.00     0.134 A 
ATOM     64  C   UNL A   1      44.933  34.455  27.861  1.00  0.00     0.134 A 
ATOM     65  F   UNL A   1      46.165  32.950  30.928  1.00  0.00    -0.206 F 
ATOM     66  C   UNL A   1      46.444  35.125  30.091  1.00  0.00     0.040 A 
ATOM     67  C   UNL A   1      45.468  35.738  27.978  1.00  0.00     0.040 A 
ATOM     68  F   UNL A   1      44.204  34.176  26.770  1.00  0.00    -0.206 F 
ATOM     69  C   UNL A   1      46.223  36.078  29.098  1.00  0.00     0.006 A 
ENDBRANCH  48  62
BRANCH  49  70
ATOM     70  C   UNL A   1      41.193  24.395  27.677  1.00  0.00     0.057 A 
ATOM     71  C   UNL A   1      41.675  23.267  28.350  1.00  0.00     0.134 A 
ATOM     72  C   UNL A   1      40.172  24.197  26.739  1.00  0.00     0.134 A 
ATOM     73  F   UNL A   1      42.671  23.387  29.241  1.00  0.00    -0.206 F 
ATOM     74  C   UNL A   1      41.185  21.987  28.080  1.00  0.00     0.040 A 
ATOM     75  C   UNL A   1      39.650  22.927  26.481  1.00  0.00     0.040 A 
ATOM     76  F   UNL A   1      39.666  25.235  26.058  1.00  0.00    -0.206 F 
ATOM     77  C   UNL A   1      40.166  21.816  27.145  1.00  0.00     0.006 A 
ENDBRANCH  49  70
BRANCH  61  78
ATOM     78  C   UNL A   1      47.242  27.292  25.784  1.00  0.00     0.057 A 
ATOM     79  C   UNL A   1      47.405  27.442  24.402  1.00  0.00     0.134 A 
ATOM     80  C   UNL A   1      48.274  26.657  26.490  1.00  0.00     0.134 A 
ATOM     81  F   UNL A   1      46.452  28.032  23.665  1.00  0.00    -0.206 F 
ATOM     82  C   UNL A   1      48.538  26.959  23.744  1.00  0.00     0.040 A 
ATOM     83  C   UNL A   1      49.425  26.199  25.848  1.00  0.00     0.040 A 
ATOM     84  F   UNL A   1      48.189  26.490  27.819  1.00  0.00    -0.206 F 
ATOM     85  C   UNL A   1      49.557  26.343  24.470  1.00  0.00     0.006 A 
ENDBRANCH  61  78
ENDBRANCH  35  36
ENDBRANCH  28  30
ENDBRANCH  27  28
ENDBRANCH  26  27
ENDBRANCH  25  26
ENDBRANCH  24  25
ENDBRANCH   1  24
TORSDOF 17
ENDMDL
MODEL 2
REMARK VINA RESULT:     -10.4      1.367      2.240
REMARK SMILES CNC(=O)NC1=[NH+]N=CN[C@@H]1C(=O)OCCOCCOCCOC(=O)c1ccc(-c2c3nc(c(-c4c(F)cccc4F)c4ccc([nH]4)c(-c4c(F)cccc4F)c4nc(c(-c5c(F)cccc5F)c5ccc2[nH]5)C=C4)C=C3)cc1
REMARK SMILES IDX 19 1 18 2 17 3 16 4 15 5 14 6 12 7 13 8 11 9 1 10 2 11 3 12
REMARK SMILES IDX 4 14 5 15 6 16 7 18 8 19 10 21 9 22 20 24 21 25 22 26 23 27
REMARK SMILES IDX 24 28 25 29 26 30 27 31 79 32 28 33 78 34 29 35 30 36 31 37
REMARK SMILES IDX 72 38 32 39 77 40 71 41 73 42 33 43 76 44 70 45 69 46 34 48
REMARK SMILES IDX 60 49 43 50 59 51 44 52 47 53 58 54 74 55 45 56 46 57 57 59
REMARK SMILES IDX 75 60 48 61 35 62 36 63 41 64 37 65 38 66 40 67 42 68 39 69
REMARK SMILES IDX 61 70 62 71 67 72 63 73 64 74 66 75 68 76 65 77 49 78 50 79
REMARK SMILES IDX 55 80 51 81 52 82 54 83 56 84 53 85
REMARK H PARENT 2 13 5 17 7 20 10 23 73 47 47 58
REMARK Flexibility Score: inf
ROOT
ATOM      1  C   UNL A   1      34.441  32.695  28.050  1.00  0.00     0.188 C 
ENDROOT
BRANCH   1   2
ATOM      2  C   UNL A   1      33.950  31.250  27.913  1.00  0.00     0.188 C 
BRANCH   2   3
ATOM      3  O   UNL A   1      33.447  30.814  26.670  1.00  0.00    -0.376 OA
BRANCH   3   4
ATOM      4  C   UNL A   1      32.226  30.084  26.635  1.00  0.00     0.202 C 
BRANCH   4   5
ATOM      5  C   UNL A   1      31.948  28.912  27.595  1.00  0.00     0.261 C 
BRANCH   5   6
ATOM      6  O   UNL A   1      31.596  27.680  26.940  1.00  0.00    -0.461 OA
BRANCH   6   7
ATOM      7  C   UNL A   1      32.625  27.021  26.327  1.00  0.00     0.341 C 
ATOM      8  O   UNL A   1      33.805  27.290  26.526  1.00  0.00    -0.249 OA
BRANCH   7   9
ATOM      9  C   UNL A   1      32.160  25.788  25.538  1.00  0.00     0.308 C 
ATOM     10  C   UNL A   1      31.440  25.661  22.230  1.00  0.00     0.147 C 
ATOM     11  N   UNL A   1      31.256  27.018  22.700  1.00  0.00    -0.321 N 
ATOM     12  C   UNL A   1      30.404  27.466  23.657  1.00  0.00     0.406 C 
ATOM     13  H   UNL A   1      31.820  27.701  22.271  1.00  0.00     0.167 HD
ATOM     14  O   UNL A   1      30.034  28.636  23.631  1.00  0.00    -0.221 OA
ATOM     15  N   UNL A   1      29.956  26.592  24.603  1.00  0.00    -0.191 N 
ATOM     16  C   UNL A   1      30.637  25.766  25.468  1.00  0.00     0.311 C 
ATOM     17  H   UNL A   1      28.976  26.543  24.681  1.00  0.00     0.317 HD
ATOM     18  N   UNL A   1      29.892  25.010  26.217  1.00  0.00    -0.148 N 
ATOM     19  N   UNL A   1      30.506  24.050  27.046  1.00  0.00    -0.077 NA
ATOM     20  H   UNL A   1      28.912  25.107  26.205  1.00  0.00     0.342 HD
ATOM     21  N   UNL A   1      32.620  24.520  26.094  1.00  0.00    -0.350 N 
ATOM     22  C   UNL A   1      31.769  23.830  26.892  1.00  0.00     0.241 C 
ATOM     23  H   UNL A   1      33.522  24.177  25.896  1.00  0.00     0.163 HD
ENDBRANCH   7   9
ENDBRANCH   6   7
ENDBRANCH   5   6
ENDBRANCH   4   5
ENDBRANCH   3   4
ENDBRANCH   2   3
ENDBRANCH   1   2
BRANCH   1  24
ATOM     24  O   UNL A   1      33.616  33.708  28.570  1.00  0.00    -0.376 OA
BRANCH  24  25
ATOM     25  C   UNL A   1      34.032  34.494  29.683  1.00  0.00     0.202 C 
BRANCH  25  26
ATOM     26  C   UNL A   1      34.412  33.972  31.092  1.00  0.00     0.261 C 
BRANCH  26  27
ATOM     27  O   UNL A   1      35.796  33.827  31.419  1.00  0.00    -0.460 OA
BRANCH  27  28
ATOM     28  C   UNL A   1      36.098  32.790  32.241  1.00  0.00     0.338 C 
ATOM     29  O   UNL A   1      35.474  32.427  33.227  1.00  0.00    -0.246 OA
BRANCH  28  30
ATOM     30  C   UNL A   1      37.150  31.979  31.588  1.00  0.00     0.060 A 
ATOM     31  C   UNL A   1      38.099  31.336  32.402  1.00  0.00     0.016 A 
ATOM     32  C   UNL A   1      37.186  31.823  30.204  1.00  0.00     0.016 A 
ATOM     33  C   UNL A   1      39.097  30.548  31.833  1.00  0.00     0.010 A 
ATOM     34  C   UNL A   1      38.213  31.067  29.632  1.00  0.00     0.010 A 
ATOM     35  C   UNL A   1      39.187  30.449  30.440  1.00  0.00    -0.014 A 
BRANCH  35  36
ATOM     36  C   UNL A   1      40.412  29.888  29.820  1.00  0.00     0.031 A 
ATOM     37  C   UNL A   1      41.585  30.808  29.615  1.00  0.00     0.074 A 
ATOM     38  C   UNL A   1      40.494  28.598  29.452  1.00  0.00     0.049 A 
ATOM     39  N   UNL A   1      42.719  30.588  29.005  1.00  0.00    -0.248 NA
ATOM     40  C   UNL A   1      41.454  32.165  30.174  1.00  0.00     0.031 C 
ATOM     41  C   UNL A   1      39.454  27.590  29.644  1.00  0.00     0.029 A 
ATOM     42  N   UNL A   1      41.506  27.921  28.817  1.00  0.00    -0.354 N 
ATOM     43  C   UNL A   1      43.427  31.779  29.088  1.00  0.00     0.074 A 
ATOM     44  C   UNL A   1      42.590  32.725  29.790  1.00  0.00     0.031 C 
ATOM     45  C   UNL A   1      39.872  26.427  29.113  1.00  0.00     0.029 A 
ATOM     46  C   UNL A   1      41.190  26.620  28.510  1.00  0.00     0.049 A 
ATOM     47  H   UNL A   1      42.377  28.329  28.601  1.00  0.00     0.167 HD
ATOM     48  C   UNL A   1      44.668  32.059  28.624  1.00  0.00     0.037 A 
ATOM     49  C   UNL A   1      41.873  25.705  27.792  1.00  0.00     0.037 A 
ATOM     50  C   UNL A   1      45.501  31.117  27.926  1.00  0.00     0.049 A 
ATOM     51  C   UNL A   1      43.218  26.068  27.212  1.00  0.00     0.074 A 
ATOM     52  C   UNL A   1      46.781  31.304  27.431  1.00  0.00     0.029 A 
ATOM     53  N   UNL A   1      45.136  29.817  27.614  1.00  0.00    -0.354 N 
ATOM     54  N   UNL A   1      43.890  27.190  27.311  1.00  0.00    -0.248 NA
ATOM     55  C   UNL A   1      43.899  25.035  26.416  1.00  0.00     0.031 C 
ATOM     56  C   UNL A   1      47.166  30.135  26.768  1.00  0.00     0.029 A 
ATOM     57  C   UNL A   1      46.155  29.198  26.910  1.00  0.00     0.049 A 
ATOM     58  H   UNL A   1      44.280  29.397  27.858  1.00  0.00     0.167 HD
ATOM     59  C   UNL A   1      45.084  26.983  26.627  1.00  0.00     0.074 A 
ATOM     60  C   UNL A   1      45.049  25.626  26.127  1.00  0.00     0.031 C 
ATOM     61  C   UNL A   1      46.117  27.839  26.433  1.00  0.00     0.037 A 
BRANCH  48  62
ATOM     62  C   UNL A   1      45.189  33.451  28.827  1.00  0.00     0.057 A 
ATOM     63  C   UNL A   1      44.930  34.482  27.915  1.00  0.00     0.134 A 
ATOM     64  C   UNL A   1      45.919  33.774  29.977  1.00  0.00     0.134 A 
ATOM     65  F   UNL A   1      44.251  34.236  26.784  1.00  0.00    -0.206 F 
ATOM     66  C   UNL A   1      45.392  35.781  28.133  1.00  0.00     0.040 A 
ATOM     67  C   UNL A   1      46.361  35.075  30.221  1.00  0.00     0.040 A 
ATOM     68  F   UNL A   1      46.201  32.833  30.892  1.00  0.00    -0.206 F 
ATOM     69  C   UNL A   1      46.101  36.082  29.294  1.00  0.00     0.006 A 
ENDBRANCH  48  62
BRANCH  49  70
ATOM     70  C   UNL A   1      41.293  24.357  27.545  1.00  0.00     0.057 A 
ATOM     71  C   UNL A   1      40.244  24.174  26.636  1.00  0.00     0.134 A 
ATOM     72  C   UNL A   1      41.734  23.233  28.253  1.00  0.00     0.134 A 
ATOM     73  F   UNL A   1      39.759  25.217  25.947  1.00  0.00    -0.206 F 
ATOM     74  C   UNL A   1      39.637  22.929  26.459  1.00  0.00     0.040 A 
ATOM     75  C   UNL A   1      41.158  21.975  28.064  1.00  0.00     0.040 A 
ATOM     76  F   UNL A   1      42.734  23.339  29.140  1.00  0.00    -0.206 F 
ATOM     77  C   UNL A   1      40.097  21.824  27.172  1.00  0.00     0.006 A 
ENDBRANCH  49  70
BRANCH  61  78
ATOM     78  C   UNL A   1      47.323  27.323  25.699  1.00  0.00     0.057 A 
ATOM     79  C   UNL A   1      47.497  27.508  24.322  1.00  0.00     0.134 A 
ATOM     80  C   UNL A   1      48.350  26.669  26.396  1.00  0.00     0.134 A 
ATOM     81  F   UNL A   1      46.549  28.117  23.594  1.00  0.00    -0.206 F 
ATOM     82  C   UNL A   1      48.634  27.042  23.661  1.00  0.00     0.040 A 
ATOM     83  C   UNL A   1      49.506  26.227  25.751  1.00  0.00     0.040 A 
ATOM     84  F   UNL A   1      48.256  26.469  27.719  1.00  0.00    -0.206 F 
ATOM     85  C   UNL A   1      49.647  26.407  24.377  1.00  0.00     0.006 A 
ENDBRANCH  61  78
ENDBRANCH  35  36
ENDBRANCH  28  30
ENDBRANCH  27  28
ENDBRANCH  26  27
ENDBRANCH  25  26
ENDBRANCH  24  25
ENDBRANCH   1  24
TORSDOF 17
ENDMDL
MODEL 3
REMARK VINA RESULT:     -10.3      0.853      2.006
REMARK SMILES CNC(=O)NC1=[NH+]N=CN[C@@H]1C(=O)OCCOCCOCCOC(=O)c1ccc(-c2c3nc(c(-c4c(F)cccc4F)c4ccc([nH]4)c(-c4c(F)cccc4F)c4nc(c(-c5c(F)cccc5F)c5ccc2[nH]5)C=C4)C=C3)cc1
REMARK SMILES IDX 19 1 18 2 17 3 16 4 15 5 14 6 12 7 13 8 11 9 1 10 2 11 3 12
REMARK SMILES IDX 4 14 5 15 6 16 7 18 8 19 10 21 9 22 20 24 21 25 22 26 23 27
REMARK SMILES IDX 24 28 25 29 26 30 27 31 79 32 28 33 78 34 29 35 30 36 31 37
REMARK SMILES IDX 72 38 32 39 77 40 71 41 73 42 33 43 76 44 70 45 69 46 34 48
REMARK SMILES IDX 60 49 43 50 59 51 44 52 47 53 58 54 74 55 45 56 46 57 57 59
REMARK SMILES IDX 75 60 48 61 35 62 36 63 41 64 37 65 38 66 40 67 42 68 39 69
REMARK SMILES IDX 61 70 62 71 67 72 63 73 64 74 66 75 68 76 65 77 49 78 50 79
REMARK SMILES IDX 55 80 51 81 52 82 54 83 56 84 53 85
REMARK H PARENT 2 13 5 17 7 20 10 23 73 47 47 58
REMARK Flexibility Score: inf
ROOT
ATOM      1  C   UNL A   1      34.289  32.825  28.006  1.00  0.00     0.188 C 
ENDROOT
BRANCH   1   2
ATOM      2  C   UNL A   1      34.019  31.355  27.670  1.00  0.00     0.188 C 
BRANCH   2   3
ATOM      3  O   UNL A   1      32.876  31.025  26.915  1.00  0.00    -0.376 OA
BRANCH   3   4
ATOM      4  C   UNL A   1      32.178  29.819  27.205  1.00  0.00     0.202 C 
BRANCH   4   5
ATOM      5  C   UNL A   1      32.571  28.475  26.566  1.00  0.00     0.261 C 
BRANCH   5   6
ATOM      6  O   UNL A   1      31.802  28.123  25.402  1.00  0.00    -0.461 OA
BRANCH   6   7
ATOM      7  C   UNL A   1      31.457  26.806  25.296  1.00  0.00     0.341 C 
ATOM      8  O   UNL A   1      31.465  26.033  26.249  1.00  0.00    -0.249 OA
BRANCH   7   9
ATOM      9  C   UNL A   1      30.864  26.450  23.925  1.00  0.00     0.308 C 
ATOM     10  C   UNL A   1      32.592  25.685  21.113  1.00  0.00     0.147 C 
ATOM     11  N   UNL A   1      33.424  26.504  21.969  1.00  0.00    -0.321 N 
ATOM     12  C   UNL A   1      33.189  27.767  22.409  1.00  0.00     0.406 C 
ATOM     13  H   UNL A   1      34.266  26.094  22.269  1.00  0.00     0.167 HD
ATOM     14  O   UNL A   1      34.137  28.479  22.726  1.00  0.00    -0.221 OA
ATOM     15  N   UNL A   1      31.903  28.221  22.454  1.00  0.00    -0.191 N 
ATOM     16  C   UNL A   1      30.781  27.704  23.060  1.00  0.00     0.311 C 
ATOM     17  H   UNL A   1      31.752  29.064  21.970  1.00  0.00     0.317 HD
ATOM     18  N   UNL A   1      29.684  28.371  22.861  1.00  0.00    -0.148 N 
ATOM     19  N   UNL A   1      28.468  27.850  23.344  1.00  0.00    -0.077 NA
ATOM     20  H   UNL A   1      29.704  29.229  22.378  1.00  0.00     0.342 HD
ATOM     21  N   UNL A   1      29.538  25.841  23.991  1.00  0.00    -0.350 N 
ATOM     22  C   UNL A   1      28.462  26.642  23.801  1.00  0.00     0.241 C 
ATOM     23  H   UNL A   1      29.432  24.879  24.170  1.00  0.00     0.163 HD
ENDBRANCH   7   9
ENDBRANCH   6   7
ENDBRANCH   5   6
ENDBRANCH   4   5
ENDBRANCH   3   4
ENDBRANCH   2   3
ENDBRANCH   1   2
BRANCH   1  24
ATOM     24  O   UNL A   1      33.337  33.617  28.672  1.00  0.00    -0.376 OA
BRANCH  24  25
ATOM     25  C   UNL A   1      33.735  34.595  29.629  1.00  0.00     0.202 C 
BRANCH  25  26
ATOM     26  C   UNL A   1      34.258  34.323  31.062  1.00  0.00     0.261 C 
BRANCH  26  27
ATOM     27  O   UNL A   1      35.624  33.936  31.231  1.00  0.00    -0.460 OA
BRANCH  27  28
ATOM     28  C   UNL A   1      35.834  32.872  32.047  1.00  0.00     0.338 C 
ATOM     29  O   UNL A   1      35.128  32.506  32.976  1.00  0.00    -0.246 OA
BRANCH  28  30
ATOM     30  C   UNL A   1      36.906  32.042  31.453  1.00  0.00     0.060 A 
ATOM     31  C   UNL A   1      37.824  31.419  32.316  1.00  0.00     0.016 A 
ATOM     32  C   UNL A   1      36.991  31.852  30.075  1.00  0.00     0.016 A 
ATOM     33  C   UNL A   1      38.840  30.616  31.802  1.00  0.00     0.010 A 
ATOM     34  C   UNL A   1      38.036  31.080  29.559  1.00  0.00     0.010 A 
ATOM     35  C   UNL A   1      38.979  30.482  30.416  1.00  0.00    -0.014 A 
BRANCH  35  36
ATOM     36  C   UNL A   1      40.224  29.903  29.855  1.00  0.00     0.031 A 
ATOM     37  C   UNL A   1      41.412  30.812  29.688  1.00  0.00     0.074 A 
ATOM     38  C   UNL A   1      40.311  28.608  29.506  1.00  0.00     0.049 A 
ATOM     39  N   UNL A   1      42.568  30.574  29.127  1.00  0.00    -0.248 NA
ATOM     40  C   UNL A   1      41.269  32.176  30.224  1.00  0.00     0.031 C 
ATOM     41  C   UNL A   1      39.255  27.611  29.668  1.00  0.00     0.029 A 
ATOM     42  N   UNL A   1      41.343  27.915  28.922  1.00  0.00    -0.354 N 
ATOM     43  C   UNL A   1      43.283  31.762  29.226  1.00  0.00     0.074 A 
ATOM     44  C   UNL A   1      42.424  32.723  29.881  1.00  0.00     0.031 C 
ATOM     45  C   UNL A   1      39.685  26.438  29.169  1.00  0.00     0.029 A 
ATOM     46  C   UNL A   1      41.029  26.612  28.618  1.00  0.00     0.049 A 
ATOM     47  H   UNL A   1      42.225  28.313  28.738  1.00  0.00     0.167 HD
ATOM     48  C   UNL A   1      44.544  32.025  28.810  1.00  0.00     0.037 A 
ATOM     49  C   UNL A   1      41.733  25.683  27.941  1.00  0.00     0.037 A 
ATOM     50  C   UNL A   1      45.397  31.068  28.159  1.00  0.00     0.049 A 
ATOM     51  C   UNL A   1      43.103  26.029  27.412  1.00  0.00     0.074 A 
ATOM     52  C   UNL A   1      46.698  31.239  27.715  1.00  0.00     0.029 A 
ATOM     53  N   UNL A   1      45.035  29.768  27.848  1.00  0.00    -0.354 N 
ATOM     54  N   UNL A   1      43.780  27.147  27.525  1.00  0.00    -0.248 NA
ATOM     55  C   UNL A   1      43.808  24.980  26.658  1.00  0.00     0.031 C 
ATOM     56  C   UNL A   1      47.100  30.059  27.083  1.00  0.00     0.029 A 
ATOM     57  C   UNL A   1      46.076  29.132  27.195  1.00  0.00     0.049 A 
ATOM     58  H   UNL A   1      44.165  29.357  28.062  1.00  0.00     0.167 HD
ATOM     59  C   UNL A   1      45.000  26.922  26.895  1.00  0.00     0.074 A 
ATOM     60  C   UNL A   1      44.974  25.559  26.410  1.00  0.00     0.031 C 
ATOM     61  C   UNL A   1      46.048  27.768  26.733  1.00  0.00     0.037 A 
BRANCH  48  62
ATOM     62  C   UNL A   1      45.067  33.416  29.018  1.00  0.00     0.057 A 
ATOM     63  C   UNL A   1      45.843  33.760  30.132  1.00  0.00     0.134 A 
ATOM     64  C   UNL A   1      44.829  34.413  28.063  1.00  0.00     0.134 A 
ATOM     65  F   UNL A   1      46.093  32.858  31.092  1.00  0.00    -0.206 F 
ATOM     66  C   UNL A   1      46.351  35.050  30.295  1.00  0.00     0.040 A 
ATOM     67  C   UNL A   1      45.356  35.697  28.200  1.00  0.00     0.040 A 
ATOM     68  F   UNL A   1      44.094  34.149  26.971  1.00  0.00    -0.206 F 
ATOM     69  C   UNL A   1      46.117  36.020  29.322  1.00  0.00     0.006 A 
ENDBRANCH  48  62
BRANCH  49  70
ATOM     70  C   UNL A   1      41.153  24.337  27.686  1.00  0.00     0.057 A 
ATOM     71  C   UNL A   1      41.617  23.206  28.367  1.00  0.00     0.134 A 
ATOM     72  C   UNL A   1      40.162  24.143  26.716  1.00  0.00     0.134 A 
ATOM     73  F   UNL A   1      42.584  23.323  29.289  1.00  0.00    -0.206 F 
ATOM     74  C   UNL A   1      41.138  21.927  28.076  1.00  0.00     0.040 A 
ATOM     75  C   UNL A   1      39.651  22.874  26.435  1.00  0.00     0.040 A 
ATOM     76  F   UNL A   1      39.674  25.184  26.026  1.00  0.00    -0.206 F 
ATOM     77  C   UNL A   1      40.148  21.760  27.109  1.00  0.00     0.006 A 
ENDBRANCH  49  70
BRANCH  61  78
ATOM     78  C   UNL A   1      47.278  27.233  26.056  1.00  0.00     0.057 A 
ATOM     79  C   UNL A   1      48.297  26.582  26.763  1.00  0.00     0.134 A 
ATOM     80  C   UNL A   1      47.421  27.330  24.665  1.00  0.00     0.134 A 
ATOM     81  F   UNL A   1      48.229  26.462  28.098  1.00  0.00    -0.206 F 
ATOM     82  C   UNL A   1      49.423  26.070  26.115  1.00  0.00     0.040 A 
ATOM     83  C   UNL A   1      48.526  26.795  24.002  1.00  0.00     0.040 A 
ATOM     84  F   UNL A   1      46.477  27.930  23.924  1.00  0.00    -0.206 F 
ATOM     85  C   UNL A   1      49.536  26.169  24.729  1.00  0.00     0.006 A 
ENDBRANCH  61  78
ENDBRANCH  35  36
ENDBRANCH  28  30
ENDBRANCH  27  28
ENDBRANCH  26  27
ENDBRANCH  25  26
ENDBRANCH  24  25
ENDBRANCH   1  24
TORSDOF 17
ENDMDL
