MODEL 1
REMARK VINA RESULT:      -9.9      0.000      0.000
REMARK SMILES [NH3+][C@]1(C(=O)OCCOCCOCCOC(=O)c2ccc(-c3c4nc(c(-c5c(F)cccc5F)c5ccc([nH]5)c(-c5c(F)cccc5F)c5nc(c(-c6c(F)cccc6F)c6ccc3[nH]6)C=C5)C=C4)cc2)CCC[C@@H]1CCOc1ccc(CO)cc1
REMARK SMILES IDX 7 1 6 2 5 3 3 4 4 5 2 6 71 7 74 8 72 9 73 10 1 11 75 15
REMARK SMILES IDX 76 16 77 17 78 18 79 19 85 20 80 21 84 22 81 23 82 24 83 25
REMARK SMILES IDX 8 27 9 28 10 29 11 30 12 31 13 32 14 33 15 34 16 35 17 36
REMARK SMILES IDX 18 37 70 38 19 39 69 40 20 41 21 42 22 43 63 44 23 45 68 46
REMARK SMILES IDX 62 47 64 48 24 49 67 50 61 51 60 52 25 54 51 55 34 56 50 57
REMARK SMILES IDX 35 58 38 59 49 60 65 61 36 62 37 63 48 65 66 66 39 67 26 68
REMARK SMILES IDX 27 69 32 70 28 71 29 72 31 73 33 74 30 75 52 76 53 77 58 78
REMARK SMILES IDX 54 79 55 80 57 81 59 82 56 83 40 84 41 85 46 86 42 87 43 88
REMARK SMILES IDX 45 89 47 90 44 91
REMARK H PARENT 1 12 1 13 1 14 83 26 64 53 38 64
REMARK Flexibility Score: inf
ROOT
ATOM      1  C   UNL A   1      34.419  31.172  27.565  1.00  0.00     0.202 C 
ENDROOT
BRANCH   1   2
ATOM      2  C   UNL A   1      33.288  30.154  27.320  1.00  0.00     0.261 C 
BRANCH   2   3
ATOM      3  O   UNL A   1      33.563  28.734  27.397  1.00  0.00    -0.459 OA
BRANCH   3   4
ATOM      4  C   UNL A   1      32.539  27.870  27.207  1.00  0.00     0.368 C 
ATOM      5  O   UNL A   1      31.532  27.894  27.897  1.00  0.00    -0.245 OA
BRANCH   4   6
ATOM      6  C   UNL A   1      32.660  26.978  25.956  1.00  0.00     0.195 C 
ATOM      7  C   UNL A   1      33.965  26.174  25.975  1.00  0.00     0.081 C 
ATOM      8  C   UNL A   1      31.589  25.838  25.940  1.00  0.00     0.066 C 
ATOM      9  C   UNL A   1      33.728  25.031  25.001  1.00  0.00     0.008 C 
ATOM     10  C   UNL A   1      32.223  24.746  25.051  1.00  0.00     0.011 C 
BRANCH   6  11
ATOM     11  N   UNL A   1      32.576  27.812  24.731  1.00  0.00    -0.343 N 
ATOM     12  H   UNL A   1      33.214  28.605  24.816  1.00  0.00     0.345 HD
ATOM     13  H   UNL A   1      31.623  28.154  24.618  1.00  0.00     0.345 HD
ATOM     14  H   UNL A   1      32.836  27.252  23.919  1.00  0.00     0.345 HD
ENDBRANCH   6  11
BRANCH   8  15
ATOM     15  C   UNL A   1      30.155  26.246  25.479  1.00  0.00     0.052 C 
BRANCH  15  16
ATOM     16  C   UNL A   1      29.772  25.839  24.030  1.00  0.00     0.230 C 
BRANCH  16  17
ATOM     17  O   UNL A   1      30.175  26.727  22.954  1.00  0.00    -0.494 OA
BRANCH  17  18
ATOM     18  C   UNL A   1      29.461  27.888  22.915  1.00  0.00     0.119 A 
ATOM     19  C   UNL A   1      28.087  27.941  23.076  1.00  0.00     0.047 A 
ATOM     20  C   UNL A   1      30.132  29.052  22.615  1.00  0.00     0.047 A 
ATOM     21  C   UNL A   1      27.452  29.192  23.176  1.00  0.00     0.010 A 
ATOM     22  C   UNL A   1      29.548  30.296  22.826  1.00  0.00     0.010 A 
ATOM     23  C   UNL A   1      28.200  30.380  23.156  1.00  0.00    -0.022 A 
BRANCH  23  24
ATOM     24  C   UNL A   1      27.601  31.721  23.483  1.00  0.00     0.191 C 
BRANCH  24  25
ATOM     25  O   UNL A   1      27.755  32.645  22.415  1.00  0.00    -0.392 OA
ATOM     26  H   UNL A   1      27.772  32.165  21.573  1.00  0.00     0.211 HD
ENDBRANCH  24  25
ENDBRANCH  23  24
ENDBRANCH  17  18
ENDBRANCH  16  17
ENDBRANCH  15  16
ENDBRANCH   8  15
ENDBRANCH   4   6
ENDBRANCH   3   4
ENDBRANCH   2   3
ENDBRANCH   1   2
BRANCH   1  27
ATOM     27  O   UNL A   1      34.036  32.484  27.920  1.00  0.00    -0.376 OA
BRANCH  27  28
ATOM     28  C   UNL A   1      34.990  33.519  27.790  1.00  0.00     0.188 C 
BRANCH  28  29
ATOM     29  C   UNL A   1      34.397  34.927  27.987  1.00  0.00     0.188 C 
BRANCH  29  30
ATOM     30  O   UNL A   1      34.448  35.522  29.277  1.00  0.00    -0.376 OA
BRANCH  30  31
ATOM     31  C   UNL A   1      33.583  35.027  30.284  1.00  0.00     0.202 C 
BRANCH  31  32
ATOM     32  C   UNL A   1      34.213  34.242  31.447  1.00  0.00     0.261 C 
BRANCH  32  33
ATOM     33  O   UNL A   1      35.004  33.087  31.084  1.00  0.00    -0.460 OA
BRANCH  33  34
ATOM     34  C   UNL A   1      35.714  32.480  32.067  1.00  0.00     0.338 C 
ATOM     35  O   UNL A   1      35.421  32.427  33.256  1.00  0.00    -0.246 OA
BRANCH  34  36
ATOM     36  C   UNL A   1      36.867  31.729  31.504  1.00  0.00     0.060 A 
ATOM     37  C   UNL A   1      37.711  31.006  32.364  1.00  0.00     0.016 A 
ATOM     38  C   UNL A   1      37.168  31.789  30.143  1.00  0.00     0.016 A 
ATOM     39  C   UNL A   1      38.846  30.345  31.869  1.00  0.00     0.010 A 
ATOM     40  C   UNL A   1      38.319  31.149  29.653  1.00  0.00     0.010 A 
ATOM     41  C   UNL A   1      39.176  30.431  30.510  1.00  0.00    -0.014 A 
BRANCH  41  42
ATOM     42  C   UNL A   1      40.453  29.870  29.978  1.00  0.00     0.031 A 
ATOM     43  C   UNL A   1      41.642  30.777  29.793  1.00  0.00     0.074 A 
ATOM     44  C   UNL A   1      40.560  28.575  29.622  1.00  0.00     0.049 A 
ATOM     45  N   UNL A   1      42.778  30.550  29.183  1.00  0.00    -0.248 NA
ATOM     46  C   UNL A   1      41.531  32.121  30.380  1.00  0.00     0.031 C 
ATOM     47  C   UNL A   1      39.524  27.560  29.799  1.00  0.00     0.029 A 
ATOM     48  N   UNL A   1      41.589  27.900  29.003  1.00  0.00    -0.354 N 
ATOM     49  C   UNL A   1      43.515  31.724  29.301  1.00  0.00     0.074 A 
ATOM     50  C   UNL A   1      42.688  32.666  30.027  1.00  0.00     0.031 C 
ATOM     51  C   UNL A   1      39.952  26.402  29.264  1.00  0.00     0.029 A 
ATOM     52  C   UNL A   1      41.270  26.606  28.662  1.00  0.00     0.049 A 
ATOM     53  H   UNL A   1      42.468  28.305  28.823  1.00  0.00     0.167 HD
ATOM     54  C   UNL A   1      44.765  31.994  28.848  1.00  0.00     0.037 A 
ATOM     55  C   UNL A   1      41.936  25.708  27.906  1.00  0.00     0.037 A 
ATOM     56  C   UNL A   1      45.588  31.068  28.114  1.00  0.00     0.049 A 
ATOM     57  C   UNL A   1      43.272  26.072  27.303  1.00  0.00     0.074 A 
ATOM     58  C   UNL A   1      46.868  31.258  27.620  1.00  0.00     0.029 A 
ATOM     59  N   UNL A   1      45.211  29.783  27.757  1.00  0.00    -0.354 N 
ATOM     60  N   UNL A   1      43.964  27.178  27.428  1.00  0.00    -0.248 NA
ATOM     61  C   UNL A   1      43.915  25.063  26.445  1.00  0.00     0.031 C 
ATOM     62  C   UNL A   1      47.242  30.109  26.915  1.00  0.00     0.029 A 
ATOM     63  C   UNL A   1      46.219  29.182  27.020  1.00  0.00     0.049 A 
ATOM     64  H   UNL A   1      44.355  29.359  27.994  1.00  0.00     0.167 HD
ATOM     65  C   UNL A   1      45.125  26.990  26.685  1.00  0.00     0.074 A 
ATOM     66  C   UNL A   1      45.059  25.655  26.132  1.00  0.00     0.031 C 
ATOM     67  C   UNL A   1      46.152  27.851  26.474  1.00  0.00     0.037 A 
BRANCH  54  68
ATOM     68  C   UNL A   1      45.318  33.366  29.109  1.00  0.00     0.057 A 
ATOM     69  C   UNL A   1      46.087  33.648  30.245  1.00  0.00     0.134 A 
ATOM     70  C   UNL A   1      45.133  34.400  28.181  1.00  0.00     0.134 A 
ATOM     71  F   UNL A   1      46.298  32.705  31.176  1.00  0.00    -0.206 F 
ATOM     72  C   UNL A   1      46.634  34.915  30.459  1.00  0.00     0.040 A 
ATOM     73  C   UNL A   1      45.697  35.662  28.371  1.00  0.00     0.040 A 
ATOM     74  F   UNL A   1      44.416  34.194  27.066  1.00  0.00    -0.206 F 
ATOM     75  C   UNL A   1      46.446  35.924  29.516  1.00  0.00     0.006 A 
ENDBRANCH  54  68
BRANCH  55  76
ATOM     76  C   UNL A   1      41.328  24.382  27.604  1.00  0.00     0.057 A 
ATOM     77  C   UNL A   1      40.316  24.243  26.646  1.00  0.00     0.134 A 
ATOM     78  C   UNL A   1      41.699  23.234  28.316  1.00  0.00     0.134 A 
ATOM     79  F   UNL A   1      39.888  25.311  25.958  1.00  0.00    -0.206 F 
ATOM     80  C   UNL A   1      39.681  23.019  26.423  1.00  0.00     0.040 A 
ATOM     81  C   UNL A   1      41.096  21.997  28.080  1.00  0.00     0.040 A 
ATOM     82  F   UNL A   1      42.652  23.298  29.257  1.00  0.00    -0.206 F 
ATOM     83  C   UNL A   1      40.076  21.890  27.138  1.00  0.00     0.006 A 
ENDBRANCH  55  76
BRANCH  67  84
ATOM     84  C   UNL A   1      47.302  27.376  25.630  1.00  0.00     0.057 A 
ATOM     85  C   UNL A   1      47.334  27.579  24.244  1.00  0.00     0.134 A 
ATOM     86  C   UNL A   1      48.415  26.756  26.215  1.00  0.00     0.134 A 
ATOM     87  F   UNL A   1      46.297  28.154  23.617  1.00  0.00    -0.206 F 
ATOM     88  C   UNL A   1      48.422  27.169  23.470  1.00  0.00     0.040 A 
ATOM     89  C   UNL A   1      49.520  26.368  25.456  1.00  0.00     0.040 A 
ATOM     90  F   UNL A   1      48.456  26.539  27.539  1.00  0.00    -0.206 F 
ATOM     91  C   UNL A   1      49.524  26.570  24.078  1.00  0.00     0.006 A 
ENDBRANCH  67  84
ENDBRANCH  41  42
ENDBRANCH  34  36
ENDBRANCH  33  34
ENDBRANCH  32  33
ENDBRANCH  31  32
ENDBRANCH  30  31
ENDBRANCH  29  30
ENDBRANCH  28  29
ENDBRANCH  27  28
ENDBRANCH   1  27
TORSDOF 24
ENDMDL
MODEL 2
REMARK VINA RESULT:      -9.8      4.875      7.720
REMARK SMILES [NH3+][C@]1(C(=O)OCCOCCOCCOC(=O)c2ccc(-c3c4nc(c(-c5c(F)cccc5F)c5ccc([nH]5)c(-c5c(F)cccc5F)c5nc(c(-c6c(F)cccc6F)c6ccc3[nH]6)C=C5)C=C4)cc2)CCC[C@@H]1CCOc1ccc(CO)cc1
REMARK SMILES IDX 7 1 6 2 5 3 3 4 4 5 2 6 71 7 74 8 72 9 73 10 1 11 75 15
REMARK SMILES IDX 76 16 77 17 78 18 79 19 85 20 80 21 84 22 81 23 82 24 83 25
REMARK SMILES IDX 8 27 9 28 10 29 11 30 12 31 13 32 14 33 15 34 16 35 17 36
REMARK SMILES IDX 18 37 70 38 19 39 69 40 20 41 21 42 22 43 63 44 23 45 68 46
REMARK SMILES IDX 62 47 64 48 24 49 67 50 61 51 60 52 25 54 51 55 34 56 50 57
REMARK SMILES IDX 35 58 38 59 49 60 65 61 36 62 37 63 48 65 66 66 39 67 26 68
REMARK SMILES IDX 27 69 32 70 28 71 29 72 31 73 33 74 30 75 52 76 53 77 58 78
REMARK SMILES IDX 54 79 55 80 57 81 59 82 56 83 40 84 41 85 46 86 42 87 43 88
REMARK SMILES IDX 45 89 47 90 44 91
REMARK H PARENT 1 12 1 13 1 14 83 26 64 53 38 64
REMARK Flexibility Score: inf
ROOT
ATOM      1  C   UNL A   1      33.584  30.835  27.309  1.00  0.00     0.202 C 
ENDROOT
BRANCH   1   2
ATOM      2  C   UNL A   1      33.939  29.418  26.819  1.00  0.00     0.261 C 
BRANCH   2   3
ATOM      3  O   UNL A   1      33.654  29.032  25.452  1.00  0.00    -0.459 OA
BRANCH   3   4
ATOM      4  C   UNL A   1      33.090  27.822  25.230  1.00  0.00     0.368 C 
ATOM      5  O   UNL A   1      33.591  26.787  25.639  1.00  0.00    -0.245 OA
BRANCH   4   6
ATOM      6  C   UNL A   1      31.692  27.862  24.582  1.00  0.00     0.195 C 
ATOM      7  C   UNL A   1      31.128  29.287  24.572  1.00  0.00     0.081 C 
ATOM      8  C   UNL A   1      31.742  27.533  23.053  1.00  0.00     0.066 C 
ATOM      9  C   UNL A   1      30.038  29.263  23.513  1.00  0.00     0.008 C 
ATOM     10  C   UNL A   1      30.477  28.213  22.486  1.00  0.00     0.011 C 
BRANCH   6  11
ATOM     11  N   UNL A   1      30.776  26.941  25.301  1.00  0.00    -0.343 N 
ATOM     12  H   UNL A   1      29.871  26.925  24.830  1.00  0.00     0.345 HD
ATOM     13  H   UNL A   1      30.654  27.264  26.260  1.00  0.00     0.345 HD
ATOM     14  H   UNL A   1      31.174  26.001  25.306  1.00  0.00     0.345 HD
ENDBRANCH   6  11
BRANCH   8  15
ATOM     15  C   UNL A   1      31.846  26.022  22.676  1.00  0.00     0.052 C 
BRANCH  15  16
ATOM     16  C   UNL A   1      33.169  25.590  21.986  1.00  0.00     0.230 C 
BRANCH  16  17
ATOM     17  O   UNL A   1      33.219  24.260  21.403  1.00  0.00    -0.494 OA
BRANCH  17  18
ATOM     18  C   UNL A   1      33.419  23.274  22.324  1.00  0.00     0.119 A 
ATOM     19  C   UNL A   1      34.524  23.225  23.157  1.00  0.00     0.047 A 
ATOM     20  C   UNL A   1      32.520  22.233  22.364  1.00  0.00     0.047 A 
ATOM     21  C   UNL A   1      34.573  22.261  24.180  1.00  0.00     0.010 A 
ATOM     22  C   UNL A   1      32.489  21.348  23.435  1.00  0.00     0.010 A 
ATOM     23  C   UNL A   1      33.500  21.381  24.390  1.00  0.00    -0.022 A 
BRANCH  23  24
ATOM     24  C   UNL A   1      33.405  20.491  25.599  1.00  0.00     0.191 C 
BRANCH  24  25
ATOM     25  O   UNL A   1      34.053  19.244  25.391  1.00  0.00    -0.392 OA
ATOM     26  H   UNL A   1      34.868  19.384  24.885  1.00  0.00     0.211 HD
ENDBRANCH  24  25
ENDBRANCH  23  24
ENDBRANCH  17  18
ENDBRANCH  16  17
ENDBRANCH  15  16
ENDBRANCH   8  15
ENDBRANCH   4   6
ENDBRANCH   3   4
ENDBRANCH   2   3
ENDBRANCH   1   2
BRANCH   1  27
ATOM     27  O   UNL A   1      34.654  31.737  27.495  1.00  0.00    -0.376 OA
BRANCH  27  28
ATOM     28  C   UNL A   1      35.207  31.863  28.790  1.00  0.00     0.188 C 
BRANCH  28  29
ATOM     29  C   UNL A   1      34.573  32.996  29.620  1.00  0.00     0.188 C 
BRANCH  29  30
ATOM     30  O   UNL A   1      34.599  34.322  29.109  1.00  0.00    -0.376 OA
BRANCH  30  31
ATOM     31  C   UNL A   1      33.368  34.960  28.822  1.00  0.00     0.202 C 
BRANCH  31  32
ATOM     32  C   UNL A   1      32.839  35.987  29.838  1.00  0.00     0.261 C 
BRANCH  32  33
ATOM     33  O   UNL A   1      32.292  35.449  31.065  1.00  0.00    -0.460 OA
BRANCH  33  34
ATOM     34  C   UNL A   1      32.741  35.971  32.232  1.00  0.00     0.338 C 
ATOM     35  O   UNL A   1      32.231  36.885  32.871  1.00  0.00    -0.246 OA
BRANCH  34  36
ATOM     36  C   UNL A   1      33.893  35.189  32.756  1.00  0.00     0.060 A 
ATOM     37  C   UNL A   1      35.197  35.688  32.603  1.00  0.00     0.016 A 
ATOM     38  C   UNL A   1      33.705  33.932  33.331  1.00  0.00     0.016 A 
ATOM     39  C   UNL A   1      36.307  34.939  33.026  1.00  0.00     0.010 A 
ATOM     40  C   UNL A   1      34.818  33.172  33.728  1.00  0.00     0.010 A 
ATOM     41  C   UNL A   1      36.130  33.661  33.571  1.00  0.00    -0.014 A 
BRANCH  41  42
ATOM     42  C   UNL A   1      37.291  32.778  33.889  1.00  0.00     0.031 A 
ATOM     43  C   UNL A   1      38.094  33.030  35.139  1.00  0.00     0.074 A 
ATOM     44  C   UNL A   1      37.665  31.781  33.063  1.00  0.00     0.049 A 
ATOM     45  N   UNL A   1      39.238  32.513  35.514  1.00  0.00    -0.248 NA
ATOM     46  C   UNL A   1      37.526  33.993  36.093  1.00  0.00     0.031 C 
ATOM     47  C   UNL A   1      36.956  31.373  31.853  1.00  0.00     0.029 A 
ATOM     48  N   UNL A   1      38.762  30.950  33.106  1.00  0.00    -0.354 N 
ATOM     49  C   UNL A   1      39.534  33.095  36.743  1.00  0.00     0.074 A 
ATOM     50  C   UNL A   1      38.456  34.016  37.039  1.00  0.00     0.031 C 
ATOM     51  C   UNL A   1      37.655  30.397  31.245  1.00  0.00     0.029 A 
ATOM     52  C   UNL A   1      38.887  30.147  31.995  1.00  0.00     0.049 A 
ATOM     53  H   UNL A   1      39.396  30.932  33.859  1.00  0.00     0.167 HD
ATOM     54  C   UNL A   1      40.602  32.881  37.550  1.00  0.00     0.037 A 
ATOM     55  C   UNL A   1      39.898  29.346  31.600  1.00  0.00     0.037 A 
ATOM     56  C   UNL A   1      41.683  31.976  37.256  1.00  0.00     0.049 A 
ATOM     57  C   UNL A   1      41.138  29.219  32.452  1.00  0.00     0.074 A 
ATOM     58  C   UNL A   1      42.805  31.697  38.021  1.00  0.00     0.029 A 
ATOM     59  N   UNL A   1      41.788  31.214  36.104  1.00  0.00    -0.354 N 
ATOM     60  N   UNL A   1      41.404  29.765  33.615  1.00  0.00    -0.248 NA
ATOM     61  C   UNL A   1      42.223  28.372  31.932  1.00  0.00     0.031 C 
ATOM     62  C   UNL A   1      43.615  30.810  37.304  1.00  0.00     0.029 A 
ATOM     63  C   UNL A   1      42.971  30.492  36.121  1.00  0.00     0.049 A 
ATOM     64  H   UNL A   1      41.120  31.188  35.381  1.00  0.00     0.167 HD
ATOM     65  C   UNL A   1      42.671  29.311  33.970  1.00  0.00     0.074 A 
ATOM     66  C   UNL A   1      43.112  28.427  32.914  1.00  0.00     0.031 C 
ATOM     67  C   UNL A   1      43.406  29.608  35.071  1.00  0.00     0.037 A 
BRANCH  54  68
ATOM     68  C   UNL A   1      40.673  33.665  38.830  1.00  0.00     0.057 A 
ATOM     69  C   UNL A   1      41.436  34.834  38.938  1.00  0.00     0.134 A 
ATOM     70  C   UNL A   1      39.920  33.279  39.947  1.00  0.00     0.134 A 
ATOM     71  F   UNL A   1      42.185  35.256  37.909  1.00  0.00    -0.206 F 
ATOM     72  C   UNL A   1      41.463  35.580  40.119  1.00  0.00     0.040 A 
ATOM     73  C   UNL A   1      39.917  34.031  41.123  1.00  0.00     0.040 A 
ATOM     74  F   UNL A   1      39.158  32.176  39.907  1.00  0.00    -0.206 F 
ATOM     75  C   UNL A   1      40.695  35.183  41.212  1.00  0.00     0.006 A 
ENDBRANCH  54  68
BRANCH  55  76
ATOM     76  C   UNL A   1      39.829  28.640  30.290  1.00  0.00     0.057 A 
ATOM     77  C   UNL A   1      39.192  27.400  30.161  1.00  0.00     0.134 A 
ATOM     78  C   UNL A   1      40.456  29.159  29.150  1.00  0.00     0.134 A 
ATOM     79  F   UNL A   1      38.605  26.830  31.224  1.00  0.00    -0.206 F 
ATOM     80  C   UNL A   1      39.200  26.693  28.957  1.00  0.00     0.040 A 
ATOM     81  C   UNL A   1      40.444  28.480  27.931  1.00  0.00     0.040 A 
ATOM     82  F   UNL A   1      41.096  30.337  29.205  1.00  0.00    -0.206 F 
ATOM     83  C   UNL A   1      39.823  27.237  27.835  1.00  0.00     0.006 A 
ENDBRANCH  55  76
BRANCH  67  84
ATOM     84  C   UNL A   1      44.754  28.958  35.209  1.00  0.00     0.057 A 
ATOM     85  C   UNL A   1      45.924  29.578  34.750  1.00  0.00     0.134 A 
ATOM     86  C   UNL A   1      44.893  27.722  35.855  1.00  0.00     0.134 A 
ATOM     87  F   UNL A   1      45.863  30.757  34.112  1.00  0.00    -0.206 F 
ATOM     88  C   UNL A   1      47.179  28.987  34.915  1.00  0.00     0.040 A 
ATOM     89  C   UNL A   1      46.144  27.134  36.050  1.00  0.00     0.040 A 
ATOM     90  F   UNL A   1      43.816  27.075  36.327  1.00  0.00    -0.206 F 
ATOM     91  C   UNL A   1      47.292  27.764  35.575  1.00  0.00     0.006 A 
ENDBRANCH  67  84
ENDBRANCH  41  42
ENDBRANCH  34  36
ENDBRANCH  33  34
ENDBRANCH  32  33
ENDBRANCH  31  32
ENDBRANCH  30  31
ENDBRANCH  29  30
ENDBRANCH  28  29
ENDBRANCH  27  28
ENDBRANCH   1  27
TORSDOF 24
ENDMDL
MODEL 3
REMARK VINA RESULT:      -9.7      1.579      3.486
REMARK SMILES [NH3+][C@]1(C(=O)OCCOCCOCCOC(=O)c2ccc(-c3c4nc(c(-c5c(F)cccc5F)c5ccc([nH]5)c(-c5c(F)cccc5F)c5nc(c(-c6c(F)cccc6F)c6ccc3[nH]6)C=C5)C=C4)cc2)CCC[C@@H]1CCOc1ccc(CO)cc1
REMARK SMILES IDX 7 1 6 2 5 3 3 4 4 5 2 6 71 7 74 8 72 9 73 10 1 11 75 15
REMARK SMILES IDX 76 16 77 17 78 18 79 19 85 20 80 21 84 22 81 23 82 24 83 25
REMARK SMILES IDX 8 27 9 28 10 29 11 30 12 31 13 32 14 33 15 34 16 35 17 36
REMARK SMILES IDX 18 37 70 38 19 39 69 40 20 41 21 42 22 43 63 44 23 45 68 46
REMARK SMILES IDX 62 47 64 48 24 49 67 50 61 51 60 52 25 54 51 55 34 56 50 57
REMARK SMILES IDX 35 58 38 59 49 60 65 61 36 62 37 63 48 65 66 66 39 67 26 68
REMARK SMILES IDX 27 69 32 70 28 71 29 72 31 73 33 74 30 75 52 76 53 77 58 78
REMARK SMILES IDX 54 79 55 80 57 81 59 82 56 83 40 84 41 85 46 86 42 87 43 88
REMARK SMILES IDX 45 89 47 90 44 91
REMARK H PARENT 1 12 1 13 1 14 83 26 64 53 38 64
REMARK Flexibility Score: inf
ROOT
ATOM      1  C   UNL A   1      33.303  30.458  27.160  1.00  0.00     0.202 C 
ENDROOT
BRANCH   1   2
ATOM      2  C   UNL A   1      31.901  30.009  26.705  1.00  0.00     0.261 C 
BRANCH   2   3
ATOM      3  O   UNL A   1      31.763  28.982  25.692  1.00  0.00    -0.459 OA
BRANCH   3   4
ATOM      4  C   UNL A   1      31.266  29.335  24.484  1.00  0.00     0.368 C 
ATOM      5  O   UNL A   1      30.347  30.128  24.366  1.00  0.00    -0.245 OA
BRANCH   4   6
ATOM      6  C   UNL A   1      32.055  28.799  23.272  1.00  0.00     0.195 C 
ATOM      7  C   UNL A   1      33.501  29.306  23.286  1.00  0.00     0.081 C 
ATOM      8  C   UNL A   1      32.264  27.250  23.344  1.00  0.00     0.066 C 
ATOM      9  C   UNL A   1      34.254  28.350  22.375  1.00  0.00     0.008 C 
ATOM     10  C   UNL A   1      33.525  27.007  22.487  1.00  0.00     0.011 C 
BRANCH   6  11
ATOM     11  N   UNL A   1      31.374  29.193  22.013  1.00  0.00    -0.343 N 
ATOM     12  H   UNL A   1      30.461  28.741  21.965  1.00  0.00     0.345 HD
ATOM     13  H   UNL A   1      31.939  28.903  21.216  1.00  0.00     0.345 HD
ATOM     14  H   UNL A   1      31.253  30.206  21.994  1.00  0.00     0.345 HD
ENDBRANCH   6  11
BRANCH   8  15
ATOM     15  C   UNL A   1      31.050  26.370  22.910  1.00  0.00     0.052 C 
BRANCH  15  16
ATOM     16  C   UNL A   1      31.349  24.858  22.718  1.00  0.00     0.230 C 
BRANCH  16  17
ATOM     17  O   UNL A   1      30.618  23.918  23.550  1.00  0.00    -0.494 OA
BRANCH  17  18
ATOM     18  C   UNL A   1      31.425  23.154  24.340  1.00  0.00     0.119 A 
ATOM     19  C   UNL A   1      32.456  22.374  23.845  1.00  0.00     0.047 A 
ATOM     20  C   UNL A   1      31.144  23.093  25.686  1.00  0.00     0.047 A 
ATOM     21  C   UNL A   1      33.334  21.741  24.743  1.00  0.00     0.010 A 
ATOM     22  C   UNL A   1      32.063  22.575  26.592  1.00  0.00     0.010 A 
ATOM     23  C   UNL A   1      33.202  21.927  26.128  1.00  0.00    -0.022 A 
BRANCH  23  24
ATOM     24  C   UNL A   1      34.240  21.461  27.112  1.00  0.00     0.191 C 
BRANCH  24  25
ATOM     25  O   UNL A   1      34.774  22.538  27.870  1.00  0.00    -0.392 OA
ATOM     26  H   UNL A   1      34.728  23.353  27.347  1.00  0.00     0.211 HD
ENDBRANCH  24  25
ENDBRANCH  23  24
ENDBRANCH  17  18
ENDBRANCH  16  17
ENDBRANCH  15  16
ENDBRANCH   8  15
ENDBRANCH   4   6
ENDBRANCH   3   4
ENDBRANCH   2   3
ENDBRANCH   1   2
BRANCH   1  27
ATOM     27  O   UNL A   1      33.433  31.784  27.627  1.00  0.00    -0.376 OA
BRANCH  27  28
ATOM     28  C   UNL A   1      34.721  32.249  27.977  1.00  0.00     0.188 C 
BRANCH  28  29
ATOM     29  C   UNL A   1      34.895  33.769  27.797  1.00  0.00     0.188 C 
BRANCH  29  30
ATOM     30  O   UNL A   1      35.059  34.584  28.950  1.00  0.00    -0.376 OA
BRANCH  30  31
ATOM     31  C   UNL A   1      33.988  34.672  29.873  1.00  0.00     0.202 C 
BRANCH  31  32
ATOM     32  C   UNL A   1      34.186  34.042  31.262  1.00  0.00     0.261 C 
BRANCH  32  33
ATOM     33  O   UNL A   1      34.708  32.693  31.283  1.00  0.00    -0.460 OA
BRANCH  33  34
ATOM     34  C   UNL A   1      35.638  32.396  32.224  1.00  0.00     0.338 C 
ATOM     35  O   UNL A   1      35.547  32.588  33.431  1.00  0.00    -0.246 OA
BRANCH  34  36
ATOM     36  C   UNL A   1      36.777  31.648  31.627  1.00  0.00     0.060 A 
ATOM     37  C   UNL A   1      37.557  30.808  32.440  1.00  0.00     0.016 A 
ATOM     38  C   UNL A   1      37.128  31.823  30.288  1.00  0.00     0.016 A 
ATOM     39  C   UNL A   1      38.679  30.144  31.918  1.00  0.00     0.010 A 
ATOM     40  C   UNL A   1      38.267  31.179  29.776  1.00  0.00     0.010 A 
ATOM     41  C   UNL A   1      39.060  30.343  30.585  1.00  0.00    -0.014 A 
BRANCH  41  42
ATOM     42  C   UNL A   1      40.330  29.775  30.042  1.00  0.00     0.031 A 
ATOM     43  C   UNL A   1      41.517  30.680  29.833  1.00  0.00     0.074 A 
ATOM     44  C   UNL A   1      40.430  28.477  29.697  1.00  0.00     0.049 A 
ATOM     45  N   UNL A   1      42.645  30.446  29.210  1.00  0.00    -0.248 NA
ATOM     46  C   UNL A   1      41.415  32.029  30.409  1.00  0.00     0.031 C 
ATOM     47  C   UNL A   1      39.396  27.465  29.896  1.00  0.00     0.029 A 
ATOM     48  N   UNL A   1      41.450  27.795  29.071  1.00  0.00    -0.354 N 
ATOM     49  C   UNL A   1      43.385  31.619  29.308  1.00  0.00     0.074 A 
ATOM     50  C   UNL A   1      42.568  32.569  30.036  1.00  0.00     0.031 C 
ATOM     51  C   UNL A   1      39.816  26.302  29.366  1.00  0.00     0.029 A 
ATOM     52  C   UNL A   1      41.126  26.498  28.745  1.00  0.00     0.049 A 
ATOM     53  H   UNL A   1      42.327  28.198  28.875  1.00  0.00     0.167 HD
ATOM     54  C   UNL A   1      44.629  31.884  28.837  1.00  0.00     0.037 A 
ATOM     55  C   UNL A   1      41.781  25.593  27.989  1.00  0.00     0.037 A 
ATOM     56  C   UNL A   1      45.441  30.949  28.100  1.00  0.00     0.049 A 
ATOM     57  C   UNL A   1      43.109  25.949  27.366  1.00  0.00     0.074 A 
ATOM     58  C   UNL A   1      46.715  31.133  27.587  1.00  0.00     0.029 A 
ATOM     59  N   UNL A   1      45.058  29.662  27.761  1.00  0.00    -0.354 N 
ATOM     60  N   UNL A   1      43.804  27.056  27.471  1.00  0.00    -0.248 NA
ATOM     61  C   UNL A   1      43.740  24.932  26.509  1.00  0.00     0.031 C 
ATOM     62  C   UNL A   1      47.078  29.977  26.888  1.00  0.00     0.029 A 
ATOM     63  C   UNL A   1      46.056  29.053  27.015  1.00  0.00     0.049 A 
ATOM     64  H   UNL A   1      44.204  29.241  28.013  1.00  0.00     0.167 HD
ATOM     65  C   UNL A   1      44.955  26.860  26.715  1.00  0.00     0.074 A 
ATOM     66  C   UNL A   1      44.880  25.520  26.175  1.00  0.00     0.031 C 
ATOM     67  C   UNL A   1      45.980  27.717  26.483  1.00  0.00     0.037 A 
BRANCH  54  68
ATOM     68  C   UNL A   1      45.187  33.257  29.078  1.00  0.00     0.057 A 
ATOM     69  C   UNL A   1      44.872  34.339  28.246  1.00  0.00     0.134 A 
ATOM     70  C   UNL A   1      45.996  33.513  30.193  1.00  0.00     0.134 A 
ATOM     71  F   UNL A   1      44.107  34.161  27.159  1.00  0.00    -0.206 F 
ATOM     72  C   UNL A   1      45.361  35.622  28.502  1.00  0.00     0.040 A 
ATOM     73  C   UNL A   1      46.468  34.797  30.474  1.00  0.00     0.040 A 
ATOM     74  F   UNL A   1      46.326  32.525  31.038  1.00  0.00    -0.206 F 
ATOM     75  C   UNL A   1      46.154  35.855  29.624  1.00  0.00     0.006 A 
ENDBRANCH  54  68
BRANCH  55  76
ATOM     76  C   UNL A   1      41.167  24.265  27.708  1.00  0.00     0.057 A 
ATOM     77  C   UNL A   1      41.636  23.098  28.323  1.00  0.00     0.134 A 
ATOM     78  C   UNL A   1      40.139  24.125  26.766  1.00  0.00     0.134 A 
ATOM     79  F   UNL A   1      42.644  23.159  29.205  1.00  0.00    -0.206 F 
ATOM     80  C   UNL A   1      41.123  21.841  27.996  1.00  0.00     0.040 A 
ATOM     81  C   UNL A   1      39.594  22.878  26.455  1.00  0.00     0.040 A 
ATOM     82  F   UNL A   1      39.651  25.200  26.130  1.00  0.00    -0.206 F 
ATOM     83  C   UNL A   1      40.094  21.730  27.063  1.00  0.00     0.006 A 
ENDBRANCH  55  76
BRANCH  67  84
ATOM     84  C   UNL A   1      47.119  27.233  25.628  1.00  0.00     0.057 A 
ATOM     85  C   UNL A   1      47.191  27.526  24.260  1.00  0.00     0.134 A 
ATOM     86  C   UNL A   1      48.181  26.511  26.189  1.00  0.00     0.134 A 
ATOM     87  F   UNL A   1      46.203  28.202  23.656  1.00  0.00    -0.206 F 
ATOM     88  C   UNL A   1      48.270  27.105  23.478  1.00  0.00     0.040 A 
ATOM     89  C   UNL A   1      49.278  26.110  25.424  1.00  0.00     0.040 A 
ATOM     90  F   UNL A   1      48.182  26.204  27.495  1.00  0.00    -0.206 F 
ATOM     91  C   UNL A   1      49.323  26.403  24.063  1.00  0.00     0.006 A 
ENDBRANCH  67  84
ENDBRANCH  41  42
ENDBRANCH  34  36
ENDBRANCH  33  34
ENDBRANCH  32  33
ENDBRANCH  31  32
ENDBRANCH  30  31
ENDBRANCH  29  30
ENDBRANCH  28  29
ENDBRANCH  27  28
ENDBRANCH   1  27
TORSDOF 24
ENDMDL
