MODEL 1
REMARK VINA RESULT:      -9.7      0.000      0.000
REMARK SMILES CCN(CC(C)(C)O)C(=O)[C@H]1CC=CC[C@H]1C(=O)OCCOCCOCCOC(=O)c1ccc(-c2c3nc(c(-c4c(F)cccc4F)c4ccc([nH]4)c(-c4c(F)cccc4F)c4nc(c(-c5c(F)cccc5F)c5ccc2[nH]5)C=C4)C=C3)cc1
REMARK SMILES IDX 22 1 21 2 20 3 19 4 17 5 18 6 16 7 11 8 12 9 13 10 15 11
REMARK SMILES IDX 14 12 9 13 10 14 3 15 2 16 1 17 4 18 5 19 6 20 7 21 8 22
REMARK SMILES IDX 23 24 24 25 25 26 26 27 27 28 28 29 29 30 30 31 31 32 32 33
REMARK SMILES IDX 84 34 33 35 83 36 34 37 35 38 36 39 77 40 37 41 82 42 76 43
REMARK SMILES IDX 78 44 38 45 81 46 75 47 74 48 39 50 65 51 48 52 64 53 49 54
REMARK SMILES IDX 52 55 63 56 79 57 50 58 51 59 62 61 80 62 53 63 40 64 41 65
REMARK SMILES IDX 46 66 42 67 43 68 45 69 47 70 44 71 66 72 67 73 72 74 68 75
REMARK SMILES IDX 69 76 71 77 73 78 70 79 54 80 55 81 60 82 56 83 57 84 59 85
REMARK SMILES IDX 61 86 58 87
REMARK H PARENT 8 23 78 49 52 60
REMARK Flexibility Score: inf
ROOT
ATOM      1  O   UNL A   1      34.541  31.844  28.100  1.00  0.00    -0.376 OA
ENDROOT
BRANCH   1   2
ATOM      2  C   UNL A   1      33.596  31.150  27.283  1.00  0.00     0.202 C 
BRANCH   2   3
ATOM      3  C   UNL A   1      33.692  29.622  27.249  1.00  0.00     0.261 C 
BRANCH   3   4
ATOM      4  O   UNL A   1      32.494  28.982  26.745  1.00  0.00    -0.463 OA
BRANCH   4   5
ATOM      5  C   UNL A   1      32.727  27.941  25.903  1.00  0.00     0.310 C 
ATOM      6  O   UNL A   1      33.335  26.924  26.229  1.00  0.00    -0.252 OA
BRANCH   5   7
ATOM      7  C   UNL A   1      32.111  28.061  24.522  1.00  0.00     0.115 C 
ATOM      8  C   UNL A   1      31.665  26.792  23.767  1.00  0.00     0.097 C 
ATOM      9  C   UNL A   1      31.097  27.178  22.378  1.00  0.00     0.041 C 
ATOM     10  C   UNL A   1      30.311  28.457  22.329  1.00  0.00    -0.030 C 
ATOM     11  C   UNL A   1      31.013  29.134  24.620  1.00  0.00     0.043 C 
ATOM     12  C   UNL A   1      30.250  29.322  23.348  1.00  0.00    -0.030 C 
BRANCH   8  13
ATOM     13  C   UNL A   1      30.603  25.981  24.508  1.00  0.00     0.226 C 
ATOM     14  O   UNL A   1      29.509  26.498  24.751  1.00  0.00    -0.275 OA
BRANCH  13  15
ATOM     15  N   UNL A   1      30.867  24.671  24.890  1.00  0.00    -0.340 N 
BRANCH  15  16
ATOM     16  C   UNL A   1      30.813  24.393  26.328  1.00  0.00     0.116 C 
ATOM     17  C   UNL A   1      30.370  22.953  26.589  1.00  0.00     0.027 C 
ENDBRANCH  15  16
BRANCH  15  18
ATOM     18  C   UNL A   1      31.395  23.578  24.054  1.00  0.00     0.154 C 
BRANCH  18  19
ATOM     19  C   UNL A   1      32.944  23.389  23.991  1.00  0.00     0.077 C 
ATOM     20  C   UNL A   1      33.370  21.950  24.288  1.00  0.00     0.043 C 
ATOM     21  C   UNL A   1      33.422  23.765  22.585  1.00  0.00     0.043 C 
BRANCH  19  22
ATOM     22  O   UNL A   1      33.609  24.260  24.907  1.00  0.00    -0.389 OA
ATOM     23  H   UNL A   1      33.058  25.040  25.072  1.00  0.00     0.211 HD
ENDBRANCH  19  22
ENDBRANCH  18  19
ENDBRANCH  15  18
ENDBRANCH  13  15
ENDBRANCH   8  13
ENDBRANCH   5   7
ENDBRANCH   4   5
ENDBRANCH   3   4
ENDBRANCH   2   3
ENDBRANCH   1   2
BRANCH   1  24
ATOM     24  C   UNL A   1      34.555  33.255  28.005  1.00  0.00     0.188 C 
BRANCH  24  25
ATOM     25  C   UNL A   1      33.259  34.004  28.335  1.00  0.00     0.188 C 
BRANCH  25  26
ATOM     26  O   UNL A   1      33.002  34.350  29.692  1.00  0.00    -0.376 OA
BRANCH  26  27
ATOM     27  C   UNL A   1      34.139  34.855  30.403  1.00  0.00     0.202 C 
BRANCH  27  28
ATOM     28  C   UNL A   1      34.386  34.142  31.740  1.00  0.00     0.261 C 
BRANCH  28  29
ATOM     29  O   UNL A   1      34.864  32.803  31.518  1.00  0.00    -0.460 OA
BRANCH  29  30
ATOM     30  C   UNL A   1      35.783  32.355  32.401  1.00  0.00     0.338 C 
ATOM     31  O   UNL A   1      35.746  32.426  33.624  1.00  0.00    -0.246 OA
BRANCH  30  32
ATOM     32  C   UNL A   1      36.797  31.554  31.698  1.00  0.00     0.060 A 
ATOM     33  C   UNL A   1      37.684  30.796  32.476  1.00  0.00     0.016 A 
ATOM     34  C   UNL A   1      36.904  31.568  30.307  1.00  0.00     0.016 A 
ATOM     35  C   UNL A   1      38.723  30.098  31.870  1.00  0.00     0.010 A 
ATOM     36  C   UNL A   1      37.955  30.876  29.700  1.00  0.00     0.010 A 
ATOM     37  C   UNL A   1      38.891  30.176  30.483  1.00  0.00    -0.014 A 
BRANCH  37  38
ATOM     38  C   UNL A   1      40.143  29.678  29.870  1.00  0.00     0.031 A 
ATOM     39  C   UNL A   1      41.286  30.639  29.692  1.00  0.00     0.074 A 
ATOM     40  C   UNL A   1      40.261  28.393  29.491  1.00  0.00     0.049 A 
ATOM     41  N   UNL A   1      42.437  30.461  29.099  1.00  0.00    -0.248 NA
ATOM     42  C   UNL A   1      41.100  31.988  30.254  1.00  0.00     0.031 C 
ATOM     43  C   UNL A   1      39.233  27.366  29.652  1.00  0.00     0.029 A 
ATOM     44  N   UNL A   1      41.298  27.740  28.876  1.00  0.00    -0.354 N 
ATOM     45  C   UNL A   1      43.099  31.681  29.190  1.00  0.00     0.074 A 
ATOM     46  C   UNL A   1      42.218  32.594  29.885  1.00  0.00     0.031 C 
ATOM     47  C   UNL A   1      39.683  26.215  29.125  1.00  0.00     0.029 A 
ATOM     48  C   UNL A   1      41.012  26.435  28.561  1.00  0.00     0.049 A 
ATOM     49  H   UNL A   1      42.163  28.166  28.679  1.00  0.00     0.167 HD
ATOM     50  C   UNL A   1      44.331  32.005  28.734  1.00  0.00     0.037 A 
ATOM     51  C   UNL A   1      41.732  25.534  27.865  1.00  0.00     0.037 A 
ATOM     52  C   UNL A   1      45.206  31.082  28.062  1.00  0.00     0.049 A 
ATOM     53  C   UNL A   1      43.087  25.929  27.343  1.00  0.00     0.074 A 
ATOM     54  C   UNL A   1      46.490  31.296  27.592  1.00  0.00     0.029 A 
ATOM     55  N   UNL A   1      44.882  29.768  27.759  1.00  0.00    -0.354 N 
ATOM     56  N   UNL A   1      43.714  27.078  27.449  1.00  0.00    -0.248 NA
ATOM     57  C   UNL A   1      43.837  24.903  26.605  1.00  0.00     0.031 C 
ATOM     58  C   UNL A   1      46.924  30.125  26.961  1.00  0.00     0.029 A 
ATOM     59  C   UNL A   1      45.931  29.166  27.085  1.00  0.00     0.049 A 
ATOM     60  H   UNL A   1      44.032  29.329  27.989  1.00  0.00     0.167 HD
ATOM     61  C   UNL A   1      44.935  26.907  26.810  1.00  0.00     0.074 A 
ATOM     62  C   UNL A   1      44.971  25.537  26.340  1.00  0.00     0.031 C 
ATOM     63  C   UNL A   1      45.937  27.801  26.621  1.00  0.00     0.037 A 
BRANCH  50  64
ATOM     64  C   UNL A   1      44.792  33.422  28.915  1.00  0.00     0.057 A 
ATOM     65  C   UNL A   1      44.507  34.426  27.981  1.00  0.00     0.134 A 
ATOM     66  C   UNL A   1      45.503  33.794  30.064  1.00  0.00     0.134 A 
ATOM     67  F   UNL A   1      43.847  34.136  26.850  1.00  0.00    -0.206 F 
ATOM     68  C   UNL A   1      44.924  35.744  28.177  1.00  0.00     0.040 A 
ATOM     69  C   UNL A   1      45.903  35.113  30.282  1.00  0.00     0.040 A 
ATOM     70  F   UNL A   1      45.811  32.881  30.999  1.00  0.00    -0.206 F 
ATOM     71  C   UNL A   1      45.617  36.092  29.335  1.00  0.00     0.006 A 
ENDBRANCH  50  64
BRANCH  51  72
ATOM     72  C   UNL A   1      41.176  24.184  27.597  1.00  0.00     0.057 A 
ATOM     73  C   UNL A   1      41.645  23.052  28.273  1.00  0.00     0.134 A 
ATOM     74  C   UNL A   1      40.167  23.991  26.643  1.00  0.00     0.134 A 
ATOM     75  F   UNL A   1      42.627  23.167  29.180  1.00  0.00    -0.206 F 
ATOM     76  C   UNL A   1      41.145  21.777  28.001  1.00  0.00     0.040 A 
ATOM     77  C   UNL A   1      39.638  22.726  26.381  1.00  0.00     0.040 A 
ATOM     78  F   UNL A   1      39.672  25.034  25.961  1.00  0.00    -0.206 F 
ATOM     79  C   UNL A   1      40.134  21.613  27.055  1.00  0.00     0.006 A 
ENDBRANCH  51  72
BRANCH  63  80
ATOM     80  C   UNL A   1      47.157  27.311  25.895  1.00  0.00     0.057 A 
ATOM     81  C   UNL A   1      48.203  26.664  26.564  1.00  0.00     0.134 A 
ATOM     82  C   UNL A   1      47.276  27.475  24.510  1.00  0.00     0.134 A 
ATOM     83  F   UNL A   1      48.153  26.486  27.893  1.00  0.00    -0.206 F 
ATOM     84  C   UNL A   1      49.341  26.227  25.885  1.00  0.00     0.040 A 
ATOM     85  C   UNL A   1      48.396  27.017  23.816  1.00  0.00     0.040 A 
ATOM     86  F   UNL A   1      46.304  28.075  23.808  1.00  0.00    -0.206 F 
ATOM     87  C   UNL A   1      49.437  26.400  24.505  1.00  0.00     0.006 A 
ENDBRANCH  63  80
ENDBRANCH  37  38
ENDBRANCH  30  32
ENDBRANCH  29  30
ENDBRANCH  28  29
ENDBRANCH  27  28
ENDBRANCH  26  27
ENDBRANCH  25  26
ENDBRANCH  24  25
ENDBRANCH   1  24
TORSDOF 23
ENDMDL
MODEL 2
REMARK VINA RESULT:      -9.6      1.029      1.975
REMARK SMILES CCN(CC(C)(C)O)C(=O)[C@H]1CC=CC[C@H]1C(=O)OCCOCCOCCOC(=O)c1ccc(-c2c3nc(c(-c4c(F)cccc4F)c4ccc([nH]4)c(-c4c(F)cccc4F)c4nc(c(-c5c(F)cccc5F)c5ccc2[nH]5)C=C4)C=C3)cc1
REMARK SMILES IDX 22 1 21 2 20 3 19 4 17 5 18 6 16 7 11 8 12 9 13 10 15 11
REMARK SMILES IDX 14 12 9 13 10 14 3 15 2 16 1 17 4 18 5 19 6 20 7 21 8 22
REMARK SMILES IDX 23 24 24 25 25 26 26 27 27 28 28 29 29 30 30 31 31 32 32 33
REMARK SMILES IDX 84 34 33 35 83 36 34 37 35 38 36 39 77 40 37 41 82 42 76 43
REMARK SMILES IDX 78 44 38 45 81 46 75 47 74 48 39 50 65 51 48 52 64 53 49 54
REMARK SMILES IDX 52 55 63 56 79 57 50 58 51 59 62 61 80 62 53 63 40 64 41 65
REMARK SMILES IDX 46 66 42 67 43 68 45 69 47 70 44 71 66 72 67 73 72 74 68 75
REMARK SMILES IDX 69 76 71 77 73 78 70 79 54 80 55 81 60 82 56 83 57 84 59 85
REMARK SMILES IDX 61 86 58 87
REMARK H PARENT 8 23 78 49 52 60
REMARK Flexibility Score: inf
ROOT
ATOM      1  O   UNL A   1      34.249  31.080  28.045  1.00  0.00    -0.376 OA
ENDROOT
BRANCH   1   2
ATOM      2  C   UNL A   1      33.402  30.399  27.117  1.00  0.00     0.202 C 
BRANCH   2   3
ATOM      3  C   UNL A   1      33.795  28.970  26.732  1.00  0.00     0.261 C 
BRANCH   3   4
ATOM      4  O   UNL A   1      32.730  28.238  26.077  1.00  0.00    -0.463 OA
BRANCH   4   5
ATOM      5  C   UNL A   1      32.982  27.925  24.779  1.00  0.00     0.310 C 
ATOM      6  O   UNL A   1      33.981  28.301  24.170  1.00  0.00    -0.252 OA
BRANCH   5   7
ATOM      7  C   UNL A   1      31.982  26.994  24.121  1.00  0.00     0.115 C 
ATOM      8  C   UNL A   1      32.390  25.546  23.779  1.00  0.00     0.097 C 
ATOM      9  C   UNL A   1      31.209  24.814  23.094  1.00  0.00     0.041 C 
ATOM     10  C   UNL A   1      29.843  25.160  23.610  1.00  0.00    -0.030 C 
ATOM     11  C   UNL A   1      30.685  27.087  24.941  1.00  0.00     0.043 C 
ATOM     12  C   UNL A   1      29.610  26.164  24.463  1.00  0.00    -0.030 C 
BRANCH   8  13
ATOM     13  C   UNL A   1      32.818  24.728  24.997  1.00  0.00     0.226 C 
ATOM     14  O   UNL A   1      32.200  24.856  26.058  1.00  0.00    -0.275 OA
BRANCH  13  15
ATOM     15  N   UNL A   1      33.883  23.839  24.901  1.00  0.00    -0.340 N 
BRANCH  15  16
ATOM     16  C   UNL A   1      35.211  24.389  25.188  1.00  0.00     0.116 C 
ATOM     17  C   UNL A   1      36.309  23.442  24.703  1.00  0.00     0.027 C 
ENDBRANCH  15  16
BRANCH  15  18
ATOM     18  C   UNL A   1      33.869  22.474  24.349  1.00  0.00     0.154 C 
BRANCH  18  19
ATOM     19  C   UNL A   1      33.201  21.347  25.199  1.00  0.00     0.077 C 
ATOM     20  C   UNL A   1      33.621  19.946  24.748  1.00  0.00     0.043 C 
ATOM     21  C   UNL A   1      33.609  21.537  26.664  1.00  0.00     0.043 C 
BRANCH  19  22
ATOM     22  O   UNL A   1      31.776  21.435  25.147  1.00  0.00    -0.389 OA
ATOM     23  H   UNL A   1      31.400  20.547  25.045  1.00  0.00     0.211 HD
ENDBRANCH  19  22
ENDBRANCH  18  19
ENDBRANCH  15  18
ENDBRANCH  13  15
ENDBRANCH   8  13
ENDBRANCH   5   7
ENDBRANCH   4   5
ENDBRANCH   3   4
ENDBRANCH   2   3
ENDBRANCH   1   2
BRANCH   1  24
ATOM     24  C   UNL A   1      34.382  32.479  27.883  1.00  0.00     0.188 C 
BRANCH  24  25
ATOM     25  C   UNL A   1      33.146  33.347  28.144  1.00  0.00     0.188 C 
BRANCH  25  26
ATOM     26  O   UNL A   1      33.176  34.260  29.237  1.00  0.00    -0.376 OA
BRANCH  26  27
ATOM     27  C   UNL A   1      34.447  34.361  29.892  1.00  0.00     0.202 C 
BRANCH  27  28
ATOM     28  C   UNL A   1      34.411  33.917  31.361  1.00  0.00     0.261 C 
BRANCH  28  29
ATOM     29  O   UNL A   1      34.700  32.511  31.472  1.00  0.00    -0.460 OA
BRANCH  29  30
ATOM     30  C   UNL A   1      35.673  32.181  32.348  1.00  0.00     0.338 C 
ATOM     31  O   UNL A   1      35.673  32.337  33.564  1.00  0.00    -0.246 OA
BRANCH  30  32
ATOM     32  C   UNL A   1      36.708  31.391  31.665  1.00  0.00     0.060 A 
ATOM     33  C   UNL A   1      37.608  30.667  32.461  1.00  0.00     0.016 A 
ATOM     34  C   UNL A   1      36.822  31.380  30.275  1.00  0.00     0.016 A 
ATOM     35  C   UNL A   1      38.666  29.982  31.874  1.00  0.00     0.010 A 
ATOM     36  C   UNL A   1      37.892  30.701  29.686  1.00  0.00     0.010 A 
ATOM     37  C   UNL A   1      38.840  30.037  30.487  1.00  0.00    -0.014 A 
BRANCH  37  38
ATOM     38  C   UNL A   1      40.106  29.556  29.889  1.00  0.00     0.031 A 
ATOM     39  C   UNL A   1      41.243  30.529  29.741  1.00  0.00     0.074 A 
ATOM     40  C   UNL A   1      40.241  28.278  29.498  1.00  0.00     0.049 A 
ATOM     41  N   UNL A   1      42.405  30.368  29.164  1.00  0.00    -0.248 NA
ATOM     42  C   UNL A   1      41.036  31.870  30.314  1.00  0.00     0.031 C 
ATOM     43  C   UNL A   1      39.219  27.240  29.630  1.00  0.00     0.029 A 
ATOM     44  N   UNL A   1      41.294  27.640  28.893  1.00  0.00    -0.354 N 
ATOM     45  C   UNL A   1      43.056  31.591  29.280  1.00  0.00     0.074 A 
ATOM     46  C   UNL A   1      42.155  32.489  29.970  1.00  0.00     0.031 C 
ATOM     47  C   UNL A   1      39.687  26.099  29.099  1.00  0.00     0.029 A 
ATOM     48  C   UNL A   1      41.024  26.336  28.559  1.00  0.00     0.049 A 
ATOM     49  H   UNL A   1      42.158  28.075  28.715  1.00  0.00     0.167 HD
ATOM     50  C   UNL A   1      44.292  31.931  28.848  1.00  0.00     0.037 A 
ATOM     51  C   UNL A   1      41.763  25.449  27.866  1.00  0.00     0.037 A 
ATOM     52  C   UNL A   1      45.186  31.022  28.180  1.00  0.00     0.049 A 
ATOM     53  C   UNL A   1      43.123  25.861  27.370  1.00  0.00     0.074 A 
ATOM     54  C   UNL A   1      46.476  31.252  27.734  1.00  0.00     0.029 A 
ATOM     55  N   UNL A   1      44.878  29.709  27.858  1.00  0.00    -0.354 N 
ATOM     56  N   UNL A   1      43.738  27.013  27.499  1.00  0.00    -0.248 NA
ATOM     57  C   UNL A   1      43.893  24.850  26.633  1.00  0.00     0.031 C 
ATOM     58  C   UNL A   1      46.929  30.092  27.098  1.00  0.00     0.029 A 
ATOM     59  C   UNL A   1      45.943  29.123  27.194  1.00  0.00     0.049 A 
ATOM     60  H   UNL A   1      44.028  29.261  28.069  1.00  0.00     0.167 HD
ATOM     61  C   UNL A   1      44.971  26.860  26.878  1.00  0.00     0.074 A 
ATOM     62  C   UNL A   1      45.026  25.496  26.394  1.00  0.00     0.031 C 
ATOM     63  C   UNL A   1      45.968  27.764  26.716  1.00  0.00     0.037 A 
BRANCH  50  64
ATOM     64  C   UNL A   1      44.738  33.349  29.052  1.00  0.00     0.057 A 
ATOM     65  C   UNL A   1      44.327  34.391  28.210  1.00  0.00     0.134 A 
ATOM     66  C   UNL A   1      45.564  33.683  30.134  1.00  0.00     0.134 A 
ATOM     67  F   UNL A   1      43.551  34.139  27.146  1.00  0.00    -0.206 F 
ATOM     68  C   UNL A   1      44.734  35.709  28.429  1.00  0.00     0.040 A 
ATOM     69  C   UNL A   1      45.957  35.001  30.376  1.00  0.00     0.040 A 
ATOM     70  F   UNL A   1      45.996  32.734  30.979  1.00  0.00    -0.206 F 
ATOM     71  C   UNL A   1      45.544  36.018  29.520  1.00  0.00     0.006 A 
ENDBRANCH  50  64
BRANCH  51  72
ATOM     72  C   UNL A   1      41.222  24.097  27.573  1.00  0.00     0.057 A 
ATOM     73  C   UNL A   1      40.236  23.899  26.601  1.00  0.00     0.134 A 
ATOM     74  C   UNL A   1      41.671  22.969  28.273  1.00  0.00     0.134 A 
ATOM     75  F   UNL A   1      39.747  24.943  25.914  1.00  0.00    -0.206 F 
ATOM     76  C   UNL A   1      39.703  22.634  26.345  1.00  0.00     0.040 A 
ATOM     77  C   UNL A   1      41.168  21.694  28.009  1.00  0.00     0.040 A 
ATOM     78  F   UNL A   1      42.616  23.090  29.217  1.00  0.00    -0.206 F 
ATOM     79  C   UNL A   1      40.174  21.526  27.047  1.00  0.00     0.006 A 
ENDBRANCH  51  72
BRANCH  63  80
ATOM     80  C   UNL A   1      47.204  27.293  26.005  1.00  0.00     0.057 A 
ATOM     81  C   UNL A   1      47.346  27.408  24.617  1.00  0.00     0.134 A 
ATOM     82  C   UNL A   1      48.269  26.731  26.721  1.00  0.00     0.134 A 
ATOM     83  F   UNL A   1      46.357  27.927  23.873  1.00  0.00    -0.206 F 
ATOM     84  C   UNL A   1      48.489  26.951  23.962  1.00  0.00     0.040 A 
ATOM     85  C   UNL A   1      49.429  26.297  26.081  1.00  0.00     0.040 A 
ATOM     86  F   UNL A   1      48.202  26.604  28.055  1.00  0.00    -0.206 F 
ATOM     87  C   UNL A   1      49.538  26.397  24.696  1.00  0.00     0.006 A 
ENDBRANCH  63  80
ENDBRANCH  37  38
ENDBRANCH  30  32
ENDBRANCH  29  30
ENDBRANCH  28  29
ENDBRANCH  27  28
ENDBRANCH  26  27
ENDBRANCH  25  26
ENDBRANCH  24  25
ENDBRANCH   1  24
TORSDOF 23
ENDMDL
MODEL 3
REMARK VINA RESULT:      -9.5      5.316     11.729
REMARK SMILES CCN(CC(C)(C)O)C(=O)[C@H]1CC=CC[C@H]1C(=O)OCCOCCOCCOC(=O)c1ccc(-c2c3nc(c(-c4c(F)cccc4F)c4ccc([nH]4)c(-c4c(F)cccc4F)c4nc(c(-c5c(F)cccc5F)c5ccc2[nH]5)C=C4)C=C3)cc1
REMARK SMILES IDX 22 1 21 2 20 3 19 4 17 5 18 6 16 7 11 8 12 9 13 10 15 11
REMARK SMILES IDX 14 12 9 13 10 14 3 15 2 16 1 17 4 18 5 19 6 20 7 21 8 22
REMARK SMILES IDX 23 24 24 25 25 26 26 27 27 28 28 29 29 30 30 31 31 32 32 33
REMARK SMILES IDX 84 34 33 35 83 36 34 37 35 38 36 39 77 40 37 41 82 42 76 43
REMARK SMILES IDX 78 44 38 45 81 46 75 47 74 48 39 50 65 51 48 52 64 53 49 54
REMARK SMILES IDX 52 55 63 56 79 57 50 58 51 59 62 61 80 62 53 63 40 64 41 65
REMARK SMILES IDX 46 66 42 67 43 68 45 69 47 70 44 71 66 72 67 73 72 74 68 75
REMARK SMILES IDX 69 76 71 77 73 78 70 79 54 80 55 81 60 82 56 83 57 84 59 85
REMARK SMILES IDX 61 86 58 87
REMARK H PARENT 8 23 78 49 52 60
REMARK Flexibility Score: inf
ROOT
ATOM      1  O   UNL A   1      44.339  18.388  25.213  1.00  0.00    -0.376 OA
ENDROOT
BRANCH   1   2
ATOM      2  C   UNL A   1      45.641  18.953  25.379  1.00  0.00     0.202 C 
BRANCH   2   3
ATOM      3  C   UNL A   1      45.996  20.157  24.502  1.00  0.00     0.261 C 
BRANCH   3   4
ATOM      4  O   UNL A   1      46.402  21.322  25.261  1.00  0.00    -0.463 OA
BRANCH   4   5
ATOM      5  C   UNL A   1      45.463  22.301  25.330  1.00  0.00     0.310 C 
ATOM      6  O   UNL A   1      45.029  22.899  24.347  1.00  0.00    -0.252 OA
BRANCH   5   7
ATOM      7  C   UNL A   1      44.898  22.576  26.711  1.00  0.00     0.115 C 
ATOM      8  C   UNL A   1      45.558  23.638  27.614  1.00  0.00     0.097 C 
ATOM      9  C   UNL A   1      44.816  23.709  28.972  1.00  0.00     0.041 C 
ATOM     10  C   UNL A   1      43.328  23.525  28.910  1.00  0.00    -0.030 C 
ATOM     11  C   UNL A   1      43.383  22.776  26.536  1.00  0.00     0.043 C 
ATOM     12  C   UNL A   1      42.680  23.134  27.806  1.00  0.00    -0.030 C 
BRANCH   8  13
ATOM     13  C   UNL A   1      45.571  25.038  27.002  1.00  0.00     0.226 C 
ATOM     14  O   UNL A   1      44.538  25.486  26.496  1.00  0.00    -0.275 OA
BRANCH  13  15
ATOM     15  N   UNL A   1      46.733  25.801  27.030  1.00  0.00    -0.340 N 
BRANCH  15  16
ATOM     16  C   UNL A   1      46.708  26.985  27.895  1.00  0.00     0.116 C 
ATOM     17  C   UNL A   1      47.155  26.633  29.314  1.00  0.00     0.027 C 
ENDBRANCH  15  16
BRANCH  15  18
ATOM     18  C   UNL A   1      47.906  25.689  26.147  1.00  0.00     0.154 C 
BRANCH  18  19
ATOM     19  C   UNL A   1      47.727  26.061  24.641  1.00  0.00     0.077 C 
ATOM     20  C   UNL A   1      46.852  27.300  24.444  1.00  0.00     0.043 C 
ATOM     21  C   UNL A   1      49.111  26.332  24.040  1.00  0.00     0.043 C 
BRANCH  19  22
ATOM     22  O   UNL A   1      47.156  24.977  23.905  1.00  0.00    -0.389 OA
ATOM     23  H   UNL A   1      46.252  24.815  24.216  1.00  0.00     0.211 HD
ENDBRANCH  19  22
ENDBRANCH  18  19
ENDBRANCH  15  18
ENDBRANCH  13  15
ENDBRANCH   8  13
ENDBRANCH   5   7
ENDBRANCH   4   5
ENDBRANCH   3   4
ENDBRANCH   2   3
ENDBRANCH   1   2
BRANCH   1  24
ATOM     24  C   UNL A   1      43.258  19.293  25.096  1.00  0.00     0.188 C 
BRANCH  24  25
ATOM     25  C   UNL A   1      42.132  19.193  26.131  1.00  0.00     0.188 C 
BRANCH  25  26
ATOM     26  O   UNL A   1      41.226  20.285  26.254  1.00  0.00    -0.376 OA
BRANCH  26  27
ATOM     27  C   UNL A   1      39.850  19.943  26.040  1.00  0.00     0.202 C 
BRANCH  27  28
ATOM     28  C   UNL A   1      38.959  21.160  25.754  1.00  0.00     0.261 C 
BRANCH  28  29
ATOM     29  O   UNL A   1      39.615  22.374  26.163  1.00  0.00    -0.460 OA
BRANCH  29  30
ATOM     30  C   UNL A   1      38.897  23.508  26.010  1.00  0.00     0.338 C 
ATOM     31  O   UNL A   1      37.828  23.646  25.425  1.00  0.00    -0.246 OA
BRANCH  30  32
ATOM     32  C   UNL A   1      39.476  24.577  26.837  1.00  0.00     0.060 A 
ATOM     33  C   UNL A   1      39.143  24.600  28.200  1.00  0.00     0.016 A 
ATOM     34  C   UNL A   1      40.301  25.560  26.290  1.00  0.00     0.016 A 
ATOM     35  C   UNL A   1      39.583  25.643  29.009  1.00  0.00     0.010 A 
ATOM     36  C   UNL A   1      40.732  26.613  27.101  1.00  0.00     0.010 A 
ATOM     37  C   UNL A   1      40.338  26.679  28.450  1.00  0.00    -0.014 A 
BRANCH  37  38
ATOM     38  C   UNL A   1      40.564  27.920  29.226  1.00  0.00     0.031 A 
ATOM     39  C   UNL A   1      41.823  28.036  30.040  1.00  0.00     0.074 A 
ATOM     40  C   UNL A   1      39.671  28.924  29.195  1.00  0.00     0.049 A 
ATOM     41  N   UNL A   1      42.193  28.977  30.869  1.00  0.00    -0.248 NA
ATOM     42  C   UNL A   1      42.793  26.936  29.906  1.00  0.00     0.031 C 
ATOM     43  C   UNL A   1      38.437  28.934  28.411  1.00  0.00     0.029 A 
ATOM     44  N   UNL A   1      39.660  30.124  29.858  1.00  0.00    -0.354 N 
ATOM     45  C   UNL A   1      43.422  28.570  31.376  1.00  0.00     0.074 A 
ATOM     46  C   UNL A   1      43.730  27.292  30.772  1.00  0.00     0.031 C 
ATOM     47  C   UNL A   1      37.775  30.078  28.657  1.00  0.00     0.029 A 
ATOM     48  C   UNL A   1      38.522  30.859  29.640  1.00  0.00     0.049 A 
ATOM     49  H   UNL A   1      40.397  30.429  30.435  1.00  0.00     0.167 HD
ATOM     50  C   UNL A   1      44.218  29.207  32.265  1.00  0.00     0.037 A 
ATOM     51  C   UNL A   1      38.117  32.016  30.199  1.00  0.00     0.037 A 
ATOM     52  C   UNL A   1      43.909  30.487  32.845  1.00  0.00     0.049 A 
ATOM     53  C   UNL A   1      39.007  32.690  31.208  1.00  0.00     0.074 A 
ATOM     54  C   UNL A   1      44.664  31.240  33.727  1.00  0.00     0.029 A 
ATOM     55  N   UNL A   1      42.746  31.202  32.601  1.00  0.00    -0.354 N 
ATOM     56  N   UNL A   1      40.175  32.307  31.669  1.00  0.00    -0.248 NA
ATOM     57  C   UNL A   1      38.525  33.956  31.775  1.00  0.00     0.031 C 
ATOM     58  C   UNL A   1      43.934  32.387  34.055  1.00  0.00     0.029 A 
ATOM     59  C   UNL A   1      42.749  32.375  33.336  1.00  0.00     0.049 A 
ATOM     60  H   UNL A   1      42.025  30.917  31.994  1.00  0.00     0.167 HD
ATOM     61  C   UNL A   1      40.575  33.293  32.563  1.00  0.00     0.074 A 
ATOM     62  C   UNL A   1      39.535  34.301  32.562  1.00  0.00     0.031 C 
ATOM     63  C   UNL A   1      41.696  33.359  33.322  1.00  0.00     0.037 A 
BRANCH  50  64
ATOM     64  C   UNL A   1      45.480  28.516  32.693  1.00  0.00     0.057 A 
ATOM     65  C   UNL A   1      45.490  27.519  33.677  1.00  0.00     0.134 A 
ATOM     66  C   UNL A   1      46.701  28.830  32.081  1.00  0.00     0.134 A 
ATOM     67  F   UNL A   1      44.360  27.182  34.316  1.00  0.00    -0.206 F 
ATOM     68  C   UNL A   1      46.671  26.871  34.046  1.00  0.00     0.040 A 
ATOM     69  C   UNL A   1      47.883  28.172  32.424  1.00  0.00     0.040 A 
ATOM     70  F   UNL A   1      46.763  29.777  31.132  1.00  0.00    -0.206 F 
ATOM     71  C   UNL A   1      47.870  27.191  33.413  1.00  0.00     0.006 A 
ENDBRANCH  50  64
BRANCH  51  72
ATOM     72  C   UNL A   1      36.796  32.593  29.842  1.00  0.00     0.057 A 
ATOM     73  C   UNL A   1      36.649  33.467  28.759  1.00  0.00     0.134 A 
ATOM     74  C   UNL A   1      35.648  32.294  30.588  1.00  0.00     0.134 A 
ATOM     75  F   UNL A   1      37.715  33.811  28.021  1.00  0.00    -0.206 F 
ATOM     76  C   UNL A   1      35.415  34.036  28.439  1.00  0.00     0.040 A 
ATOM     77  C   UNL A   1      34.402  32.833  30.263  1.00  0.00     0.040 A 
ATOM     78  F   UNL A   1      35.720  31.463  31.638  1.00  0.00    -0.206 F 
ATOM     79  C   UNL A   1      34.285  33.714  29.190  1.00  0.00     0.006 A 
ENDBRANCH  51  72
BRANCH  63  80
ATOM     80  C   UNL A   1      41.857  34.572  34.191  1.00  0.00     0.057 A 
ATOM     81  C   UNL A   1      41.355  34.615  35.498  1.00  0.00     0.134 A 
ATOM     82  C   UNL A   1      42.536  35.703  33.721  1.00  0.00     0.134 A 
ATOM     83  F   UNL A   1      40.685  33.568  36.004  1.00  0.00    -0.206 F 
ATOM     84  C   UNL A   1      41.492  35.753  36.293  1.00  0.00     0.040 A 
ATOM     85  C   UNL A   1      42.704  36.836  34.517  1.00  0.00     0.040 A 
ATOM     86  F   UNL A   1      43.052  35.722  32.483  1.00  0.00    -0.206 F 
ATOM     87  C   UNL A   1      42.173  36.867  35.804  1.00  0.00     0.006 A 
ENDBRANCH  63  80
ENDBRANCH  37  38
ENDBRANCH  30  32
ENDBRANCH  29  30
ENDBRANCH  28  29
ENDBRANCH  27  28
ENDBRANCH  26  27
ENDBRANCH  25  26
ENDBRANCH  24  25
ENDBRANCH   1  24
TORSDOF 23
ENDMDL
