MODEL 1
REMARK VINA RESULT:     -10.7      0.000      0.000
REMARK SMILES C[NH2+]C[C@H]1CCCN(c2ccc(C(=O)OCCOCCOCCOC(=O)c3ccc(-c4c5nc(c(-c6c(F)cccc6F)c6ccc([nH]6)c(-c6c(F)cccc6F)c6nc(c(-c7c(F)cccc7F)c7ccc4[nH]7)C=C6)C=C5)cc3)c(F)c2F)C1
REMARK SMILES IDX 19 1 18 2 17 3 16 4 15 5 13 6 14 7 12 8 9 9 10 10 83 11
REMARK SMILES IDX 11 12 81 13 84 14 82 15 8 16 4 17 5 18 85 19 6 20 7 21 3 22
REMARK SMILES IDX 2 23 1 24 20 27 21 28 22 29 23 30 24 31 25 32 26 33 27 34
REMARK SMILES IDX 28 35 80 36 29 37 79 38 30 39 31 40 32 41 73 42 33 43 78 44
REMARK SMILES IDX 72 45 74 46 34 47 77 48 71 49 70 50 35 52 61 53 44 54 60 55
REMARK SMILES IDX 45 56 48 57 59 58 75 59 46 60 47 61 58 63 76 64 49 65 36 66
REMARK SMILES IDX 37 67 42 68 38 69 39 70 41 71 43 72 40 73 62 74 63 75 68 76
REMARK SMILES IDX 64 77 65 78 67 79 69 80 66 81 50 82 51 83 56 84 52 85 53 86
REMARK SMILES IDX 55 87 57 88 54 89
REMARK H PARENT 2 25 2 26 74 51 48 62
REMARK Flexibility Score: inf
ROOT
ATOM      1  C   UNL A   1      32.945  36.394  29.153  1.00  0.00     0.188 C 
ENDROOT
BRANCH   1   2
ATOM      2  O   UNL A   1      34.091  35.907  28.461  1.00  0.00    -0.376 OA
BRANCH   2   3
ATOM      3  C   UNL A   1      34.124  34.551  28.018  1.00  0.00     0.202 C 
BRANCH   3   4
ATOM      4  C   UNL A   1      35.448  33.782  28.116  1.00  0.00     0.261 C 
BRANCH   4   5
ATOM      5  O   UNL A   1      35.367  32.462  27.564  1.00  0.00    -0.460 OA
BRANCH   5   6
ATOM      6  C   UNL A   1      34.578  31.581  28.228  1.00  0.00     0.341 C 
ATOM      7  O   UNL A   1      34.356  31.531  29.416  1.00  0.00    -0.246 OA
BRANCH   6   8
ATOM      8  C   UNL A   1      33.801  30.811  27.239  1.00  0.00     0.099 A 
ATOM      9  C   UNL A   1      32.228  29.376  25.420  1.00  0.00     0.076 A 
ATOM     10  C   UNL A   1      31.725  30.545  25.999  1.00  0.00     0.030 A 
ATOM     11  C   UNL A   1      33.564  29.004  25.693  1.00  0.00     0.182 A 
ATOM     12  C   UNL A   1      32.501  31.247  26.926  1.00  0.00     0.021 A 
ATOM     13  C   UNL A   1      34.342  29.707  26.598  1.00  0.00     0.175 A 
ATOM     14  F   UNL A   1      34.058  27.878  25.151  1.00  0.00    -0.201 F 
ATOM     15  F   UNL A   1      35.578  29.274  26.883  1.00  0.00    -0.203 F 
BRANCH   9  16
ATOM     16  N   UNL A   1      31.376  28.424  24.884  1.00  0.00    -0.369 N 
ATOM     17  C   UNL A   1      29.368  28.517  23.556  1.00  0.00     0.064 C 
ATOM     18  C   UNL A   1      29.225  26.988  23.726  1.00  0.00     0.013 C 
ATOM     19  C   UNL A   1      30.847  28.853  23.593  1.00  0.00     0.126 C 
ATOM     20  C   UNL A   1      30.014  26.433  24.933  1.00  0.00     0.022 C 
ATOM     21  C   UNL A   1      31.447  26.987  25.065  1.00  0.00     0.116 C 
BRANCH  17  22
ATOM     22  C   UNL A   1      28.638  29.030  22.293  1.00  0.00     0.265 C 
BRANCH  22  23
ATOM     23  N   UNL A   1      27.448  29.868  22.464  1.00  0.00    -0.348 N 
ATOM     24  C   UNL A   1      27.635  30.958  23.411  1.00  0.00     0.330 C 
ATOM     25  H   UNL A   1      27.202  30.267  21.558  1.00  0.00     0.346 HD
ATOM     26  H   UNL A   1      26.712  29.271  22.838  1.00  0.00     0.346 HD
ENDBRANCH  22  23
ENDBRANCH  17  22
ENDBRANCH   9  16
ENDBRANCH   6   8
ENDBRANCH   5   6
ENDBRANCH   4   5
ENDBRANCH   3   4
ENDBRANCH   2   3
ENDBRANCH   1   2
BRANCH   1  27
ATOM     27  C   UNL A   1      32.927  36.407  30.696  1.00  0.00     0.188 C 
BRANCH  27  28
ATOM     28  O   UNL A   1      32.988  35.119  31.265  1.00  0.00    -0.376 OA
BRANCH  28  29
ATOM     29  C   UNL A   1      33.712  34.969  32.471  1.00  0.00     0.202 C 
BRANCH  29  30
ATOM     30  C   UNL A   1      35.225  34.688  32.413  1.00  0.00     0.261 C 
BRANCH  30  31
ATOM     31  O   UNL A   1      35.635  33.378  31.989  1.00  0.00    -0.460 OA
BRANCH  31  32
ATOM     32  C   UNL A   1      36.341  32.629  32.865  1.00  0.00     0.338 C 
ATOM     33  O   UNL A   1      36.132  32.496  34.057  1.00  0.00    -0.246 OA
BRANCH  32  34
ATOM     34  C   UNL A   1      37.328  31.840  32.095  1.00  0.00     0.060 A 
ATOM     35  C   UNL A   1      38.204  30.987  32.779  1.00  0.00     0.016 A 
ATOM     36  C   UNL A   1      37.393  31.950  30.704  1.00  0.00     0.016 A 
ATOM     37  C   UNL A   1      39.174  30.268  32.074  1.00  0.00     0.010 A 
ATOM     38  C   UNL A   1      38.375  31.243  30.001  1.00  0.00     0.010 A 
ATOM     39  C   UNL A   1      39.290  30.425  30.686  1.00  0.00    -0.014 A 
BRANCH  39  40
ATOM     40  C   UNL A   1      40.480  29.893  29.975  1.00  0.00     0.031 A 
ATOM     41  C   UNL A   1      41.632  30.824  29.710  1.00  0.00     0.074 A 
ATOM     42  C   UNL A   1      40.547  28.612  29.572  1.00  0.00     0.049 A 
ATOM     43  N   UNL A   1      42.750  30.605  29.066  1.00  0.00    -0.248 NA
ATOM     44  C   UNL A   1      41.499  32.188  30.243  1.00  0.00     0.031 C 
ATOM     45  C   UNL A   1      39.515  27.603  29.786  1.00  0.00     0.029 A 
ATOM     46  N   UNL A   1      41.531  27.951  28.878  1.00  0.00    -0.354 N 
ATOM     47  C   UNL A   1      43.451  31.803  29.115  1.00  0.00     0.074 A 
ATOM     48  C   UNL A   1      42.616  32.754  29.819  1.00  0.00     0.031 C 
ATOM     49  C   UNL A   1      39.908  26.451  29.214  1.00  0.00     0.029 A 
ATOM     50  C   UNL A   1      41.208  26.651  28.572  1.00  0.00     0.049 A 
ATOM     51  H   UNL A   1      42.386  28.367  28.624  1.00  0.00     0.167 HD
ATOM     52  C   UNL A   1      44.682  32.087  28.627  1.00  0.00     0.037 A 
ATOM     53  C   UNL A   1      41.871  25.740  27.834  1.00  0.00     0.037 A 
ATOM     54  C   UNL A   1      45.505  31.151  27.907  1.00  0.00     0.049 A 
ATOM     55  C   UNL A   1      43.209  26.094  27.238  1.00  0.00     0.074 A 
ATOM     56  C   UNL A   1      46.769  31.340  27.377  1.00  0.00     0.029 A 
ATOM     57  N   UNL A   1      45.134  29.849  27.605  1.00  0.00    -0.354 N 
ATOM     58  N   UNL A   1      43.878  27.219  27.315  1.00  0.00    -0.248 NA
ATOM     59  C   UNL A   1      43.887  25.048  26.458  1.00  0.00     0.031 C 
ATOM     60  C   UNL A   1      47.144  30.168  26.712  1.00  0.00     0.029 A 
ATOM     61  C   UNL A   1      46.137  29.229  26.876  1.00  0.00     0.049 A 
ATOM     62  H   UNL A   1      44.285  29.427  27.868  1.00  0.00     0.167 HD
ATOM     63  C   UNL A   1      45.062  27.009  26.618  1.00  0.00     0.074 A 
ATOM     64  C   UNL A   1      45.026  25.644  26.135  1.00  0.00     0.031 C 
ATOM     65  C   UNL A   1      46.089  27.868  26.402  1.00  0.00     0.037 A 
BRANCH  52  66
ATOM     66  C   UNL A   1      45.191  33.485  28.835  1.00  0.00     0.057 A 
ATOM     67  C   UNL A   1      44.914  34.515  27.925  1.00  0.00     0.134 A 
ATOM     68  C   UNL A   1      45.971  33.804  29.952  1.00  0.00     0.134 A 
ATOM     69  F   UNL A   1      44.186  34.273  26.824  1.00  0.00    -0.206 F 
ATOM     70  C   UNL A   1      45.427  35.802  28.101  1.00  0.00     0.040 A 
ATOM     71  C   UNL A   1      46.466  35.093  30.154  1.00  0.00     0.040 A 
ATOM     72  F   UNL A   1      46.270  32.866  30.864  1.00  0.00    -0.206 F 
ATOM     73  C   UNL A   1      46.203  36.094  29.220  1.00  0.00     0.006 A 
ENDBRANCH  52  66
BRANCH  53  74
ATOM     74  C   UNL A   1      41.272  24.400  27.606  1.00  0.00     0.057 A 
ATOM     75  C   UNL A   1      41.724  23.272  28.299  1.00  0.00     0.134 A 
ATOM     76  C   UNL A   1      40.231  24.219  26.687  1.00  0.00     0.134 A 
ATOM     77  F   UNL A   1      42.736  23.378  29.173  1.00  0.00    -0.206 F 
ATOM     78  C   UNL A   1      41.171  22.010  28.080  1.00  0.00     0.040 A 
ATOM     79  C   UNL A   1      39.651  22.967  26.475  1.00  0.00     0.040 A 
ATOM     80  F   UNL A   1      39.755  25.260  25.989  1.00  0.00    -0.206 F 
ATOM     81  C   UNL A   1      40.125  21.856  27.172  1.00  0.00     0.006 A 
ENDBRANCH  53  74
BRANCH  65  82
ATOM     82  C   UNL A   1      47.277  27.351  25.642  1.00  0.00     0.057 A 
ATOM     83  C   UNL A   1      47.425  27.554  24.263  1.00  0.00     0.134 A 
ATOM     84  C   UNL A   1      48.312  26.679  26.308  1.00  0.00     0.134 A 
ATOM     85  F   UNL A   1      46.468  28.180  23.563  1.00  0.00    -0.206 F 
ATOM     86  C   UNL A   1      48.545  27.087  23.572  1.00  0.00     0.040 A 
ATOM     87  C   UNL A   1      49.449  26.232  25.633  1.00  0.00     0.040 A 
ATOM     88  F   UNL A   1      48.240  26.459  27.630  1.00  0.00    -0.206 F 
ATOM     89  C   UNL A   1      49.564  26.431  24.259  1.00  0.00     0.006 A 
ENDBRANCH  65  82
ENDBRANCH  39  40
ENDBRANCH  32  34
ENDBRANCH  31  32
ENDBRANCH  30  31
ENDBRANCH  29  30
ENDBRANCH  28  29
ENDBRANCH  27  28
ENDBRANCH   1  27
TORSDOF 20
ENDMDL
MODEL 2
REMARK VINA RESULT:     -10.6      1.870      3.238
REMARK SMILES C[NH2+]C[C@H]1CCCN(c2ccc(C(=O)OCCOCCOCCOC(=O)c3ccc(-c4c5nc(c(-c6c(F)cccc6F)c6ccc([nH]6)c(-c6c(F)cccc6F)c6nc(c(-c7c(F)cccc7F)c7ccc4[nH]7)C=C6)C=C5)cc3)c(F)c2F)C1
REMARK SMILES IDX 19 1 18 2 17 3 16 4 15 5 13 6 14 7 12 8 9 9 10 10 83 11
REMARK SMILES IDX 11 12 81 13 84 14 82 15 8 16 4 17 5 18 85 19 6 20 7 21 3 22
REMARK SMILES IDX 2 23 1 24 20 27 21 28 22 29 23 30 24 31 25 32 26 33 27 34
REMARK SMILES IDX 28 35 80 36 29 37 79 38 30 39 31 40 32 41 73 42 33 43 78 44
REMARK SMILES IDX 72 45 74 46 34 47 77 48 71 49 70 50 35 52 61 53 44 54 60 55
REMARK SMILES IDX 45 56 48 57 59 58 75 59 46 60 47 61 58 63 76 64 49 65 36 66
REMARK SMILES IDX 37 67 42 68 38 69 39 70 41 71 43 72 40 73 62 74 63 75 68 76
REMARK SMILES IDX 64 77 65 78 67 79 69 80 66 81 50 82 51 83 56 84 52 85 53 86
REMARK SMILES IDX 55 87 57 88 54 89
REMARK H PARENT 2 25 2 26 74 51 48 62
REMARK Flexibility Score: inf
ROOT
ATOM      1  C   UNL A   1      33.228  34.220  28.259  1.00  0.00     0.188 C 
ENDROOT
BRANCH   1   2
ATOM      2  O   UNL A   1      34.197  33.297  27.771  1.00  0.00    -0.376 OA
BRANCH   2   3
ATOM      3  C   UNL A   1      34.315  32.011  28.378  1.00  0.00     0.202 C 
BRANCH   3   4
ATOM      4  C   UNL A   1      34.305  30.772  27.473  1.00  0.00     0.261 C 
BRANCH   4   5
ATOM      5  O   UNL A   1      33.125  29.974  27.635  1.00  0.00    -0.460 OA
BRANCH   5   6
ATOM      6  C   UNL A   1      32.262  29.960  26.588  1.00  0.00     0.341 C 
ATOM      7  O   UNL A   1      31.636  30.888  26.129  1.00  0.00    -0.246 OA
BRANCH   6   8
ATOM      8  C   UNL A   1      32.382  28.662  25.900  1.00  0.00     0.099 A 
ATOM      9  C   UNL A   1      32.618  26.144  24.697  1.00  0.00     0.076 A 
ATOM     10  C   UNL A   1      31.922  26.274  25.902  1.00  0.00     0.030 A 
ATOM     11  C   UNL A   1      33.099  27.311  24.063  1.00  0.00     0.182 A 
ATOM     12  C   UNL A   1      31.826  27.526  26.515  1.00  0.00     0.021 A 
ATOM     13  C   UNL A   1      32.992  28.558  24.658  1.00  0.00     0.175 A 
ATOM     14  F   UNL A   1      33.780  27.202  22.909  1.00  0.00    -0.201 F 
ATOM     15  F   UNL A   1      33.531  29.627  24.056  1.00  0.00    -0.203 F 
BRANCH   9  16
ATOM     16  N   UNL A   1      33.131  24.920  24.300  1.00  0.00    -0.369 N 
ATOM     17  C   UNL A   1      34.940  23.525  25.063  1.00  0.00     0.064 C 
ATOM     18  C   UNL A   1      34.698  22.603  23.848  1.00  0.00     0.013 C 
ATOM     19  C   UNL A   1      33.612  24.152  25.444  1.00  0.00     0.126 C 
ATOM     20  C   UNL A   1      33.925  23.295  22.703  1.00  0.00     0.022 C 
ATOM     21  C   UNL A   1      32.707  24.120  23.166  1.00  0.00     0.116 C 
BRANCH  17  22
ATOM     22  C   UNL A   1      35.641  22.780  26.224  1.00  0.00     0.265 C 
BRANCH  22  23
ATOM     23  N   UNL A   1      35.113  21.477  26.638  1.00  0.00    -0.348 N 
ATOM     24  C   UNL A   1      33.982  21.570  27.550  1.00  0.00     0.330 C 
ATOM     25  H   UNL A   1      34.815  20.971  25.805  1.00  0.00     0.346 HD
ATOM     26  H   UNL A   1      35.861  20.996  27.137  1.00  0.00     0.346 HD
ENDBRANCH  22  23
ENDBRANCH  17  22
ENDBRANCH   9  16
ENDBRANCH   6   8
ENDBRANCH   5   6
ENDBRANCH   4   5
ENDBRANCH   3   4
ENDBRANCH   2   3
ENDBRANCH   1   2
BRANCH   1  27
ATOM     27  C   UNL A   1      33.586  35.164  29.426  1.00  0.00     0.188 C 
BRANCH  27  28
ATOM     28  O   UNL A   1      33.098  34.721  30.671  1.00  0.00    -0.376 OA
BRANCH  28  29
ATOM     29  C   UNL A   1      33.738  35.205  31.837  1.00  0.00     0.202 C 
BRANCH  29  30
ATOM     30  C   UNL A   1      35.147  34.695  32.191  1.00  0.00     0.261 C 
BRANCH  30  31
ATOM     31  O   UNL A   1      35.444  33.322  31.889  1.00  0.00    -0.460 OA
BRANCH  31  32
ATOM     32  C   UNL A   1      36.153  32.620  32.801  1.00  0.00     0.338 C 
ATOM     33  O   UNL A   1      35.931  32.527  33.993  1.00  0.00    -0.246 OA
BRANCH  32  34
ATOM     34  C   UNL A   1      37.165  31.824  32.072  1.00  0.00     0.060 A 
ATOM     35  C   UNL A   1      38.107  31.084  32.801  1.00  0.00     0.016 A 
ATOM     36  C   UNL A   1      37.190  31.816  30.675  1.00  0.00     0.016 A 
ATOM     37  C   UNL A   1      39.100  30.363  32.132  1.00  0.00     0.010 A 
ATOM     38  C   UNL A   1      38.195  31.107  30.007  1.00  0.00     0.010 A 
ATOM     39  C   UNL A   1      39.173  30.405  30.732  1.00  0.00    -0.014 A 
BRANCH  39  40
ATOM     40  C   UNL A   1      40.374  29.881  30.035  1.00  0.00     0.031 A 
ATOM     41  C   UNL A   1      41.528  30.816  29.794  1.00  0.00     0.074 A 
ATOM     42  C   UNL A   1      40.451  28.603  29.624  1.00  0.00     0.049 A 
ATOM     43  N   UNL A   1      42.655  30.605  29.164  1.00  0.00    -0.248 NA
ATOM     44  C   UNL A   1      41.383  32.177  30.334  1.00  0.00     0.031 C 
ATOM     45  C   UNL A   1      39.418  27.590  29.816  1.00  0.00     0.029 A 
ATOM     46  N   UNL A   1      41.446  27.949  28.939  1.00  0.00    -0.354 N 
ATOM     47  C   UNL A   1      43.352  31.805  29.232  1.00  0.00     0.074 A 
ATOM     48  C   UNL A   1      42.505  32.748  29.930  1.00  0.00     0.031 C 
ATOM     49  C   UNL A   1      39.823  26.443  29.241  1.00  0.00     0.029 A 
ATOM     50  C   UNL A   1      41.131  26.651  28.619  1.00  0.00     0.049 A 
ATOM     51  H   UNL A   1      42.304  28.370  28.701  1.00  0.00     0.167 HD
ATOM     52  C   UNL A   1      44.590  32.095  28.764  1.00  0.00     0.037 A 
ATOM     53  C   UNL A   1      41.808  25.747  27.884  1.00  0.00     0.037 A 
ATOM     54  C   UNL A   1      45.425  31.166  28.050  1.00  0.00     0.049 A 
ATOM     55  C   UNL A   1      43.153  26.109  27.311  1.00  0.00     0.074 A 
ATOM     56  C   UNL A   1      46.696  31.362  27.539  1.00  0.00     0.029 A 
ATOM     57  N   UNL A   1      45.062  29.866  27.732  1.00  0.00    -0.354 N 
ATOM     58  N   UNL A   1      43.818  27.235  27.406  1.00  0.00    -0.248 NA
ATOM     59  C   UNL A   1      43.844  25.070  26.533  1.00  0.00     0.031 C 
ATOM     60  C   UNL A   1      47.084  30.196  26.871  1.00  0.00     0.029 A 
ATOM     61  C   UNL A   1      46.077  29.253  27.013  1.00  0.00     0.049 A 
ATOM     62  H   UNL A   1      44.211  29.440  27.981  1.00  0.00     0.167 HD
ATOM     63  C   UNL A   1      45.012  27.033  26.724  1.00  0.00     0.074 A 
ATOM     64  C   UNL A   1      44.987  25.672  26.231  1.00  0.00     0.031 C 
ATOM     65  C   UNL A   1      46.040  27.896  26.529  1.00  0.00     0.037 A 
BRANCH  52  66
ATOM     66  C   UNL A   1      45.091  33.493  28.989  1.00  0.00     0.057 A 
ATOM     67  C   UNL A   1      45.689  33.878  30.197  1.00  0.00     0.134 A 
ATOM     68  C   UNL A   1      44.969  34.467  27.991  1.00  0.00     0.134 A 
ATOM     69  F   UNL A   1      45.821  32.998  31.202  1.00  0.00    -0.206 F 
ATOM     70  C   UNL A   1      46.112  35.191  30.417  1.00  0.00     0.040 A 
ATOM     71  C   UNL A   1      45.414  35.774  28.187  1.00  0.00     0.040 A 
ATOM     72  F   UNL A   1      44.410  34.165  26.809  1.00  0.00    -0.206 F 
ATOM     73  C   UNL A   1      45.978  36.142  29.408  1.00  0.00     0.006 A 
ENDBRANCH  52  66
BRANCH  53  74
ATOM     74  C   UNL A   1      41.215  24.407  27.638  1.00  0.00     0.057 A 
ATOM     75  C   UNL A   1      41.651  23.277  28.339  1.00  0.00     0.134 A 
ATOM     76  C   UNL A   1      40.197  24.228  26.693  1.00  0.00     0.134 A 
ATOM     77  F   UNL A   1      42.641  23.382  29.238  1.00  0.00    -0.206 F 
ATOM     78  C   UNL A   1      41.104  22.015  28.103  1.00  0.00     0.040 A 
ATOM     79  C   UNL A   1      39.623  22.976  26.464  1.00  0.00     0.040 A 
ATOM     80  F   UNL A   1      39.738  25.271  25.987  1.00  0.00    -0.206 F 
ATOM     81  C   UNL A   1      40.081  21.864  27.169  1.00  0.00     0.006 A 
ENDBRANCH  53  74
BRANCH  65  82
ATOM     82  C   UNL A   1      47.240  27.387  25.783  1.00  0.00     0.057 A 
ATOM     83  C   UNL A   1      48.281  26.702  26.424  1.00  0.00     0.134 A 
ATOM     84  C   UNL A   1      47.334  27.545  24.392  1.00  0.00     0.134 A 
ATOM     85  F   UNL A   1      48.259  26.526  27.754  1.00  0.00    -0.206 F 
ATOM     86  C   UNL A   1      49.380  26.215  25.715  1.00  0.00     0.040 A 
ATOM     87  C   UNL A   1      48.415  27.039  23.669  1.00  0.00     0.040 A 
ATOM     88  F   UNL A   1      46.368  28.182  23.713  1.00  0.00    -0.206 F 
ATOM     89  C   UNL A   1      49.445  26.376  24.332  1.00  0.00     0.006 A 
ENDBRANCH  65  82
ENDBRANCH  39  40
ENDBRANCH  32  34
ENDBRANCH  31  32
ENDBRANCH  30  31
ENDBRANCH  29  30
ENDBRANCH  28  29
ENDBRANCH  27  28
ENDBRANCH   1  27
TORSDOF 20
ENDMDL
MODEL 3
REMARK VINA RESULT:      -9.9      3.159      7.933
REMARK SMILES C[NH2+]C[C@H]1CCCN(c2ccc(C(=O)OCCOCCOCCOC(=O)c3ccc(-c4c5nc(c(-c6c(F)cccc6F)c6ccc([nH]6)c(-c6c(F)cccc6F)c6nc(c(-c7c(F)cccc7F)c7ccc4[nH]7)C=C6)C=C5)cc3)c(F)c2F)C1
REMARK SMILES IDX 19 1 18 2 17 3 16 4 15 5 13 6 14 7 12 8 9 9 10 10 83 11
REMARK SMILES IDX 11 12 81 13 84 14 82 15 8 16 4 17 5 18 85 19 6 20 7 21 3 22
REMARK SMILES IDX 2 23 1 24 20 27 21 28 22 29 23 30 24 31 25 32 26 33 27 34
REMARK SMILES IDX 28 35 80 36 29 37 79 38 30 39 31 40 32 41 73 42 33 43 78 44
REMARK SMILES IDX 72 45 74 46 34 47 77 48 71 49 70 50 35 52 61 53 44 54 60 55
REMARK SMILES IDX 45 56 48 57 59 58 75 59 46 60 47 61 58 63 76 64 49 65 36 66
REMARK SMILES IDX 37 67 42 68 38 69 39 70 41 71 43 72 40 73 62 74 63 75 68 76
REMARK SMILES IDX 64 77 65 78 67 79 69 80 66 81 50 82 51 83 56 84 52 85 53 86
REMARK SMILES IDX 55 87 57 88 54 89
REMARK H PARENT 2 25 2 26 74 51 48 62
REMARK Flexibility Score: inf
ROOT
ATOM      1  C   UNL A   1      41.830  34.337  32.654  1.00  0.00     0.188 C 
ENDROOT
BRANCH   1   2
ATOM      2  O   UNL A   1      40.804  34.964  33.418  1.00  0.00    -0.376 OA
BRANCH   2   3
ATOM      3  C   UNL A   1      40.799  34.828  34.838  1.00  0.00     0.202 C 
BRANCH   3   4
ATOM      4  C   UNL A   1      39.640  34.066  35.495  1.00  0.00     0.261 C 
BRANCH   4   5
ATOM      5  O   UNL A   1      39.236  32.912  34.746  1.00  0.00    -0.460 OA
BRANCH   5   6
ATOM      6  C   UNL A   1      37.944  32.526  34.891  1.00  0.00     0.341 C 
ATOM      7  O   UNL A   1      37.429  32.000  35.851  1.00  0.00    -0.246 OA
BRANCH   6   8
ATOM      8  C   UNL A   1      37.162  33.077  33.769  1.00  0.00     0.099 A 
ATOM      9  C   UNL A   1      35.581  34.083  31.688  1.00  0.00     0.076 A 
ATOM     10  C   UNL A   1      35.086  34.078  32.994  1.00  0.00     0.030 A 
ATOM     11  C   UNL A   1      36.915  33.671  31.467  1.00  0.00     0.182 A 
ATOM     12  C   UNL A   1      35.865  33.553  34.029  1.00  0.00     0.021 A 
ATOM     13  C   UNL A   1      37.698  33.165  32.493  1.00  0.00     0.175 A 
ATOM     14  F   UNL A   1      37.404  33.660  30.215  1.00  0.00    -0.201 F 
ATOM     15  F   UNL A   1      38.931  32.715  32.223  1.00  0.00    -0.203 F 
BRANCH   9  16
ATOM     16  N   UNL A   1      34.724  34.147  30.601  1.00  0.00    -0.369 N 
ATOM     17  C   UNL A   1      34.642  33.057  28.455  1.00  0.00     0.064 C 
ATOM     18  C   UNL A   1      33.468  33.984  28.067  1.00  0.00     0.013 C 
ATOM     19  C   UNL A   1      34.590  32.844  29.956  1.00  0.00     0.126 C 
ATOM     20  C   UNL A   1      33.393  35.265  28.928  1.00  0.00     0.022 C 
ATOM     21  C   UNL A   1      33.581  35.026  30.440  1.00  0.00     0.116 C 
BRANCH  17  22
ATOM     22  C   UNL A   1      34.640  31.747  27.633  1.00  0.00     0.265 C 
BRANCH  22  23
ATOM     23  N   UNL A   1      33.881  30.602  28.143  1.00  0.00    -0.348 N 
ATOM     24  C   UNL A   1      34.014  29.404  27.327  1.00  0.00     0.330 C 
ATOM     25  H   UNL A   1      34.212  30.389  29.084  1.00  0.00     0.346 HD
ATOM     26  H   UNL A   1      32.896  30.865  28.129  1.00  0.00     0.346 HD
ENDBRANCH  22  23
ENDBRANCH  17  22
ENDBRANCH   9  16
ENDBRANCH   6   8
ENDBRANCH   5   6
ENDBRANCH   4   5
ENDBRANCH   3   4
ENDBRANCH   2   3
ENDBRANCH   1   2
BRANCH   1  27
ATOM     27  C   UNL A   1      42.779  35.196  31.792  1.00  0.00     0.188 C 
BRANCH  27  28
ATOM     28  O   UNL A   1      43.456  36.188  32.529  1.00  0.00    -0.376 OA
BRANCH  28  29
ATOM     29  C   UNL A   1      43.848  37.362  31.843  1.00  0.00     0.202 C 
BRANCH  29  30
ATOM     30  C   UNL A   1      45.344  37.710  31.736  1.00  0.00     0.261 C 
BRANCH  30  31
ATOM     31  O   UNL A   1      46.144  36.910  30.851  1.00  0.00    -0.460 OA
BRANCH  31  32
ATOM     32  C   UNL A   1      45.760  36.833  29.557  1.00  0.00     0.338 C 
ATOM     33  O   UNL A   1      45.773  37.727  28.731  1.00  0.00    -0.246 OA
BRANCH  32  34
ATOM     34  C   UNL A   1      45.479  35.413  29.251  1.00  0.00     0.060 A 
ATOM     35  C   UNL A   1      44.695  35.097  28.133  1.00  0.00     0.016 A 
ATOM     36  C   UNL A   1      45.980  34.399  30.071  1.00  0.00     0.016 A 
ATOM     37  C   UNL A   1      44.380  33.764  27.853  1.00  0.00     0.010 A 
ATOM     38  C   UNL A   1      45.650  33.066  29.799  1.00  0.00     0.010 A 
ATOM     39  C   UNL A   1      44.822  32.746  28.710  1.00  0.00    -0.014 A 
BRANCH  39  40
ATOM     40  C   UNL A   1      44.264  31.376  28.583  1.00  0.00     0.031 A 
ATOM     41  C   UNL A   1      45.049  30.351  27.811  1.00  0.00     0.074 A 
ATOM     42  C   UNL A   1      43.088  31.038  29.141  1.00  0.00     0.049 A 
ATOM     43  N   UNL A   1      44.745  29.112  27.522  1.00  0.00    -0.248 NA
ATOM     44  C   UNL A   1      46.353  30.790  27.291  1.00  0.00     0.031 C 
ATOM     45  C   UNL A   1      42.242  31.926  29.933  1.00  0.00     0.029 A 
ATOM     46  N   UNL A   1      42.397  29.852  29.105  1.00  0.00    -0.354 N 
ATOM     47  C   UNL A   1      45.818  28.624  26.786  1.00  0.00     0.074 A 
ATOM     48  C   UNL A   1      46.762  29.712  26.642  1.00  0.00     0.031 C 
ATOM     49  C   UNL A   1      41.130  31.259  30.291  1.00  0.00     0.029 A 
ATOM     50  C   UNL A   1      41.176  29.908  29.731  1.00  0.00     0.049 A 
ATOM     51  H   UNL A   1      42.744  29.038  28.672  1.00  0.00     0.167 HD
ATOM     52  C   UNL A   1      46.008  27.381  26.282  1.00  0.00     0.037 A 
ATOM     53  C   UNL A   1      40.198  28.985  29.817  1.00  0.00     0.037 A 
ATOM     54  C   UNL A   1      45.062  26.304  26.405  1.00  0.00     0.049 A 
ATOM     55  C   UNL A   1      40.396  27.629  29.190  1.00  0.00     0.074 A 
ATOM     56  C   UNL A   1      45.163  25.007  25.934  1.00  0.00     0.029 A 
ATOM     57  N   UNL A   1      43.830  26.407  27.034  1.00  0.00    -0.354 N 
ATOM     58  N   UNL A   1      41.426  27.167  28.524  1.00  0.00    -0.248 NA
ATOM     59  C   UNL A   1      39.295  26.664  29.335  1.00  0.00     0.031 C 
ATOM     60  C   UNL A   1      43.972  24.338  26.236  1.00  0.00     0.029 A 
ATOM     61  C   UNL A   1      43.151  25.201  26.945  1.00  0.00     0.049 A 
ATOM     62  H   UNL A   1      43.487  27.215  27.478  1.00  0.00     0.167 HD
ATOM     63  C   UNL A   1      41.110  25.855  28.192  1.00  0.00     0.074 A 
ATOM     64  C   UNL A   1      39.797  25.590  28.741  1.00  0.00     0.031 C 
ATOM     65  C   UNL A   1      41.844  24.949  27.498  1.00  0.00     0.037 A 
BRANCH  52  66
ATOM     66  C   UNL A   1      47.282  27.142  25.524  1.00  0.00     0.057 A 
ATOM     67  C   UNL A   1      48.414  26.586  26.137  1.00  0.00     0.134 A 
ATOM     68  C   UNL A   1      47.382  27.477  24.169  1.00  0.00     0.134 A 
ATOM     69  F   UNL A   1      48.391  26.258  27.439  1.00  0.00    -0.206 F 
ATOM     70  C   UNL A   1      49.610  26.408  25.438  1.00  0.00     0.040 A 
ATOM     71  C   UNL A   1      48.562  27.277  23.452  1.00  0.00     0.040 A 
ATOM     72  F   UNL A   1      46.335  28.009  23.519  1.00  0.00    -0.206 F 
ATOM     73  C   UNL A   1      49.684  26.750  24.090  1.00  0.00     0.006 A 
ENDBRANCH  52  66
BRANCH  53  74
ATOM     74  C   UNL A   1      38.932  29.318  30.518  1.00  0.00     0.057 A 
ATOM     75  C   UNL A   1      38.815  29.201  31.907  1.00  0.00     0.134 A 
ATOM     76  C   UNL A   1      37.807  29.762  29.810  1.00  0.00     0.134 A 
ATOM     77  F   UNL A   1      39.849  28.756  32.636  1.00  0.00    -0.206 F 
ATOM     78  C   UNL A   1      37.623  29.502  32.568  1.00  0.00     0.040 A 
ATOM     79  C   UNL A   1      36.616  30.091  30.460  1.00  0.00     0.040 A 
ATOM     80  F   UNL A   1      37.855  29.893  28.476  1.00  0.00    -0.206 F 
ATOM     81  C   UNL A   1      36.522  29.957  31.844  1.00  0.00     0.006 A 
ENDBRANCH  53  74
BRANCH  65  82
ATOM     82  C   UNL A   1      41.265  23.574  27.325  1.00  0.00     0.057 A 
ATOM     83  C   UNL A   1      40.208  23.318  26.441  1.00  0.00     0.134 A 
ATOM     84  C   UNL A   1      41.803  22.482  28.020  1.00  0.00     0.134 A 
ATOM     85  F   UNL A   1      39.640  24.319  25.753  1.00  0.00    -0.206 F 
ATOM     86  C   UNL A   1      39.694  22.031  26.273  1.00  0.00     0.040 A 
ATOM     87  C   UNL A   1      41.315  21.187  27.839  1.00  0.00     0.040 A 
ATOM     88  F   UNL A   1      42.823  22.654  28.875  1.00  0.00    -0.206 F 
ATOM     89  C   UNL A   1      40.253  20.960  26.967  1.00  0.00     0.006 A 
ENDBRANCH  65  82
ENDBRANCH  39  40
ENDBRANCH  32  34
ENDBRANCH  31  32
ENDBRANCH  30  31
ENDBRANCH  29  30
ENDBRANCH  28  29
ENDBRANCH  27  28
ENDBRANCH   1  27
TORSDOF 20
ENDMDL
