MODEL 1
REMARK VINA RESULT:     -10.4      0.000      0.000
REMARK SMILES Cc1ccc(C(=O)OCCOCCOCCOC(=O)c2ccc(-c3c4nc(c(-c5c(F)cccc5F)c5ccc([nH]5)c(-c5c(F)cccc5F)c5nc(c(-c6c(F)cccc6F)c6ccc3[nH]6)C=C5)C=C4)cc2)cc1S(=O)(=O)N(C)[C@H]1CCSC1
REMARK SMILES IDX 12 1 11 2 10 3 9 4 8 5 6 6 7 7 5 8 1 9 2 10 3 11 75 12 4 13
REMARK SMILES IDX 74 14 76 15 77 16 78 17 79 18 80 19 81 20 82 21 85 22 83 23
REMARK SMILES IDX 84 24 13 25 14 26 15 27 16 28 17 29 18 30 19 31 20 32 21 33
REMARK SMILES IDX 73 34 22 35 72 36 23 37 24 38 25 39 66 40 26 41 71 42 65 43
REMARK SMILES IDX 67 44 27 45 70 46 64 47 63 48 28 50 54 51 37 52 53 53 38 54
REMARK SMILES IDX 41 55 52 56 68 57 39 58 40 59 51 61 69 62 42 63 29 64 30 65
REMARK SMILES IDX 35 66 31 67 32 68 34 69 36 70 33 71 55 72 56 73 61 74 57 75
REMARK SMILES IDX 58 76 60 77 62 78 59 79 43 80 44 81 49 82 45 83 46 84 48 85
REMARK SMILES IDX 50 86 47 87
REMARK H PARENT 67 49 41 60
REMARK Flexibility Score: inf
ROOT
ATOM      1  C   UNL A   1      40.389  21.121  26.814  1.00  0.00     0.188 C 
ENDROOT
BRANCH   1   2
ATOM      2  O   UNL A   1      39.722  21.693  25.697  1.00  0.00    -0.376 OA
BRANCH   2   3
ATOM      3  C   UNL A   1      38.315  21.959  25.783  1.00  0.00     0.202 C 
BRANCH   3   4
ATOM      4  C   UNL A   1      37.319  21.325  24.757  1.00  0.00     0.261 C 
BRANCH   4   5
ATOM      5  O   UNL A   1      35.996  20.836  25.207  1.00  0.00    -0.460 OA
BRANCH   5   6
ATOM      6  C   UNL A   1      34.972  21.488  25.894  1.00  0.00     0.338 C 
ATOM      7  O   UNL A   1      34.927  21.517  27.119  1.00  0.00    -0.246 OA
BRANCH   6   8
ATOM      8  C   UNL A   1      33.855  22.282  24.940  1.00  0.00     0.061 A 
ATOM      9  C   UNL A   1      30.393  24.190  23.050  1.00  0.00     0.046 C 
ATOM     10  C   UNL A   1      31.739  23.725  23.511  1.00  0.00    -0.031 A 
ATOM     11  C   UNL A   1      31.966  22.409  23.252  1.00  0.00     0.006 A 
ATOM     12  C   UNL A   1      32.742  24.360  24.275  1.00  0.00     0.086 A 
ATOM     13  C   UNL A   1      33.003  21.772  23.920  1.00  0.00     0.016 A 
ATOM     14  C   UNL A   1      33.736  23.645  25.035  1.00  0.00     0.037 A 
BRANCH  12  15
ATOM     15  S   UNL A   1      33.211  26.058  24.029  1.00  0.00     0.243 S 
ATOM     16  O   UNL A   1      34.400  26.254  24.826  1.00  0.00    -0.207 OA
ATOM     17  O   UNL A   1      33.214  26.251  22.593  1.00  0.00    -0.207 OA
BRANCH  15  18
ATOM     18  N   UNL A   1      31.958  27.008  24.645  1.00  0.00    -0.197 NA
ATOM     19  C   UNL A   1      31.392  26.549  25.916  1.00  0.00     0.125 C 
BRANCH  18  20
ATOM     20  C   UNL A   1      31.333  28.061  23.784  1.00  0.00     0.083 C 
ATOM     21  C   UNL A   1      30.043  27.647  23.067  1.00  0.00     0.032 C 
ATOM     22  C   UNL A   1      30.960  29.303  24.601  1.00  0.00     0.089 C 
ATOM     23  C   UNL A   1      29.501  28.891  22.382  1.00  0.00     0.071 C 
ATOM     24  S   UNL A   1      29.736  30.210  23.597  1.00  0.00    -0.160 SA
ENDBRANCH  18  20
ENDBRANCH  15  18
ENDBRANCH  12  15
ENDBRANCH   6   8
ENDBRANCH   5   6
ENDBRANCH   4   5
ENDBRANCH   3   4
ENDBRANCH   2   3
ENDBRANCH   1   2
BRANCH   1  25
ATOM     25  C   UNL A   1      41.085  19.777  26.663  1.00  0.00     0.188 C 
BRANCH  25  26
ATOM     26  O   UNL A   1      41.949  19.830  25.534  1.00  0.00    -0.376 OA
BRANCH  26  27
ATOM     27  C   UNL A   1      43.323  19.631  25.843  1.00  0.00     0.202 C 
BRANCH  27  28
ATOM     28  C   UNL A   1      44.183  19.339  24.600  1.00  0.00     0.261 C 
BRANCH  28  29
ATOM     29  O   UNL A   1      45.235  20.323  24.486  1.00  0.00    -0.460 OA
BRANCH  29  30
ATOM     30  C   UNL A   1      44.890  21.609  24.162  1.00  0.00     0.338 C 
ATOM     31  O   UNL A   1      44.313  21.955  23.146  1.00  0.00    -0.246 OA
BRANCH  30  32
ATOM     32  C   UNL A   1      45.615  22.550  25.084  1.00  0.00     0.060 A 
ATOM     33  C   UNL A   1      45.549  22.464  26.477  1.00  0.00     0.016 A 
ATOM     34  C   UNL A   1      45.939  23.766  24.577  1.00  0.00     0.016 A 
ATOM     35  C   UNL A   1      45.552  23.649  27.304  1.00  0.00     0.010 A 
ATOM     36  C   UNL A   1      45.574  24.850  25.378  1.00  0.00     0.010 A 
ATOM     37  C   UNL A   1      45.395  24.943  26.779  1.00  0.00    -0.014 A 
BRANCH  37  38
ATOM     38  C   UNL A   1      44.784  26.239  27.652  1.00  0.00     0.031 A 
ATOM     39  C   UNL A   1      43.291  27.084  27.718  1.00  0.00     0.074 A 
ATOM     40  C   UNL A   1      45.695  26.866  28.427  1.00  0.00     0.049 A 
ATOM     41  N   UNL A   1      43.175  28.402  27.771  1.00  0.00    -0.248 NA
ATOM     42  C   UNL A   1      41.874  26.603  27.547  1.00  0.00     0.031 C 
ATOM     43  C   UNL A   1      45.451  27.847  29.467  1.00  0.00     0.029 A 
ATOM     44  N   UNL A   1      47.081  26.822  28.314  1.00  0.00    -0.354 N 
ATOM     45  C   UNL A   1      41.791  28.668  27.863  1.00  0.00     0.074 A 
ATOM     46  C   UNL A   1      41.162  27.647  27.145  1.00  0.00     0.031 C 
ATOM     47  C   UNL A   1      46.599  28.491  29.723  1.00  0.00     0.029 A 
ATOM     48  C   UNL A   1      47.580  28.048  28.750  1.00  0.00     0.049 A 
ATOM     49  H   UNL A   1      47.615  26.063  27.986  1.00  0.00     0.167 HD
ATOM     50  C   UNL A   1      41.217  29.389  28.876  1.00  0.00     0.037 A 
ATOM     51  C   UNL A   1      48.310  28.826  27.903  1.00  0.00     0.037 A 
ATOM     52  C   UNL A   1      42.213  30.283  29.391  1.00  0.00     0.049 A 
ATOM     53  C   UNL A   1      47.666  30.174  27.689  1.00  0.00     0.074 A 
ATOM     54  C   UNL A   1      42.946  30.359  30.554  1.00  0.00     0.029 A 
ATOM     55  N   UNL A   1      42.820  31.106  28.465  1.00  0.00    -0.354 N 
ATOM     56  N   UNL A   1      46.438  30.439  28.045  1.00  0.00    -0.248 NA
ATOM     57  C   UNL A   1      48.322  31.336  27.097  1.00  0.00     0.031 C 
ATOM     58  C   UNL A   1      44.128  31.093  30.237  1.00  0.00     0.029 A 
ATOM     59  C   UNL A   1      44.052  31.507  28.915  1.00  0.00     0.049 A 
ATOM     60  H   UNL A   1      42.424  31.370  27.603  1.00  0.00     0.167 HD
ATOM     61  C   UNL A   1      46.130  31.733  27.748  1.00  0.00     0.074 A 
ATOM     62  C   UNL A   1      47.341  32.257  27.150  1.00  0.00     0.031 C 
ATOM     63  C   UNL A   1      44.897  32.256  27.999  1.00  0.00     0.037 A 
BRANCH  50  64
ATOM     64  C   UNL A   1      39.820  29.164  29.518  1.00  0.00     0.057 A 
ATOM     65  C   UNL A   1      38.662  29.555  28.814  1.00  0.00     0.134 A 
ATOM     66  C   UNL A   1      39.523  28.701  30.831  1.00  0.00     0.134 A 
ATOM     67  F   UNL A   1      38.744  30.028  27.562  1.00  0.00    -0.206 F 
ATOM     68  C   UNL A   1      37.359  29.505  29.356  1.00  0.00     0.040 A 
ATOM     69  C   UNL A   1      38.222  28.595  31.362  1.00  0.00     0.040 A 
ATOM     70  F   UNL A   1      40.456  28.379  31.730  1.00  0.00    -0.206 F 
ATOM     71  C   UNL A   1      37.130  29.014  30.631  1.00  0.00     0.006 A 
ENDBRANCH  50  64
BRANCH  51  72
ATOM     72  C   UNL A   1      49.184  28.032  26.981  1.00  0.00     0.057 A 
ATOM     73  C   UNL A   1      50.393  27.534  27.520  1.00  0.00     0.134 A 
ATOM     74  C   UNL A   1      48.750  27.437  25.792  1.00  0.00     0.134 A 
ATOM     75  F   UNL A   1      50.871  28.039  28.670  1.00  0.00    -0.206 F 
ATOM     76  C   UNL A   1      51.065  26.429  26.986  1.00  0.00     0.040 A 
ATOM     77  C   UNL A   1      49.437  26.343  25.225  1.00  0.00     0.040 A 
ATOM     78  F   UNL A   1      47.588  27.798  25.230  1.00  0.00    -0.206 F 
ATOM     79  C   UNL A   1      50.575  25.817  25.841  1.00  0.00     0.006 A 
ENDBRANCH  51  72
BRANCH  63  80
ATOM     80  C   UNL A   1      44.319  33.486  27.345  1.00  0.00     0.057 A 
ATOM     81  C   UNL A   1      44.012  33.562  25.979  1.00  0.00     0.134 A 
ATOM     82  C   UNL A   1      43.812  34.541  28.138  1.00  0.00     0.134 A 
ATOM     83  F   UNL A   1      44.346  32.582  25.129  1.00  0.00    -0.206 F 
ATOM     84  C   UNL A   1      43.277  34.622  25.438  1.00  0.00     0.040 A 
ATOM     85  C   UNL A   1      43.018  35.566  27.620  1.00  0.00     0.040 A 
ATOM     86  F   UNL A   1      44.017  34.583  29.465  1.00  0.00    -0.206 F 
ATOM     87  C   UNL A   1      42.758  35.616  26.261  1.00  0.00     0.006 A 
ENDBRANCH  63  80
ENDBRANCH  37  38
ENDBRANCH  30  32
ENDBRANCH  29  30
ENDBRANCH  28  29
ENDBRANCH  27  28
ENDBRANCH  26  27
ENDBRANCH  25  26
ENDBRANCH   1  25
TORSDOF 20
ENDMDL
MODEL 2
REMARK VINA RESULT:     -10.3      1.665      3.003
REMARK SMILES Cc1ccc(C(=O)OCCOCCOCCOC(=O)c2ccc(-c3c4nc(c(-c5c(F)cccc5F)c5ccc([nH]5)c(-c5c(F)cccc5F)c5nc(c(-c6c(F)cccc6F)c6ccc3[nH]6)C=C5)C=C4)cc2)cc1S(=O)(=O)N(C)[C@H]1CCSC1
REMARK SMILES IDX 12 1 11 2 10 3 9 4 8 5 6 6 7 7 5 8 1 9 2 10 3 11 75 12 4 13
REMARK SMILES IDX 74 14 76 15 77 16 78 17 79 18 80 19 81 20 82 21 85 22 83 23
REMARK SMILES IDX 84 24 13 25 14 26 15 27 16 28 17 29 18 30 19 31 20 32 21 33
REMARK SMILES IDX 73 34 22 35 72 36 23 37 24 38 25 39 66 40 26 41 71 42 65 43
REMARK SMILES IDX 67 44 27 45 70 46 64 47 63 48 28 50 54 51 37 52 53 53 38 54
REMARK SMILES IDX 41 55 52 56 68 57 39 58 40 59 51 61 69 62 42 63 29 64 30 65
REMARK SMILES IDX 35 66 31 67 32 68 34 69 36 70 33 71 55 72 56 73 61 74 57 75
REMARK SMILES IDX 58 76 60 77 62 78 59 79 43 80 44 81 49 82 45 83 46 84 48 85
REMARK SMILES IDX 50 86 47 87
REMARK H PARENT 67 49 41 60
REMARK Flexibility Score: inf
ROOT
ATOM      1  C   UNL A   1      41.078  20.547  27.174  1.00  0.00     0.188 C 
ENDROOT
BRANCH   1   2
ATOM      2  O   UNL A   1      40.680  21.766  27.786  1.00  0.00    -0.376 OA
BRANCH   2   3
ATOM      3  C   UNL A   1      40.984  23.007  27.135  1.00  0.00     0.202 C 
BRANCH   3   4
ATOM      4  C   UNL A   1      39.843  24.001  26.738  1.00  0.00     0.261 C 
BRANCH   4   5
ATOM      5  O   UNL A   1      38.426  23.578  26.815  1.00  0.00    -0.460 OA
BRANCH   5   6
ATOM      6  C   UNL A   1      37.632  22.894  25.894  1.00  0.00     0.338 C 
ATOM      7  O   UNL A   1      38.100  22.065  25.121  1.00  0.00    -0.246 OA
BRANCH   6   8
ATOM      8  C   UNL A   1      35.997  23.227  25.963  1.00  0.00     0.061 A 
ATOM      9  C   UNL A   1      31.948  24.818  26.482  1.00  0.00     0.046 C 
ATOM     10  C   UNL A   1      33.199  24.097  26.088  1.00  0.00    -0.031 A 
ATOM     11  C   UNL A   1      33.736  23.368  27.102  1.00  0.00     0.006 A 
ATOM     12  C   UNL A   1      33.983  24.147  24.915  1.00  0.00     0.086 A 
ATOM     13  C   UNL A   1      35.052  22.940  26.987  1.00  0.00     0.016 A 
ATOM     14  C   UNL A   1      35.378  23.787  24.874  1.00  0.00     0.037 A 
BRANCH  12  15
ATOM     15  S   UNL A   1      33.276  24.186  23.284  1.00  0.00     0.243 S 
ATOM     16  O   UNL A   1      32.595  25.457  23.183  1.00  0.00    -0.207 OA
ATOM     17  O   UNL A   1      34.357  23.827  22.388  1.00  0.00    -0.207 OA
BRANCH  15  18
ATOM     18  N   UNL A   1      32.145  22.934  23.207  1.00  0.00    -0.197 NA
ATOM     19  C   UNL A   1      30.742  23.354  23.270  1.00  0.00     0.125 C 
BRANCH  18  20
ATOM     20  C   UNL A   1      32.598  21.514  23.344  1.00  0.00     0.083 C 
ATOM     21  C   UNL A   1      32.159  20.802  24.627  1.00  0.00     0.032 C 
ATOM     22  C   UNL A   1      32.071  20.645  22.198  1.00  0.00     0.089 C 
ATOM     23  C   UNL A   1      32.587  19.350  24.495  1.00  0.00     0.071 C 
ATOM     24  S   UNL A   1      32.195  18.921  22.782  1.00  0.00    -0.160 SA
ENDBRANCH  18  20
ENDBRANCH  15  18
ENDBRANCH  12  15
ENDBRANCH   6   8
ENDBRANCH   5   6
ENDBRANCH   4   5
ENDBRANCH   3   4
ENDBRANCH   2   3
ENDBRANCH   1   2
BRANCH   1  25
ATOM     25  C   UNL A   1      42.071  20.576  26.023  1.00  0.00     0.188 C 
BRANCH  25  26
ATOM     26  O   UNL A   1      42.783  19.344  25.998  1.00  0.00    -0.376 OA
BRANCH  26  27
ATOM     27  C   UNL A   1      43.640  19.190  24.872  1.00  0.00     0.202 C 
BRANCH  27  28
ATOM     28  C   UNL A   1      45.106  19.542  25.179  1.00  0.00     0.261 C 
BRANCH  28  29
ATOM     29  O   UNL A   1      45.578  20.543  24.250  1.00  0.00    -0.460 OA
BRANCH  29  30
ATOM     30  C   UNL A   1      45.006  21.787  24.291  1.00  0.00     0.338 C 
ATOM     31  O   UNL A   1      44.288  22.267  23.432  1.00  0.00    -0.246 OA
BRANCH  30  32
ATOM     32  C   UNL A   1      45.660  22.584  25.388  1.00  0.00     0.060 A 
ATOM     33  C   UNL A   1      45.308  22.469  26.734  1.00  0.00     0.016 A 
ATOM     34  C   UNL A   1      46.246  23.751  25.021  1.00  0.00     0.016 A 
ATOM     35  C   UNL A   1      45.314  23.617  27.612  1.00  0.00     0.010 A 
ATOM     36  C   UNL A   1      45.886  24.854  25.798  1.00  0.00     0.010 A 
ATOM     37  C   UNL A   1      45.448  24.934  27.142  1.00  0.00    -0.014 A 
BRANCH  37  38
ATOM     38  C   UNL A   1      44.866  26.282  27.954  1.00  0.00     0.031 A 
ATOM     39  C   UNL A   1      43.385  27.150  27.992  1.00  0.00     0.074 A 
ATOM     40  C   UNL A   1      45.794  26.934  28.685  1.00  0.00     0.049 A 
ATOM     41  N   UNL A   1      43.289  28.471  27.979  1.00  0.00    -0.248 NA
ATOM     42  C   UNL A   1      41.960  26.682  27.862  1.00  0.00     0.031 C 
ATOM     43  C   UNL A   1      45.576  27.970  29.676  1.00  0.00     0.029 A 
ATOM     44  N   UNL A   1      47.178  26.865  28.559  1.00  0.00    -0.354 N 
ATOM     45  C   UNL A   1      41.910  28.761  28.073  1.00  0.00     0.074 A 
ATOM     46  C   UNL A   1      41.258  27.714  27.414  1.00  0.00     0.031 C 
ATOM     47  C   UNL A   1      46.736  28.611  29.886  1.00  0.00     0.029 A 
ATOM     48  C   UNL A   1      47.698  28.104  28.926  1.00  0.00     0.049 A 
ATOM     49  H   UNL A   1      47.697  26.083  28.264  1.00  0.00     0.167 HD
ATOM     50  C   UNL A   1      41.357  29.541  29.053  1.00  0.00     0.037 A 
ATOM     51  C   UNL A   1      48.430  28.827  28.033  1.00  0.00     0.037 A 
ATOM     52  C   UNL A   1      42.371  30.446  29.510  1.00  0.00     0.049 A 
ATOM     53  C   UNL A   1      47.802  30.171  27.756  1.00  0.00     0.074 A 
ATOM     54  C   UNL A   1      43.118  30.571  30.659  1.00  0.00     0.029 A 
ATOM     55  N   UNL A   1      42.979  31.212  28.537  1.00  0.00    -0.354 N 
ATOM     56  N   UNL A   1      46.582  30.472  28.112  1.00  0.00    -0.248 NA
ATOM     57  C   UNL A   1      48.467  31.292  27.098  1.00  0.00     0.031 C 
ATOM     58  C   UNL A   1      44.307  31.271  30.293  1.00  0.00     0.029 A 
ATOM     59  C   UNL A   1      44.221  31.617  28.952  1.00  0.00     0.049 A 
ATOM     60  H   UNL A   1      42.576  31.437  27.667  1.00  0.00     0.167 HD
ATOM     61  C   UNL A   1      46.288  31.754  27.752  1.00  0.00     0.074 A 
ATOM     62  C   UNL A   1      47.499  32.228  27.115  1.00  0.00     0.031 C 
ATOM     63  C   UNL A   1      45.065  32.306  27.990  1.00  0.00     0.037 A 
BRANCH  50  64
ATOM     64  C   UNL A   1      39.964  29.369  29.721  1.00  0.00     0.057 A 
ATOM     65  C   UNL A   1      39.860  28.650  30.930  1.00  0.00     0.134 A 
ATOM     66  C   UNL A   1      38.693  29.751  29.209  1.00  0.00     0.134 A 
ATOM     67  F   UNL A   1      40.953  28.197  31.560  1.00  0.00    -0.206 F 
ATOM     68  C   UNL A   1      38.632  28.334  31.552  1.00  0.00     0.040 A 
ATOM     69  C   UNL A   1      37.465  29.490  29.849  1.00  0.00     0.040 A 
ATOM     70  F   UNL A   1      38.521  30.344  28.024  1.00  0.00    -0.206 F 
ATOM     71  C   UNL A   1      37.427  28.763  31.020  1.00  0.00     0.006 A 
ENDBRANCH  50  64
BRANCH  51  72
ATOM     72  C   UNL A   1      49.281  27.975  27.143  1.00  0.00     0.057 A 
ATOM     73  C   UNL A   1      48.755  27.661  25.868  1.00  0.00     0.134 A 
ATOM     74  C   UNL A   1      50.658  27.787  27.303  1.00  0.00     0.134 A 
ATOM     75  F   UNL A   1      47.444  27.829  25.625  1.00  0.00    -0.206 F 
ATOM     76  C   UNL A   1      49.560  27.305  24.780  1.00  0.00     0.040 A 
ATOM     77  C   UNL A   1      51.477  27.397  26.222  1.00  0.00     0.040 A 
ATOM     78  F   UNL A   1      51.264  28.108  28.454  1.00  0.00    -0.206 F 
ATOM     79  C   UNL A   1      50.932  27.189  24.952  1.00  0.00     0.006 A 
ENDBRANCH  51  72
BRANCH  63  80
ATOM     80  C   UNL A   1      44.497  33.510  27.280  1.00  0.00     0.057 A 
ATOM     81  C   UNL A   1      44.130  33.505  25.927  1.00  0.00     0.134 A 
ATOM     82  C   UNL A   1      44.061  34.632  28.021  1.00  0.00     0.134 A 
ATOM     83  F   UNL A   1      44.394  32.460  25.131  1.00  0.00    -0.206 F 
ATOM     84  C   UNL A   1      43.405  34.552  25.348  1.00  0.00     0.040 A 
ATOM     85  C   UNL A   1      43.276  35.646  27.470  1.00  0.00     0.040 A 
ATOM     86  F   UNL A   1      44.328  34.754  29.331  1.00  0.00    -0.206 F 
ATOM     87  C   UNL A   1      42.955  35.615  26.123  1.00  0.00     0.006 A 
ENDBRANCH  63  80
ENDBRANCH  37  38
ENDBRANCH  30  32
ENDBRANCH  29  30
ENDBRANCH  28  29
ENDBRANCH  27  28
ENDBRANCH  26  27
ENDBRANCH  25  26
ENDBRANCH   1  25
TORSDOF 20
ENDMDL
MODEL 3
REMARK VINA RESULT:     -10.2      1.996      3.174
REMARK SMILES Cc1ccc(C(=O)OCCOCCOCCOC(=O)c2ccc(-c3c4nc(c(-c5c(F)cccc5F)c5ccc([nH]5)c(-c5c(F)cccc5F)c5nc(c(-c6c(F)cccc6F)c6ccc3[nH]6)C=C5)C=C4)cc2)cc1S(=O)(=O)N(C)[C@H]1CCSC1
REMARK SMILES IDX 12 1 11 2 10 3 9 4 8 5 6 6 7 7 5 8 1 9 2 10 3 11 75 12 4 13
REMARK SMILES IDX 74 14 76 15 77 16 78 17 79 18 80 19 81 20 82 21 85 22 83 23
REMARK SMILES IDX 84 24 13 25 14 26 15 27 16 28 17 29 18 30 19 31 20 32 21 33
REMARK SMILES IDX 73 34 22 35 72 36 23 37 24 38 25 39 66 40 26 41 71 42 65 43
REMARK SMILES IDX 67 44 27 45 70 46 64 47 63 48 28 50 54 51 37 52 53 53 38 54
REMARK SMILES IDX 41 55 52 56 68 57 39 58 40 59 51 61 69 62 42 63 29 64 30 65
REMARK SMILES IDX 35 66 31 67 32 68 34 69 36 70 33 71 55 72 56 73 61 74 57 75
REMARK SMILES IDX 58 76 60 77 62 78 59 79 43 80 44 81 49 82 45 83 46 84 48 85
REMARK SMILES IDX 50 86 47 87
REMARK H PARENT 67 49 41 60
REMARK Flexibility Score: inf
ROOT
ATOM      1  C   UNL A   1      35.091  23.005  26.076  1.00  0.00     0.188 C 
ENDROOT
BRANCH   1   2
ATOM      2  O   UNL A   1      34.721  21.695  26.485  1.00  0.00    -0.376 OA
BRANCH   2   3
ATOM      3  C   UNL A   1      34.381  20.721  25.488  1.00  0.00     0.202 C 
BRANCH   3   4
ATOM      4  C   UNL A   1      32.960  20.067  25.464  1.00  0.00     0.261 C 
BRANCH   4   5
ATOM      5  O   UNL A   1      31.790  20.845  24.996  1.00  0.00    -0.460 OA
BRANCH   5   6
ATOM      6  C   UNL A   1      31.449  22.182  25.200  1.00  0.00     0.338 C 
ATOM      7  O   UNL A   1      30.917  22.567  26.236  1.00  0.00    -0.246 OA
BRANCH   6   8
ATOM      8  C   UNL A   1      31.874  23.231  23.972  1.00  0.00     0.061 A 
ATOM      9  C   UNL A   1      32.528  25.487  20.273  1.00  0.00     0.046 C 
ATOM     10  C   UNL A   1      32.379  24.984  21.675  1.00  0.00    -0.031 A 
ATOM     11  C   UNL A   1      33.248  23.982  21.977  1.00  0.00     0.006 A 
ATOM     12  C   UNL A   1      31.424  25.262  22.677  1.00  0.00     0.086 A 
ATOM     13  C   UNL A   1      32.995  23.200  23.096  1.00  0.00     0.016 A 
ATOM     14  C   UNL A   1      31.128  24.363  23.765  1.00  0.00     0.037 A 
BRANCH  12  15
ATOM     15  S   UNL A   1      30.826  26.903  23.011  1.00  0.00     0.243 S 
ATOM     16  O   UNL A   1      30.655  27.527  21.719  1.00  0.00    -0.207 OA
ATOM     17  O   UNL A   1      29.716  26.728  23.926  1.00  0.00    -0.207 OA
BRANCH  15  18
ATOM     18  N   UNL A   1      32.041  27.704  23.867  1.00  0.00    -0.197 NA
ATOM     19  C   UNL A   1      33.398  27.520  23.346  1.00  0.00     0.125 C 
BRANCH  18  20
ATOM     20  C   UNL A   1      31.733  28.313  25.199  1.00  0.00     0.083 C 
ATOM     21  C   UNL A   1      32.001  27.415  26.412  1.00  0.00     0.032 C 
ATOM     22  C   UNL A   1      32.562  29.578  25.442  1.00  0.00     0.089 C 
ATOM     23  C   UNL A   1      31.772  28.266  27.650  1.00  0.00     0.071 C 
ATOM     24  S   UNL A   1      32.525  29.859  27.245  1.00  0.00    -0.160 SA
ENDBRANCH  18  20
ENDBRANCH  15  18
ENDBRANCH  12  15
ENDBRANCH   6   8
ENDBRANCH   5   6
ENDBRANCH   4   5
ENDBRANCH   3   4
ENDBRANCH   2   3
ENDBRANCH   1   2
BRANCH   1  25
ATOM     25  C   UNL A   1      36.563  23.345  25.893  1.00  0.00     0.188 C 
BRANCH  25  26
ATOM     26  O   UNL A   1      37.123  22.463  24.928  1.00  0.00    -0.376 OA
BRANCH  26  27
ATOM     27  C   UNL A   1      38.200  21.672  25.418  1.00  0.00     0.202 C 
BRANCH  27  28
ATOM     28  C   UNL A   1      39.141  22.451  26.354  1.00  0.00     0.261 C 
BRANCH  28  29
ATOM     29  O   UNL A   1      40.048  21.539  27.013  1.00  0.00    -0.460 OA
BRANCH  29  30
ATOM     30  C   UNL A   1      41.256  21.285  26.420  1.00  0.00     0.338 C 
ATOM     31  O   UNL A   1      41.529  20.300  25.756  1.00  0.00    -0.246 OA
BRANCH  30  32
ATOM     32  C   UNL A   1      42.279  22.235  26.982  1.00  0.00     0.060 A 
ATOM     33  C   UNL A   1      42.527  22.374  28.350  1.00  0.00     0.016 A 
ATOM     34  C   UNL A   1      42.614  23.294  26.205  1.00  0.00     0.016 A 
ATOM     35  C   UNL A   1      42.857  23.657  28.927  1.00  0.00     0.010 A 
ATOM     36  C   UNL A   1      42.572  24.531  26.852  1.00  0.00     0.010 A 
ATOM     37  C   UNL A   1      42.733  24.864  28.218  1.00  0.00    -0.014 A 
BRANCH  37  38
ATOM     38  C   UNL A   1      42.494  26.356  28.946  1.00  0.00     0.031 A 
ATOM     39  C   UNL A   1      41.272  27.562  28.909  1.00  0.00     0.074 A 
ATOM     40  C   UNL A   1      43.549  26.802  29.661  1.00  0.00     0.049 A 
ATOM     41  N   UNL A   1      41.503  28.863  28.825  1.00  0.00    -0.248 NA
ATOM     42  C   UNL A   1      39.776  27.450  28.776  1.00  0.00     0.031 C 
ATOM     43  C   UNL A   1      43.586  27.913  30.591  1.00  0.00     0.029 A 
ATOM     44  N   UNL A   1      44.875  26.389  29.567  1.00  0.00    -0.354 N 
ATOM     45  C   UNL A   1      40.237  29.487  28.875  1.00  0.00     0.074 A 
ATOM     46  C   UNL A   1      39.352  28.596  28.260  1.00  0.00     0.031 C 
ATOM     47  C   UNL A   1      44.866  28.261  30.791  1.00  0.00     0.029 A 
ATOM     48  C   UNL A   1      45.681  27.481  29.878  1.00  0.00     0.049 A 
ATOM     49  H   UNL A   1      45.188  25.488  29.324  1.00  0.00     0.167 HD
ATOM     50  C   UNL A   1      39.886  30.432  29.803  1.00  0.00     0.037 A 
ATOM     51  C   UNL A   1      46.574  27.952  28.963  1.00  0.00     0.037 A 
ATOM     52  C   UNL A   1      41.088  31.085  30.232  1.00  0.00     0.049 A 
ATOM     53  C   UNL A   1      46.297  29.392  28.604  1.00  0.00     0.074 A 
ATOM     54  C   UNL A   1      41.836  31.087  31.387  1.00  0.00     0.029 A 
ATOM     55  N   UNL A   1      41.872  31.623  29.232  1.00  0.00    -0.354 N 
ATOM     56  N   UNL A   1      45.186  30.001  28.918  1.00  0.00    -0.248 NA
ATOM     57  C   UNL A   1      47.221  30.277  27.901  1.00  0.00     0.031 C 
ATOM     58  C   UNL A   1      43.162  31.454  31.008  1.00  0.00     0.029 A 
ATOM     59  C   UNL A   1      43.173  31.734  29.649  1.00  0.00     0.049 A 
ATOM     60  H   UNL A   1      41.543  31.891  28.343  1.00  0.00     0.167 HD
ATOM     61  C   UNL A   1      45.218  31.294  28.486  1.00  0.00     0.074 A 
ATOM     62  C   UNL A   1      46.512  31.421  27.849  1.00  0.00     0.031 C 
ATOM     63  C   UNL A   1      44.166  32.141  28.670  1.00  0.00     0.037 A 
BRANCH  50  64
ATOM     64  C   UNL A   1      38.489  30.644  30.451  1.00  0.00     0.057 A 
ATOM     65  C   UNL A   1      37.573  31.531  29.848  1.00  0.00     0.134 A 
ATOM     66  C   UNL A   1      38.013  30.135  31.692  1.00  0.00     0.134 A 
ATOM     67  F   UNL A   1      37.852  32.118  28.676  1.00  0.00    -0.206 F 
ATOM     68  C   UNL A   1      36.331  31.884  30.420  1.00  0.00     0.040 A 
ATOM     69  C   UNL A   1      36.752  30.438  32.244  1.00  0.00     0.040 A 
ATOM     70  F   UNL A   1      38.741  29.365  32.504  1.00  0.00    -0.206 F 
ATOM     71  C   UNL A   1      35.908  31.331  31.617  1.00  0.00     0.006 A 
ENDBRANCH  50  64
BRANCH  51  72
ATOM     72  C   UNL A   1      47.195  26.869  28.137  1.00  0.00     0.057 A 
ATOM     73  C   UNL A   1      46.658  26.666  26.843  1.00  0.00     0.134 A 
ATOM     74  C   UNL A   1      48.459  26.317  28.370  1.00  0.00     0.134 A 
ATOM     75  F   UNL A   1      45.456  27.178  26.531  1.00  0.00    -0.206 F 
ATOM     76  C   UNL A   1      47.380  26.066  25.806  1.00  0.00     0.040 A 
ATOM     77  C   UNL A   1      49.185  25.681  27.341  1.00  0.00     0.040 A 
ATOM     78  F   UNL A   1      49.081  26.501  29.543  1.00  0.00    -0.206 F 
ATOM     79  C   UNL A   1      48.659  25.585  26.050  1.00  0.00     0.006 A 
ENDBRANCH  51  72
BRANCH  63  80
ATOM     80  C   UNL A   1      43.916  33.406  27.886  1.00  0.00     0.057 A 
ATOM     81  C   UNL A   1      43.777  33.434  26.491  1.00  0.00     0.134 A 
ATOM     82  C   UNL A   1      43.545  34.595  28.555  1.00  0.00     0.134 A 
ATOM     83  F   UNL A   1      44.000  32.346  25.741  1.00  0.00    -0.206 F 
ATOM     84  C   UNL A   1      43.328  34.570  25.810  1.00  0.00     0.040 A 
ATOM     85  C   UNL A   1      43.029  35.709  27.892  1.00  0.00     0.040 A 
ATOM     86  F   UNL A   1      43.612  34.697  29.892  1.00  0.00    -0.206 F 
ATOM     87  C   UNL A   1      42.930  35.703  26.510  1.00  0.00     0.006 A 
ENDBRANCH  63  80
ENDBRANCH  37  38
ENDBRANCH  30  32
ENDBRANCH  29  30
ENDBRANCH  28  29
ENDBRANCH  27  28
ENDBRANCH  26  27
ENDBRANCH  25  26
ENDBRANCH   1  25
TORSDOF 20
ENDMDL
