MODEL 1
REMARK VINA RESULT:     -11.3      0.000      0.000
REMARK SMILES O=C(CC1(CN2CC3(CCCCC3)CC2=O)CCCCC1)OCCOCCOCCOC(=O)c1ccc(-c2c3nc(c(-c4c(F)cccc4F)c4ccc([nH]4)c(-c4c(F)cccc4F)c4nc(c(-c5c(F)cccc5F)c5ccc2[nH]5)C=C4)C=C3)cc1
REMARK SMILES IDX 26 1 25 2 24 3 23 4 22 5 2 6 1 7 3 8 4 9 17 10 21 11 18 12
REMARK SMILES IDX 20 13 19 14 5 15 6 16 7 17 15 18 8 19 14 20 16 21 9 22 13 23
REMARK SMILES IDX 10 24 12 25 11 26 27 27 28 28 29 29 30 30 31 31 32 32 33 33
REMARK SMILES IDX 34 34 35 35 87 36 36 37 86 38 37 39 38 40 39 41 80 42 40 43
REMARK SMILES IDX 85 44 79 45 81 46 41 47 84 48 78 49 77 50 42 52 68 53 51 54
REMARK SMILES IDX 67 55 52 56 55 57 66 58 82 59 53 60 54 61 65 63 83 64 56 65
REMARK SMILES IDX 43 66 44 67 49 68 45 69 46 70 48 71 50 72 47 73 69 74 70 75
REMARK SMILES IDX 75 76 71 77 72 78 74 79 76 80 73 81 57 82 58 83 63 84 59 85
REMARK SMILES IDX 60 86 62 87 64 88 61 89
REMARK H PARENT 81 51 55 62
REMARK Flexibility Score: inf
ROOT
ATOM      1  C   UNL A   1      40.910  21.674  26.228  1.00  0.00     0.188 C 
ENDROOT
BRANCH   1   2
ATOM      2  O   UNL A   1      39.631  21.828  26.822  1.00  0.00    -0.376 OA
BRANCH   2   3
ATOM      3  C   UNL A   1      38.653  22.576  26.123  1.00  0.00     0.202 C 
BRANCH   3   4
ATOM      4  C   UNL A   1      37.728  21.840  25.156  1.00  0.00     0.261 C 
BRANCH   4   5
ATOM      5  O   UNL A   1      36.331  22.104  25.182  1.00  0.00    -0.463 OA
BRANCH   5   6
ATOM      6  C   UNL A   1      35.456  21.099  24.949  1.00  0.00     0.306 C 
ATOM      7  O   UNL A   1      35.799  19.937  25.152  1.00  0.00    -0.252 OA
BRANCH   6   8
ATOM      8  C   UNL A   1      34.144  21.432  24.251  1.00  0.00     0.131 C 
BRANCH   8   9
ATOM      9  C   UNL A   1      33.282  22.643  24.715  1.00  0.00    -0.002 C 
ATOM     10  C   UNL A   1      31.788  22.127  24.583  1.00  0.00     0.009 C 
ATOM     11  C   UNL A   1      33.547  22.898  26.223  1.00  0.00     0.009 C 
ATOM     12  C   UNL A   1      30.757  22.946  25.356  1.00  0.00     0.001 C 
ATOM     13  C   UNL A   1      32.459  23.597  27.032  1.00  0.00     0.001 C 
ATOM     14  C   UNL A   1      31.101  22.959  26.836  1.00  0.00     0.000 C 
BRANCH   9  15
ATOM     15  C   UNL A   1      33.350  23.867  23.694  1.00  0.00     0.127 C 
BRANCH  15  16
ATOM     16  N   UNL A   1      34.057  25.150  23.865  1.00  0.00    -0.342 N 
ATOM     17  C   UNL A   1      34.360  25.822  25.098  1.00  0.00     0.127 C 
ATOM     18  C   UNL A   1      33.843  26.168  22.897  1.00  0.00     0.223 C 
ATOM     19  C   UNL A   1      33.457  27.046  25.087  1.00  0.00    -0.003 C 
ATOM     20  C   UNL A   1      33.767  27.509  23.645  1.00  0.00     0.109 C 
ATOM     21  O   UNL A   1      33.653  26.011  21.702  1.00  0.00    -0.275 OA
ATOM     22  C   UNL A   1      32.009  26.532  25.199  1.00  0.00     0.009 C 
ATOM     23  C   UNL A   1      33.917  27.954  26.242  1.00  0.00     0.009 C 
ATOM     24  C   UNL A   1      31.014  27.423  25.891  1.00  0.00     0.001 C 
ATOM     25  C   UNL A   1      32.819  28.675  27.021  1.00  0.00     0.001 C 
ATOM     26  C   UNL A   1      31.580  27.819  27.237  1.00  0.00     0.000 C 
ENDBRANCH  15  16
ENDBRANCH   9  15
ENDBRANCH   8   9
ENDBRANCH   6   8
ENDBRANCH   5   6
ENDBRANCH   4   5
ENDBRANCH   3   4
ENDBRANCH   2   3
ENDBRANCH   1   2
BRANCH   1  27
ATOM     27  C   UNL A   1      41.500  20.265  26.106  1.00  0.00     0.188 C 
BRANCH  27  28
ATOM     28  O   UNL A   1      42.719  20.221  25.382  1.00  0.00    -0.376 OA
BRANCH  28  29
ATOM     29  C   UNL A   1      43.695  21.185  25.761  1.00  0.00     0.202 C 
BRANCH  29  30
ATOM     30  C   UNL A   1      44.276  22.129  24.686  1.00  0.00     0.261 C 
BRANCH  30  31
ATOM     31  O   UNL A   1      43.730  23.457  24.577  1.00  0.00    -0.460 OA
BRANCH  31  32
ATOM     32  C   UNL A   1      44.474  24.498  25.021  1.00  0.00     0.338 C 
ATOM     33  O   UNL A   1      45.568  24.825  24.626  1.00  0.00    -0.246 OA
BRANCH  32  34
ATOM     34  C   UNL A   1      43.634  25.307  25.952  1.00  0.00     0.060 A 
ATOM     35  C   UNL A   1      44.068  26.603  26.275  1.00  0.00     0.016 A 
ATOM     36  C   UNL A   1      42.420  24.835  26.459  1.00  0.00     0.016 A 
ATOM     37  C   UNL A   1      43.292  27.423  27.097  1.00  0.00     0.010 A 
ATOM     38  C   UNL A   1      41.671  25.638  27.337  1.00  0.00     0.010 A 
ATOM     39  C   UNL A   1      42.118  26.928  27.681  1.00  0.00    -0.014 A 
BRANCH  39  40
ATOM     40  C   UNL A   1      41.549  27.665  28.840  1.00  0.00     0.031 A 
ATOM     41  C   UNL A   1      42.243  27.511  30.169  1.00  0.00     0.074 A 
ATOM     42  C   UNL A   1      40.518  28.522  28.721  1.00  0.00     0.049 A 
ATOM     43  N   UNL A   1      42.010  28.110  31.309  1.00  0.00    -0.248 NA
ATOM     44  C   UNL A   1      43.362  26.556  30.210  1.00  0.00     0.031 C 
ATOM     45  C   UNL A   1      39.777  28.797  27.494  1.00  0.00     0.029 A 
ATOM     46  N   UNL A   1      39.922  29.329  29.663  1.00  0.00    -0.354 N 
ATOM     47  C   UNL A   1      42.968  27.624  32.191  1.00  0.00     0.074 A 
ATOM     48  C   UNL A   1      43.752  26.646  31.470  1.00  0.00     0.031 C 
ATOM     49  C   UNL A   1      38.817  29.703  27.758  1.00  0.00     0.029 A 
ATOM     50  C   UNL A   1      38.866  30.062  29.177  1.00  0.00     0.049 A 
ATOM     51  H   UNL A   1      40.224  29.377  30.598  1.00  0.00     0.167 HD
ATOM     52  C   UNL A   1      43.192  27.971  33.480  1.00  0.00     0.037 A 
ATOM     53  C   UNL A   1      38.034  30.916  29.806  1.00  0.00     0.037 A 
ATOM     54  C   UNL A   1      42.397  28.918  34.215  1.00  0.00     0.049 A 
ATOM     55  C   UNL A   1      38.247  31.222  31.270  1.00  0.00     0.074 A 
ATOM     56  C   UNL A   1      42.534  29.320  35.531  1.00  0.00     0.029 A 
ATOM     57  N   UNL A   1      41.307  29.601  33.699  1.00  0.00    -0.354 N 
ATOM     58  N   UNL A   1      39.176  30.780  32.085  1.00  0.00    -0.248 NA
ATOM     59  C   UNL A   1      37.303  32.160  31.898  1.00  0.00     0.031 C 
ATOM     60  C   UNL A   1      41.494  30.208  35.828  1.00  0.00     0.029 A 
ATOM     61  C   UNL A   1      40.748  30.407  34.678  1.00  0.00     0.049 A 
ATOM     62  H   UNL A   1      40.978  29.524  32.774  1.00  0.00     0.167 HD
ATOM     63  C   UNL A   1      38.944  31.405  33.306  1.00  0.00     0.074 A 
ATOM     64  C   UNL A   1      37.805  32.277  33.117  1.00  0.00     0.031 C 
ATOM     65  C   UNL A   1      39.611  31.269  34.480  1.00  0.00     0.037 A 
BRANCH  52  66
ATOM     66  C   UNL A   1      44.338  27.301  34.181  1.00  0.00     0.057 A 
ATOM     67  C   UNL A   1      44.181  26.076  34.847  1.00  0.00     0.134 A 
ATOM     68  C   UNL A   1      45.616  27.871  34.170  1.00  0.00     0.134 A 
ATOM     69  F   UNL A   1      42.977  25.487  34.912  1.00  0.00    -0.206 F 
ATOM     70  C   UNL A   1      45.250  25.455  35.493  1.00  0.00     0.040 A 
ATOM     71  C   UNL A   1      46.700  27.245  34.788  1.00  0.00     0.040 A 
ATOM     72  F   UNL A   1      45.835  29.040  33.552  1.00  0.00    -0.206 F 
ATOM     73  C   UNL A   1      46.516  26.037  35.458  1.00  0.00     0.006 A 
ENDBRANCH  52  66
BRANCH  53  74
ATOM     74  C   UNL A   1      36.896  31.538  29.074  1.00  0.00     0.057 A 
ATOM     75  C   UNL A   1      36.930  32.874  28.655  1.00  0.00     0.134 A 
ATOM     76  C   UNL A   1      35.718  30.821  28.830  1.00  0.00     0.134 A 
ATOM     77  F   UNL A   1      38.016  33.626  28.887  1.00  0.00    -0.206 F 
ATOM     78  C   UNL A   1      35.828  33.481  28.048  1.00  0.00     0.040 A 
ATOM     79  C   UNL A   1      34.620  31.406  28.195  1.00  0.00     0.040 A 
ATOM     80  F   UNL A   1      35.614  29.539  29.210  1.00  0.00    -0.206 F 
ATOM     81  C   UNL A   1      34.670  32.743  27.812  1.00  0.00     0.006 A 
ENDBRANCH  53  74
BRANCH  65  82
ATOM     82  C   UNL A   1      39.144  32.105  35.641  1.00  0.00     0.057 A 
ATOM     83  C   UNL A   1      39.571  33.427  35.826  1.00  0.00     0.134 A 
ATOM     84  C   UNL A   1      38.244  31.584  36.580  1.00  0.00     0.134 A 
ATOM     85  F   UNL A   1      40.438  33.988  34.968  1.00  0.00    -0.206 F 
ATOM     86  C   UNL A   1      39.157  34.183  36.924  1.00  0.00     0.040 A 
ATOM     87  C   UNL A   1      37.795  32.342  37.664  1.00  0.00     0.040 A 
ATOM     88  F   UNL A   1      37.778  30.332  36.458  1.00  0.00    -0.206 F 
ATOM     89  C   UNL A   1      38.263  33.641  37.845  1.00  0.00     0.006 A 
ENDBRANCH  65  82
ENDBRANCH  39  40
ENDBRANCH  32  34
ENDBRANCH  31  32
ENDBRANCH  30  31
ENDBRANCH  29  30
ENDBRANCH  28  29
ENDBRANCH  27  28
ENDBRANCH   1  27
TORSDOF 20
ENDMDL
MODEL 2
REMARK VINA RESULT:     -10.9      3.035      8.460
REMARK SMILES O=C(CC1(CN2CC3(CCCCC3)CC2=O)CCCCC1)OCCOCCOCCOC(=O)c1ccc(-c2c3nc(c(-c4c(F)cccc4F)c4ccc([nH]4)c(-c4c(F)cccc4F)c4nc(c(-c5c(F)cccc5F)c5ccc2[nH]5)C=C4)C=C3)cc1
REMARK SMILES IDX 26 1 25 2 24 3 23 4 22 5 2 6 1 7 3 8 4 9 17 10 21 11 18 12
REMARK SMILES IDX 20 13 19 14 5 15 6 16 7 17 15 18 8 19 14 20 16 21 9 22 13 23
REMARK SMILES IDX 10 24 12 25 11 26 27 27 28 28 29 29 30 30 31 31 32 32 33 33
REMARK SMILES IDX 34 34 35 35 87 36 36 37 86 38 37 39 38 40 39 41 80 42 40 43
REMARK SMILES IDX 85 44 79 45 81 46 41 47 84 48 78 49 77 50 42 52 68 53 51 54
REMARK SMILES IDX 67 55 52 56 55 57 66 58 82 59 53 60 54 61 65 63 83 64 56 65
REMARK SMILES IDX 43 66 44 67 49 68 45 69 46 70 48 71 50 72 47 73 69 74 70 75
REMARK SMILES IDX 75 76 71 77 72 78 74 79 76 80 73 81 57 82 58 83 63 84 59 85
REMARK SMILES IDX 60 86 62 87 64 88 61 89
REMARK H PARENT 81 51 55 62
REMARK Flexibility Score: inf
ROOT
ATOM      1  C   UNL A   1      32.879  28.155  26.785  1.00  0.00     0.188 C 
ENDROOT
BRANCH   1   2
ATOM      2  O   UNL A   1      33.229  27.140  25.859  1.00  0.00    -0.376 OA
BRANCH   2   3
ATOM      3  C   UNL A   1      32.203  26.571  25.068  1.00  0.00     0.202 C 
BRANCH   3   4
ATOM      4  C   UNL A   1      31.229  25.595  25.729  1.00  0.00     0.261 C 
BRANCH   4   5
ATOM      5  O   UNL A   1      31.665  24.805  26.828  1.00  0.00    -0.463 OA
BRANCH   5   6
ATOM      6  C   UNL A   1      31.690  23.457  26.713  1.00  0.00     0.306 C 
ATOM      7  O   UNL A   1      30.641  22.843  26.531  1.00  0.00    -0.252 OA
BRANCH   6   8
ATOM      8  C   UNL A   1      32.995  22.731  27.015  1.00  0.00     0.131 C 
BRANCH   8   9
ATOM      9  C   UNL A   1      34.004  22.404  25.875  1.00  0.00    -0.002 C 
ATOM     10  C   UNL A   1      34.664  23.805  25.531  1.00  0.00     0.009 C 
ATOM     11  C   UNL A   1      35.127  21.497  26.447  1.00  0.00     0.009 C 
ATOM     12  C   UNL A   1      35.974  23.721  24.750  1.00  0.00     0.001 C 
ATOM     13  C   UNL A   1      36.483  21.513  25.749  1.00  0.00     0.001 C 
ATOM     14  C   UNL A   1      36.999  22.919  25.534  1.00  0.00     0.000 C 
BRANCH   9  15
ATOM     15  C   UNL A   1      33.279  21.985  24.519  1.00  0.00     0.127 C 
BRANCH  15  16
ATOM     16  N   UNL A   1      32.354  20.858  24.297  1.00  0.00    -0.342 N 
ATOM     17  C   UNL A   1      32.148  19.719  25.147  1.00  0.00     0.127 C 
ATOM     18  C   UNL A   1      32.158  20.402  22.965  1.00  0.00     0.223 C 
ATOM     19  C   UNL A   1      32.745  18.557  24.369  1.00  0.00    -0.003 C 
ATOM     20  C   UNL A   1      32.078  18.867  23.008  1.00  0.00     0.109 C 
ATOM     21  O   UNL A   1      32.152  21.084  21.954  1.00  0.00    -0.275 OA
ATOM     22  C   UNL A   1      34.265  18.799  24.303  1.00  0.00     0.009 C 
ATOM     23  C   UNL A   1      32.321  17.266  25.092  1.00  0.00     0.009 C 
ATOM     24  C   UNL A   1      35.153  17.587  24.248  1.00  0.00     0.001 C 
ATOM     25  C   UNL A   1      33.362  16.149  25.158  1.00  0.00     0.001 C 
ATOM     26  C   UNL A   1      34.776  16.663  25.386  1.00  0.00     0.000 C 
ENDBRANCH  15  16
ENDBRANCH   9  15
ENDBRANCH   8   9
ENDBRANCH   6   8
ENDBRANCH   5   6
ENDBRANCH   4   5
ENDBRANCH   3   4
ENDBRANCH   2   3
ENDBRANCH   1   2
BRANCH   1  27
ATOM     27  C   UNL A   1      31.972  29.299  26.316  1.00  0.00     0.188 C 
BRANCH  27  28
ATOM     28  O   UNL A   1      32.424  30.582  26.715  1.00  0.00    -0.376 OA
BRANCH  28  29
ATOM     29  C   UNL A   1      31.488  31.642  26.554  1.00  0.00     0.202 C 
BRANCH  29  30
ATOM     30  C   UNL A   1      31.934  33.090  26.853  1.00  0.00     0.261 C 
BRANCH  30  31
ATOM     31  O   UNL A   1      32.154  33.466  28.226  1.00  0.00    -0.460 OA
BRANCH  31  32
ATOM     32  C   UNL A   1      33.134  34.357  28.501  1.00  0.00     0.338 C 
ATOM     33  O   UNL A   1      33.004  35.548  28.663  1.00  0.00    -0.246 OA
BRANCH  32  34
ATOM     34  C   UNL A   1      34.391  33.600  28.772  1.00  0.00     0.060 A 
ATOM     35  C   UNL A   1      34.280  32.297  29.284  1.00  0.00     0.016 A 
ATOM     36  C   UNL A   1      35.654  34.126  28.484  1.00  0.00     0.016 A 
ATOM     37  C   UNL A   1      35.421  31.524  29.503  1.00  0.00     0.010 A 
ATOM     38  C   UNL A   1      36.805  33.371  28.765  1.00  0.00     0.010 A 
ATOM     39  C   UNL A   1      36.694  32.074  29.301  1.00  0.00    -0.014 A 
BRANCH  39  40
ATOM     40  C   UNL A   1      37.860  31.384  29.915  1.00  0.00     0.031 A 
ATOM     41  C   UNL A   1      38.162  31.685  31.361  1.00  0.00     0.074 A 
ATOM     42  C   UNL A   1      38.576  30.447  29.265  1.00  0.00     0.049 A 
ATOM     43  N   UNL A   1      39.056  31.156  32.157  1.00  0.00    -0.248 NA
ATOM     44  C   UNL A   1      37.330  32.720  31.996  1.00  0.00     0.031 C 
ATOM     45  C   UNL A   1      38.373  30.030  27.881  1.00  0.00     0.029 A 
ATOM     46  N   UNL A   1      39.624  29.670  29.701  1.00  0.00    -0.354 N 
ATOM     47  C   UNL A   1      38.874  31.774  33.388  1.00  0.00     0.074 A 
ATOM     48  C   UNL A   1      37.822  32.751  33.222  1.00  0.00     0.031 C 
ATOM     49  C   UNL A   1      39.275  29.078  27.576  1.00  0.00     0.029 A 
ATOM     50  C   UNL A   1      40.128  28.828  28.739  1.00  0.00     0.049 A 
ATOM     51  H   UNL A   1      39.979  29.713  30.618  1.00  0.00     0.167 HD
ATOM     52  C   UNL A   1      39.511  31.540  34.560  1.00  0.00     0.037 A 
ATOM     53  C   UNL A   1      41.162  27.964  28.792  1.00  0.00     0.037 A 
ATOM     54  C   UNL A   1      40.581  30.593  34.726  1.00  0.00     0.049 A 
ATOM     55  C   UNL A   1      41.917  27.782  30.087  1.00  0.00     0.074 A 
ATOM     56  C   UNL A   1      41.302  30.300  35.870  1.00  0.00     0.029 A 
ATOM     57  N   UNL A   1      41.094  29.797  33.715  1.00  0.00    -0.354 N 
ATOM     58  N   UNL A   1      41.716  28.350  31.253  1.00  0.00    -0.248 NA
ATOM     59  C   UNL A   1      43.035  26.826  30.077  1.00  0.00     0.031 C 
ATOM     60  C   UNL A   1      42.286  29.363  35.539  1.00  0.00     0.029 A 
ATOM     61  C   UNL A   1      42.137  29.026  34.203  1.00  0.00     0.049 A 
ATOM     62  H   UNL A   1      40.766  29.781  32.786  1.00  0.00     0.167 HD
ATOM     63  C   UNL A   1      42.660  27.801  32.115  1.00  0.00     0.074 A 
ATOM     64  C   UNL A   1      43.415  26.836  31.345  1.00  0.00     0.031 C 
ATOM     65  C   UNL A   1      42.885  28.071  33.426  1.00  0.00     0.037 A 
BRANCH  52  66
ATOM     66  C   UNL A   1      39.072  32.341  35.750  1.00  0.00     0.057 A 
ATOM     67  C   UNL A   1      38.235  31.799  36.736  1.00  0.00     0.134 A 
ATOM     68  C   UNL A   1      39.507  33.660  35.926  1.00  0.00     0.134 A 
ATOM     69  F   UNL A   1      37.766  30.548  36.616  1.00  0.00    -0.206 F 
ATOM     70  C   UNL A   1      37.832  32.547  37.843  1.00  0.00     0.040 A 
ATOM     71  C   UNL A   1      39.134  34.409  37.044  1.00  0.00     0.040 A 
ATOM     72  F   UNL A   1      40.308  34.240  35.021  1.00  0.00    -0.206 F 
ATOM     73  C   UNL A   1      38.288  33.853  38.003  1.00  0.00     0.006 A 
ENDBRANCH  52  66
BRANCH  53  74
ATOM     74  C   UNL A   1      41.576  27.209  27.577  1.00  0.00     0.057 A 
ATOM     75  C   UNL A   1      41.150  25.895  27.344  1.00  0.00     0.134 A 
ATOM     76  C   UNL A   1      42.462  27.768  26.647  1.00  0.00     0.134 A 
ATOM     77  F   UNL A   1      40.326  25.289  28.212  1.00  0.00    -0.206 F 
ATOM     78  C   UNL A   1      41.609  25.158  26.251  1.00  0.00     0.040 A 
ATOM     79  C   UNL A   1      42.904  27.054  25.532  1.00  0.00     0.040 A 
ATOM     80  F   UNL A   1      42.915  29.020  26.812  1.00  0.00    -0.206 F 
ATOM     81  C   UNL A   1      42.486  25.740  25.338  1.00  0.00     0.006 A 
ENDBRANCH  53  74
BRANCH  65  82
ATOM     82  C   UNL A   1      43.971  27.290  34.115  1.00  0.00     0.057 A 
ATOM     83  C   UNL A   1      45.295  27.744  34.168  1.00  0.00     0.134 A 
ATOM     84  C   UNL A   1      43.684  26.071  34.745  1.00  0.00     0.134 A 
ATOM     85  F   UNL A   1      45.643  28.899  33.580  1.00  0.00    -0.206 F 
ATOM     86  C   UNL A   1      46.302  26.995  34.782  1.00  0.00     0.040 A 
ATOM     87  C   UNL A   1      44.675  25.330  35.392  1.00  0.00     0.040 A 
ATOM     88  F   UNL A   1      42.435  25.582  34.750  1.00  0.00    -0.206 F 
ATOM     89  C   UNL A   1      45.992  25.786  35.400  1.00  0.00     0.006 A 
ENDBRANCH  65  82
ENDBRANCH  39  40
ENDBRANCH  32  34
ENDBRANCH  31  32
ENDBRANCH  30  31
ENDBRANCH  29  30
ENDBRANCH  28  29
ENDBRANCH  27  28
ENDBRANCH   1  27
TORSDOF 20
ENDMDL
MODEL 3
REMARK VINA RESULT:     -10.8      1.849      3.626
REMARK SMILES O=C(CC1(CN2CC3(CCCCC3)CC2=O)CCCCC1)OCCOCCOCCOC(=O)c1ccc(-c2c3nc(c(-c4c(F)cccc4F)c4ccc([nH]4)c(-c4c(F)cccc4F)c4nc(c(-c5c(F)cccc5F)c5ccc2[nH]5)C=C4)C=C3)cc1
REMARK SMILES IDX 26 1 25 2 24 3 23 4 22 5 2 6 1 7 3 8 4 9 17 10 21 11 18 12
REMARK SMILES IDX 20 13 19 14 5 15 6 16 7 17 15 18 8 19 14 20 16 21 9 22 13 23
REMARK SMILES IDX 10 24 12 25 11 26 27 27 28 28 29 29 30 30 31 31 32 32 33 33
REMARK SMILES IDX 34 34 35 35 87 36 36 37 86 38 37 39 38 40 39 41 80 42 40 43
REMARK SMILES IDX 85 44 79 45 81 46 41 47 84 48 78 49 77 50 42 52 68 53 51 54
REMARK SMILES IDX 67 55 52 56 55 57 66 58 82 59 53 60 54 61 65 63 83 64 56 65
REMARK SMILES IDX 43 66 44 67 49 68 45 69 46 70 48 71 50 72 47 73 69 74 70 75
REMARK SMILES IDX 75 76 71 77 72 78 74 79 76 80 73 81 57 82 58 83 63 84 59 85
REMARK SMILES IDX 60 86 62 87 64 88 61 89
REMARK H PARENT 81 51 55 62
REMARK Flexibility Score: inf
ROOT
ATOM      1  C   UNL A   1      41.349  21.392  27.522  1.00  0.00     0.188 C 
ENDROOT
BRANCH   1   2
ATOM      2  O   UNL A   1      40.064  21.935  27.271  1.00  0.00    -0.376 OA
BRANCH   2   3
ATOM      3  C   UNL A   1      39.359  21.490  26.128  1.00  0.00     0.202 C 
BRANCH   3   4
ATOM      4  C   UNL A   1      38.146  22.293  25.661  1.00  0.00     0.261 C 
BRANCH   4   5
ATOM      5  O   UNL A   1      37.504  21.950  24.440  1.00  0.00    -0.463 OA
BRANCH   5   6
ATOM      6  C   UNL A   1      36.600  22.798  23.899  1.00  0.00     0.306 C 
ATOM      7  O   UNL A   1      36.676  23.090  22.708  1.00  0.00    -0.252 OA
BRANCH   6   8
ATOM      8  C   UNL A   1      35.639  23.521  24.834  1.00  0.00     0.131 C 
BRANCH   8   9
ATOM      9  C   UNL A   1      34.264  22.889  25.205  1.00  0.00    -0.002 C 
ATOM     10  C   UNL A   1      34.210  22.984  26.787  1.00  0.00     0.009 C 
ATOM     11  C   UNL A   1      33.132  23.796  24.652  1.00  0.00     0.009 C 
ATOM     12  C   UNL A   1      32.816  22.825  27.390  1.00  0.00     0.001 C 
ATOM     13  C   UNL A   1      31.771  23.740  25.340  1.00  0.00     0.001 C 
ATOM     14  C   UNL A   1      31.884  23.892  26.842  1.00  0.00     0.000 C 
BRANCH   9  15
ATOM     15  C   UNL A   1      34.217  21.321  24.919  1.00  0.00     0.127 C 
BRANCH  15  16
ATOM     16  N   UNL A   1      33.033  20.441  24.888  1.00  0.00    -0.342 N 
ATOM     17  C   UNL A   1      32.777  19.296  25.716  1.00  0.00     0.127 C 
ATOM     18  C   UNL A   1      32.432  20.167  23.630  1.00  0.00     0.223 C 
ATOM     19  C   UNL A   1      32.894  18.114  24.766  1.00  0.00    -0.003 C 
ATOM     20  C   UNL A   1      32.017  18.687  23.628  1.00  0.00     0.109 C 
ATOM     21  O   UNL A   1      32.347  20.929  22.681  1.00  0.00    -0.275 OA
ATOM     22  C   UNL A   1      34.370  18.034  24.333  1.00  0.00     0.009 C 
ATOM     23  C   UNL A   1      32.367  16.878  25.518  1.00  0.00     0.009 C 
ATOM     24  C   UNL A   1      34.920  16.672  24.010  1.00  0.00     0.001 C 
ATOM     25  C   UNL A   1      33.111  15.566  25.277  1.00  0.00     0.001 C 
ATOM     26  C   UNL A   1      34.618  15.745  25.167  1.00  0.00     0.000 C 
ENDBRANCH  15  16
ENDBRANCH   9  15
ENDBRANCH   8   9
ENDBRANCH   6   8
ENDBRANCH   5   6
ENDBRANCH   4   5
ENDBRANCH   3   4
ENDBRANCH   2   3
ENDBRANCH   1   2
BRANCH   1  27
ATOM     27  C   UNL A   1      42.123  20.762  26.357  1.00  0.00     0.188 C 
BRANCH  27  28
ATOM     28  O   UNL A   1      43.491  21.135  26.317  1.00  0.00    -0.376 OA
BRANCH  28  29
ATOM     29  C   UNL A   1      44.033  21.346  25.019  1.00  0.00     0.202 C 
BRANCH  29  30
ATOM     30  C   UNL A   1      43.680  22.644  24.260  1.00  0.00     0.261 C 
BRANCH  30  31
ATOM     31  O   UNL A   1      43.377  23.823  25.029  1.00  0.00    -0.460 OA
BRANCH  31  32
ATOM     32  C   UNL A   1      44.382  24.686  25.308  1.00  0.00     0.338 C 
ATOM     33  O   UNL A   1      45.352  24.913  24.623  1.00  0.00    -0.246 OA
BRANCH  32  34
ATOM     34  C   UNL A   1      43.999  25.472  26.517  1.00  0.00     0.060 A 
ATOM     35  C   UNL A   1      43.215  24.840  27.495  1.00  0.00     0.016 A 
ATOM     36  C   UNL A   1      44.439  26.783  26.722  1.00  0.00     0.016 A 
ATOM     37  C   UNL A   1      42.875  25.511  28.671  1.00  0.00     0.010 A 
ATOM     38  C   UNL A   1      44.045  27.479  27.878  1.00  0.00     0.010 A 
ATOM     39  C   UNL A   1      43.237  26.853  28.846  1.00  0.00    -0.014 A 
BRANCH  39  40
ATOM     40  C   UNL A   1      42.531  27.636  29.895  1.00  0.00     0.031 A 
ATOM     41  C   UNL A   1      43.131  27.645  31.278  1.00  0.00     0.074 A 
ATOM     42  C   UNL A   1      41.453  28.399  29.631  1.00  0.00     0.049 A 
ATOM     43  N   UNL A   1      42.770  28.314  32.343  1.00  0.00    -0.248 NA
ATOM     44  C   UNL A   1      44.309  26.785  31.479  1.00  0.00     0.031 C 
ATOM     45  C   UNL A   1      40.790  28.516  28.336  1.00  0.00     0.029 A 
ATOM     46  N   UNL A   1      40.732  29.231  30.455  1.00  0.00    -0.354 N 
ATOM     47  C   UNL A   1      43.691  27.976  33.327  1.00  0.00     0.074 A 
ATOM     48  C   UNL A   1      44.594  27.006  32.751  1.00  0.00     0.031 C 
ATOM     49  C   UNL A   1      39.751  29.363  28.453  1.00  0.00     0.029 A 
ATOM     50  C   UNL A   1      39.667  29.839  29.835  1.00  0.00     0.049 A 
ATOM     51  H   UNL A   1      40.958  29.378  31.402  1.00  0.00     0.167 HD
ATOM     52  C   UNL A   1      43.791  28.442  34.595  1.00  0.00     0.037 A 
ATOM     53  C   UNL A   1      38.731  30.675  30.329  1.00  0.00     0.037 A 
ATOM     54  C   UNL A   1      42.878  29.382  35.187  1.00  0.00     0.049 A 
ATOM     55  C   UNL A   1      38.810  31.114  31.773  1.00  0.00     0.074 A 
ATOM     56  C   UNL A   1      42.886  29.899  36.471  1.00  0.00     0.029 A 
ATOM     57  N   UNL A   1      41.784  29.935  34.540  1.00  0.00    -0.354 N 
ATOM     58  N   UNL A   1      39.703  30.812  32.685  1.00  0.00    -0.248 NA
ATOM     59  C   UNL A   1      37.758  32.025  32.249  1.00  0.00     0.031 C 
ATOM     60  C   UNL A   1      41.766  30.725  36.616  1.00  0.00     0.029 A 
ATOM     61  C   UNL A   1      41.097  30.773  35.404  1.00  0.00     0.049 A 
ATOM     62  H   UNL A   1      41.533  29.759  33.604  1.00  0.00     0.167 HD
ATOM     63  C   UNL A   1      39.336  31.514  33.828  1.00  0.00     0.074 A 
ATOM     64  C   UNL A   1      38.155  32.278  33.486  1.00  0.00     0.031 C 
ATOM     65  C   UNL A   1      39.920  31.526  35.054  1.00  0.00     0.037 A 
BRANCH  52  66
ATOM     66  C   UNL A   1      44.925  27.922  35.428  1.00  0.00     0.057 A 
ATOM     67  C   UNL A   1      44.789  26.777  36.227  1.00  0.00     0.134 A 
ATOM     68  C   UNL A   1      46.174  28.556  35.416  1.00  0.00     0.134 A 
ATOM     69  F   UNL A   1      43.613  26.135  36.299  1.00  0.00    -0.206 F 
ATOM     70  C   UNL A   1      45.847  26.294  36.997  1.00  0.00     0.040 A 
ATOM     71  C   UNL A   1      47.248  28.065  36.160  1.00  0.00     0.040 A 
ATOM     72  F   UNL A   1      46.372  29.655  34.675  1.00  0.00    -0.206 F 
ATOM     73  C   UNL A   1      47.084  26.935  36.959  1.00  0.00     0.006 A 
ENDBRANCH  52  66
BRANCH  53  74
ATOM     74  C   UNL A   1      37.611  31.145  29.469  1.00  0.00     0.057 A 
ATOM     75  C   UNL A   1      37.590  32.436  28.926  1.00  0.00     0.134 A 
ATOM     76  C   UNL A   1      36.500  30.329  29.220  1.00  0.00     0.134 A 
ATOM     77  F   UNL A   1      38.607  33.281  29.153  1.00  0.00    -0.206 F 
ATOM     78  C   UNL A   1      36.498  32.907  28.193  1.00  0.00     0.040 A 
ATOM     79  C   UNL A   1      35.415  30.775  28.462  1.00  0.00     0.040 A 
ATOM     80  F   UNL A   1      36.451  29.084  29.714  1.00  0.00    -0.206 F 
ATOM     81  C   UNL A   1      35.408  32.072  27.955  1.00  0.00     0.006 A 
ENDBRANCH  53  74
BRANCH  65  82
ATOM     82  C   UNL A   1      39.308  32.415  36.102  1.00  0.00     0.057 A 
ATOM     83  C   UNL A   1      39.732  33.736  36.297  1.00  0.00     0.134 A 
ATOM     84  C   UNL A   1      38.272  31.945  36.920  1.00  0.00     0.134 A 
ATOM     85  F   UNL A   1      40.724  34.249  35.554  1.00  0.00    -0.206 F 
ATOM     86  C   UNL A   1      39.179  34.542  37.295  1.00  0.00     0.040 A 
ATOM     87  C   UNL A   1      37.687  32.753  37.899  1.00  0.00     0.040 A 
ATOM     88  F   UNL A   1      37.802  30.697  36.779  1.00  0.00    -0.206 F 
ATOM     89  C   UNL A   1      38.151  34.051  38.097  1.00  0.00     0.006 A 
ENDBRANCH  65  82
ENDBRANCH  39  40
ENDBRANCH  32  34
ENDBRANCH  31  32
ENDBRANCH  30  31
ENDBRANCH  29  30
ENDBRANCH  28  29
ENDBRANCH  27  28
ENDBRANCH   1  27
TORSDOF 20
ENDMDL
