MODEL 1
REMARK VINA RESULT:     -11.8      0.000      0.000
REMARK SMILES Cc1ccc(S(=O)(=O)N2CCN(C(=O)[C@H]3CCCC[C@H]3C(=O)OCCOCCOCCOC(=O)c3ccc(-c4c5nc(c(-c6c(F)cccc6F)c6ccc([nH]6)c(-c6c(F)cccc6F)c6nc(c(-c7c(F)cccc7F)c7ccc4[nH]7)C=C6)C=C5)cc3)CC2)cc1C
REMARK SMILES IDX 27 1 26 2 25 3 24 4 23 5 21 6 22 7 20 8 15 9 16 10 17 11
REMARK SMILES IDX 19 12 18 13 13 14 9 15 10 16 90 17 11 18 89 19 12 20 14 21
REMARK SMILES IDX 6 22 7 23 8 24 5 25 1 26 2 27 3 28 92 29 4 30 91 31 93 32
REMARK SMILES IDX 28 33 29 34 30 35 31 36 32 37 33 38 34 39 35 40 36 41 88 42
REMARK SMILES IDX 37 43 87 44 38 45 39 46 40 47 81 48 41 49 86 50 80 51 82 52
REMARK SMILES IDX 42 53 85 54 79 55 78 56 43 58 69 59 52 60 68 61 53 62 56 63
REMARK SMILES IDX 67 64 83 65 54 66 55 67 66 69 84 70 57 71 44 72 45 73 50 74
REMARK SMILES IDX 46 75 47 76 49 77 51 78 48 79 70 80 71 81 76 82 72 83 73 84
REMARK SMILES IDX 75 85 77 86 74 87 58 88 59 89 64 90 60 91 61 92 63 93 65 94
REMARK SMILES IDX 62 95
REMARK H PARENT 82 57 56 68
REMARK Flexibility Score: inf
ROOT
ATOM      1  C   UNL A   1      41.094  20.497  27.357  1.00  0.00     0.188 C 
ENDROOT
BRANCH   1   2
ATOM      2  O   UNL A   1      40.129  21.504  27.172  1.00  0.00    -0.376 OA
BRANCH   2   3
ATOM      3  C   UNL A   1      39.422  21.513  25.938  1.00  0.00     0.202 C 
BRANCH   3   4
ATOM      4  C   UNL A   1      38.061  22.217  25.822  1.00  0.00     0.261 C 
BRANCH   4   5
ATOM      5  O   UNL A   1      36.910  21.338  25.769  1.00  0.00    -0.463 OA
BRANCH   5   6
ATOM      6  C   UNL A   1      35.726  21.925  26.064  1.00  0.00     0.309 C 
ATOM      7  O   UNL A   1      35.637  23.073  26.499  1.00  0.00    -0.252 OA
BRANCH   6   8
ATOM      8  C   UNL A   1      34.458  21.126  25.749  1.00  0.00     0.111 C 
ATOM      9  C   UNL A   1      33.139  21.806  25.285  1.00  0.00     0.093 C 
ATOM     10  C   UNL A   1      32.076  20.716  25.009  1.00  0.00     0.014 C 
ATOM     11  C   UNL A   1      32.547  19.665  24.016  1.00  0.00     0.001 C 
ATOM     12  C   UNL A   1      34.902  19.984  24.810  1.00  0.00     0.016 C 
ATOM     13  C   UNL A   1      33.801  18.980  24.517  1.00  0.00     0.001 C 
BRANCH   9  14
ATOM     14  C   UNL A   1      33.317  22.756  24.101  1.00  0.00     0.226 C 
ATOM     15  N   UNL A   1      30.846  26.013  23.244  1.00  0.00    -0.194 NA
ATOM     16  C   UNL A   1      31.886  25.480  22.336  1.00  0.00     0.124 C 
ATOM     17  C   UNL A   1      30.464  25.122  24.368  1.00  0.00     0.124 C 
ATOM     18  C   UNL A   1      33.092  24.997  23.139  1.00  0.00     0.136 C 
ATOM     19  C   UNL A   1      31.686  24.484  25.082  1.00  0.00     0.136 C 
ATOM     20  N   UNL A   1      32.695  23.994  24.132  1.00  0.00    -0.340 N 
ATOM     21  O   UNL A   1      34.015  22.420  23.141  1.00  0.00    -0.275 OA
BRANCH  15  22
ATOM     22  S   UNL A   1      30.376  27.626  23.158  1.00  0.00     0.243 S 
ATOM     23  O   UNL A   1      29.000  27.723  23.621  1.00  0.00    -0.207 OA
ATOM     24  O   UNL A   1      30.770  28.123  21.865  1.00  0.00    -0.207 OA
BRANCH  22  25
ATOM     25  C   UNL A   1      31.367  28.480  24.366  1.00  0.00     0.082 A 
ATOM     26  C   UNL A   1      33.895  30.545  27.187  1.00  0.00     0.044 C 
ATOM     27  C   UNL A   1      32.971  29.855  26.221  1.00  0.00    -0.048 A 
ATOM     28  C   UNL A   1      33.297  28.558  25.807  1.00  0.00     0.005 A 
ATOM     29  C   UNL A   1      31.770  30.434  25.767  1.00  0.00    -0.047 A 
ATOM     30  C   UNL A   1      32.484  27.868  24.914  1.00  0.00     0.022 A 
ATOM     31  C   UNL A   1      30.995  29.755  24.803  1.00  0.00     0.025 A 
ATOM     32  C   UNL A   1      31.230  31.724  26.325  1.00  0.00     0.044 C 
ENDBRANCH  22  25
ENDBRANCH  15  22
ENDBRANCH   9  14
ENDBRANCH   6   8
ENDBRANCH   5   6
ENDBRANCH   4   5
ENDBRANCH   3   4
ENDBRANCH   2   3
ENDBRANCH   1   2
BRANCH   1  33
ATOM     33  C   UNL A   1      41.903  20.024  26.150  1.00  0.00     0.188 C 
BRANCH  33  34
ATOM     34  O   UNL A   1      42.778  20.857  25.430  1.00  0.00    -0.376 OA
BRANCH  34  35
ATOM     35  C   UNL A   1      43.250  22.094  25.947  1.00  0.00     0.202 C 
BRANCH  35  36
ATOM     36  C   UNL A   1      42.890  23.502  25.419  1.00  0.00     0.261 C 
BRANCH  36  37
ATOM     37  O   UNL A   1      42.257  24.428  26.299  1.00  0.00    -0.460 OA
BRANCH  37  38
ATOM     38  C   UNL A   1      42.237  25.725  25.896  1.00  0.00     0.338 C 
ATOM     39  O   UNL A   1      42.223  26.136  24.750  1.00  0.00    -0.246 OA
BRANCH  38  40
ATOM     40  C   UNL A   1      41.917  26.534  27.102  1.00  0.00     0.060 A 
ATOM     41  C   UNL A   1      40.909  26.071  27.963  1.00  0.00     0.016 A 
ATOM     42  C   UNL A   1      42.701  27.631  27.467  1.00  0.00     0.016 A 
ATOM     43  C   UNL A   1      40.692  26.692  29.195  1.00  0.00     0.010 A 
ATOM     44  C   UNL A   1      42.460  28.273  28.685  1.00  0.00     0.010 A 
ATOM     45  C   UNL A   1      41.451  27.813  29.553  1.00  0.00    -0.014 A 
BRANCH  45  46
ATOM     46  C   UNL A   1      41.113  28.606  30.759  1.00  0.00     0.031 A 
ATOM     47  C   UNL A   1      40.005  29.613  30.663  1.00  0.00     0.074 A 
ATOM     48  C   UNL A   1      41.799  28.475  31.908  1.00  0.00     0.049 A 
ATOM     49  N   UNL A   1      39.625  30.519  31.527  1.00  0.00    -0.248 NA
ATOM     50  C   UNL A   1      39.228  29.600  29.415  1.00  0.00     0.031 C 
ATOM     51  C   UNL A   1      42.869  27.512  32.152  1.00  0.00     0.029 A 
ATOM     52  N   UNL A   1      41.711  29.189  33.080  1.00  0.00    -0.354 N 
ATOM     53  C   UNL A   1      38.575  31.197  30.921  1.00  0.00     0.074 A 
ATOM     54  C   UNL A   1      38.395  30.610  29.609  1.00  0.00     0.031 C 
ATOM     55  C   UNL A   1      43.367  27.720  33.383  1.00  0.00     0.029 A 
ATOM     56  C   UNL A   1      42.681  28.859  33.996  1.00  0.00     0.049 A 
ATOM     57  H   UNL A   1      41.021  29.871  33.246  1.00  0.00     0.167 HD
ATOM     58  C   UNL A   1      37.833  32.217  31.409  1.00  0.00     0.037 A 
ATOM     59  C   UNL A   1      43.008  29.438  35.168  1.00  0.00     0.037 A 
ATOM     60  C   UNL A   1      38.023  32.809  32.707  1.00  0.00     0.049 A 
ATOM     61  C   UNL A   1      42.230  30.631  35.660  1.00  0.00     0.074 A 
ATOM     62  C   UNL A   1      37.292  33.819  33.308  1.00  0.00     0.029 A 
ATOM     63  N   UNL A   1      39.031  32.464  33.595  1.00  0.00    -0.354 N 
ATOM     64  N   UNL A   1      41.212  31.242  35.102  1.00  0.00    -0.248 NA
ATOM     65  C   UNL A   1      42.650  31.220  36.941  1.00  0.00     0.031 C 
ATOM     66  C   UNL A   1      37.899  34.132  34.529  1.00  0.00     0.029 A 
ATOM     67  C   UNL A   1      38.972  33.274  34.717  1.00  0.00     0.049 A 
ATOM     68  H   UNL A   1      39.691  31.748  33.449  1.00  0.00     0.167 HD
ATOM     69  C   UNL A   1      40.865  32.276  35.965  1.00  0.00     0.074 A 
ATOM     70  C   UNL A   1      41.768  32.199  37.094  1.00  0.00     0.031 C 
ATOM     71  C   UNL A   1      39.885  33.204  35.831  1.00  0.00     0.037 A 
BRANCH  58  72
ATOM     72  C   UNL A   1      36.782  32.792  30.504  1.00  0.00     0.057 A 
ATOM     73  C   UNL A   1      37.090  33.698  29.482  1.00  0.00     0.134 A 
ATOM     74  C   UNL A   1      35.437  32.433  30.665  1.00  0.00     0.134 A 
ATOM     75  F   UNL A   1      38.356  34.097  29.284  1.00  0.00    -0.206 F 
ATOM     76  C   UNL A   1      36.095  34.255  28.676  1.00  0.00     0.040 A 
ATOM     77  C   UNL A   1      34.437  32.958  29.846  1.00  0.00     0.040 A 
ATOM     78  F   UNL A   1      35.072  31.567  31.623  1.00  0.00    -0.206 F 
ATOM     79  C   UNL A   1      34.764  33.882  28.855  1.00  0.00     0.006 A 
ENDBRANCH  58  72
BRANCH  59  80
ATOM     80  C   UNL A   1      44.171  28.923  35.937  1.00  0.00     0.057 A 
ATOM     81  C   UNL A   1      45.454  29.452  35.763  1.00  0.00     0.134 A 
ATOM     82  C   UNL A   1      44.020  27.892  36.874  1.00  0.00     0.134 A 
ATOM     83  F   UNL A   1      45.668  30.419  34.858  1.00  0.00    -0.206 F 
ATOM     84  C   UNL A   1      46.546  28.976  36.491  1.00  0.00     0.040 A 
ATOM     85  C   UNL A   1      45.097  27.424  37.628  1.00  0.00     0.040 A 
ATOM     86  F   UNL A   1      42.817  27.338  37.082  1.00  0.00    -0.206 F 
ATOM     87  C   UNL A   1      46.366  27.965  37.434  1.00  0.00     0.006 A 
ENDBRANCH  59  80
BRANCH  71  88
ATOM     88  C   UNL A   1      39.728  34.216  36.932  1.00  0.00     0.057 A 
ATOM     89  C   UNL A   1      40.257  35.509  36.827  1.00  0.00     0.134 A 
ATOM     90  C   UNL A   1      38.985  33.916  38.082  1.00  0.00     0.134 A 
ATOM     91  F   UNL A   1      40.987  35.860  35.759  1.00  0.00    -0.206 F 
ATOM     92  C   UNL A   1      40.067  36.461  37.832  1.00  0.00     0.040 A 
ATOM     93  C   UNL A   1      38.764  34.867  39.080  1.00  0.00     0.040 A 
ATOM     94  F   UNL A   1      38.441  32.700  38.244  1.00  0.00    -0.206 F 
ATOM     95  C   UNL A   1      39.310  36.143  38.958  1.00  0.00     0.006 A 
ENDBRANCH  71  88
ENDBRANCH  45  46
ENDBRANCH  38  40
ENDBRANCH  37  38
ENDBRANCH  36  37
ENDBRANCH  35  36
ENDBRANCH  34  35
ENDBRANCH  33  34
ENDBRANCH   1  33
TORSDOF 20
ENDMDL
MODEL 2
REMARK VINA RESULT:     -11.6      5.060     10.821
REMARK SMILES Cc1ccc(S(=O)(=O)N2CCN(C(=O)[C@H]3CCCC[C@H]3C(=O)OCCOCCOCCOC(=O)c3ccc(-c4c5nc(c(-c6c(F)cccc6F)c6ccc([nH]6)c(-c6c(F)cccc6F)c6nc(c(-c7c(F)cccc7F)c7ccc4[nH]7)C=C6)C=C5)cc3)CC2)cc1C
REMARK SMILES IDX 27 1 26 2 25 3 24 4 23 5 21 6 22 7 20 8 15 9 16 10 17 11
REMARK SMILES IDX 19 12 18 13 13 14 9 15 10 16 90 17 11 18 89 19 12 20 14 21
REMARK SMILES IDX 6 22 7 23 8 24 5 25 1 26 2 27 3 28 92 29 4 30 91 31 93 32
REMARK SMILES IDX 28 33 29 34 30 35 31 36 32 37 33 38 34 39 35 40 36 41 88 42
REMARK SMILES IDX 37 43 87 44 38 45 39 46 40 47 81 48 41 49 86 50 80 51 82 52
REMARK SMILES IDX 42 53 85 54 79 55 78 56 43 58 69 59 52 60 68 61 53 62 56 63
REMARK SMILES IDX 67 64 83 65 54 66 55 67 66 69 84 70 57 71 44 72 45 73 50 74
REMARK SMILES IDX 46 75 47 76 49 77 51 78 48 79 70 80 71 81 76 82 72 83 73 84
REMARK SMILES IDX 75 85 77 86 74 87 58 88 59 89 64 90 60 91 61 92 63 93 65 94
REMARK SMILES IDX 62 95
REMARK H PARENT 82 57 56 68
REMARK Flexibility Score: inf
ROOT
ATOM      1  C   UNL A   1      33.669  33.891  27.950  1.00  0.00     0.188 C 
ENDROOT
BRANCH   1   2
ATOM      2  O   UNL A   1      33.161  32.581  28.012  1.00  0.00    -0.376 OA
BRANCH   2   3
ATOM      3  C   UNL A   1      34.065  31.516  27.747  1.00  0.00     0.202 C 
BRANCH   3   4
ATOM      4  C   UNL A   1      33.561  30.189  27.158  1.00  0.00     0.261 C 
BRANCH   4   5
ATOM      5  O   UNL A   1      32.772  30.309  25.948  1.00  0.00    -0.463 OA
BRANCH   5   6
ATOM      6  C   UNL A   1      32.985  29.338  25.027  1.00  0.00     0.309 C 
ATOM      7  O   UNL A   1      33.965  28.594  25.052  1.00  0.00    -0.252 OA
BRANCH   6   8
ATOM      8  C   UNL A   1      31.894  29.132  23.972  1.00  0.00     0.111 C 
ATOM      9  C   UNL A   1      31.532  27.727  23.412  1.00  0.00     0.093 C 
ATOM     10  C   UNL A   1      30.365  27.867  22.406  1.00  0.00     0.014 C 
ATOM     11  C   UNL A   1      29.151  28.568  22.997  1.00  0.00     0.001 C 
ATOM     12  C   UNL A   1      30.660  29.906  24.485  1.00  0.00     0.016 C 
ATOM     13  C   UNL A   1      29.519  29.954  23.483  1.00  0.00     0.001 C 
BRANCH   9  14
ATOM     14  C   UNL A   1      31.243  26.687  24.494  1.00  0.00     0.226 C 
ATOM     15  N   UNL A   1      31.766  22.565  24.063  1.00  0.00    -0.194 NA
ATOM     16  C   UNL A   1      31.076  23.215  25.199  1.00  0.00     0.124 C 
ATOM     17  C   UNL A   1      31.983  23.426  22.872  1.00  0.00     0.124 C 
ATOM     18  C   UNL A   1      31.757  24.537  25.546  1.00  0.00     0.136 C 
ATOM     19  C   UNL A   1      32.512  24.841  23.233  1.00  0.00     0.136 C 
ATOM     20  N   UNL A   1      31.806  25.425  24.382  1.00  0.00    -0.340 N 
ATOM     21  O   UNL A   1      30.527  26.980  25.455  1.00  0.00    -0.275 OA
BRANCH  15  22
ATOM     22  S   UNL A   1      32.504  21.065  24.249  1.00  0.00     0.243 S 
ATOM     23  O   UNL A   1      32.517  20.401  22.955  1.00  0.00    -0.207 OA
ATOM     24  O   UNL A   1      31.921  20.439  25.408  1.00  0.00    -0.207 OA
BRANCH  22  25
ATOM     25  C   UNL A   1      34.204  21.412  24.647  1.00  0.00     0.082 A 
ATOM     26  C   UNL A   1      38.274  22.318  25.751  1.00  0.00     0.044 C 
ATOM     27  C   UNL A   1      36.874  21.957  25.342  1.00  0.00    -0.048 A 
ATOM     28  C   UNL A   1      35.946  22.992  25.176  1.00  0.00     0.005 A 
ATOM     29  C   UNL A   1      36.476  20.634  25.064  1.00  0.00    -0.047 A 
ATOM     30  C   UNL A   1      34.634  22.722  24.800  1.00  0.00     0.022 A 
ATOM     31  C   UNL A   1      35.125  20.366  24.758  1.00  0.00     0.025 A 
ATOM     32  C   UNL A   1      37.454  19.490  25.001  1.00  0.00     0.044 C 
ENDBRANCH  22  25
ENDBRANCH  15  22
ENDBRANCH   9  14
ENDBRANCH   6   8
ENDBRANCH   5   6
ENDBRANCH   4   5
ENDBRANCH   3   4
ENDBRANCH   2   3
ENDBRANCH   1   2
BRANCH   1  33
ATOM     33  C   UNL A   1      33.633  34.753  29.211  1.00  0.00     0.188 C 
BRANCH  33  34
ATOM     34  O   UNL A   1      33.704  34.224  30.513  1.00  0.00    -0.376 OA
BRANCH  34  35
ATOM     35  C   UNL A   1      34.889  33.638  31.032  1.00  0.00     0.202 C 
BRANCH  35  36
ATOM     36  C   UNL A   1      35.158  32.126  31.212  1.00  0.00     0.261 C 
BRANCH  36  37
ATOM     37  O   UNL A   1      36.354  31.569  30.673  1.00  0.00    -0.460 OA
BRANCH  37  38
ATOM     38  C   UNL A   1      36.859  30.485  31.320  1.00  0.00     0.338 C 
ATOM     39  O   UNL A   1      36.277  29.769  32.114  1.00  0.00    -0.246 OA
BRANCH  38  40
ATOM     40  C   UNL A   1      38.140  30.152  30.642  1.00  0.00     0.060 A 
ATOM     41  C   UNL A   1      39.213  29.708  31.433  1.00  0.00     0.016 A 
ATOM     42  C   UNL A   1      38.234  30.114  29.249  1.00  0.00     0.016 A 
ATOM     43  C   UNL A   1      40.374  29.213  30.834  1.00  0.00     0.010 A 
ATOM     44  C   UNL A   1      39.410  29.651  28.652  1.00  0.00     0.010 A 
ATOM     45  C   UNL A   1      40.488  29.204  29.439  1.00  0.00    -0.014 A 
BRANCH  45  46
ATOM     46  C   UNL A   1      41.776  28.870  28.785  1.00  0.00     0.031 A 
ATOM     47  C   UNL A   1      42.003  27.455  28.337  1.00  0.00     0.074 A 
ATOM     48  C   UNL A   1      42.749  29.784  28.628  1.00  0.00     0.049 A 
ATOM     49  N   UNL A   1      43.089  26.890  27.879  1.00  0.00    -0.248 NA
ATOM     50  C   UNL A   1      40.843  26.556  28.431  1.00  0.00     0.031 C 
ATOM     51  C   UNL A   1      42.650  31.197  28.981  1.00  0.00     0.029 A 
ATOM     52  N   UNL A   1      44.033  29.640  28.157  1.00  0.00    -0.354 N 
ATOM     53  C   UNL A   1      42.751  25.564  27.645  1.00  0.00     0.074 A 
ATOM     54  C   UNL A   1      41.365  25.406  28.033  1.00  0.00     0.031 C 
ATOM     55  C   UNL A   1      43.837  31.785  28.751  1.00  0.00     0.029 A 
ATOM     56  C   UNL A   1      44.790  30.781  28.278  1.00  0.00     0.049 A 
ATOM     57  H   UNL A   1      44.377  28.802  27.772  1.00  0.00     0.167 HD
ATOM     58  C   UNL A   1      43.525  24.566  27.158  1.00  0.00     0.037 A 
ATOM     59  C   UNL A   1      46.108  30.979  28.076  1.00  0.00     0.037 A 
ATOM     60  C   UNL A   1      44.908  24.720  26.787  1.00  0.00     0.049 A 
ATOM     61  C   UNL A   1      46.979  29.837  27.618  1.00  0.00     0.074 A 
ATOM     62  C   UNL A   1      45.763  23.778  26.242  1.00  0.00     0.029 A 
ATOM     63  N   UNL A   1      45.645  25.884  26.946  1.00  0.00    -0.354 N 
ATOM     64  N   UNL A   1      46.646  28.596  27.359  1.00  0.00    -0.248 NA
ATOM     65  C   UNL A   1      48.410  30.122  27.431  1.00  0.00     0.031 C 
ATOM     66  C   UNL A   1      47.035  24.351  26.137  1.00  0.00     0.029 A 
ATOM     67  C   UNL A   1      46.957  25.670  26.558  1.00  0.00     0.049 A 
ATOM     68  H   UNL A   1      45.288  26.736  27.286  1.00  0.00     0.167 HD
ATOM     69  C   UNL A   1      47.818  27.956  26.970  1.00  0.00     0.074 A 
ATOM     70  C   UNL A   1      48.869  28.952  27.008  1.00  0.00     0.031 C 
ATOM     71  C   UNL A   1      48.004  26.661  26.614  1.00  0.00     0.037 A 
BRANCH  58  72
ATOM     72  C   UNL A   1      42.901  23.205  27.052  1.00  0.00     0.057 A 
ATOM     73  C   UNL A   1      42.505  22.657  25.826  1.00  0.00     0.134 A 
ATOM     74  C   UNL A   1      42.689  22.434  28.202  1.00  0.00     0.134 A 
ATOM     75  F   UNL A   1      42.663  23.351  24.688  1.00  0.00    -0.206 F 
ATOM     76  C   UNL A   1      41.887  21.408  25.750  1.00  0.00     0.040 A 
ATOM     77  C   UNL A   1      42.102  21.170  28.137  1.00  0.00     0.040 A 
ATOM     78  F   UNL A   1      43.048  22.896  29.410  1.00  0.00    -0.206 F 
ATOM     79  C   UNL A   1      41.688  20.659  26.908  1.00  0.00     0.006 A 
ENDBRANCH  58  72
BRANCH  59  80
ATOM     80  C   UNL A   1      46.698  32.313  28.362  1.00  0.00     0.057 A 
ATOM     81  C   UNL A   1      47.210  32.631  29.624  1.00  0.00     0.134 A 
ATOM     82  C   UNL A   1      46.770  33.300  27.370  1.00  0.00     0.134 A 
ATOM     83  F   UNL A   1      47.142  31.739  30.623  1.00  0.00    -0.206 F 
ATOM     84  C   UNL A   1      47.773  33.880  29.891  1.00  0.00     0.040 A 
ATOM     85  C   UNL A   1      47.352  34.544  27.615  1.00  0.00     0.040 A 
ATOM     86  F   UNL A   1      46.289  33.060  26.141  1.00  0.00    -0.206 F 
ATOM     87  C   UNL A   1      47.853  34.838  28.881  1.00  0.00     0.006 A 
ENDBRANCH  59  80
BRANCH  71  88
ATOM     88  C   UNL A   1      49.395  26.236  26.231  1.00  0.00     0.057 A 
ATOM     89  C   UNL A   1      49.913  26.473  24.951  1.00  0.00     0.134 A 
ATOM     90  C   UNL A   1      50.247  25.641  27.170  1.00  0.00     0.134 A 
ATOM     91  F   UNL A   1      49.147  27.029  24.001  1.00  0.00    -0.206 F 
ATOM     92  C   UNL A   1      51.222  26.119  24.615  1.00  0.00     0.040 A 
ATOM     93  C   UNL A   1      51.566  25.308  26.855  1.00  0.00     0.040 A 
ATOM     94  F   UNL A   1      49.821  25.393  28.418  1.00  0.00    -0.206 F 
ATOM     95  C   UNL A   1      52.055  25.544  25.572  1.00  0.00     0.006 A 
ENDBRANCH  71  88
ENDBRANCH  45  46
ENDBRANCH  38  40
ENDBRANCH  37  38
ENDBRANCH  36  37
ENDBRANCH  35  36
ENDBRANCH  34  35
ENDBRANCH  33  34
ENDBRANCH   1  33
TORSDOF 20
ENDMDL
MODEL 3
REMARK VINA RESULT:     -11.6      4.565     10.444
REMARK SMILES Cc1ccc(S(=O)(=O)N2CCN(C(=O)[C@H]3CCCC[C@H]3C(=O)OCCOCCOCCOC(=O)c3ccc(-c4c5nc(c(-c6c(F)cccc6F)c6ccc([nH]6)c(-c6c(F)cccc6F)c6nc(c(-c7c(F)cccc7F)c7ccc4[nH]7)C=C6)C=C5)cc3)CC2)cc1C
REMARK SMILES IDX 27 1 26 2 25 3 24 4 23 5 21 6 22 7 20 8 15 9 16 10 17 11
REMARK SMILES IDX 19 12 18 13 13 14 9 15 10 16 90 17 11 18 89 19 12 20 14 21
REMARK SMILES IDX 6 22 7 23 8 24 5 25 1 26 2 27 3 28 92 29 4 30 91 31 93 32
REMARK SMILES IDX 28 33 29 34 30 35 31 36 32 37 33 38 34 39 35 40 36 41 88 42
REMARK SMILES IDX 37 43 87 44 38 45 39 46 40 47 81 48 41 49 86 50 80 51 82 52
REMARK SMILES IDX 42 53 85 54 79 55 78 56 43 58 69 59 52 60 68 61 53 62 56 63
REMARK SMILES IDX 67 64 83 65 54 66 55 67 66 69 84 70 57 71 44 72 45 73 50 74
REMARK SMILES IDX 46 75 47 76 49 77 51 78 48 79 70 80 71 81 76 82 72 83 73 84
REMARK SMILES IDX 75 85 77 86 74 87 58 88 59 89 64 90 60 91 61 92 63 93 65 94
REMARK SMILES IDX 62 95
REMARK H PARENT 82 57 56 68
REMARK Flexibility Score: inf
ROOT
ATOM      1  C   UNL A   1      35.175  32.057  27.714  1.00  0.00     0.188 C 
ENDROOT
BRANCH   1   2
ATOM      2  O   UNL A   1      34.674  30.869  28.277  1.00  0.00    -0.376 OA
BRANCH   2   3
ATOM      3  C   UNL A   1      34.790  29.679  27.507  1.00  0.00     0.202 C 
BRANCH   3   4
ATOM      4  C   UNL A   1      33.542  29.008  26.913  1.00  0.00     0.261 C 
BRANCH   4   5
ATOM      5  O   UNL A   1      32.947  29.692  25.783  1.00  0.00    -0.463 OA
BRANCH   5   6
ATOM      6  C   UNL A   1      33.155  29.103  24.581  1.00  0.00     0.309 C 
ATOM      7  O   UNL A   1      34.261  28.707  24.211  1.00  0.00    -0.252 OA
BRANCH   6   8
ATOM      8  C   UNL A   1      31.923  28.859  23.706  1.00  0.00     0.111 C 
ATOM      9  C   UNL A   1      31.453  27.431  23.308  1.00  0.00     0.093 C 
ATOM     10  C   UNL A   1      30.160  27.538  22.465  1.00  0.00     0.014 C 
ATOM     11  C   UNL A   1      29.058  28.319  23.164  1.00  0.00     0.001 C 
ATOM     12  C   UNL A   1      30.792  29.708  24.324  1.00  0.00     0.016 C 
ATOM     13  C   UNL A   1      29.523  29.723  23.490  1.00  0.00     0.001 C 
BRANCH   9  14
ATOM     14  C   UNL A   1      31.295  26.481  24.495  1.00  0.00     0.226 C 
ATOM     15  N   UNL A   1      33.655  23.106  25.199  1.00  0.00    -0.194 NA
ATOM     16  C   UNL A   1      32.414  23.438  25.934  1.00  0.00     0.124 C 
ATOM     17  C   UNL A   1      33.866  23.856  23.935  1.00  0.00     0.124 C 
ATOM     18  C   UNL A   1      32.298  24.949  26.121  1.00  0.00     0.136 C 
ATOM     19  C   UNL A   1      33.578  25.376  24.074  1.00  0.00     0.136 C 
ATOM     20  N   UNL A   1      32.348  25.644  24.832  1.00  0.00    -0.340 N 
ATOM     21  O   UNL A   1      30.246  26.474  25.143  1.00  0.00    -0.275 OA
BRANCH  15  22
ATOM     22  S   UNL A   1      34.856  22.173  25.917  1.00  0.00     0.243 S 
ATOM     23  O   UNL A   1      34.536  22.027  27.328  1.00  0.00    -0.207 OA
ATOM     24  O   UNL A   1      36.126  22.699  25.486  1.00  0.00    -0.207 OA
BRANCH  22  25
ATOM     25  C   UNL A   1      34.697  20.551  25.200  1.00  0.00     0.082 A 
ATOM     26  C   UNL A   1      34.361  16.556  23.607  1.00  0.00     0.044 C 
ATOM     27  C   UNL A   1      34.435  17.963  24.132  1.00  0.00    -0.048 A 
ATOM     28  C   UNL A   1      35.678  18.444  24.561  1.00  0.00     0.005 A 
ATOM     29  C   UNL A   1      33.324  18.830  24.154  1.00  0.00    -0.047 A 
ATOM     30  C   UNL A   1      35.811  19.736  25.059  1.00  0.00     0.022 A 
ATOM     31  C   UNL A   1      33.456  20.110  24.732  1.00  0.00     0.025 A 
ATOM     32  C   UNL A   1      32.008  18.478  23.513  1.00  0.00     0.044 C 
ENDBRANCH  22  25
ENDBRANCH  15  22
ENDBRANCH   9  14
ENDBRANCH   6   8
ENDBRANCH   5   6
ENDBRANCH   4   5
ENDBRANCH   3   4
ENDBRANCH   2   3
ENDBRANCH   1   2
BRANCH   1  33
ATOM     33  C   UNL A   1      34.463  33.373  28.020  1.00  0.00     0.188 C 
BRANCH  33  34
ATOM     34  O   UNL A   1      34.969  34.340  28.907  1.00  0.00    -0.376 OA
BRANCH  34  35
ATOM     35  C   UNL A   1      34.362  34.614  30.162  1.00  0.00     0.202 C 
BRANCH  35  36
ATOM     36  C   UNL A   1      34.185  33.617  31.330  1.00  0.00     0.261 C 
BRANCH  36  37
ATOM     37  O   UNL A   1      34.982  32.435  31.355  1.00  0.00    -0.460 OA
BRANCH  37  38
ATOM     38  C   UNL A   1      35.887  32.341  32.365  1.00  0.00     0.338 C 
ATOM     39  O   UNL A   1      35.668  32.446  33.558  1.00  0.00    -0.246 OA
BRANCH  38  40
ATOM     40  C   UNL A   1      37.125  31.774  31.767  1.00  0.00     0.060 A 
ATOM     41  C   UNL A   1      37.976  31.021  32.593  1.00  0.00     0.016 A 
ATOM     42  C   UNL A   1      37.360  31.837  30.391  1.00  0.00     0.016 A 
ATOM     43  C   UNL A   1      39.053  30.320  32.045  1.00  0.00     0.010 A 
ATOM     44  C   UNL A   1      38.458  31.163  29.850  1.00  0.00     0.010 A 
ATOM     45  C   UNL A   1      39.314  30.406  30.672  1.00  0.00    -0.014 A 
BRANCH  45  46
ATOM     46  C   UNL A   1      40.555  29.835  30.098  1.00  0.00     0.031 A 
ATOM     47  C   UNL A   1      41.732  30.744  29.893  1.00  0.00     0.074 A 
ATOM     48  C   UNL A   1      40.633  28.547  29.719  1.00  0.00     0.049 A 
ATOM     49  N   UNL A   1      42.864  30.517  29.281  1.00  0.00    -0.248 NA
ATOM     50  C   UNL A   1      41.603  32.099  30.451  1.00  0.00     0.031 C 
ATOM     51  C   UNL A   1      39.584  27.547  29.894  1.00  0.00     0.029 A 
ATOM     52  N   UNL A   1      41.642  27.872  29.073  1.00  0.00    -0.354 N 
ATOM     53  C   UNL A   1      43.579  31.705  29.362  1.00  0.00     0.074 A 
ATOM     54  C   UNL A   1      42.741  32.655  30.065  1.00  0.00     0.031 C 
ATOM     55  C   UNL A   1      39.988  26.393  29.333  1.00  0.00     0.029 A 
ATOM     56  C   UNL A   1      41.303  26.588  28.721  1.00  0.00     0.049 A 
ATOM     57  H   UNL A   1      42.521  28.271  28.881  1.00  0.00     0.167 HD
ATOM     58  C   UNL A   1      44.816  31.982  28.890  1.00  0.00     0.037 A 
ATOM     59  C   UNL A   1      41.956  25.691  27.955  1.00  0.00     0.037 A 
ATOM     60  C   UNL A   1      45.642  31.043  28.179  1.00  0.00     0.049 A 
ATOM     61  C   UNL A   1      43.295  26.044  27.361  1.00  0.00     0.074 A 
ATOM     62  C   UNL A   1      46.929  31.218  27.699  1.00  0.00     0.029 A 
ATOM     63  N   UNL A   1      45.253  29.760  27.821  1.00  0.00    -0.354 N 
ATOM     64  N   UNL A   1      43.984  27.153  27.476  1.00  0.00    -0.248 NA
ATOM     65  C   UNL A   1      43.944  25.022  26.524  1.00  0.00     0.031 C 
ATOM     66  C   UNL A   1      47.292  30.066  26.992  1.00  0.00     0.029 A 
ATOM     67  C   UNL A   1      46.256  29.150  27.084  1.00  0.00     0.049 A 
ATOM     68  H   UNL A   1      44.393  29.345  28.056  1.00  0.00     0.167 HD
ATOM     69  C   UNL A   1      45.148  26.962  26.738  1.00  0.00     0.074 A 
ATOM     70  C   UNL A   1      45.081  25.620  26.196  1.00  0.00     0.031 C 
ATOM     71  C   UNL A   1      46.177  27.820  26.531  1.00  0.00     0.037 A 
BRANCH  58  72
ATOM     72  C   UNL A   1      45.324  33.382  29.085  1.00  0.00     0.057 A 
ATOM     73  C   UNL A   1      45.083  34.401  28.155  1.00  0.00     0.134 A 
ATOM     74  C   UNL A   1      46.072  33.710  30.223  1.00  0.00     0.134 A 
ATOM     75  F   UNL A   1      44.388  34.149  27.035  1.00  0.00    -0.206 F 
ATOM     76  C   UNL A   1      45.598  35.686  28.330  1.00  0.00     0.040 A 
ATOM     77  C   UNL A   1      46.566  34.999  30.425  1.00  0.00     0.040 A 
ATOM     78  F   UNL A   1      46.338  32.783  31.156  1.00  0.00    -0.206 F 
ATOM     79  C   UNL A   1      46.339  35.989  29.471  1.00  0.00     0.006 A 
ENDBRANCH  58  72
BRANCH  59  80
ATOM     80  C   UNL A   1      41.319  24.381  27.661  1.00  0.00     0.057 A 
ATOM     81  C   UNL A   1      41.739  23.206  28.293  1.00  0.00     0.134 A 
ATOM     82  C   UNL A   1      40.265  24.278  26.744  1.00  0.00     0.134 A 
ATOM     83  F   UNL A   1      42.764  23.235  29.158  1.00  0.00    -0.206 F 
ATOM     84  C   UNL A   1      41.136  21.976  28.025  1.00  0.00     0.040 A 
ATOM     85  C   UNL A   1      39.635  23.060  26.484  1.00  0.00     0.040 A 
ATOM     86  F   UNL A   1      39.821  25.367  26.099  1.00  0.00    -0.206 F 
ATOM     87  C   UNL A   1      40.074  21.903  27.124  1.00  0.00     0.006 A 
ENDBRANCH  59  80
BRANCH  71  88
ATOM     88  C   UNL A   1      47.324  27.343  25.684  1.00  0.00     0.057 A 
ATOM     89  C   UNL A   1      48.389  26.613  26.228  1.00  0.00     0.134 A 
ATOM     90  C   UNL A   1      47.332  27.559  24.299  1.00  0.00     0.134 A 
ATOM     91  F   UNL A   1      48.449  26.379  27.547  1.00  0.00    -0.206 F 
ATOM     92  C   UNL A   1      49.429  26.131  25.429  1.00  0.00     0.040 A 
ATOM     93  C   UNL A   1      48.351  27.058  23.486  1.00  0.00     0.040 A 
ATOM     94  F   UNL A   1      46.339  28.242  23.710  1.00  0.00    -0.206 F 
ATOM     95  C   UNL A   1      49.405  26.345  24.052  1.00  0.00     0.006 A 
ENDBRANCH  71  88
ENDBRANCH  45  46
ENDBRANCH  38  40
ENDBRANCH  37  38
ENDBRANCH  36  37
ENDBRANCH  35  36
ENDBRANCH  34  35
ENDBRANCH  33  34
ENDBRANCH   1  33
TORSDOF 20
ENDMDL
