MODEL 1
REMARK VINA RESULT:     -10.1      0.000      0.000
REMARK SMILES [NH3+][C@H](c1cc(F)c(F)cc1C(=O)OCCOCCOCCOC(=O)c1ccc(-c2c3nc(c(-c4c(F)cccc4F)c4ccc([nH]4)c(-c4c(F)cccc4F)c4nc(c(-c5c(F)cccc5F)c5ccc2[nH]5)C=C4)C=C3)cc1)C(F)(F)F
REMARK SMILES IDX 17 1 16 2 15 3 14 4 13 5 11 6 12 7 10 8 3 9 4 10 5 11 9 12
REMARK SMILES IDX 6 13 7 14 8 15 2 16 1 17 79 21 80 22 81 23 82 24 18 25 19 26
REMARK SMILES IDX 20 27 21 28 22 29 23 30 24 31 25 32 26 33 78 34 27 35 77 36
REMARK SMILES IDX 28 37 29 38 30 39 71 40 31 41 76 42 70 43 72 44 32 45 75 46
REMARK SMILES IDX 69 47 68 48 33 50 59 51 42 52 58 53 43 54 46 55 57 56 73 57
REMARK SMILES IDX 44 58 45 59 56 61 74 62 47 63 34 64 35 65 40 66 36 67 37 68
REMARK SMILES IDX 39 69 41 70 38 71 60 72 61 73 66 74 62 75 63 76 65 77 67 78
REMARK SMILES IDX 64 79 48 80 49 81 54 82 50 83 51 84 53 85 55 86 52 87
REMARK H PARENT 1 18 1 19 1 20 72 49 46 60
REMARK Flexibility Score: inf
ROOT
ATOM      1  C   UNL A   1      34.681  30.592  27.544  1.00  0.00     0.188 C 
ENDROOT
BRANCH   1   2
ATOM      2  O   UNL A   1      34.002  29.559  26.859  1.00  0.00    -0.376 OA
BRANCH   2   3
ATOM      3  C   UNL A   1      33.013  29.863  25.881  1.00  0.00     0.202 C 
BRANCH   3   4
ATOM      4  C   UNL A   1      32.789  28.904  24.713  1.00  0.00     0.261 C 
BRANCH   4   5
ATOM      5  O   UNL A   1      33.794  27.878  24.694  1.00  0.00    -0.460 OA
BRANCH   5   6
ATOM      6  C   UNL A   1      33.580  26.860  23.841  1.00  0.00     0.338 C 
ATOM      7  O   UNL A   1      33.650  26.900  22.625  1.00  0.00    -0.246 OA
BRANCH   6   8
ATOM      8  C   UNL A   1      33.488  25.590  24.604  1.00  0.00     0.072 A 
ATOM      9  C   UNL A   1      32.316  24.814  24.810  1.00  0.00     0.036 A 
ATOM     10  C   UNL A   1      32.476  23.607  25.538  1.00  0.00     0.053 A 
ATOM     11  C   UNL A   1      33.721  23.200  26.023  1.00  0.00     0.159 A 
ATOM     12  C   UNL A   1      34.728  25.183  25.143  1.00  0.00     0.058 A 
ATOM     13  F   UNL A   1      33.825  22.024  26.657  1.00  0.00    -0.204 F 
ATOM     14  C   UNL A   1      34.836  23.994  25.845  1.00  0.00     0.159 A 
ATOM     15  F   UNL A   1      36.025  23.626  26.340  1.00  0.00    -0.204 F 
BRANCH   9  16
ATOM     16  C   UNL A   1      30.925  25.185  24.257  1.00  0.00     0.319 C 
BRANCH  16  17
ATOM     17  N   UNL A   1      30.270  23.985  23.646  1.00  0.00    -0.344 N 
ATOM     18  H   UNL A   1      30.132  23.272  24.361  1.00  0.00     0.345 HD
ATOM     19  H   UNL A   1      30.865  23.613  22.905  1.00  0.00     0.345 HD
ATOM     20  H   UNL A   1      29.367  24.253  23.254  1.00  0.00     0.345 HD
ENDBRANCH  16  17
BRANCH  16  21
ATOM     21  C   UNL A   1      29.971  25.892  25.290  1.00  0.00     0.445 C 
ATOM     22  F   UNL A   1      30.516  26.996  25.829  1.00  0.00    -0.165 F 
ATOM     23  F   UNL A   1      28.822  26.298  24.689  1.00  0.00    -0.165 F 
ATOM     24  F   UNL A   1      29.615  25.043  26.280  1.00  0.00    -0.165 F 
ENDBRANCH  16  21
ENDBRANCH   9  16
ENDBRANCH   6   8
ENDBRANCH   5   6
ENDBRANCH   4   5
ENDBRANCH   3   4
ENDBRANCH   2   3
ENDBRANCH   1   2
BRANCH   1  25
ATOM     25  C   UNL A   1      33.971  31.889  27.982  1.00  0.00     0.188 C 
BRANCH  25  26
ATOM     26  O   UNL A   1      34.628  33.032  28.489  1.00  0.00    -0.376 OA
BRANCH  26  27
ATOM     27  C   UNL A   1      34.028  33.850  29.470  1.00  0.00     0.202 C 
BRANCH  27  28
ATOM     28  C   UNL A   1      34.525  33.777  30.910  1.00  0.00     0.261 C 
BRANCH  28  29
ATOM     29  O   UNL A   1      34.702  32.442  31.388  1.00  0.00    -0.460 OA
BRANCH  29  30
ATOM     30  C   UNL A   1      35.705  32.294  32.285  1.00  0.00     0.338 C 
ATOM     31  O   UNL A   1      35.707  32.591  33.470  1.00  0.00    -0.246 OA
BRANCH  30  32
ATOM     32  C   UNL A   1      36.787  31.543  31.637  1.00  0.00     0.060 A 
ATOM     33  C   UNL A   1      37.751  30.931  32.449  1.00  0.00     0.016 A 
ATOM     34  C   UNL A   1      36.857  31.456  30.246  1.00  0.00     0.016 A 
ATOM     35  C   UNL A   1      38.793  30.220  31.868  1.00  0.00     0.010 A 
ATOM     36  C   UNL A   1      37.923  30.774  29.664  1.00  0.00     0.010 A 
ATOM     37  C   UNL A   1      38.902  30.172  30.473  1.00  0.00    -0.014 A 
BRANCH  37  38
ATOM     38  C   UNL A   1      40.143  29.656  29.862  1.00  0.00     0.031 A 
ATOM     39  C   UNL A   1      41.298  30.598  29.698  1.00  0.00     0.074 A 
ATOM     40  C   UNL A   1      40.237  28.374  29.473  1.00  0.00     0.049 A 
ATOM     41  N   UNL A   1      42.457  30.399  29.128  1.00  0.00    -0.248 NA
ATOM     42  C   UNL A   1      41.118  31.951  30.251  1.00  0.00     0.031 C 
ATOM     43  C   UNL A   1      39.196  27.361  29.633  1.00  0.00     0.029 A 
ATOM     44  N   UNL A   1      41.265  27.711  28.854  1.00  0.00    -0.354 N 
ATOM     45  C   UNL A   1      43.141  31.602  29.247  1.00  0.00     0.074 A 
ATOM     46  C   UNL A   1      42.259  32.533  29.914  1.00  0.00     0.031 C 
ATOM     47  C   UNL A   1      39.631  26.204  29.106  1.00  0.00     0.029 A 
ATOM     48  C   UNL A   1      40.965  26.408  28.542  1.00  0.00     0.049 A 
ATOM     49  H   UNL A   1      42.133  28.128  28.653  1.00  0.00     0.167 HD
ATOM     50  C   UNL A   1      44.396  31.899  28.837  1.00  0.00     0.037 A 
ATOM     51  C   UNL A   1      41.679  25.500  27.852  1.00  0.00     0.037 A 
ATOM     52  C   UNL A   1      45.261  30.967  28.164  1.00  0.00     0.049 A 
ATOM     53  C   UNL A   1      43.041  25.882  27.329  1.00  0.00     0.074 A 
ATOM     54  C   UNL A   1      46.555  31.161  27.716  1.00  0.00     0.029 A 
ATOM     55  N   UNL A   1      44.912  29.665  27.833  1.00  0.00    -0.354 N 
ATOM     56  N   UNL A   1      43.692  27.013  27.458  1.00  0.00    -0.248 NA
ATOM     57  C   UNL A   1      43.767  24.857  26.565  1.00  0.00     0.031 C 
ATOM     58  C   UNL A   1      46.968  29.997  27.060  1.00  0.00     0.029 A 
ATOM     59  C   UNL A   1      45.956  29.055  27.157  1.00  0.00     0.049 A 
ATOM     60  H   UNL A   1      44.051  29.240  28.046  1.00  0.00     0.167 HD
ATOM     61  C   UNL A   1      44.913  26.827  26.821  1.00  0.00     0.074 A 
ATOM     62  C   UNL A   1      44.916  25.469  26.318  1.00  0.00     0.031 C 
ATOM     63  C   UNL A   1      45.941  27.699  26.668  1.00  0.00     0.037 A 
BRANCH  50  64
ATOM     64  C   UNL A   1      44.885  33.298  29.072  1.00  0.00     0.057 A 
ATOM     65  C   UNL A   1      45.651  33.641  30.194  1.00  0.00     0.134 A 
ATOM     66  C   UNL A   1      44.596  34.315  28.153  1.00  0.00     0.134 A 
ATOM     67  F   UNL A   1      45.946  32.719  31.124  1.00  0.00    -0.206 F 
ATOM     68  C   UNL A   1      46.089  34.949  30.406  1.00  0.00     0.040 A 
ATOM     69  C   UNL A   1      45.055  35.619  28.339  1.00  0.00     0.040 A 
ATOM     70  F   UNL A   1      43.867  34.055  27.057  1.00  0.00    -0.206 F 
ATOM     71  C   UNL A   1      45.798  35.941  29.472  1.00  0.00     0.006 A 
ENDBRANCH  50  64
BRANCH  51  72
ATOM     72  C   UNL A   1      41.119  24.150  27.595  1.00  0.00     0.057 A 
ATOM     73  C   UNL A   1      41.593  23.025  28.279  1.00  0.00     0.134 A 
ATOM     74  C   UNL A   1      40.111  23.947  26.644  1.00  0.00     0.134 A 
ATOM     75  F   UNL A   1      42.574  23.149  29.186  1.00  0.00    -0.206 F 
ATOM     76  C   UNL A   1      41.100  21.745  28.015  1.00  0.00     0.040 A 
ATOM     77  C   UNL A   1      39.590  22.678  26.389  1.00  0.00     0.040 A 
ATOM     78  F   UNL A   1      39.613  24.983  25.953  1.00  0.00    -0.206 F 
ATOM     79  C   UNL A   1      40.091  21.570  27.070  1.00  0.00     0.006 A 
ENDBRANCH  51  72
BRANCH  63  80
ATOM     80  C   UNL A   1      47.170  27.199  25.963  1.00  0.00     0.057 A 
ATOM     81  C   UNL A   1      47.367  27.384  24.590  1.00  0.00     0.134 A 
ATOM     82  C   UNL A   1      48.188  26.557  26.681  1.00  0.00     0.134 A 
ATOM     83  F   UNL A   1      46.428  27.981  23.841  1.00  0.00    -0.206 F 
ATOM     84  C   UNL A   1      48.522  26.927  23.950  1.00  0.00     0.040 A 
ATOM     85  C   UNL A   1      49.360  26.123  26.059  1.00  0.00     0.040 A 
ATOM     86  F   UNL A   1      48.070  26.357  28.002  1.00  0.00    -0.206 F 
ATOM     87  C   UNL A   1      49.526  26.301  24.688  1.00  0.00     0.006 A 
ENDBRANCH  63  80
ENDBRANCH  37  38
ENDBRANCH  30  32
ENDBRANCH  29  30
ENDBRANCH  28  29
ENDBRANCH  27  28
ENDBRANCH  26  27
ENDBRANCH  25  26
ENDBRANCH   1  25
TORSDOF 20
ENDMDL
MODEL 2
REMARK VINA RESULT:     -10.0      1.421      1.940
REMARK SMILES [NH3+][C@H](c1cc(F)c(F)cc1C(=O)OCCOCCOCCOC(=O)c1ccc(-c2c3nc(c(-c4c(F)cccc4F)c4ccc([nH]4)c(-c4c(F)cccc4F)c4nc(c(-c5c(F)cccc5F)c5ccc2[nH]5)C=C4)C=C3)cc1)C(F)(F)F
REMARK SMILES IDX 17 1 16 2 15 3 14 4 13 5 11 6 12 7 10 8 3 9 4 10 5 11 9 12
REMARK SMILES IDX 6 13 7 14 8 15 2 16 1 17 79 21 80 22 81 23 82 24 18 25 19 26
REMARK SMILES IDX 20 27 21 28 22 29 23 30 24 31 25 32 26 33 78 34 27 35 77 36
REMARK SMILES IDX 28 37 29 38 30 39 71 40 31 41 76 42 70 43 72 44 32 45 75 46
REMARK SMILES IDX 69 47 68 48 33 50 59 51 42 52 58 53 43 54 46 55 57 56 73 57
REMARK SMILES IDX 44 58 45 59 56 61 74 62 47 63 34 64 35 65 40 66 36 67 37 68
REMARK SMILES IDX 39 69 41 70 38 71 60 72 61 73 66 74 62 75 63 76 65 77 67 78
REMARK SMILES IDX 64 79 48 80 49 81 54 82 50 83 51 84 53 85 55 86 52 87
REMARK H PARENT 1 18 1 19 1 20 72 49 46 60
REMARK Flexibility Score: inf
ROOT
ATOM      1  C   UNL A   1      34.426  31.801  27.638  1.00  0.00     0.188 C 
ENDROOT
BRANCH   1   2
ATOM      2  O   UNL A   1      33.264  30.997  27.670  1.00  0.00    -0.376 OA
BRANCH   2   3
ATOM      3  C   UNL A   1      33.104  29.914  26.759  1.00  0.00     0.202 C 
BRANCH   3   4
ATOM      4  C   UNL A   1      32.567  28.577  27.267  1.00  0.00     0.261 C 
BRANCH   4   5
ATOM      5  O   UNL A   1      33.282  27.481  26.675  1.00  0.00    -0.460 OA
BRANCH   5   6
ATOM      6  C   UNL A   1      32.548  26.398  26.364  1.00  0.00     0.338 C 
ATOM      7  O   UNL A   1      31.389  26.188  26.678  1.00  0.00    -0.246 OA
BRANCH   6   8
ATOM      8  C   UNL A   1      33.272  25.584  25.356  1.00  0.00     0.072 A 
ATOM      9  C   UNL A   1      33.328  25.828  23.958  1.00  0.00     0.036 A 
ATOM     10  C   UNL A   1      34.122  24.937  23.191  1.00  0.00     0.053 A 
ATOM     11  C   UNL A   1      34.815  23.878  23.780  1.00  0.00     0.159 A 
ATOM     12  C   UNL A   1      33.943  24.479  25.924  1.00  0.00     0.058 A 
ATOM     13  F   UNL A   1      35.594  23.100  23.016  1.00  0.00    -0.204 F 
ATOM     14  C   UNL A   1      34.709  23.638  25.135  1.00  0.00     0.159 A 
ATOM     15  F   UNL A   1      35.343  22.600  25.698  1.00  0.00    -0.204 F 
BRANCH   9  16
ATOM     16  C   UNL A   1      32.626  27.010  23.258  1.00  0.00     0.319 C 
BRANCH  16  17
ATOM     17  N   UNL A   1      31.374  27.381  23.991  1.00  0.00    -0.344 N 
ATOM     18  H   UNL A   1      30.652  27.642  23.320  1.00  0.00     0.345 HD
ATOM     19  H   UNL A   1      31.563  28.170  24.610  1.00  0.00     0.345 HD
ATOM     20  H   UNL A   1      31.055  26.585  24.541  1.00  0.00     0.345 HD
ENDBRANCH  16  17
BRANCH  16  21
ATOM     21  C   UNL A   1      33.539  28.268  23.011  1.00  0.00     0.445 C 
ATOM     22  F   UNL A   1      34.452  28.447  23.981  1.00  0.00    -0.165 F 
ATOM     23  F   UNL A   1      34.242  28.137  21.856  1.00  0.00    -0.165 F 
ATOM     24  F   UNL A   1      32.794  29.390  22.890  1.00  0.00    -0.165 F 
ENDBRANCH  16  21
ENDBRANCH   9  16
ENDBRANCH   6   8
ENDBRANCH   5   6
ENDBRANCH   4   5
ENDBRANCH   3   4
ENDBRANCH   2   3
ENDBRANCH   1   2
BRANCH   1  25
ATOM     25  C   UNL A   1      34.413  33.278  28.083  1.00  0.00     0.188 C 
BRANCH  25  26
ATOM     26  O   UNL A   1      33.428  33.857  28.914  1.00  0.00    -0.376 OA
BRANCH  26  27
ATOM     27  C   UNL A   1      33.776  34.542  30.097  1.00  0.00     0.202 C 
BRANCH  27  28
ATOM     28  C   UNL A   1      34.941  34.033  30.941  1.00  0.00     0.261 C 
BRANCH  28  29
ATOM     29  O   UNL A   1      34.803  32.670  31.346  1.00  0.00    -0.460 OA
BRANCH  29  30
ATOM     30  C   UNL A   1      35.668  32.279  32.310  1.00  0.00     0.338 C 
ATOM     31  O   UNL A   1      35.548  32.387  33.521  1.00  0.00    -0.246 OA
BRANCH  30  32
ATOM     32  C   UNL A   1      36.755  31.528  31.669  1.00  0.00     0.060 A 
ATOM     33  C   UNL A   1      37.779  31.020  32.478  1.00  0.00     0.016 A 
ATOM     34  C   UNL A   1      36.768  31.341  30.286  1.00  0.00     0.016 A 
ATOM     35  C   UNL A   1      38.827  30.311  31.903  1.00  0.00     0.010 A 
ATOM     36  C   UNL A   1      37.838  30.662  29.706  1.00  0.00     0.010 A 
ATOM     37  C   UNL A   1      38.878  30.165  30.511  1.00  0.00    -0.014 A 
BRANCH  37  38
ATOM     38  C   UNL A   1      40.113  29.657  29.882  1.00  0.00     0.031 A 
ATOM     39  C   UNL A   1      41.262  30.605  29.708  1.00  0.00     0.074 A 
ATOM     40  C   UNL A   1      40.208  28.376  29.488  1.00  0.00     0.049 A 
ATOM     41  N   UNL A   1      42.414  30.414  29.123  1.00  0.00    -0.248 NA
ATOM     42  C   UNL A   1      41.082  31.955  30.268  1.00  0.00     0.031 C 
ATOM     43  C   UNL A   1      39.174  27.358  29.656  1.00  0.00     0.029 A 
ATOM     44  N   UNL A   1      41.232  27.721  28.853  1.00  0.00    -0.354 N 
ATOM     45  C   UNL A   1      43.094  31.620  29.238  1.00  0.00     0.074 A 
ATOM     46  C   UNL A   1      42.216  32.544  29.919  1.00  0.00     0.031 C 
ATOM     47  C   UNL A   1      39.609  26.205  29.120  1.00  0.00     0.029 A 
ATOM     48  C   UNL A   1      40.934  26.418  28.540  1.00  0.00     0.049 A 
ATOM     49  H   UNL A   1      42.095  28.143  28.643  1.00  0.00     0.167 HD
ATOM     50  C   UNL A   1      44.343  31.924  28.813  1.00  0.00     0.037 A 
ATOM     51  C   UNL A   1      41.644  25.516  27.837  1.00  0.00     0.037 A 
ATOM     52  C   UNL A   1      45.203  30.999  28.126  1.00  0.00     0.049 A 
ATOM     53  C   UNL A   1      42.997  25.906  27.299  1.00  0.00     0.074 A 
ATOM     54  C   UNL A   1      46.491  31.201  27.663  1.00  0.00     0.029 A 
ATOM     55  N   UNL A   1      44.856  29.697  27.794  1.00  0.00    -0.354 N 
ATOM     56  N   UNL A   1      43.644  27.040  27.424  1.00  0.00    -0.248 NA
ATOM     57  C   UNL A   1      43.718  24.887  26.523  1.00  0.00     0.031 C 
ATOM     58  C   UNL A   1      46.900  30.041  26.997  1.00  0.00     0.029 A 
ATOM     59  C   UNL A   1      45.894  29.094  27.103  1.00  0.00     0.049 A 
ATOM     60  H   UNL A   1      44.000  29.266  28.016  1.00  0.00     0.167 HD
ATOM     61  C   UNL A   1      44.858  26.862  26.772  1.00  0.00     0.074 A 
ATOM     62  C   UNL A   1      44.861  25.506  26.263  1.00  0.00     0.031 C 
ATOM     63  C   UNL A   1      45.880  27.739  26.608  1.00  0.00     0.037 A 
BRANCH  50  64
ATOM     64  C   UNL A   1      44.828  33.325  29.047  1.00  0.00     0.057 A 
ATOM     65  C   UNL A   1      44.582  34.360  28.135  1.00  0.00     0.134 A 
ATOM     66  C   UNL A   1      45.539  33.645  30.210  1.00  0.00     0.134 A 
ATOM     67  F   UNL A   1      43.924  34.117  26.991  1.00  0.00    -0.206 F 
ATOM     68  C   UNL A   1      45.050  35.656  28.360  1.00  0.00     0.040 A 
ATOM     69  C   UNL A   1      45.984  34.942  30.460  1.00  0.00     0.040 A 
ATOM     70  F   UNL A   1      45.808  32.700  31.125  1.00  0.00    -0.206 F 
ATOM     71  C   UNL A   1      45.746  35.952  29.530  1.00  0.00     0.006 A 
ENDBRANCH  50  64
BRANCH  51  72
ATOM     72  C   UNL A   1      41.087  24.164  27.582  1.00  0.00     0.057 A 
ATOM     73  C   UNL A   1      41.574  23.039  28.257  1.00  0.00     0.134 A 
ATOM     74  C   UNL A   1      40.069  23.960  26.642  1.00  0.00     0.134 A 
ATOM     75  F   UNL A   1      42.565  23.164  29.153  1.00  0.00    -0.206 F 
ATOM     76  C   UNL A   1      41.084  21.758  27.994  1.00  0.00     0.040 A 
ATOM     77  C   UNL A   1      39.550  22.689  26.389  1.00  0.00     0.040 A 
ATOM     78  F   UNL A   1      39.558  24.995  25.961  1.00  0.00    -0.206 F 
ATOM     79  C   UNL A   1      40.064  21.581  27.060  1.00  0.00     0.006 A 
ENDBRANCH  51  72
BRANCH  63  80
ATOM     80  C   UNL A   1      47.102  27.248  25.887  1.00  0.00     0.057 A 
ATOM     81  C   UNL A   1      47.291  27.457  24.515  1.00  0.00     0.134 A 
ATOM     82  C   UNL A   1      48.123  26.590  26.586  1.00  0.00     0.134 A 
ATOM     83  F   UNL A   1      46.348  28.070  23.784  1.00  0.00    -0.206 F 
ATOM     84  C   UNL A   1      48.439  27.007  23.860  1.00  0.00     0.040 A 
ATOM     85  C   UNL A   1      49.289  26.164  25.948  1.00  0.00     0.040 A 
ATOM     86  F   UNL A   1      48.014  26.367  27.904  1.00  0.00    -0.206 F 
ATOM     87  C   UNL A   1      49.446  26.366  24.579  1.00  0.00     0.006 A 
ENDBRANCH  63  80
ENDBRANCH  37  38
ENDBRANCH  30  32
ENDBRANCH  29  30
ENDBRANCH  28  29
ENDBRANCH  27  28
ENDBRANCH  26  27
ENDBRANCH  25  26
ENDBRANCH   1  25
TORSDOF 20
ENDMDL
MODEL 3
REMARK VINA RESULT:     -10.0      4.840      9.706
REMARK SMILES [NH3+][C@H](c1cc(F)c(F)cc1C(=O)OCCOCCOCCOC(=O)c1ccc(-c2c3nc(c(-c4c(F)cccc4F)c4ccc([nH]4)c(-c4c(F)cccc4F)c4nc(c(-c5c(F)cccc5F)c5ccc2[nH]5)C=C4)C=C3)cc1)C(F)(F)F
REMARK SMILES IDX 17 1 16 2 15 3 14 4 13 5 11 6 12 7 10 8 3 9 4 10 5 11 9 12
REMARK SMILES IDX 6 13 7 14 8 15 2 16 1 17 79 21 80 22 81 23 82 24 18 25 19 26
REMARK SMILES IDX 20 27 21 28 22 29 23 30 24 31 25 32 26 33 78 34 27 35 77 36
REMARK SMILES IDX 28 37 29 38 30 39 71 40 31 41 76 42 70 43 72 44 32 45 75 46
REMARK SMILES IDX 69 47 68 48 33 50 59 51 42 52 58 53 43 54 46 55 57 56 73 57
REMARK SMILES IDX 44 58 45 59 56 61 74 62 47 63 34 64 35 65 40 66 36 67 37 68
REMARK SMILES IDX 39 69 41 70 38 71 60 72 61 73 66 74 62 75 63 76 65 77 67 78
REMARK SMILES IDX 64 79 48 80 49 81 54 82 50 83 51 84 53 85 55 86 52 87
REMARK H PARENT 1 18 1 19 1 20 72 49 46 60
REMARK Flexibility Score: inf
ROOT
ATOM      1  C   UNL A   1      40.434  21.885  27.286  1.00  0.00     0.188 C 
ENDROOT
BRANCH   1   2
ATOM      2  O   UNL A   1      39.353  22.657  26.805  1.00  0.00    -0.376 OA
BRANCH   2   3
ATOM      3  C   UNL A   1      38.459  22.129  25.830  1.00  0.00     0.202 C 
BRANCH   3   4
ATOM      4  C   UNL A   1      37.406  23.040  25.202  1.00  0.00     0.261 C 
BRANCH   4   5
ATOM      5  O   UNL A   1      36.315  22.271  24.671  1.00  0.00    -0.460 OA
BRANCH   5   6
ATOM      6  C   UNL A   1      35.234  22.156  25.464  1.00  0.00     0.338 C 
ATOM      7  O   UNL A   1      34.945  22.868  26.410  1.00  0.00    -0.246 OA
BRANCH   6   8
ATOM      8  C   UNL A   1      34.289  21.178  24.870  1.00  0.00     0.072 A 
ATOM      9  C   UNL A   1      33.059  21.477  24.227  1.00  0.00     0.036 A 
ATOM     10  C   UNL A   1      32.338  20.377  23.695  1.00  0.00     0.053 A 
ATOM     11  C   UNL A   1      32.815  19.069  23.793  1.00  0.00     0.159 A 
ATOM     12  C   UNL A   1      34.730  19.842  25.000  1.00  0.00     0.058 A 
ATOM     13  F   UNL A   1      32.122  18.073  23.224  1.00  0.00    -0.204 F 
ATOM     14  C   UNL A   1      33.994  18.801  24.461  1.00  0.00     0.159 A 
ATOM     15  F   UNL A   1      34.437  17.544  24.590  1.00  0.00    -0.204 F 
BRANCH   9  16
ATOM     16  C   UNL A   1      32.504  22.905  24.043  1.00  0.00     0.319 C 
BRANCH  16  17
ATOM     17  N   UNL A   1      32.280  23.553  25.375  1.00  0.00    -0.344 N 
ATOM     18  H   UNL A   1      33.171  23.646  25.861  1.00  0.00     0.345 HD
ATOM     19  H   UNL A   1      31.648  22.977  25.931  1.00  0.00     0.345 HD
ATOM     20  H   UNL A   1      31.869  24.476  25.238  1.00  0.00     0.345 HD
ENDBRANCH  16  17
BRANCH  16  21
ATOM     21  C   UNL A   1      33.357  23.827  23.095  1.00  0.00     0.445 C 
ATOM     22  F   UNL A   1      34.221  23.134  22.334  1.00  0.00    -0.165 F 
ATOM     23  F   UNL A   1      32.557  24.503  22.230  1.00  0.00    -0.165 F 
ATOM     24  F   UNL A   1      34.036  24.755  23.806  1.00  0.00    -0.165 F 
ENDBRANCH  16  21
ENDBRANCH   9  16
ENDBRANCH   6   8
ENDBRANCH   5   6
ENDBRANCH   4   5
ENDBRANCH   3   4
ENDBRANCH   2   3
ENDBRANCH   1   2
BRANCH   1  25
ATOM     25  C   UNL A   1      41.540  21.353  26.351  1.00  0.00     0.188 C 
BRANCH  25  26
ATOM     26  O   UNL A   1      42.910  21.679  26.463  1.00  0.00    -0.376 OA
BRANCH  26  27
ATOM     27  C   UNL A   1      43.792  21.529  25.372  1.00  0.00     0.202 C 
BRANCH  27  28
ATOM     28  C   UNL A   1      44.151  22.749  24.528  1.00  0.00     0.261 C 
BRANCH  28  29
ATOM     29  O   UNL A   1      43.404  23.919  24.865  1.00  0.00    -0.460 OA
BRANCH  29  30
ATOM     30  C   UNL A   1      44.158  24.997  25.180  1.00  0.00     0.338 C 
ATOM     31  O   UNL A   1      45.169  25.399  24.625  1.00  0.00    -0.246 OA
BRANCH  30  32
ATOM     32  C   UNL A   1      43.468  25.742  26.240  1.00  0.00     0.060 A 
ATOM     33  C   UNL A   1      43.879  27.053  26.508  1.00  0.00     0.016 A 
ATOM     34  C   UNL A   1      42.436  25.147  26.969  1.00  0.00     0.016 A 
ATOM     35  C   UNL A   1      43.253  27.783  27.510  1.00  0.00     0.010 A 
ATOM     36  C   UNL A   1      41.833  25.867  27.998  1.00  0.00     0.010 A 
ATOM     37  C   UNL A   1      42.254  27.177  28.283  1.00  0.00    -0.014 A 
BRANCH  37  38
ATOM     38  C   UNL A   1      41.782  27.849  29.510  1.00  0.00     0.031 A 
ATOM     39  C   UNL A   1      40.560  28.713  29.420  1.00  0.00     0.074 A 
ATOM     40  C   UNL A   1      42.423  27.679  30.678  1.00  0.00     0.049 A 
ATOM     41  N   UNL A   1      40.000  29.457  30.337  1.00  0.00    -0.248 NA
ATOM     42  C   UNL A   1      39.880  28.746  28.114  1.00  0.00     0.031 C 
ATOM     43  C   UNL A   1      43.587  26.821  30.888  1.00  0.00     0.029 A 
ATOM     44  N   UNL A   1      42.183  28.235  31.907  1.00  0.00    -0.354 N 
ATOM     45  C   UNL A   1      38.908  30.051  29.718  1.00  0.00     0.074 A 
ATOM     46  C   UNL A   1      38.900  29.607  28.342  1.00  0.00     0.031 C 
ATOM     47  C   UNL A   1      43.974  26.922  32.172  1.00  0.00     0.029 A 
ATOM     48  C   UNL A   1      43.106  27.878  32.858  1.00  0.00     0.049 A 
ATOM     49  H   UNL A   1      41.422  28.832  32.091  1.00  0.00     0.167 HD
ATOM     50  C   UNL A   1      37.992  30.891  30.255  1.00  0.00     0.037 A 
ATOM     51  C   UNL A   1      43.246  28.303  34.128  1.00  0.00     0.037 A 
ATOM     52  C   UNL A   1      38.016  31.334  31.623  1.00  0.00     0.049 A 
ATOM     53  C   UNL A   1      42.264  29.305  34.677  1.00  0.00     0.074 A 
ATOM     54  C   UNL A   1      37.130  32.175  32.272  1.00  0.00     0.029 A 
ATOM     55  N   UNL A   1      38.986  30.979  32.550  1.00  0.00    -0.354 N 
ATOM     56  N   UNL A   1      41.222  29.851  34.096  1.00  0.00    -0.248 NA
ATOM     57  C   UNL A   1      42.477  29.749  36.062  1.00  0.00     0.031 C 
ATOM     58  C   UNL A   1      37.597  32.377  33.575  1.00  0.00     0.029 A 
ATOM     59  C   UNL A   1      38.737  31.610  33.757  1.00  0.00     0.049 A 
ATOM     60  H   UNL A   1      39.739  30.370  32.375  1.00  0.00     0.167 HD
ATOM     61  C   UNL A   1      40.639  30.676  35.051  1.00  0.00     0.074 A 
ATOM     62  C   UNL A   1      41.437  30.548  36.253  1.00  0.00     0.031 C 
ATOM     63  C   UNL A   1      39.542  31.467  34.946  1.00  0.00     0.037 A 
BRANCH  50  64
ATOM     64  C   UNL A   1      36.916  31.409  29.346  1.00  0.00     0.057 A 
ATOM     65  C   UNL A   1      36.938  32.714  28.835  1.00  0.00     0.134 A 
ATOM     66  C   UNL A   1      35.850  30.585  28.966  1.00  0.00     0.134 A 
ATOM     67  F   UNL A   1      37.920  33.562  29.177  1.00  0.00    -0.206 F 
ATOM     68  C   UNL A   1      35.924  33.187  28.000  1.00  0.00     0.040 A 
ATOM     69  C   UNL A   1      34.848  31.037  28.108  1.00  0.00     0.040 A 
ATOM     70  F   UNL A   1      35.768  29.324  29.419  1.00  0.00    -0.206 F 
ATOM     71  C   UNL A   1      34.879  32.344  27.627  1.00  0.00     0.006 A 
ENDBRANCH  50  64
BRANCH  51  72
ATOM     72  C   UNL A   1      44.367  27.803  34.962  1.00  0.00     0.057 A 
ATOM     73  C   UNL A   1      45.618  28.432  34.950  1.00  0.00     0.134 A 
ATOM     74  C   UNL A   1      44.223  26.672  35.776  1.00  0.00     0.134 A 
ATOM     75  F   UNL A   1      45.827  29.505  34.174  1.00  0.00    -0.206 F 
ATOM     76  C   UNL A   1      46.690  27.944  35.701  1.00  0.00     0.040 A 
ATOM     77  C   UNL A   1      45.277  26.190  36.553  1.00  0.00     0.040 A 
ATOM     78  F   UNL A   1      43.051  26.023  35.833  1.00  0.00    -0.206 F 
ATOM     79  C   UNL A   1      46.519  26.822  36.510  1.00  0.00     0.006 A 
ENDBRANCH  51  72
BRANCH  63  80
ATOM     80  C   UNL A   1      39.115  32.221  36.172  1.00  0.00     0.057 A 
ATOM     81  C   UNL A   1      39.549  33.528  36.429  1.00  0.00     0.134 A 
ATOM     82  C   UNL A   1      38.225  31.645  37.088  1.00  0.00     0.134 A 
ATOM     83  F   UNL A   1      40.410  34.136  35.600  1.00  0.00    -0.206 F 
ATOM     84  C   UNL A   1      39.133  34.224  37.567  1.00  0.00     0.040 A 
ATOM     85  C   UNL A   1      37.778  32.341  38.211  1.00  0.00     0.040 A 
ATOM     86  F   UNL A   1      37.761  30.401  36.896  1.00  0.00    -0.206 F 
ATOM     87  C   UNL A   1      38.238  33.632  38.457  1.00  0.00     0.006 A 
ENDBRANCH  63  80
ENDBRANCH  37  38
ENDBRANCH  30  32
ENDBRANCH  29  30
ENDBRANCH  28  29
ENDBRANCH  27  28
ENDBRANCH  26  27
ENDBRANCH  25  26
ENDBRANCH   1  25
TORSDOF 20
ENDMDL
