MODEL 1
REMARK VINA RESULT:     -12.2      0.000      0.000
REMARK SMILES O=C(OCCOCCOCCOC(=O)c1ccc(-c2c3nc(c(-c4c(F)cccc4F)c4ccc([nH]4)c(-c4c(F)cccc4F)c4nc(c(-c5c(F)cccc5F)c5ccc2[nH]5)C=C4)C=C3)cc1)C1=Cc2cc(Cl)cc(Cl)c2O[C@@H]1C(F)(F)F
REMARK SMILES IDX 8 1 7 2 6 3 5 4 4 5 3 6 2 7 1 8 69 9 70 10 80 11 71 12 79 13
REMARK SMILES IDX 72 14 78 15 73 16 76 17 74 18 75 19 77 20 81 21 82 22 83 23
REMARK SMILES IDX 84 24 9 25 10 26 11 27 12 28 13 29 14 30 15 31 16 32 68 33
REMARK SMILES IDX 17 34 67 35 18 36 19 37 20 38 61 39 21 40 66 41 60 42 62 43
REMARK SMILES IDX 22 44 65 45 59 46 58 47 23 49 49 50 32 51 48 52 33 53 36 54
REMARK SMILES IDX 47 55 63 56 34 57 35 58 46 60 64 61 37 62 24 63 25 64 30 65
REMARK SMILES IDX 26 66 27 67 29 68 31 69 28 70 50 71 51 72 56 73 52 74 53 75
REMARK SMILES IDX 55 76 57 77 54 78 38 79 39 80 44 81 40 82 41 83 43 84 45 85
REMARK SMILES IDX 42 86
REMARK H PARENT 62 48 36 59
REMARK Flexibility Score: inf
ROOT
ATOM      1  C   UNL A   1      33.318  35.569  30.765  1.00  0.00     0.188 C 
ENDROOT
BRANCH   1   2
ATOM      2  C   UNL A   1      33.826  34.817  29.523  1.00  0.00     0.188 C 
BRANCH   2   3
ATOM      3  O   UNL A   1      33.547  33.377  29.292  1.00  0.00    -0.376 OA
BRANCH   3   4
ATOM      4  C   UNL A   1      34.165  32.358  28.061  1.00  0.00     0.202 C 
BRANCH   4   5
ATOM      5  C   UNL A   1      32.997  30.920  26.924  1.00  0.00     0.261 C 
BRANCH   5   6
ATOM      6  O   UNL A   1      33.491  29.585  26.383  1.00  0.00    -0.460 OA
BRANCH   6   7
ATOM      7  C   UNL A   1      32.751  28.562  26.832  1.00  0.00     0.338 C 
ATOM      8  O   UNL A   1      32.502  28.267  27.975  1.00  0.00    -0.246 OA
BRANCH   7   9
ATOM      9  C   UNL A   1      32.869  27.733  25.642  1.00  0.00     0.087 C 
ATOM     10  C   UNL A   1      33.847  26.651  25.691  1.00  0.00     0.027 C 
ATOM     11  C   UNL A   1      30.970  27.490  25.511  1.00  0.00     0.316 C 
ATOM     12  C   UNL A   1      33.423  24.922  25.949  1.00  0.00     0.020 A 
ATOM     13  O   UNL A   1      30.474  25.660  25.971  1.00  0.00    -0.474 OA
ATOM     14  C   UNL A   1      34.425  23.993  26.025  1.00  0.00     0.032 A 
ATOM     15  C   UNL A   1      31.786  24.394  26.163  1.00  0.00     0.146 A 
ATOM     16  C   UNL A   1      33.994  22.672  26.238  1.00  0.00     0.043 A 
ATOM     17  C   UNL A   1      31.474  23.085  26.417  1.00  0.00     0.085 A 
ATOM     18  Cl  UNL A   1      35.231  21.456  26.290  1.00  0.00    -0.084 Cl
ATOM     19  C   UNL A   1      32.613  22.242  26.425  1.00  0.00     0.045 A 
ATOM     20  Cl  UNL A   1      29.933  22.476  26.782  1.00  0.00    -0.080 Cl
BRANCH  11  21
ATOM     21  C   UNL A   1      30.868  28.356  24.069  1.00  0.00     0.430 C 
ATOM     22  F   UNL A   1      31.190  29.650  24.008  1.00  0.00    -0.167 F 
ATOM     23  F   UNL A   1      31.592  27.723  23.113  1.00  0.00    -0.167 F 
ATOM     24  F   UNL A   1      29.582  28.349  23.589  1.00  0.00    -0.167 F 
ENDBRANCH  11  21
ENDBRANCH   7   9
ENDBRANCH   6   7
ENDBRANCH   5   6
ENDBRANCH   4   5
ENDBRANCH   3   4
ENDBRANCH   2   3
ENDBRANCH   1   2
BRANCH   1  25
ATOM     25  O   UNL A   1      32.898  34.850  31.894  1.00  0.00    -0.376 OA
BRANCH  25  26
ATOM     26  C   UNL A   1      33.890  34.568  32.869  1.00  0.00     0.202 C 
BRANCH  26  27
ATOM     27  C   UNL A   1      34.349  33.113  33.023  1.00  0.00     0.261 C 
BRANCH  27  28
ATOM     28  O   UNL A   1      35.221  32.662  31.968  1.00  0.00    -0.460 OA
BRANCH  28  29
ATOM     29  C   UNL A   1      36.375  33.345  31.773  1.00  0.00     0.338 C 
ATOM     30  O   UNL A   1      36.596  34.522  31.996  1.00  0.00    -0.246 OA
BRANCH  29  31
ATOM     31  C   UNL A   1      37.405  32.394  31.321  1.00  0.00     0.060 A 
ATOM     32  C   UNL A   1      38.208  31.717  32.254  1.00  0.00     0.016 A 
ATOM     33  C   UNL A   1      37.587  32.204  29.953  1.00  0.00     0.016 A 
ATOM     34  C   UNL A   1      39.177  30.811  31.814  1.00  0.00     0.010 A 
ATOM     35  C   UNL A   1      38.586  31.341  29.514  1.00  0.00     0.010 A 
ATOM     36  C   UNL A   1      39.394  30.655  30.439  1.00  0.00    -0.014 A 
BRANCH  36  37
ATOM     37  C   UNL A   1      40.626  30.015  29.932  1.00  0.00     0.031 A 
ATOM     38  C   UNL A   1      41.805  30.907  29.684  1.00  0.00     0.074 A 
ATOM     39  C   UNL A   1      40.661  28.717  29.589  1.00  0.00     0.049 A 
ATOM     40  N   UNL A   1      42.922  30.661  29.055  1.00  0.00    -0.248 NA
ATOM     41  C   UNL A   1      41.684  32.283  30.194  1.00  0.00     0.031 C 
ATOM     42  C   UNL A   1      39.586  27.756  29.806  1.00  0.00     0.029 A 
ATOM     43  N   UNL A   1      41.637  28.001  28.940  1.00  0.00    -0.354 N 
ATOM     44  C   UNL A   1      43.627  31.857  29.072  1.00  0.00     0.074 A 
ATOM     45  C   UNL A   1      42.800  32.833  29.746  1.00  0.00     0.031 C 
ATOM     46  C   UNL A   1      39.945  26.579  29.263  1.00  0.00     0.029 A 
ATOM     47  C   UNL A   1      41.252  26.722  28.622  1.00  0.00     0.049 A 
ATOM     48  H   UNL A   1      42.524  28.369  28.725  1.00  0.00     0.167 HD
ATOM     49  C   UNL A   1      44.852  32.120  28.560  1.00  0.00     0.037 A 
ATOM     50  C   UNL A   1      41.868  25.796  27.860  1.00  0.00     0.037 A 
ATOM     51  C   UNL A   1      45.641  31.149  27.853  1.00  0.00     0.049 A 
ATOM     52  C   UNL A   1      43.203  26.121  27.238  1.00  0.00     0.074 A 
ATOM     53  C   UNL A   1      46.904  31.294  27.313  1.00  0.00     0.029 A 
ATOM     54  N   UNL A   1      45.223  29.857  27.562  1.00  0.00    -0.354 N 
ATOM     55  N   UNL A   1      43.889  27.239  27.288  1.00  0.00    -0.248 NA
ATOM     56  C   UNL A   1      43.850  25.060  26.452  1.00  0.00     0.031 C 
ATOM     57  C   UNL A   1      47.216  30.121  26.621  1.00  0.00     0.029 A 
ATOM     58  C   UNL A   1      46.189  29.207  26.813  1.00  0.00     0.049 A 
ATOM     59  H   UNL A   1      44.368  29.461  27.846  1.00  0.00     0.167 HD
ATOM     60  C   UNL A   1      45.060  27.007  26.576  1.00  0.00     0.074 A 
ATOM     61  C   UNL A   1      44.990  25.640  26.098  1.00  0.00     0.031 C 
ATOM     62  C   UNL A   1      46.104  27.843  26.349  1.00  0.00     0.037 A 
BRANCH  49  63
ATOM     63  C   UNL A   1      45.356  33.529  28.690  1.00  0.00     0.057 A 
ATOM     64  C   UNL A   1      46.121  33.955  29.785  1.00  0.00     0.134 A 
ATOM     65  C   UNL A   1      45.033  34.488  27.721  1.00  0.00     0.134 A 
ATOM     66  F   UNL A   1      46.455  33.094  30.760  1.00  0.00    -0.206 F 
ATOM     67  C   UNL A   1      46.494  35.291  29.941  1.00  0.00     0.040 A 
ATOM     68  C   UNL A   1      45.437  35.818  27.845  1.00  0.00     0.040 A 
ATOM     69  F   UNL A   1      44.308  34.154  26.643  1.00  0.00    -0.206 F 
ATOM     70  C   UNL A   1      46.154  36.227  28.967  1.00  0.00     0.006 A 
ENDBRANCH  49  63
BRANCH  50  71
ATOM     71  C   UNL A   1      41.212  24.483  27.633  1.00  0.00     0.057 A 
ATOM     72  C   UNL A   1      40.172  24.338  26.709  1.00  0.00     0.134 A 
ATOM     73  C   UNL A   1      41.631  23.332  28.315  1.00  0.00     0.134 A 
ATOM     74  F   UNL A   1      39.707  25.406  26.042  1.00  0.00    -0.206 F 
ATOM     75  C   UNL A   1      39.571  23.101  26.470  1.00  0.00     0.040 A 
ATOM     76  C   UNL A   1      41.058  22.084  28.067  1.00  0.00     0.040 A 
ATOM     77  F   UNL A   1      42.621  23.402  29.216  1.00  0.00    -0.206 F 
ATOM     78  C   UNL A   1      40.023  21.966  27.141  1.00  0.00     0.006 A 
ENDBRANCH  50  71
BRANCH  62  79
ATOM     79  C   UNL A   1      47.292  27.301  25.603  1.00  0.00     0.057 A 
ATOM     80  C   UNL A   1      47.472  27.497  24.229  1.00  0.00     0.134 A 
ATOM     81  C   UNL A   1      48.321  26.650  26.301  1.00  0.00     0.134 A 
ATOM     82  F   UNL A   1      46.526  28.107  23.498  1.00  0.00    -0.206 F 
ATOM     83  C   UNL A   1      48.622  27.054  23.573  1.00  0.00     0.040 A 
ATOM     84  C   UNL A   1      49.489  26.233  25.664  1.00  0.00     0.040 A 
ATOM     85  F   UNL A   1      48.220  26.440  27.623  1.00  0.00    -0.206 F 
ATOM     86  C   UNL A   1      49.641  26.432  24.294  1.00  0.00     0.006 A 
ENDBRANCH  62  79
ENDBRANCH  36  37
ENDBRANCH  29  31
ENDBRANCH  28  29
ENDBRANCH  27  28
ENDBRANCH  26  27
ENDBRANCH  25  26
ENDBRANCH   1  25
TORSDOF 18
ENDMDL
MODEL 2
REMARK VINA RESULT:     -12.0      4.441      9.148
REMARK SMILES O=C(OCCOCCOCCOC(=O)c1ccc(-c2c3nc(c(-c4c(F)cccc4F)c4ccc([nH]4)c(-c4c(F)cccc4F)c4nc(c(-c5c(F)cccc5F)c5ccc2[nH]5)C=C4)C=C3)cc1)C1=Cc2cc(Cl)cc(Cl)c2O[C@@H]1C(F)(F)F
REMARK SMILES IDX 8 1 7 2 6 3 5 4 4 5 3 6 2 7 1 8 69 9 70 10 80 11 71 12 79 13
REMARK SMILES IDX 72 14 78 15 73 16 76 17 74 18 75 19 77 20 81 21 82 22 83 23
REMARK SMILES IDX 84 24 9 25 10 26 11 27 12 28 13 29 14 30 15 31 16 32 68 33
REMARK SMILES IDX 17 34 67 35 18 36 19 37 20 38 61 39 21 40 66 41 60 42 62 43
REMARK SMILES IDX 22 44 65 45 59 46 58 47 23 49 49 50 32 51 48 52 33 53 36 54
REMARK SMILES IDX 47 55 63 56 34 57 35 58 46 60 64 61 37 62 24 63 25 64 30 65
REMARK SMILES IDX 26 66 27 67 29 68 31 69 28 70 50 71 51 72 56 73 52 74 53 75
REMARK SMILES IDX 55 76 57 77 54 78 38 79 39 80 44 81 40 82 41 83 43 84 45 85
REMARK SMILES IDX 42 86
REMARK H PARENT 62 48 36 59
REMARK Flexibility Score: inf
ROOT
ATOM      1  C   UNL A   1      41.306  21.545  27.830  1.00  0.00     0.188 C 
ENDROOT
BRANCH   1   2
ATOM      2  C   UNL A   1      40.553  22.113  26.614  1.00  0.00     0.188 C 
BRANCH   2   3
ATOM      3  O   UNL A   1      39.303  21.504  26.093  1.00  0.00    -0.376 OA
BRANCH   3   4
ATOM      4  C   UNL A   1      37.835  22.281  25.673  1.00  0.00     0.202 C 
BRANCH   4   5
ATOM      5  C   UNL A   1      36.908  22.227  23.709  1.00  0.00     0.261 C 
BRANCH   5   6
ATOM      6  O   UNL A   1      36.153  23.366  23.037  1.00  0.00    -0.460 OA
BRANCH   6   7
ATOM      7  C   UNL A   1      34.826  23.217  23.144  1.00  0.00     0.338 C 
ATOM      8  O   UNL A   1      33.986  23.379  22.293  1.00  0.00    -0.246 OA
BRANCH   7   9
ATOM      9  C   UNL A   1      34.755  23.369  24.589  1.00  0.00     0.087 C 
ATOM     10  C   UNL A   1      34.901  24.723  25.113  1.00  0.00     0.027 C 
ATOM     11  C   UNL A   1      33.158  22.311  24.714  1.00  0.00     0.316 C 
ATOM     12  C   UNL A   1      33.528  25.736  25.684  1.00  0.00     0.020 A 
ATOM     13  O   UNL A   1      31.621  23.430  25.150  1.00  0.00    -0.474 OA
ATOM     14  C   UNL A   1      33.772  27.012  26.113  1.00  0.00     0.032 A 
ATOM     15  C   UNL A   1      31.889  25.171  25.655  1.00  0.00     0.146 A 
ATOM     16  C   UNL A   1      32.635  27.726  26.529  1.00  0.00     0.043 A 
ATOM     17  C   UNL A   1      30.842  25.967  26.035  1.00  0.00     0.085 A 
ATOM     18  Cl  UNL A   1      32.909  29.331  27.128  1.00  0.00    -0.084 Cl
ATOM     19  C   UNL A   1      31.260  27.242  26.491  1.00  0.00     0.045 A 
ATOM     20  Cl  UNL A   1      29.195  25.578  25.917  1.00  0.00    -0.080 Cl
BRANCH  11  21
ATOM     21  C   UNL A   1      33.933  21.080  25.564  1.00  0.00     0.430 C 
ATOM     22  F   UNL A   1      34.853  21.345  26.493  1.00  0.00    -0.167 F 
ATOM     23  F   UNL A   1      33.002  20.282  26.144  1.00  0.00    -0.167 F 
ATOM     24  F   UNL A   1      34.611  20.251  24.705  1.00  0.00    -0.167 F 
ENDBRANCH  11  21
ENDBRANCH   7   9
ENDBRANCH   6   7
ENDBRANCH   5   6
ENDBRANCH   4   5
ENDBRANCH   3   4
ENDBRANCH   2   3
ENDBRANCH   1   2
BRANCH   1  25
ATOM     25  O   UNL A   1      42.293  20.566  27.645  1.00  0.00    -0.376 OA
BRANCH  25  26
ATOM     26  C   UNL A   1      41.873  19.353  27.039  1.00  0.00     0.202 C 
BRANCH  26  27
ATOM     27  C   UNL A   1      42.856  18.643  26.101  1.00  0.00     0.261 C 
BRANCH  27  28
ATOM     28  O   UNL A   1      43.085  19.340  24.861  1.00  0.00    -0.460 OA
BRANCH  28  29
ATOM     29  C   UNL A   1      44.369  19.500  24.459  1.00  0.00     0.338 C 
ATOM     30  O   UNL A   1      45.084  18.691  23.895  1.00  0.00    -0.246 OA
BRANCH  29  31
ATOM     31  C   UNL A   1      44.767  20.894  24.724  1.00  0.00     0.060 A 
ATOM     32  C   UNL A   1      45.278  21.261  25.980  1.00  0.00     0.016 A 
ATOM     33  C   UNL A   1      44.598  21.841  23.718  1.00  0.00     0.016 A 
ATOM     34  C   UNL A   1      45.661  22.584  26.217  1.00  0.00     0.010 A 
ATOM     35  C   UNL A   1      44.930  23.168  23.971  1.00  0.00     0.010 A 
ATOM     36  C   UNL A   1      45.447  23.547  25.224  1.00  0.00    -0.014 A 
BRANCH  36  37
ATOM     37  C   UNL A   1      45.478  24.990  25.545  1.00  0.00     0.031 A 
ATOM     38  C   UNL A   1      46.812  25.672  25.490  1.00  0.00     0.074 A 
ATOM     39  C   UNL A   1      44.389  25.642  25.985  1.00  0.00     0.049 A 
ATOM     40  N   UNL A   1      47.164  26.854  25.918  1.00  0.00    -0.248 NA
ATOM     41  C   UNL A   1      47.908  24.888  24.897  1.00  0.00     0.031 C 
ATOM     42  C   UNL A   1      43.042  25.087  26.055  1.00  0.00     0.029 A 
ATOM     43  N   UNL A   1      44.266  26.909  26.499  1.00  0.00    -0.354 N 
ATOM     44  C   UNL A   1      48.527  26.946  25.668  1.00  0.00     0.074 A 
ATOM     45  C   UNL A   1      48.941  25.692  25.080  1.00  0.00     0.031 C 
ATOM     46  C   UNL A   1      42.230  25.998  26.620  1.00  0.00     0.029 A 
ATOM     47  C   UNL A   1      43.013  27.177  26.991  1.00  0.00     0.049 A 
ATOM     48  H   UNL A   1      45.004  27.561  26.512  1.00  0.00     0.167 HD
ATOM     49  C   UNL A   1      49.361  27.982  25.917  1.00  0.00     0.037 A 
ATOM     50  C   UNL A   1      42.568  28.234  27.700  1.00  0.00     0.037 A 
ATOM     51  C   UNL A   1      48.940  29.205  26.545  1.00  0.00     0.049 A 
ATOM     52  C   UNL A   1      43.521  29.354  28.032  1.00  0.00     0.074 A 
ATOM     53  C   UNL A   1      49.690  30.331  26.825  1.00  0.00     0.029 A 
ATOM     54  N   UNL A   1      47.657  29.446  27.019  1.00  0.00    -0.354 N 
ATOM     55  N   UNL A   1      44.801  29.460  27.759  1.00  0.00    -0.248 NA
ATOM     56  C   UNL A   1      42.973  30.501  28.771  1.00  0.00     0.031 C 
ATOM     57  C   UNL A   1      48.885  31.219  27.544  1.00  0.00     0.029 A 
ATOM     58  C   UNL A   1      47.605  30.689  27.626  1.00  0.00     0.049 A 
ATOM     59  H   UNL A   1      46.897  28.826  26.934  1.00  0.00     0.167 HD
ATOM     60  C   UNL A   1      45.202  30.695  28.258  1.00  0.00     0.074 A 
ATOM     61  C   UNL A   1      44.028  31.301  28.855  1.00  0.00     0.031 C 
ATOM     62  C   UNL A   1      46.425  31.278  28.213  1.00  0.00     0.037 A 
BRANCH  49  63
ATOM     63  C   UNL A   1      50.811  27.787  25.576  1.00  0.00     0.057 A 
ATOM     64  C   UNL A   1      51.298  27.917  24.267  1.00  0.00     0.134 A 
ATOM     65  C   UNL A   1      51.729  27.421  26.569  1.00  0.00     0.134 A 
ATOM     66  F   UNL A   1      50.472  28.251  23.263  1.00  0.00    -0.206 F 
ATOM     67  C   UNL A   1      52.627  27.632  23.951  1.00  0.00     0.040 A 
ATOM     68  C   UNL A   1      53.069  27.175  26.271  1.00  0.00     0.040 A 
ATOM     69  F   UNL A   1      51.336  27.282  27.844  1.00  0.00    -0.206 F 
ATOM     70  C   UNL A   1      53.519  27.263  24.956  1.00  0.00     0.006 A 
ENDBRANCH  49  63
BRANCH  50  71
ATOM     71  C   UNL A   1      41.155  28.264  28.157  1.00  0.00     0.057 A 
ATOM     72  C   UNL A   1      40.133  28.750  27.335  1.00  0.00     0.134 A 
ATOM     73  C   UNL A   1      40.788  27.777  29.419  1.00  0.00     0.134 A 
ATOM     74  F   UNL A   1      40.422  29.254  26.126  1.00  0.00    -0.206 F 
ATOM     75  C   UNL A   1      38.799  28.754  27.748  1.00  0.00     0.040 A 
ATOM     76  C   UNL A   1      39.455  27.749  29.835  1.00  0.00     0.040 A 
ATOM     77  F   UNL A   1      41.718  27.298  30.258  1.00  0.00    -0.206 F 
ATOM     78  C   UNL A   1      38.456  28.240  28.997  1.00  0.00     0.006 A 
ENDBRANCH  50  71
BRANCH  62  79
ATOM     79  C   UNL A   1      46.563  32.670  28.767  1.00  0.00     0.057 A 
ATOM     80  C   UNL A   1      46.954  32.919  30.088  1.00  0.00     0.134 A 
ATOM     81  C   UNL A   1      46.388  33.780  27.926  1.00  0.00     0.134 A 
ATOM     82  F   UNL A   1      47.133  31.905  30.948  1.00  0.00    -0.206 F 
ATOM     83  C   UNL A   1      47.153  34.219  30.556  1.00  0.00     0.040 A 
ATOM     84  C   UNL A   1      46.616  35.081  28.373  1.00  0.00     0.040 A 
ATOM     85  F   UNL A   1      46.026  33.613  26.645  1.00  0.00    -0.206 F 
ATOM     86  C   UNL A   1      46.997  35.304  29.694  1.00  0.00     0.006 A 
ENDBRANCH  62  79
ENDBRANCH  36  37
ENDBRANCH  29  31
ENDBRANCH  28  29
ENDBRANCH  27  28
ENDBRANCH  26  27
ENDBRANCH  25  26
ENDBRANCH   1  25
TORSDOF 18
ENDMDL
MODEL 3
REMARK VINA RESULT:     -11.9      5.479     10.518
REMARK SMILES O=C(OCCOCCOCCOC(=O)c1ccc(-c2c3nc(c(-c4c(F)cccc4F)c4ccc([nH]4)c(-c4c(F)cccc4F)c4nc(c(-c5c(F)cccc5F)c5ccc2[nH]5)C=C4)C=C3)cc1)C1=Cc2cc(Cl)cc(Cl)c2O[C@@H]1C(F)(F)F
REMARK SMILES IDX 8 1 7 2 6 3 5 4 4 5 3 6 2 7 1 8 69 9 70 10 80 11 71 12 79 13
REMARK SMILES IDX 72 14 78 15 73 16 76 17 74 18 75 19 77 20 81 21 82 22 83 23
REMARK SMILES IDX 84 24 9 25 10 26 11 27 12 28 13 29 14 30 15 31 16 32 68 33
REMARK SMILES IDX 17 34 67 35 18 36 19 37 20 38 61 39 21 40 66 41 60 42 62 43
REMARK SMILES IDX 22 44 65 45 59 46 58 47 23 49 49 50 32 51 48 52 33 53 36 54
REMARK SMILES IDX 47 55 63 56 34 57 35 58 46 60 64 61 37 62 24 63 25 64 30 65
REMARK SMILES IDX 26 66 27 67 29 68 31 69 28 70 50 71 51 72 56 73 52 74 53 75
REMARK SMILES IDX 55 76 57 77 54 78 38 79 39 80 44 81 40 82 41 83 43 84 45 85
REMARK SMILES IDX 42 86
REMARK H PARENT 62 48 36 59
REMARK Flexibility Score: inf
ROOT
ATOM      1  C   UNL A   1      44.091  19.890  25.122  1.00  0.00     0.188 C 
ENDROOT
BRANCH   1   2
ATOM      2  C   UNL A   1      42.832  19.269  25.751  1.00  0.00     0.188 C 
BRANCH   2   3
ATOM      3  O   UNL A   1      41.742  20.091  26.335  1.00  0.00    -0.376 OA
BRANCH   3   4
ATOM      4  C   UNL A   1      40.070  20.063  25.960  1.00  0.00     0.202 C 
BRANCH   4   5
ATOM      5  C   UNL A   1      38.786  21.812  25.840  1.00  0.00     0.261 C 
BRANCH   5   6
ATOM      6  O   UNL A   1      37.272  21.831  26.006  1.00  0.00    -0.460 OA
BRANCH   6   7
ATOM      7  C   UNL A   1      36.644  21.952  24.829  1.00  0.00     0.338 C 
ATOM      8  O   UNL A   1      37.129  22.141  23.740  1.00  0.00    -0.246 OA
BRANCH   7   9
ATOM      9  C   UNL A   1      35.345  22.327  25.368  1.00  0.00     0.087 C 
ATOM     10  C   UNL A   1      35.202  23.703  25.834  1.00  0.00     0.027 C 
ATOM     11  C   UNL A   1      34.404  21.572  23.875  1.00  0.00     0.316 C 
ATOM     12  C   UNL A   1      34.363  24.997  24.908  1.00  0.00     0.020 A 
ATOM     13  O   UNL A   1      33.644  22.976  22.755  1.00  0.00    -0.474 OA
ATOM     14  C   UNL A   1      34.328  26.266  25.418  1.00  0.00     0.032 A 
ATOM     15  C   UNL A   1      33.644  24.707  23.358  1.00  0.00     0.146 A 
ATOM     16  C   UNL A   1      33.659  27.209  24.617  1.00  0.00     0.043 A 
ATOM     17  C   UNL A   1      33.058  25.709  22.632  1.00  0.00     0.085 A 
ATOM     18  Cl  UNL A   1      33.547  28.820  25.252  1.00  0.00    -0.084 Cl
ATOM     19  C   UNL A   1      33.065  26.953  23.310  1.00  0.00     0.045 A 
ATOM     20  Cl  UNL A   1      32.451  25.577  21.053  1.00  0.00    -0.080 Cl
BRANCH  11  21
ATOM     21  C   UNL A   1      33.690  20.372  24.818  1.00  0.00     0.430 C 
ATOM     22  F   UNL A   1      33.494  20.537  26.127  1.00  0.00    -0.167 F 
ATOM     23  F   UNL A   1      32.493  20.032  24.279  1.00  0.00    -0.167 F 
ATOM     24  F   UNL A   1      34.429  19.215  24.774  1.00  0.00    -0.167 F 
ENDBRANCH  11  21
ENDBRANCH   7   9
ENDBRANCH   6   7
ENDBRANCH   5   6
ENDBRANCH   4   5
ENDBRANCH   3   4
ENDBRANCH   2   3
ENDBRANCH   1   2
BRANCH   1  25
ATOM     25  O   UNL A   1      44.710  20.987  25.737  1.00  0.00    -0.376 OA
BRANCH  25  26
ATOM     26  C   UNL A   1      45.521  21.803  24.904  1.00  0.00     0.202 C 
BRANCH  26  27
ATOM     27  C   UNL A   1      44.832  22.901  24.086  1.00  0.00     0.261 C 
BRANCH  27  28
ATOM     28  O   UNL A   1      44.262  23.954  24.887  1.00  0.00    -0.460 OA
BRANCH  28  29
ATOM     29  C   UNL A   1      43.012  23.766  25.374  1.00  0.00     0.338 C 
ATOM     30  O   UNL A   1      42.175  22.964  25.000  1.00  0.00    -0.246 OA
BRANCH  29  31
ATOM     31  C   UNL A   1      42.832  24.645  26.543  1.00  0.00     0.060 A 
ATOM     32  C   UNL A   1      41.893  24.325  27.537  1.00  0.00     0.016 A 
ATOM     33  C   UNL A   1      43.588  25.812  26.624  1.00  0.00     0.016 A 
ATOM     34  C   UNL A   1      41.738  25.162  28.645  1.00  0.00     0.010 A 
ATOM     35  C   UNL A   1      43.395  26.672  27.701  1.00  0.00     0.010 A 
ATOM     36  C   UNL A   1      42.461  26.359  28.706  1.00  0.00    -0.014 A 
BRANCH  36  37
ATOM     37  C   UNL A   1      42.070  27.438  29.638  1.00  0.00     0.031 A 
ATOM     38  C   UNL A   1      42.747  27.463  30.975  1.00  0.00     0.074 A 
ATOM     39  C   UNL A   1      41.067  28.287  29.359  1.00  0.00     0.049 A 
ATOM     40  N   UNL A   1      42.457  28.150  32.046  1.00  0.00    -0.248 NA
ATOM     41  C   UNL A   1      43.896  26.554  31.127  1.00  0.00     0.031 C 
ATOM     42  C   UNL A   1      40.357  28.367  28.087  1.00  0.00     0.029 A 
ATOM     43  N   UNL A   1      40.448  29.216  30.158  1.00  0.00    -0.354 N 
ATOM     44  C   UNL A   1      43.371  27.740  33.007  1.00  0.00     0.074 A 
ATOM     45  C   UNL A   1      44.204  26.725  32.402  1.00  0.00     0.031 C 
ATOM     46  C   UNL A   1      39.369  29.272  28.202  1.00  0.00     0.029 A 
ATOM     47  C   UNL A   1      39.352  29.795  29.569  1.00  0.00     0.049 A 
ATOM     48  H   UNL A   1      40.760  29.444  31.063  1.00  0.00     0.167 HD
ATOM     49  C   UNL A   1      43.497  28.164  34.286  1.00  0.00     0.037 A 
ATOM     50  C   UNL A   1      38.419  30.616  30.093  1.00  0.00     0.037 A 
ATOM     51  C   UNL A   1      42.631  29.142  34.885  1.00  0.00     0.049 A 
ATOM     52  C   UNL A   1      38.529  31.032  31.538  1.00  0.00     0.074 A 
ATOM     53  C   UNL A   1      42.678  29.667  36.163  1.00  0.00     0.029 A 
ATOM     54  N   UNL A   1      41.537  29.719  34.252  1.00  0.00    -0.354 N 
ATOM     55  N   UNL A   1      39.418  30.676  32.436  1.00  0.00    -0.248 NA
ATOM     56  C   UNL A   1      37.509  31.960  32.045  1.00  0.00     0.031 C 
ATOM     57  C   UNL A   1      41.565  30.495  36.332  1.00  0.00     0.029 A 
ATOM     58  C   UNL A   1      40.878  30.564  35.128  1.00  0.00     0.049 A 
ATOM     59  H   UNL A   1      41.271  29.551  33.320  1.00  0.00     0.167 HD
ATOM     60  C   UNL A   1      39.088  31.362  33.600  1.00  0.00     0.074 A 
ATOM     61  C   UNL A   1      37.913  32.153  33.295  1.00  0.00     0.031 C 
ATOM     62  C   UNL A   1      39.710  31.348  34.805  1.00  0.00     0.037 A 
BRANCH  49  63
ATOM     63  C   UNL A   1      44.562  27.509  35.120  1.00  0.00     0.057 A 
ATOM     64  C   UNL A   1      45.859  28.031  35.226  1.00  0.00     0.134 A 
ATOM     65  C   UNL A   1      44.294  26.312  35.795  1.00  0.00     0.134 A 
ATOM     66  F   UNL A   1      46.191  29.167  34.593  1.00  0.00    -0.206 F 
ATOM     67  C   UNL A   1      46.864  27.355  35.921  1.00  0.00     0.040 A 
ATOM     68  C   UNL A   1      45.280  25.649  36.528  1.00  0.00     0.040 A 
ATOM     69  F   UNL A   1      43.075  25.755  35.743  1.00  0.00    -0.206 F 
ATOM     70  C   UNL A   1      46.574  26.162  36.578  1.00  0.00     0.006 A 
ENDBRANCH  49  63
BRANCH  50  71
ATOM     71  C   UNL A   1      37.292  31.077  29.243  1.00  0.00     0.057 A 
ATOM     72  C   UNL A   1      36.225  30.229  28.924  1.00  0.00     0.134 A 
ATOM     73  C   UNL A   1      37.238  32.389  28.752  1.00  0.00     0.134 A 
ATOM     74  F   UNL A   1      36.228  28.954  29.341  1.00  0.00    -0.206 F 
ATOM     75  C   UNL A   1      35.148  30.666  28.149  1.00  0.00     0.040 A 
ATOM     76  C   UNL A   1      36.155  32.847  28.000  1.00  0.00     0.040 A 
ATOM     77  F   UNL A   1      38.229  33.252  29.019  1.00  0.00    -0.206 F 
ATOM     78  C   UNL A   1      35.106  31.983  27.696  1.00  0.00     0.006 A 
ENDBRANCH  50  71
BRANCH  62  79
ATOM     79  C   UNL A   1      39.180  32.257  35.881  1.00  0.00     0.057 A 
ATOM     80  C   UNL A   1      38.281  31.819  36.860  1.00  0.00     0.134 A 
ATOM     81  C   UNL A   1      39.659  33.571  35.986  1.00  0.00     0.134 A 
ATOM     82  F   UNL A   1      37.778  30.576  36.817  1.00  0.00    -0.206 F 
ATOM     83  C   UNL A   1      37.866  32.659  37.896  1.00  0.00     0.040 A 
ATOM     84  C   UNL A   1      39.279  34.408  37.035  1.00  0.00     0.040 A 
ATOM     85  F   UNL A   1      40.534  34.051  35.089  1.00  0.00    -0.206 F 
ATOM     86  C   UNL A   1      38.376  33.953  37.993  1.00  0.00     0.006 A 
ENDBRANCH  62  79
ENDBRANCH  36  37
ENDBRANCH  29  31
ENDBRANCH  28  29
ENDBRANCH  27  28
ENDBRANCH  26  27
ENDBRANCH  25  26
ENDBRANCH   1  25
TORSDOF 18
ENDMDL
