MODEL 1
REMARK VINA RESULT:      -9.8      0.000      0.000
REMARK SMILES CN(CC(=O)OCCOCCOCCOC(=O)c1ccc(-c2c3nc(c(-c4c(F)cccc4F)c4ccc([nH]4)c(-c4c(F)cccc4F)c4nc(c(-c5c(F)cccc5F)c5ccc2[nH]5)C=C4)C=C3)cc1)C(=O)N[C@@H]1C[C@H]1c1ccccc1
REMARK SMILES IDX 10 1 9 2 8 3 7 4 6 5 4 6 5 7 3 8 2 9 1 10 72 11 73 12 74 13
REMARK SMILES IDX 75 15 76 16 77 17 78 18 79 19 83 20 80 21 82 22 81 23 11 24
REMARK SMILES IDX 12 25 13 26 14 27 15 28 16 29 17 30 18 31 19 32 71 33 20 34
REMARK SMILES IDX 70 35 21 36 22 37 23 38 64 39 24 40 69 41 63 42 65 43 25 44
REMARK SMILES IDX 68 45 62 46 61 47 26 49 52 50 35 51 51 52 36 53 39 54 50 55
REMARK SMILES IDX 66 56 37 57 38 58 49 60 67 61 40 62 27 63 28 64 33 65 29 66
REMARK SMILES IDX 30 67 32 68 34 69 31 70 53 71 54 72 59 73 55 74 56 75 58 76
REMARK SMILES IDX 60 77 57 78 41 79 42 80 47 81 43 82 44 83 46 84 48 85 45 86
REMARK H PARENT 74 14 65 48 39 59
REMARK Flexibility Score: inf
ROOT
ATOM      1  C   UNL A   1      34.840  31.447  28.385  1.00  0.00     0.188 C 
ENDROOT
BRANCH   1   2
ATOM      2  O   UNL A   1      34.181  30.410  27.678  1.00  0.00    -0.376 OA
BRANCH   2   3
ATOM      3  C   UNL A   1      32.949  30.710  27.035  1.00  0.00     0.202 C 
BRANCH   3   4
ATOM      4  C   UNL A   1      32.403  29.666  26.055  1.00  0.00     0.261 C 
BRANCH   4   5
ATOM      5  O   UNL A   1      33.353  28.612  25.772  1.00  0.00    -0.462 OA
BRANCH   5   6
ATOM      6  C   UNL A   1      33.614  28.410  24.455  1.00  0.00     0.325 C 
ATOM      7  O   UNL A   1      33.645  29.317  23.625  1.00  0.00    -0.250 OA
BRANCH   6   8
ATOM      8  C   UNL A   1      33.818  26.945  24.030  1.00  0.00     0.243 C 
BRANCH   8   9
ATOM      9  N   UNL A   1      32.783  26.100  23.412  1.00  0.00    -0.317 N 
ATOM     10  C   UNL A   1      32.144  25.115  24.278  1.00  0.00     0.149 C 
BRANCH   9  11
ATOM     11  C   UNL A   1      32.250  26.224  22.152  1.00  0.00     0.317 C 
ATOM     12  O   UNL A   1      32.677  25.583  21.187  1.00  0.00    -0.249 OA
ATOM     13  N   UNL A   1      31.229  27.067  21.877  1.00  0.00    -0.335 N 
ATOM     14  H   UNL A   1      30.895  26.984  20.954  1.00  0.00     0.165 HD
BRANCH  13  15
ATOM     15  C   UNL A   1      30.539  28.048  22.635  1.00  0.00     0.092 C 
ATOM     16  C   UNL A   1      29.491  27.638  23.623  1.00  0.00     0.036 C 
ATOM     17  C   UNL A   1      29.089  28.341  22.355  1.00  0.00     0.044 C 
BRANCH  17  18
ATOM     18  C   UNL A   1      28.516  29.747  22.369  1.00  0.00    -0.043 A 
ATOM     19  C   UNL A   1      28.928  30.723  21.447  1.00  0.00     0.004 A 
ATOM     20  C   UNL A   1      27.765  30.197  23.470  1.00  0.00     0.004 A 
ATOM     21  C   UNL A   1      28.690  32.085  21.666  1.00  0.00     0.000 A 
ATOM     22  C   UNL A   1      27.538  31.558  23.707  1.00  0.00     0.000 A 
ATOM     23  C   UNL A   1      28.024  32.504  22.813  1.00  0.00     0.000 A 
ENDBRANCH  17  18
ENDBRANCH  13  15
ENDBRANCH   9  11
ENDBRANCH   8   9
ENDBRANCH   6   8
ENDBRANCH   5   6
ENDBRANCH   4   5
ENDBRANCH   3   4
ENDBRANCH   2   3
ENDBRANCH   1   2
BRANCH   1  24
ATOM     24  C   UNL A   1      34.601  32.916  27.991  1.00  0.00     0.188 C 
BRANCH  24  25
ATOM     25  O   UNL A   1      33.640  33.691  28.686  1.00  0.00    -0.376 OA
BRANCH  25  26
ATOM     26  C   UNL A   1      33.945  35.046  28.944  1.00  0.00     0.202 C 
BRANCH  26  27
ATOM     27  C   UNL A   1      32.852  35.908  29.585  1.00  0.00     0.261 C 
BRANCH  27  28
ATOM     28  O   UNL A   1      33.172  36.454  30.877  1.00  0.00    -0.460 OA
BRANCH  28  29
ATOM     29  C   UNL A   1      32.785  35.707  31.943  1.00  0.00     0.338 C 
ATOM     30  O   UNL A   1      31.646  35.568  32.368  1.00  0.00    -0.246 OA
BRANCH  29  31
ATOM     31  C   UNL A   1      33.945  34.983  32.518  1.00  0.00     0.060 A 
ATOM     32  C   UNL A   1      35.224  35.548  32.405  1.00  0.00     0.016 A 
ATOM     33  C   UNL A   1      33.794  33.727  33.111  1.00  0.00     0.016 A 
ATOM     34  C   UNL A   1      36.347  34.863  32.893  1.00  0.00     0.010 A 
ATOM     35  C   UNL A   1      34.921  33.036  33.584  1.00  0.00     0.010 A 
ATOM     36  C   UNL A   1      36.210  33.594  33.476  1.00  0.00    -0.014 A 
BRANCH  36  37
ATOM     37  C   UNL A   1      37.401  32.739  33.758  1.00  0.00     0.031 A 
ATOM     38  C   UNL A   1      38.193  33.040  34.988  1.00  0.00     0.074 A 
ATOM     39  C   UNL A   1      37.806  31.727  32.968  1.00  0.00     0.049 A 
ATOM     40  N   UNL A   1      39.311  32.504  35.397  1.00  0.00    -0.248 NA
ATOM     41  C   UNL A   1      37.634  34.057  35.891  1.00  0.00     0.031 C 
ATOM     42  C   UNL A   1      37.056  31.222  31.840  1.00  0.00     0.029 A 
ATOM     43  N   UNL A   1      38.938  30.943  32.968  1.00  0.00    -0.354 N 
ATOM     44  C   UNL A   1      39.572  33.091  36.622  1.00  0.00     0.074 A 
ATOM     45  C   UNL A   1      38.521  34.054  36.872  1.00  0.00     0.031 C 
ATOM     46  C   UNL A   1      37.755  30.276  31.196  1.00  0.00     0.029 A 
ATOM     47  C   UNL A   1      39.032  30.113  31.870  1.00  0.00     0.049 A 
ATOM     48  H   UNL A   1      39.614  30.973  33.682  1.00  0.00     0.167 HD
ATOM     49  C   UNL A   1      40.597  32.841  37.467  1.00  0.00     0.037 A 
ATOM     50  C   UNL A   1      40.037  29.330  31.434  1.00  0.00     0.037 A 
ATOM     51  C   UNL A   1      41.674  31.933  37.180  1.00  0.00     0.049 A 
ATOM     52  C   UNL A   1      41.267  29.220  32.287  1.00  0.00     0.074 A 
ATOM     53  C   UNL A   1      42.790  31.658  37.946  1.00  0.00     0.029 A 
ATOM     54  N   UNL A   1      41.783  31.175  36.022  1.00  0.00    -0.354 N 
ATOM     55  N   UNL A   1      41.510  29.787  33.444  1.00  0.00    -0.248 NA
ATOM     56  C   UNL A   1      42.348  28.352  31.802  1.00  0.00     0.031 C 
ATOM     57  C   UNL A   1      43.608  30.783  37.224  1.00  0.00     0.029 A 
ATOM     58  C   UNL A   1      42.967  30.456  36.039  1.00  0.00     0.049 A 
ATOM     59  H   UNL A   1      41.118  31.152  35.297  1.00  0.00     0.167 HD
ATOM     60  C   UNL A   1      42.739  29.297  33.855  1.00  0.00     0.074 A 
ATOM     61  C   UNL A   1      43.201  28.399  32.816  1.00  0.00     0.031 C 
ATOM     62  C   UNL A   1      43.409  29.554  35.005  1.00  0.00     0.037 A 
BRANCH  49  63
ATOM     63  C   UNL A   1      40.612  33.627  38.739  1.00  0.00     0.057 A 
ATOM     64  C   UNL A   1      39.806  33.279  39.832  1.00  0.00     0.134 A 
ATOM     65  C   UNL A   1      41.402  34.775  38.852  1.00  0.00     0.134 A 
ATOM     66  F   UNL A   1      39.000  32.208  39.771  1.00  0.00    -0.206 F 
ATOM     67  C   UNL A   1      39.764  34.066  40.983  1.00  0.00     0.040 A 
ATOM     68  C   UNL A   1      41.390  35.554  40.008  1.00  0.00     0.040 A 
ATOM     69  F   UNL A   1      42.185  35.167  37.835  1.00  0.00    -0.206 F 
ATOM     70  C   UNL A   1      40.562  35.206  41.074  1.00  0.00     0.006 A 
ENDBRANCH  49  63
BRANCH  50  71
ATOM     71  C   UNL A   1      39.941  28.606  30.134  1.00  0.00     0.057 A 
ATOM     72  C   UNL A   1      39.254  27.391  30.017  1.00  0.00     0.134 A 
ATOM     73  C   UNL A   1      40.579  29.091  28.984  1.00  0.00     0.134 A 
ATOM     74  F   UNL A   1      38.638  26.859  31.082  1.00  0.00    -0.206 F 
ATOM     75  C   UNL A   1      39.229  26.673  28.818  1.00  0.00     0.040 A 
ATOM     76  C   UNL A   1      40.542  28.394  27.772  1.00  0.00     0.040 A 
ATOM     77  F   UNL A   1      41.256  30.247  29.019  1.00  0.00    -0.206 F 
ATOM     78  C   UNL A   1      39.874  27.175  27.689  1.00  0.00     0.006 A 
ENDBRANCH  50  71
BRANCH  62  79
ATOM     79  C   UNL A   1      44.684  28.804  35.239  1.00  0.00     0.057 A 
ATOM     80  C   UNL A   1      45.932  29.310  34.859  1.00  0.00     0.134 A 
ATOM     81  C   UNL A   1      44.660  27.577  35.917  1.00  0.00     0.134 A 
ATOM     82  F   UNL A   1      46.021  30.470  34.191  1.00  0.00    -0.206 F 
ATOM     83  C   UNL A   1      47.111  28.617  35.135  1.00  0.00     0.040 A 
ATOM     84  C   UNL A   1      45.833  26.891  36.226  1.00  0.00     0.040 A 
ATOM     85  F   UNL A   1      43.495  27.040  36.311  1.00  0.00    -0.206 F 
ATOM     86  C   UNL A   1      47.064  27.411  35.831  1.00  0.00     0.006 A 
ENDBRANCH  62  79
ENDBRANCH  36  37
ENDBRANCH  29  31
ENDBRANCH  28  29
ENDBRANCH  27  28
ENDBRANCH  26  27
ENDBRANCH  25  26
ENDBRANCH  24  25
ENDBRANCH   1  24
TORSDOF 21
ENDMDL
MODEL 2
REMARK VINA RESULT:      -9.6      3.161      8.587
REMARK SMILES CN(CC(=O)OCCOCCOCCOC(=O)c1ccc(-c2c3nc(c(-c4c(F)cccc4F)c4ccc([nH]4)c(-c4c(F)cccc4F)c4nc(c(-c5c(F)cccc5F)c5ccc2[nH]5)C=C4)C=C3)cc1)C(=O)N[C@@H]1C[C@H]1c1ccccc1
REMARK SMILES IDX 10 1 9 2 8 3 7 4 6 5 4 6 5 7 3 8 2 9 1 10 72 11 73 12 74 13
REMARK SMILES IDX 75 15 76 16 77 17 78 18 79 19 83 20 80 21 82 22 81 23 11 24
REMARK SMILES IDX 12 25 13 26 14 27 15 28 16 29 17 30 18 31 19 32 71 33 20 34
REMARK SMILES IDX 70 35 21 36 22 37 23 38 64 39 24 40 69 41 63 42 65 43 25 44
REMARK SMILES IDX 68 45 62 46 61 47 26 49 52 50 35 51 51 52 36 53 39 54 50 55
REMARK SMILES IDX 66 56 37 57 38 58 49 60 67 61 40 62 27 63 28 64 33 65 29 66
REMARK SMILES IDX 30 67 32 68 34 69 31 70 53 71 54 72 59 73 55 74 56 75 58 76
REMARK SMILES IDX 60 77 57 78 41 79 42 80 47 81 43 82 44 83 46 84 48 85 45 86
REMARK H PARENT 74 14 65 48 39 59
REMARK Flexibility Score: inf
ROOT
ATOM      1  C   UNL A   1      34.045  28.015  22.454  1.00  0.00     0.188 C 
ENDROOT
BRANCH   1   2
ATOM      2  O   UNL A   1      33.454  26.808  22.005  1.00  0.00    -0.376 OA
BRANCH   2   3
ATOM      3  C   UNL A   1      33.258  25.761  22.948  1.00  0.00     0.202 C 
BRANCH   3   4
ATOM      4  C   UNL A   1      33.033  24.352  22.387  1.00  0.00     0.261 C 
BRANCH   4   5
ATOM      5  O   UNL A   1      32.937  23.346  23.422  1.00  0.00    -0.462 OA
BRANCH   5   6
ATOM      6  C   UNL A   1      31.699  23.187  23.958  1.00  0.00     0.325 C 
ATOM      7  O   UNL A   1      30.660  23.414  23.340  1.00  0.00    -0.250 OA
BRANCH   6   8
ATOM      8  C   UNL A   1      31.661  22.753  25.434  1.00  0.00     0.243 C 
BRANCH   8   9
ATOM      9  N   UNL A   1      32.701  23.067  26.427  1.00  0.00    -0.317 N 
ATOM     10  C   UNL A   1      32.475  22.580  27.783  1.00  0.00     0.149 C 
BRANCH   9  11
ATOM     11  C   UNL A   1      33.926  23.645  26.196  1.00  0.00     0.317 C 
ATOM     12  O   UNL A   1      34.078  24.868  26.124  1.00  0.00    -0.249 OA
ATOM     13  N   UNL A   1      35.050  22.914  26.015  1.00  0.00    -0.335 N 
ATOM     14  H   UNL A   1      35.864  23.463  25.948  1.00  0.00     0.165 HD
BRANCH  13  15
ATOM     15  C   UNL A   1      35.304  21.522  25.900  1.00  0.00     0.092 C 
ATOM     16  C   UNL A   1      36.395  21.026  25.002  1.00  0.00     0.036 C 
ATOM     17  C   UNL A   1      34.956  20.790  24.631  1.00  0.00     0.044 C 
BRANCH  17  18
ATOM     18  C   UNL A   1      34.351  19.398  24.624  1.00  0.00    -0.043 A 
ATOM     19  C   UNL A   1      35.151  18.244  24.611  1.00  0.00     0.004 A 
ATOM     20  C   UNL A   1      32.983  19.220  24.352  1.00  0.00     0.004 A 
ATOM     21  C   UNL A   1      34.631  16.996  24.247  1.00  0.00     0.000 A 
ATOM     22  C   UNL A   1      32.457  17.980  23.969  1.00  0.00     0.000 A 
ATOM     23  C   UNL A   1      33.291  16.872  23.893  1.00  0.00     0.000 A 
ENDBRANCH  17  18
ENDBRANCH  13  15
ENDBRANCH   9  11
ENDBRANCH   8   9
ENDBRANCH   6   8
ENDBRANCH   5   6
ENDBRANCH   4   5
ENDBRANCH   3   4
ENDBRANCH   2   3
ENDBRANCH   1   2
BRANCH   1  24
ATOM     24  C   UNL A   1      33.152  29.182  22.912  1.00  0.00     0.188 C 
BRANCH  24  25
ATOM     25  O   UNL A   1      31.779  28.963  23.184  1.00  0.00    -0.376 OA
BRANCH  25  26
ATOM     26  C   UNL A   1      31.370  28.923  24.536  1.00  0.00     0.202 C 
BRANCH  26  27
ATOM     27  C   UNL A   1      31.626  30.168  25.390  1.00  0.00     0.261 C 
BRANCH  27  28
ATOM     28  O   UNL A   1      32.544  29.992  26.485  1.00  0.00    -0.460 OA
BRANCH  28  29
ATOM     29  C   UNL A   1      33.053  31.132  27.014  1.00  0.00     0.338 C 
ATOM     30  O   UNL A   1      32.496  32.218  27.095  1.00  0.00    -0.246 OA
BRANCH  29  31
ATOM     31  C   UNL A   1      34.402  30.884  27.580  1.00  0.00     0.060 A 
ATOM     32  C   UNL A   1      34.807  29.563  27.821  1.00  0.00     0.016 A 
ATOM     33  C   UNL A   1      35.246  31.941  27.933  1.00  0.00     0.016 A 
ATOM     34  C   UNL A   1      36.055  29.298  28.403  1.00  0.00     0.010 A 
ATOM     35  C   UNL A   1      36.488  31.675  28.531  1.00  0.00     0.010 A 
ATOM     36  C   UNL A   1      36.905  30.352  28.777  1.00  0.00    -0.014 A 
BRANCH  36  37
ATOM     37  C   UNL A   1      38.107  30.112  29.629  1.00  0.00     0.031 A 
ATOM     38  C   UNL A   1      39.124  29.138  29.132  1.00  0.00     0.074 A 
ATOM     39  C   UNL A   1      38.319  30.710  30.817  1.00  0.00     0.049 A 
ATOM     40  N   UNL A   1      40.198  28.696  29.729  1.00  0.00    -0.248 NA
ATOM     41  C   UNL A   1      38.921  28.620  27.772  1.00  0.00     0.031 C 
ATOM     42  C   UNL A   1      37.508  31.783  31.347  1.00  0.00     0.029 A 
ATOM     43  N   UNL A   1      39.258  30.511  31.803  1.00  0.00    -0.354 N 
ATOM     44  C   UNL A   1      40.818  27.875  28.805  1.00  0.00     0.074 A 
ATOM     45  C   UNL A   1      39.983  27.846  27.624  1.00  0.00     0.031 C 
ATOM     46  C   UNL A   1      37.910  32.109  32.583  1.00  0.00     0.029 A 
ATOM     47  C   UNL A   1      39.019  31.244  32.947  1.00  0.00     0.049 A 
ATOM     48  H   UNL A   1      40.026  29.904  31.701  1.00  0.00     0.167 HD
ATOM     49  C   UNL A   1      41.988  27.210  28.932  1.00  0.00     0.037 A 
ATOM     50  C   UNL A   1      39.601  31.209  34.161  1.00  0.00     0.037 A 
ATOM     51  C   UNL A   1      42.777  27.189  30.132  1.00  0.00     0.049 A 
ATOM     52  C   UNL A   1      40.784  30.304  34.350  1.00  0.00     0.074 A 
ATOM     53  C   UNL A   1      43.947  26.495  30.379  1.00  0.00     0.029 A 
ATOM     54  N   UNL A   1      42.461  27.871  31.300  1.00  0.00    -0.354 N 
ATOM     55  N   UNL A   1      41.361  29.522  33.471  1.00  0.00    -0.248 NA
ATOM     56  C   UNL A   1      41.415  30.288  35.677  1.00  0.00     0.031 C 
ATOM     57  C   UNL A   1      44.304  26.705  31.714  1.00  0.00     0.029 A 
ATOM     58  C   UNL A   1      43.397  27.587  32.280  1.00  0.00     0.049 A 
ATOM     59  H   UNL A   1      41.687  28.468  31.413  1.00  0.00     0.167 HD
ATOM     60  C   UNL A   1      42.457  28.971  34.115  1.00  0.00     0.074 A 
ATOM     61  C   UNL A   1      42.456  29.495  35.466  1.00  0.00     0.031 C 
ATOM     62  C   UNL A   1      43.392  28.126  33.618  1.00  0.00     0.037 A 
BRANCH  49  63
ATOM     63  C   UNL A   1      42.422  26.403  27.749  1.00  0.00     0.057 A 
ATOM     64  C   UNL A   1      43.226  26.947  26.738  1.00  0.00     0.134 A 
ATOM     65  C   UNL A   1      41.984  25.084  27.593  1.00  0.00     0.134 A 
ATOM     66  F   UNL A   1      43.649  28.218  26.814  1.00  0.00    -0.206 F 
ATOM     67  C   UNL A   1      43.555  26.213  25.598  1.00  0.00     0.040 A 
ATOM     68  C   UNL A   1      42.329  24.331  26.472  1.00  0.00     0.040 A 
ATOM     69  F   UNL A   1      41.200  24.512  28.521  1.00  0.00    -0.206 F 
ATOM     70  C   UNL A   1      43.108  24.900  25.466  1.00  0.00     0.006 A 
ENDBRANCH  49  63
BRANCH  50  71
ATOM     71  C   UNL A   1      39.079  32.031  35.290  1.00  0.00     0.057 A 
ATOM     72  C   UNL A   1      39.456  33.368  35.463  1.00  0.00     0.134 A 
ATOM     73  C   UNL A   1      38.224  31.480  36.254  1.00  0.00     0.134 A 
ATOM     74  F   UNL A   1      40.287  33.954  34.589  1.00  0.00    -0.206 F 
ATOM     75  C   UNL A   1      39.028  34.117  36.564  1.00  0.00     0.040 A 
ATOM     76  C   UNL A   1      37.770  32.224  37.348  1.00  0.00     0.040 A 
ATOM     77  F   UNL A   1      37.820  30.205  36.155  1.00  0.00    -0.206 F 
ATOM     78  C   UNL A   1      38.181  33.544  37.511  1.00  0.00     0.006 A 
ENDBRANCH  50  71
BRANCH  62  79
ATOM     79  C   UNL A   1      44.537  27.763  34.514  1.00  0.00     0.057 A 
ATOM     80  C   UNL A   1      45.696  28.540  34.600  1.00  0.00     0.134 A 
ATOM     81  C   UNL A   1      44.440  26.644  35.354  1.00  0.00     0.134 A 
ATOM     82  F   UNL A   1      45.857  29.613  33.811  1.00  0.00    -0.206 F 
ATOM     83  C   UNL A   1      46.727  28.210  35.481  1.00  0.00     0.040 A 
ATOM     84  C   UNL A   1      45.449  26.323  36.259  1.00  0.00     0.040 A 
ATOM     85  F   UNL A   1      43.351  25.860  35.321  1.00  0.00    -0.206 F 
ATOM     86  C   UNL A   1      46.600  27.107  36.323  1.00  0.00     0.006 A 
ENDBRANCH  62  79
ENDBRANCH  36  37
ENDBRANCH  29  31
ENDBRANCH  28  29
ENDBRANCH  27  28
ENDBRANCH  26  27
ENDBRANCH  25  26
ENDBRANCH  24  25
ENDBRANCH   1  24
TORSDOF 21
ENDMDL
MODEL 3
REMARK VINA RESULT:      -9.4      4.918      7.763
REMARK SMILES CN(CC(=O)OCCOCCOCCOC(=O)c1ccc(-c2c3nc(c(-c4c(F)cccc4F)c4ccc([nH]4)c(-c4c(F)cccc4F)c4nc(c(-c5c(F)cccc5F)c5ccc2[nH]5)C=C4)C=C3)cc1)C(=O)N[C@@H]1C[C@H]1c1ccccc1
REMARK SMILES IDX 10 1 9 2 8 3 7 4 6 5 4 6 5 7 3 8 2 9 1 10 72 11 73 12 74 13
REMARK SMILES IDX 75 15 76 16 77 17 78 18 79 19 83 20 80 21 82 22 81 23 11 24
REMARK SMILES IDX 12 25 13 26 14 27 15 28 16 29 17 30 18 31 19 32 71 33 20 34
REMARK SMILES IDX 70 35 21 36 22 37 23 38 64 39 24 40 69 41 63 42 65 43 25 44
REMARK SMILES IDX 68 45 62 46 61 47 26 49 52 50 35 51 51 52 36 53 39 54 50 55
REMARK SMILES IDX 66 56 37 57 38 58 49 60 67 61 40 62 27 63 28 64 33 65 29 66
REMARK SMILES IDX 30 67 32 68 34 69 31 70 53 71 54 72 59 73 55 74 56 75 58 76
REMARK SMILES IDX 60 77 57 78 41 79 42 80 47 81 43 82 44 83 46 84 48 85 45 86
REMARK H PARENT 74 14 65 48 39 59
REMARK Flexibility Score: inf
ROOT
ATOM      1  C   UNL A   1      33.344  30.620  27.422  1.00  0.00     0.188 C 
ENDROOT
BRANCH   1   2
ATOM      2  O   UNL A   1      33.396  30.089  26.109  1.00  0.00    -0.376 OA
BRANCH   2   3
ATOM      3  C   UNL A   1      32.177  29.953  25.389  1.00  0.00     0.202 C 
BRANCH   3   4
ATOM      4  C   UNL A   1      32.122  28.861  24.315  1.00  0.00     0.261 C 
BRANCH   4   5
ATOM      5  O   UNL A   1      33.277  27.990  24.341  1.00  0.00    -0.462 OA
BRANCH   5   6
ATOM      6  C   UNL A   1      33.253  26.974  23.440  1.00  0.00     0.325 C 
ATOM      7  O   UNL A   1      33.640  27.090  22.279  1.00  0.00    -0.250 OA
BRANCH   6   8
ATOM      8  C   UNL A   1      32.650  25.650  23.943  1.00  0.00     0.243 C 
BRANCH   8   9
ATOM      9  N   UNL A   1      31.401  25.538  24.713  1.00  0.00    -0.317 N 
ATOM     10  C   UNL A   1      30.188  25.269  23.950  1.00  0.00     0.149 C 
BRANCH   9  11
ATOM     11  C   UNL A   1      31.264  25.519  26.080  1.00  0.00     0.317 C 
ATOM     12  O   UNL A   1      30.708  26.428  26.702  1.00  0.00    -0.249 OA
ATOM     13  N   UNL A   1      31.742  24.508  26.842  1.00  0.00    -0.335 N 
ATOM     14  H   UNL A   1      31.492  24.587  27.792  1.00  0.00     0.165 HD
BRANCH  13  15
ATOM     15  C   UNL A   1      32.527  23.359  26.564  1.00  0.00     0.092 C 
ATOM     16  C   UNL A   1      33.198  22.616  27.677  1.00  0.00     0.036 C 
ATOM     17  C   UNL A   1      34.025  23.412  26.705  1.00  0.00     0.044 C 
BRANCH  17  18
ATOM     18  C   UNL A   1      34.967  22.742  25.722  1.00  0.00    -0.043 A 
ATOM     19  C   UNL A   1      35.244  21.366  25.783  1.00  0.00     0.004 A 
ATOM     20  C   UNL A   1      35.804  23.517  24.899  1.00  0.00     0.004 A 
ATOM     21  C   UNL A   1      36.356  20.813  25.137  1.00  0.00     0.000 A 
ATOM     22  C   UNL A   1      36.928  22.976  24.264  1.00  0.00     0.000 A 
ATOM     23  C   UNL A   1      37.217  21.625  24.405  1.00  0.00     0.000 A 
ENDBRANCH  17  18
ENDBRANCH  13  15
ENDBRANCH   9  11
ENDBRANCH   8   9
ENDBRANCH   6   8
ENDBRANCH   5   6
ENDBRANCH   4   5
ENDBRANCH   3   4
ENDBRANCH   2   3
ENDBRANCH   1   2
BRANCH   1  24
ATOM     24  C   UNL A   1      33.373  32.145  27.634  1.00  0.00     0.188 C 
BRANCH  24  25
ATOM     25  O   UNL A   1      34.604  32.845  27.601  1.00  0.00    -0.376 OA
BRANCH  25  26
ATOM     26  C   UNL A   1      34.854  33.792  28.619  1.00  0.00     0.202 C 
BRANCH  26  27
ATOM     27  C   UNL A   1      34.372  33.455  30.034  1.00  0.00     0.261 C 
BRANCH  27  28
ATOM     28  O   UNL A   1      34.770  32.164  30.532  1.00  0.00    -0.460 OA
BRANCH  28  29
ATOM     29  C   UNL A   1      35.631  32.179  31.580  1.00  0.00     0.338 C 
ATOM     30  O   UNL A   1      35.359  32.397  32.753  1.00  0.00    -0.246 OA
BRANCH  29  31
ATOM     31  C   UNL A   1      36.997  31.811  31.134  1.00  0.00     0.060 A 
ATOM     32  C   UNL A   1      37.250  31.666  29.763  1.00  0.00     0.016 A 
ATOM     33  C   UNL A   1      38.015  31.547  32.056  1.00  0.00     0.016 A 
ATOM     34  C   UNL A   1      38.518  31.268  29.313  1.00  0.00     0.010 A 
ATOM     35  C   UNL A   1      39.278  31.133  31.605  1.00  0.00     0.010 A 
ATOM     36  C   UNL A   1      39.542  30.985  30.230  1.00  0.00    -0.014 A 
BRANCH  36  37
ATOM     37  C   UNL A   1      40.803  30.312  29.798  1.00  0.00     0.031 A 
ATOM     38  C   UNL A   1      42.026  31.158  29.660  1.00  0.00     0.074 A 
ATOM     39  C   UNL A   1      40.898  28.998  29.517  1.00  0.00     0.049 A 
ATOM     40  N   UNL A   1      43.208  30.827  29.215  1.00  0.00    -0.248 NA
ATOM     41  C   UNL A   1      41.910  32.552  30.112  1.00  0.00     0.031 C 
ATOM     42  C   UNL A   1      39.848  28.035  29.756  1.00  0.00     0.029 A 
ATOM     43  N   UNL A   1      41.903  28.237  28.965  1.00  0.00    -0.354 N 
ATOM     44  C   UNL A   1      43.987  31.960  29.366  1.00  0.00     0.074 A 
ATOM     45  C   UNL A   1      43.136  33.000  29.904  1.00  0.00     0.031 C 
ATOM     46  C   UNL A   1      40.202  26.828  29.293  1.00  0.00     0.029 A 
ATOM     47  C   UNL A   1      41.525  26.936  28.700  1.00  0.00     0.049 A 
ATOM     48  H   UNL A   1      42.804  28.586  28.777  1.00  0.00     0.167 HD
ATOM     49  C   UNL A   1      45.300  32.114  29.087  1.00  0.00     0.037 A 
ATOM     50  C   UNL A   1      42.152  25.948  28.034  1.00  0.00     0.037 A 
ATOM     51  C   UNL A   1      46.122  31.098  28.489  1.00  0.00     0.049 A 
ATOM     52  C   UNL A   1      43.548  26.204  27.543  1.00  0.00     0.074 A 
ATOM     53  C   UNL A   1      47.448  31.179  28.111  1.00  0.00     0.029 A 
ATOM     54  N   UNL A   1      45.685  29.823  28.154  1.00  0.00    -0.354 N 
ATOM     55  N   UNL A   1      44.276  27.284  27.684  1.00  0.00    -0.248 NA
ATOM     56  C   UNL A   1      44.222  25.111  26.829  1.00  0.00     0.031 C 
ATOM     57  C   UNL A   1      47.797  29.976  27.489  1.00  0.00     0.029 A 
ATOM     58  C   UNL A   1      46.709  29.119  27.543  1.00  0.00     0.049 A 
ATOM     59  H   UNL A   1      44.781  29.472  28.326  1.00  0.00     0.167 HD
ATOM     60  C   UNL A   1      45.512  26.982  27.135  1.00  0.00     0.074 A 
ATOM     61  C   UNL A   1      45.431  25.622  26.643  1.00  0.00     0.031 C 
ATOM     62  C   UNL A   1      46.620  27.760  27.070  1.00  0.00     0.037 A 
BRANCH  49  63
ATOM     63  C   UNL A   1      45.883  33.463  29.370  1.00  0.00     0.057 A 
ATOM     64  C   UNL A   1      46.330  33.821  30.650  1.00  0.00     0.134 A 
ATOM     65  C   UNL A   1      45.947  34.431  28.364  1.00  0.00     0.134 A 
ATOM     66  F   UNL A   1      46.260  32.946  31.665  1.00  0.00    -0.206 F 
ATOM     67  C   UNL A   1      46.792  35.108  30.923  1.00  0.00     0.040 A 
ATOM     68  C   UNL A   1      46.435  35.712  28.618  1.00  0.00     0.040 A 
ATOM     69  F   UNL A   1      45.523  34.152  27.121  1.00  0.00    -0.206 F 
ATOM     70  C   UNL A   1      46.849  36.056  29.903  1.00  0.00     0.006 A 
ENDBRANCH  49  63
BRANCH  50  71
ATOM     71  C   UNL A   1      41.478  24.644  27.775  1.00  0.00     0.057 A 
ATOM     72  C   UNL A   1      41.824  23.484  28.477  1.00  0.00     0.134 A 
ATOM     73  C   UNL A   1      40.499  24.519  26.779  1.00  0.00     0.134 A 
ATOM     74  F   UNL A   1      42.766  23.527  29.430  1.00  0.00    -0.206 F 
ATOM     75  C   UNL A   1      41.246  22.245  28.181  1.00  0.00     0.040 A 
ATOM     76  C   UNL A   1      39.897  23.291  26.489  1.00  0.00     0.040 A 
ATOM     77  F   UNL A   1      40.116  25.587  26.064  1.00  0.00    -0.206 F 
ATOM     78  C   UNL A   1      40.279  22.146  27.184  1.00  0.00     0.006 A 
ENDBRANCH  50  71
BRANCH  62  79
ATOM     79  C   UNL A   1      47.862  27.140  26.507  1.00  0.00     0.057 A 
ATOM     80  C   UNL A   1      48.787  26.458  27.304  1.00  0.00     0.134 A 
ATOM     81  C   UNL A   1      48.098  27.177  25.125  1.00  0.00     0.134 A 
ATOM     82  F   UNL A   1      48.627  26.402  28.635  1.00  0.00    -0.206 F 
ATOM     83  C   UNL A   1      49.911  25.843  26.749  1.00  0.00     0.040 A 
ATOM     84  C   UNL A   1      49.199  26.541  24.556  1.00  0.00     0.040 A 
ATOM     85  F   UNL A   1      47.246  27.813  24.306  1.00  0.00    -0.206 F 
ATOM     86  C   UNL A   1      50.112  25.873  25.371  1.00  0.00     0.006 A 
ENDBRANCH  62  79
ENDBRANCH  36  37
ENDBRANCH  29  31
ENDBRANCH  28  29
ENDBRANCH  27  28
ENDBRANCH  26  27
ENDBRANCH  25  26
ENDBRANCH  24  25
ENDBRANCH   1  24
TORSDOF 21
ENDMDL
