MODEL 1
REMARK VINA RESULT:     -11.7      0.000      0.000
REMARK SMILES CC[C@@H](C)[C@@H](NC(=O)Cn1nc(-c2ccc3ccccc3c2)ccc1=O)C(=O)OCCOCCOCCOC(=O)c1ccc(-c2c3nc(c(-c4c(F)cccc4F)c4ccc([nH]4)c(-c4c(F)cccc4F)c4nc(c(-c5c(F)cccc5F)c5ccc2[nH]5)C=C4)C=C3)cc1
REMARK SMILES IDX 33 1 32 2 31 3 30 4 29 5 27 6 28 7 5 8 3 9 4 10 2 11 1 12
REMARK SMILES IDX 6 13 7 14 8 16 9 17 10 18 11 19 25 20 12 21 24 22 26 23
REMARK SMILES IDX 23 24 13 25 14 26 22 27 15 28 21 29 16 30 20 31 17 32 19 33
REMARK SMILES IDX 18 34 34 35 35 36 36 37 37 38 38 39 39 40 40 41 41 42 42 43
REMARK SMILES IDX 94 44 43 45 93 46 44 47 45 48 46 49 87 50 47 51 92 52 86 53
REMARK SMILES IDX 88 54 48 55 91 56 85 57 84 58 49 60 75 61 58 62 74 63 59 64
REMARK SMILES IDX 62 65 73 66 89 67 60 68 61 69 72 71 90 72 63 73 50 74 51 75
REMARK SMILES IDX 56 76 52 77 53 78 55 79 57 80 54 81 76 82 77 83 82 84 78 85
REMARK SMILES IDX 79 86 81 87 83 88 80 89 64 90 65 91 70 92 66 93 67 94 69 95
REMARK SMILES IDX 71 96 68 97
REMARK H PARENT 6 15 88 59 62 70
REMARK Flexibility Score: inf
ROOT
ATOM      1  C   UNL A   1      33.765  31.581  27.682  1.00  0.00     0.188 C 
ENDROOT
BRANCH   1   2
ATOM      2  O   UNL A   1      32.478  31.222  27.087  1.00  0.00    -0.376 OA
BRANCH   2   3
ATOM      3  C   UNL A   1      32.363  30.205  26.015  1.00  0.00     0.202 C 
BRANCH   3   4
ATOM      4  C   UNL A   1      31.471  28.580  26.139  1.00  0.00     0.261 C 
BRANCH   4   5
ATOM      5  O   UNL A   1      32.428  26.787  26.232  1.00  0.00    -0.462 OA
BRANCH   5   6
ATOM      6  C   UNL A   1      32.238  25.335  26.536  1.00  0.00     0.328 C 
ATOM      7  O   UNL A   1      31.340  24.846  27.233  1.00  0.00    -0.250 OA
BRANCH   6   8
ATOM      8  C   UNL A   1      33.211  24.414  25.920  1.00  0.00     0.195 C 
BRANCH   8   9
ATOM      9  C   UNL A   1      34.500  25.274  25.677  1.00  0.00     0.019 C 
ATOM     10  C   UNL A   1      34.499  26.099  24.354  1.00  0.00     0.010 C 
BRANCH   9  11
ATOM     11  C   UNL A   1      35.787  24.440  25.732  1.00  0.00     0.002 C 
ATOM     12  C   UNL A   1      35.942  23.545  24.500  1.00  0.00     0.004 C 
ENDBRANCH   9  11
ENDBRANCH   8   9
BRANCH   8  13
ATOM     13  N   UNL A   1      33.322  23.197  26.717  1.00  0.00    -0.341 N 
ATOM     14  C   UNL A   1      32.825  21.950  26.363  1.00  0.00     0.242 C 
ATOM     15  H   UNL A   1      33.792  23.265  27.581  1.00  0.00     0.164 HD
ATOM     16  O   UNL A   1      33.634  21.016  26.453  1.00  0.00    -0.273 OA
BRANCH  14  17
ATOM     17  C   UNL A   1      31.409  21.673  25.730  1.00  0.00     0.248 C 
BRANCH  17  18
ATOM     18  N   UNL A   1      31.237  22.000  24.307  1.00  0.00    -0.220 N 
ATOM     19  N   UNL A   1      30.509  23.640  24.072  1.00  0.00    -0.169 NA
ATOM     20  C   UNL A   1      32.637  21.506  23.273  1.00  0.00     0.267 A 
ATOM     21  C   UNL A   1      31.103  24.621  23.210  1.00  0.00     0.091 A 
ATOM     22  C   UNL A   1      33.288  23.044  22.137  1.00  0.00     0.075 A 
ATOM     23  O   UNL A   1      33.102  20.370  23.376  1.00  0.00    -0.268 OA
ATOM     24  C   UNL A   1      32.614  24.378  22.111  1.00  0.00     0.036 A 
BRANCH  21  25
ATOM     25  C   UNL A   1      30.654  26.033  23.138  1.00  0.00     0.003 A 
ATOM     26  C   UNL A   1      31.595  26.965  22.705  1.00  0.00     0.011 A 
ATOM     27  C   UNL A   1      29.348  26.440  23.398  1.00  0.00     0.019 A 
ATOM     28  C   UNL A   1      31.261  28.299  22.516  1.00  0.00     0.009 A 
ATOM     29  C   UNL A   1      28.986  27.796  23.207  1.00  0.00    -0.018 A 
ATOM     30  C   UNL A   1      29.959  28.727  22.758  1.00  0.00    -0.018 A 
ATOM     31  C   UNL A   1      27.685  28.272  23.443  1.00  0.00     0.009 A 
ATOM     32  C   UNL A   1      29.623  30.072  22.555  1.00  0.00     0.009 A 
ATOM     33  C   UNL A   1      27.364  29.621  23.248  1.00  0.00     0.001 A 
ATOM     34  C   UNL A   1      28.330  30.518  22.803  1.00  0.00     0.001 A 
ENDBRANCH  21  25
ENDBRANCH  17  18
ENDBRANCH  14  17
ENDBRANCH   8  13
ENDBRANCH   6   8
ENDBRANCH   5   6
ENDBRANCH   4   5
ENDBRANCH   3   4
ENDBRANCH   2   3
ENDBRANCH   1   2
BRANCH   1  35
ATOM     35  C   UNL A   1      33.993  33.123  27.959  1.00  0.00     0.188 C 
BRANCH  35  36
ATOM     36  O   UNL A   1      35.060  33.504  28.841  1.00  0.00    -0.376 OA
BRANCH  36  37
ATOM     37  C   UNL A   1      34.726  34.450  29.842  1.00  0.00     0.202 C 
BRANCH  37  38
ATOM     38  C   UNL A   1      34.327  33.751  31.143  1.00  0.00     0.261 C 
BRANCH  38  39
ATOM     39  O   UNL A   1      34.816  32.404  31.185  1.00  0.00    -0.460 OA
BRANCH  39  40
ATOM     40  C   UNL A   1      35.730  32.152  32.166  1.00  0.00     0.338 C 
ATOM     41  O   UNL A   1      35.613  32.393  33.356  1.00  0.00    -0.246 OA
BRANCH  40  42
ATOM     42  C   UNL A   1      36.838  31.358  31.568  1.00  0.00     0.060 A 
ATOM     43  C   UNL A   1      36.965  31.250  30.179  1.00  0.00     0.016 A 
ATOM     44  C   UNL A   1      37.713  30.646  32.403  1.00  0.00     0.016 A 
ATOM     45  C   UNL A   1      37.974  30.466  29.629  1.00  0.00     0.010 A 
ATOM     46  C   UNL A   1      38.752  29.886  31.849  1.00  0.00     0.010 A 
ATOM     47  C   UNL A   1      38.911  29.824  30.458  1.00  0.00    -0.014 A 
BRANCH  47  48
ATOM     48  C   UNL A   1      40.163  29.329  29.833  1.00  0.00     0.031 A 
ATOM     49  C   UNL A   1      40.307  27.949  29.273  1.00  0.00     0.074 A 
ATOM     50  C   UNL A   1      41.178  30.213  29.739  1.00  0.00     0.049 A 
ATOM     51  N   UNL A   1      41.299  27.453  28.573  1.00  0.00    -0.248 NA
ATOM     52  C   UNL A   1      39.215  27.002  29.528  1.00  0.00     0.031 C 
ATOM     53  C   UNL A   1      41.151  31.578  30.277  1.00  0.00     0.029 A 
ATOM     54  N   UNL A   1      42.405  30.120  29.140  1.00  0.00    -0.354 N 
ATOM     55  C   UNL A   1      40.949  26.139  28.290  1.00  0.00     0.074 A 
ATOM     56  C   UNL A   1      39.668  25.905  28.928  1.00  0.00     0.031 C 
ATOM     57  C   UNL A   1      42.281  32.210  29.934  1.00  0.00     0.029 A 
ATOM     58  C   UNL A   1      43.134  31.285  29.201  1.00  0.00     0.049 A 
ATOM     59  H   UNL A   1      42.734  29.299  28.707  1.00  0.00     0.167 HD
ATOM     60  C   UNL A   1      41.636  25.224  27.562  1.00  0.00     0.037 A 
ATOM     61  C   UNL A   1      44.355  31.574  28.722  1.00  0.00     0.037 A 
ATOM     62  C   UNL A   1      42.923  25.467  26.952  1.00  0.00     0.049 A 
ATOM     63  C   UNL A   1      45.107  30.513  27.970  1.00  0.00     0.074 A 
ATOM     64  C   UNL A   1      43.674  24.616  26.157  1.00  0.00     0.029 A 
ATOM     65  N   UNL A   1      43.660  26.634  27.087  1.00  0.00    -0.354 N 
ATOM     66  N   UNL A   1      44.722  29.307  27.628  1.00  0.00    -0.248 NA
ATOM     67  C   UNL A   1      46.467  30.856  27.535  1.00  0.00     0.031 C 
ATOM     68  C   UNL A   1      44.894  25.239  25.873  1.00  0.00     0.029 A 
ATOM     69  C   UNL A   1      44.875  26.508  26.427  1.00  0.00     0.049 A 
ATOM     70  H   UNL A   1      43.366  27.433  27.579  1.00  0.00     0.167 HD
ATOM     71  C   UNL A   1      45.777  28.763  26.910  1.00  0.00     0.074 A 
ATOM     72  C   UNL A   1      46.803  29.782  26.839  1.00  0.00     0.031 C 
ATOM     73  C   UNL A   1      45.890  27.529  26.361  1.00  0.00     0.037 A 
BRANCH  60  74
ATOM     74  C   UNL A   1      41.026  23.861  27.387  1.00  0.00     0.057 A 
ATOM     75  C   UNL A   1      41.575  22.743  28.032  1.00  0.00     0.134 A 
ATOM     76  C   UNL A   1      39.950  23.637  26.520  1.00  0.00     0.134 A 
ATOM     77  F   UNL A   1      42.621  22.881  28.862  1.00  0.00    -0.206 F 
ATOM     78  C   UNL A   1      41.080  21.456  27.816  1.00  0.00     0.040 A 
ATOM     79  C   UNL A   1      39.427  22.357  26.317  1.00  0.00     0.040 A 
ATOM     80  F   UNL A   1      39.379  24.660  25.865  1.00  0.00    -0.206 F 
ATOM     81  C   UNL A   1      39.998  21.261  26.960  1.00  0.00     0.006 A 
ENDBRANCH  60  74
BRANCH  61  82
ATOM     82  C   UNL A   1      44.961  32.914  28.939  1.00  0.00     0.057 A 
ATOM     83  C   UNL A   1      45.714  33.196  30.086  1.00  0.00     0.134 A 
ATOM     84  C   UNL A   1      44.868  33.918  27.967  1.00  0.00     0.134 A 
ATOM     85  F   UNL A   1      45.831  32.285  31.063  1.00  0.00    -0.206 F 
ATOM     86  C   UNL A   1      46.366  34.418  30.250  1.00  0.00     0.040 A 
ATOM     87  C   UNL A   1      45.548  35.130  28.100  1.00  0.00     0.040 A 
ATOM     88  F   UNL A   1      44.170  33.706  26.842  1.00  0.00    -0.206 F 
ATOM     89  C   UNL A   1      46.302  35.381  29.245  1.00  0.00     0.006 A 
ENDBRANCH  61  82
BRANCH  73  90
ATOM     90  C   UNL A   1      47.153  27.238  25.601  1.00  0.00     0.057 A 
ATOM     91  C   UNL A   1      48.235  26.611  26.232  1.00  0.00     0.134 A 
ATOM     92  C   UNL A   1      47.302  27.567  24.246  1.00  0.00     0.134 A 
ATOM     93  F   UNL A   1      48.168  26.274  27.528  1.00  0.00    -0.206 F 
ATOM     94  C   UNL A   1      49.414  26.317  25.544  1.00  0.00     0.040 A 
ATOM     95  C   UNL A   1      48.461  27.244  23.538  1.00  0.00     0.040 A 
ATOM     96  F   UNL A   1      46.299  28.155  23.576  1.00  0.00    -0.206 F 
ATOM     97  C   UNL A   1      49.523  26.622  24.189  1.00  0.00     0.006 A 
ENDBRANCH  73  90
ENDBRANCH  47  48
ENDBRANCH  40  42
ENDBRANCH  39  40
ENDBRANCH  38  39
ENDBRANCH  37  38
ENDBRANCH  36  37
ENDBRANCH  35  36
ENDBRANCH   1  35
TORSDOF 23
ENDMDL
MODEL 2
REMARK VINA RESULT:     -11.3      1.263      2.130
REMARK SMILES CC[C@@H](C)[C@@H](NC(=O)Cn1nc(-c2ccc3ccccc3c2)ccc1=O)C(=O)OCCOCCOCCOC(=O)c1ccc(-c2c3nc(c(-c4c(F)cccc4F)c4ccc([nH]4)c(-c4c(F)cccc4F)c4nc(c(-c5c(F)cccc5F)c5ccc2[nH]5)C=C4)C=C3)cc1
REMARK SMILES IDX 33 1 32 2 31 3 30 4 29 5 27 6 28 7 5 8 3 9 4 10 2 11 1 12
REMARK SMILES IDX 6 13 7 14 8 16 9 17 10 18 11 19 25 20 12 21 24 22 26 23
REMARK SMILES IDX 23 24 13 25 14 26 22 27 15 28 21 29 16 30 20 31 17 32 19 33
REMARK SMILES IDX 18 34 34 35 35 36 36 37 37 38 38 39 39 40 40 41 41 42 42 43
REMARK SMILES IDX 94 44 43 45 93 46 44 47 45 48 46 49 87 50 47 51 92 52 86 53
REMARK SMILES IDX 88 54 48 55 91 56 85 57 84 58 49 60 75 61 58 62 74 63 59 64
REMARK SMILES IDX 62 65 73 66 89 67 60 68 61 69 72 71 90 72 63 73 50 74 51 75
REMARK SMILES IDX 56 76 52 77 53 78 55 79 57 80 54 81 76 82 77 83 82 84 78 85
REMARK SMILES IDX 79 86 81 87 83 88 80 89 64 90 65 91 70 92 66 93 67 94 69 95
REMARK SMILES IDX 71 96 68 97
REMARK H PARENT 6 15 88 59 62 70
REMARK Flexibility Score: inf
ROOT
ATOM      1  C   UNL A   1      33.865  30.078  27.043  1.00  0.00     0.188 C 
ENDROOT
BRANCH   1   2
ATOM      2  O   UNL A   1      33.323  29.745  25.725  1.00  0.00    -0.376 OA
BRANCH   2   3
ATOM      3  C   UNL A   1      33.515  28.412  25.109  1.00  0.00     0.202 C 
BRANCH   3   4
ATOM      4  C   UNL A   1      33.725  26.805  26.019  1.00  0.00     0.261 C 
BRANCH   4   5
ATOM      5  O   UNL A   1      34.794  25.238  25.282  1.00  0.00    -0.462 OA
BRANCH   5   6
ATOM      6  C   UNL A   1      35.857  24.242  25.617  1.00  0.00     0.328 C 
ATOM      7  O   UNL A   1      37.017  24.500  25.961  1.00  0.00    -0.250 OA
BRANCH   6   8
ATOM      8  C   UNL A   1      35.458  22.824  25.548  1.00  0.00     0.195 C 
BRANCH   8   9
ATOM      9  C   UNL A   1      36.608  22.108  24.757  1.00  0.00     0.019 C 
ATOM     10  C   UNL A   1      36.707  22.494  23.250  1.00  0.00     0.010 C 
BRANCH   9  11
ATOM     11  C   UNL A   1      36.537  20.579  24.866  1.00  0.00     0.002 C 
ATOM     12  C   UNL A   1      37.927  19.947  24.963  1.00  0.00     0.004 C 
ENDBRANCH   9  11
ENDBRANCH   8   9
BRANCH   8  13
ATOM     13  N   UNL A   1      35.114  22.334  26.879  1.00  0.00    -0.341 N 
ATOM     14  C   UNL A   1      33.829  22.099  27.347  1.00  0.00     0.242 C 
ATOM     15  H   UNL A   1      35.859  22.155  27.499  1.00  0.00     0.164 HD
ATOM     16  O   UNL A   1      33.655  20.989  27.871  1.00  0.00    -0.273 OA
BRANCH  14  17
ATOM     17  C   UNL A   1      32.586  23.042  27.129  1.00  0.00     0.248 C 
BRANCH  17  18
ATOM     18  N   UNL A   1      31.683  22.712  26.017  1.00  0.00    -0.220 N 
ATOM     19  N   UNL A   1      30.685  24.132  25.509  1.00  0.00    -0.169 NA
ATOM     20  C   UNL A   1      32.446  21.676  24.744  1.00  0.00     0.267 A 
ATOM     21  C   UNL A   1      30.611  24.562  24.142  1.00  0.00     0.091 A 
ATOM     22  C   UNL A   1      32.196  22.472  22.905  1.00  0.00     0.075 A 
ATOM     23  O   UNL A   1      33.074  20.668  25.072  1.00  0.00    -0.268 OA
ATOM     24  C   UNL A   1      31.396  23.710  22.657  1.00  0.00     0.036 A 
BRANCH  21  25
ATOM     25  C   UNL A   1      29.968  25.827  23.711  1.00  0.00     0.003 A 
ATOM     26  C   UNL A   1      28.645  26.020  24.106  1.00  0.00     0.011 A 
ATOM     27  C   UNL A   1      30.636  26.834  23.019  1.00  0.00     0.019 A 
ATOM     28  C   UNL A   1      27.973  27.204  23.833  1.00  0.00     0.009 A 
ATOM     29  C   UNL A   1      29.969  28.051  22.735  1.00  0.00    -0.018 A 
ATOM     30  C   UNL A   1      28.624  28.229  23.154  1.00  0.00    -0.018 A 
ATOM     31  C   UNL A   1      30.587  29.110  22.049  1.00  0.00     0.009 A 
ATOM     32  C   UNL A   1      27.945  29.427  22.891  1.00  0.00     0.009 A 
ATOM     33  C   UNL A   1      29.894  30.298  21.782  1.00  0.00     0.001 A 
ATOM     34  C   UNL A   1      28.577  30.456  22.203  1.00  0.00     0.001 A 
ENDBRANCH  21  25
ENDBRANCH  17  18
ENDBRANCH  14  17
ENDBRANCH   8  13
ENDBRANCH   6   8
ENDBRANCH   5   6
ENDBRANCH   4   5
ENDBRANCH   3   4
ENDBRANCH   2   3
ENDBRANCH   1   2
BRANCH   1  35
ATOM     35  C   UNL A   1      33.485  31.508  27.607  1.00  0.00     0.188 C 
BRANCH  35  36
ATOM     36  O   UNL A   1      34.550  32.396  27.977  1.00  0.00    -0.376 OA
BRANCH  36  37
ATOM     37  C   UNL A   1      34.153  33.643  28.521  1.00  0.00     0.202 C 
BRANCH  37  38
ATOM     38  C   UNL A   1      34.330  33.659  30.041  1.00  0.00     0.261 C 
BRANCH  38  39
ATOM     39  O   UNL A   1      35.086  32.527  30.492  1.00  0.00    -0.460 OA
BRANCH  39  40
ATOM     40  C   UNL A   1      36.148  32.826  31.294  1.00  0.00     0.338 C 
ATOM     41  O   UNL A   1      36.144  33.550  32.275  1.00  0.00    -0.246 OA
BRANCH  40  42
ATOM     42  C   UNL A   1      37.292  31.968  30.879  1.00  0.00     0.060 A 
ATOM     43  C   UNL A   1      37.487  31.649  29.531  1.00  0.00     0.016 A 
ATOM     44  C   UNL A   1      38.134  31.411  31.853  1.00  0.00     0.016 A 
ATOM     45  C   UNL A   1      38.530  30.808  29.157  1.00  0.00     0.010 A 
ATOM     46  C   UNL A   1      39.206  30.593  31.474  1.00  0.00     0.010 A 
ATOM     47  C   UNL A   1      39.432  30.319  30.118  1.00  0.00    -0.014 A 
BRANCH  47  48
ATOM     48  C   UNL A   1      40.718  29.756  29.637  1.00  0.00     0.031 A 
ATOM     49  C   UNL A   1      40.867  28.344  29.162  1.00  0.00     0.074 A 
ATOM     50  C   UNL A   1      41.767  30.604  29.591  1.00  0.00     0.049 A 
ATOM     51  N   UNL A   1      41.900  27.783  28.582  1.00  0.00    -0.248 NA
ATOM     52  C   UNL A   1      39.725  27.443  29.363  1.00  0.00     0.031 C 
ATOM     53  C   UNL A   1      41.737  31.996  30.056  1.00  0.00     0.029 A 
ATOM     54  N   UNL A   1      43.039  30.444  29.113  1.00  0.00    -0.354 N 
ATOM     55  C   UNL A   1      41.534  26.467  28.335  1.00  0.00     0.074 A 
ATOM     56  C   UNL A   1      40.193  26.304  28.863  1.00  0.00     0.031 C 
ATOM     57  C   UNL A   1      42.914  32.576  29.786  1.00  0.00     0.029 A 
ATOM     58  C   UNL A   1      43.798  31.589  29.182  1.00  0.00     0.049 A 
ATOM     59  H   UNL A   1      43.379  29.592  28.754  1.00  0.00     0.167 HD
ATOM     60  C   UNL A   1      42.253  25.495  27.719  1.00  0.00     0.037 A 
ATOM     61  C   UNL A   1      45.067  31.817  28.803  1.00  0.00     0.037 A 
ATOM     62  C   UNL A   1      43.597  25.668  27.218  1.00  0.00     0.049 A 
ATOM     63  C   UNL A   1      45.848  30.696  28.178  1.00  0.00     0.074 A 
ATOM     64  C   UNL A   1      44.388  24.755  26.540  1.00  0.00     0.029 A 
ATOM     65  N   UNL A   1      44.357  26.819  27.362  1.00  0.00    -0.354 N 
ATOM     66  N   UNL A   1      45.454  29.486  27.862  1.00  0.00    -0.248 NA
ATOM     67  C   UNL A   1      47.252  30.977  27.853  1.00  0.00     0.031 C 
ATOM     68  C   UNL A   1      45.649  25.327  26.338  1.00  0.00     0.029 A 
ATOM     69  C   UNL A   1      45.622  26.624  26.823  1.00  0.00     0.049 A 
ATOM     70  H   UNL A   1      44.047  27.651  27.784  1.00  0.00     0.167 HD
ATOM     71  C   UNL A   1      46.552  28.875  27.273  1.00  0.00     0.074 A 
ATOM     72  C   UNL A   1      47.613  29.858  27.246  1.00  0.00     0.031 C 
ATOM     73  C   UNL A   1      46.672  27.610  26.800  1.00  0.00     0.037 A 
BRANCH  60  74
ATOM     74  C   UNL A   1      41.615  24.143  27.558  1.00  0.00     0.057 A 
ATOM     75  C   UNL A   1      40.591  23.941  26.622  1.00  0.00     0.134 A 
ATOM     76  C   UNL A   1      41.953  23.063  28.383  1.00  0.00     0.134 A 
ATOM     77  F   UNL A   1      40.203  24.938  25.812  1.00  0.00    -0.206 F 
ATOM     78  C   UNL A   1      39.925  22.718  26.516  1.00  0.00     0.040 A 
ATOM     79  C   UNL A   1      41.313  21.825  28.268  1.00  0.00     0.040 A 
ATOM     80  F   UNL A   1      42.920  23.186  29.305  1.00  0.00    -0.206 F 
ATOM     81  C   UNL A   1      40.290  21.654  27.338  1.00  0.00     0.006 A 
ENDBRANCH  60  74
BRANCH  61  82
ATOM     82  C   UNL A   1      45.695  33.149  29.007  1.00  0.00     0.057 A 
ATOM     83  C   UNL A   1      45.595  34.158  28.041  1.00  0.00     0.134 A 
ATOM     84  C   UNL A   1      46.340  33.470  30.208  1.00  0.00     0.134 A 
ATOM     85  F   UNL A   1      45.004  33.913  26.862  1.00  0.00    -0.206 F 
ATOM     86  C   UNL A   1      46.097  35.439  28.267  1.00  0.00     0.040 A 
ATOM     87  C   UNL A   1      46.811  34.758  30.464  1.00  0.00     0.040 A 
ATOM     88  F   UNL A   1      46.458  32.551  31.177  1.00  0.00    -0.206 F 
ATOM     89  C   UNL A   1      46.688  35.748  29.491  1.00  0.00     0.006 A 
ENDBRANCH  61  82
BRANCH  73  90
ATOM     90  C   UNL A   1      47.988  27.243  26.174  1.00  0.00     0.057 A 
ATOM     91  C   UNL A   1      49.021  26.705  26.953  1.00  0.00     0.134 A 
ATOM     92  C   UNL A   1      48.237  27.412  24.805  1.00  0.00     0.134 A 
ATOM     93  F   UNL A   1      48.858  26.522  28.272  1.00  0.00    -0.206 F 
ATOM     94  C   UNL A   1      50.248  26.343  26.393  1.00  0.00     0.040 A 
ATOM     95  C   UNL A   1      49.445  27.017  24.226  1.00  0.00     0.040 A 
ATOM     96  F   UNL A   1      47.286  27.906  23.997  1.00  0.00    -0.206 F 
ATOM     97  C   UNL A   1      50.456  26.486  25.023  1.00  0.00     0.006 A 
ENDBRANCH  73  90
ENDBRANCH  47  48
ENDBRANCH  40  42
ENDBRANCH  39  40
ENDBRANCH  38  39
ENDBRANCH  37  38
ENDBRANCH  36  37
ENDBRANCH  35  36
ENDBRANCH   1  35
TORSDOF 23
ENDMDL
MODEL 3
REMARK VINA RESULT:     -11.1      2.048      3.035
REMARK SMILES CC[C@@H](C)[C@@H](NC(=O)Cn1nc(-c2ccc3ccccc3c2)ccc1=O)C(=O)OCCOCCOCCOC(=O)c1ccc(-c2c3nc(c(-c4c(F)cccc4F)c4ccc([nH]4)c(-c4c(F)cccc4F)c4nc(c(-c5c(F)cccc5F)c5ccc2[nH]5)C=C4)C=C3)cc1
REMARK SMILES IDX 33 1 32 2 31 3 30 4 29 5 27 6 28 7 5 8 3 9 4 10 2 11 1 12
REMARK SMILES IDX 6 13 7 14 8 16 9 17 10 18 11 19 25 20 12 21 24 22 26 23
REMARK SMILES IDX 23 24 13 25 14 26 22 27 15 28 21 29 16 30 20 31 17 32 19 33
REMARK SMILES IDX 18 34 34 35 35 36 36 37 37 38 38 39 39 40 40 41 41 42 42 43
REMARK SMILES IDX 94 44 43 45 93 46 44 47 45 48 46 49 87 50 47 51 92 52 86 53
REMARK SMILES IDX 88 54 48 55 91 56 85 57 84 58 49 60 75 61 58 62 74 63 59 64
REMARK SMILES IDX 62 65 73 66 89 67 60 68 61 69 72 71 90 72 63 73 50 74 51 75
REMARK SMILES IDX 56 76 52 77 53 78 55 79 57 80 54 81 76 82 77 83 82 84 78 85
REMARK SMILES IDX 79 86 81 87 83 88 80 89 64 90 65 91 70 92 66 93 67 94 69 95
REMARK SMILES IDX 71 96 68 97
REMARK H PARENT 6 15 88 59 62 70
REMARK Flexibility Score: inf
ROOT
ATOM      1  C   UNL A   1      33.355  29.797  26.887  1.00  0.00     0.188 C 
ENDROOT
BRANCH   1   2
ATOM      2  O   UNL A   1      34.116  28.558  26.724  1.00  0.00    -0.376 OA
BRANCH   2   3
ATOM      3  C   UNL A   1      33.465  27.279  26.353  1.00  0.00     0.202 C 
BRANCH   3   4
ATOM      4  C   UNL A   1      34.089  26.055  25.102  1.00  0.00     0.261 C 
BRANCH   4   5
ATOM      5  O   UNL A   1      34.526  24.120  25.557  1.00  0.00    -0.462 OA
BRANCH   5   6
ATOM      6  C   UNL A   1      34.171  22.988  26.466  1.00  0.00     0.328 C 
ATOM      7  O   UNL A   1      34.561  22.836  27.631  1.00  0.00    -0.250 OA
BRANCH   6   8
ATOM      8  C   UNL A   1      33.250  21.979  25.911  1.00  0.00     0.195 C 
BRANCH   8   9
ATOM      9  C   UNL A   1      34.086  20.654  25.831  1.00  0.00     0.019 C 
ATOM     10  C   UNL A   1      35.410  20.760  25.016  1.00  0.00     0.010 C 
BRANCH   9  11
ATOM     11  C   UNL A   1      33.271  19.473  25.287  1.00  0.00     0.002 C 
ATOM     12  C   UNL A   1      34.127  18.525  24.445  1.00  0.00     0.004 C 
ENDBRANCH   9  11
ENDBRANCH   8   9
BRANCH   8  13
ATOM     13  N   UNL A   1      32.000  21.974  26.664  1.00  0.00    -0.341 N 
ATOM     14  C   UNL A   1      30.861  22.701  26.345  1.00  0.00     0.242 C 
ATOM     15  H   UNL A   1      31.960  21.405  27.467  1.00  0.00     0.164 HD
ATOM     16  O   UNL A   1      29.809  22.046  26.320  1.00  0.00    -0.273 OA
BRANCH  14  17
ATOM     17  C   UNL A   1      30.834  24.206  25.879  1.00  0.00     0.248 C 
BRANCH  17  18
ATOM     18  N   UNL A   1      30.446  24.467  24.485  1.00  0.00    -0.220 N 
ATOM     19  N   UNL A   1      29.735  26.117  24.277  1.00  0.00    -0.169 NA
ATOM     20  C   UNL A   1      31.649  23.871  23.272  1.00  0.00     0.267 A 
ATOM     21  C   UNL A   1      30.210  27.032  23.279  1.00  0.00     0.091 A 
ATOM     22  C   UNL A   1      32.151  25.325  21.963  1.00  0.00     0.075 A 
ATOM     23  O   UNL A   1      32.093  22.725  23.363  1.00  0.00    -0.268 OA
ATOM     24  C   UNL A   1      31.519  26.679  21.970  1.00  0.00     0.036 A 
BRANCH  21  25
ATOM     25  C   UNL A   1      29.794  28.453  23.201  1.00  0.00     0.003 A 
ATOM     26  C   UNL A   1      30.274  29.299  24.199  1.00  0.00     0.011 A 
ATOM     27  C   UNL A   1      29.035  28.977  22.157  1.00  0.00     0.019 A 
ATOM     28  C   UNL A   1      30.021  30.664  24.176  1.00  0.00     0.009 A 
ATOM     29  C   UNL A   1      28.770  30.368  22.114  1.00  0.00    -0.018 A 
ATOM     30  C   UNL A   1      29.275  31.212  23.137  1.00  0.00    -0.018 A 
ATOM     31  C   UNL A   1      28.018  30.962  21.085  1.00  0.00     0.009 A 
ATOM     32  C   UNL A   1      29.031  32.592  23.112  1.00  0.00     0.009 A 
ATOM     33  C   UNL A   1      27.771  32.340  21.077  1.00  0.00     0.001 A 
ATOM     34  C   UNL A   1      28.278  33.153  22.087  1.00  0.00     0.001 A 
ENDBRANCH  21  25
ENDBRANCH  17  18
ENDBRANCH  14  17
ENDBRANCH   8  13
ENDBRANCH   6   8
ENDBRANCH   5   6
ENDBRANCH   4   5
ENDBRANCH   3   4
ENDBRANCH   2   3
ENDBRANCH   1   2
BRANCH   1  35
ATOM     35  C   UNL A   1      34.097  30.969  27.650  1.00  0.00     0.188 C 
BRANCH  35  36
ATOM     36  O   UNL A   1      35.528  31.043  27.553  1.00  0.00    -0.376 OA
BRANCH  36  37
ATOM     37  C   UNL A   1      36.167  31.894  28.489  1.00  0.00     0.202 C 
BRANCH  37  38
ATOM     38  C   UNL A   1      35.742  31.552  29.918  1.00  0.00     0.261 C 
BRANCH  38  39
ATOM     39  O   UNL A   1      36.846  31.641  30.828  1.00  0.00    -0.460 OA
BRANCH  39  40
ATOM     40  C   UNL A   1      37.208  30.462  31.413  1.00  0.00     0.338 C 
ATOM     41  O   UNL A   1      36.485  29.698  32.029  1.00  0.00    -0.246 OA
BRANCH  40  42
ATOM     42  C   UNL A   1      38.612  30.164  31.016  1.00  0.00     0.060 A 
ATOM     43  C   UNL A   1      39.460  29.464  31.880  1.00  0.00     0.016 A 
ATOM     44  C   UNL A   1      39.112  30.659  29.802  1.00  0.00     0.016 A 
ATOM     45  C   UNL A   1      40.784  29.233  31.522  1.00  0.00     0.010 A 
ATOM     46  C   UNL A   1      40.435  30.394  29.425  1.00  0.00     0.010 A 
ATOM     47  C   UNL A   1      41.267  29.645  30.268  1.00  0.00    -0.014 A 
BRANCH  47  48
ATOM     48  C   UNL A   1      42.540  29.053  29.788  1.00  0.00     0.031 A 
ATOM     49  C   UNL A   1      42.629  27.689  29.177  1.00  0.00     0.074 A 
ATOM     50  C   UNL A   1      43.637  29.833  29.877  1.00  0.00     0.049 A 
ATOM     51  N   UNL A   1      43.656  27.125  28.588  1.00  0.00    -0.248 NA
ATOM     52  C   UNL A   1      41.428  26.847  29.233  1.00  0.00     0.031 C 
ATOM     53  C   UNL A   1      43.666  31.170  30.481  1.00  0.00     0.029 A 
ATOM     54  N   UNL A   1      44.921  29.641  29.441  1.00  0.00    -0.354 N 
ATOM     55  C   UNL A   1      43.226  25.867  28.190  1.00  0.00     0.074 A 
ATOM     56  C   UNL A   1      41.853  25.737  28.639  1.00  0.00     0.031 C 
ATOM     57  C   UNL A   1      44.887  31.698  30.325  1.00  0.00     0.029 A 
ATOM     58  C   UNL A   1      45.741  30.723  29.661  1.00  0.00     0.049 A 
ATOM     59  H   UNL A   1      45.227  28.810  29.011  1.00  0.00     0.167 HD
ATOM     60  C   UNL A   1      43.917  24.918  27.509  1.00  0.00     0.037 A 
ATOM     61  C   UNL A   1      47.038  30.908  29.364  1.00  0.00     0.037 A 
ATOM     62  C   UNL A   1      45.292  25.055  27.089  1.00  0.00     0.049 A 
ATOM     63  C   UNL A   1      47.783  29.808  28.662  1.00  0.00     0.074 A 
ATOM     64  C   UNL A   1      46.061  24.166  26.355  1.00  0.00     0.029 A 
ATOM     65  N   UNL A   1      46.111  26.135  27.384  1.00  0.00    -0.354 N 
ATOM     66  N   UNL A   1      47.335  28.663  28.206  1.00  0.00    -0.248 NA
ATOM     67  C   UNL A   1      49.216  30.030  28.430  1.00  0.00     0.031 C 
ATOM     68  C   UNL A   1      47.362  24.674  26.269  1.00  0.00     0.029 A 
ATOM     69  C   UNL A   1      47.387  25.915  26.884  1.00  0.00     0.049 A 
ATOM     70  H   UNL A   1      45.829  26.938  27.876  1.00  0.00     0.167 HD
ATOM     71  C   UNL A   1      48.423  28.045  27.605  1.00  0.00     0.074 A 
ATOM     72  C   UNL A   1      49.541  28.957  27.727  1.00  0.00     0.031 C 
ATOM     73  C   UNL A   1      48.493  26.830  27.009  1.00  0.00     0.037 A 
BRANCH  60  74
ATOM     74  C   UNL A   1      43.210  23.631  27.181  1.00  0.00     0.057 A 
ATOM     75  C   UNL A   1      42.602  23.447  25.931  1.00  0.00     0.134 A 
ATOM     76  C   UNL A   1      43.057  22.609  28.127  1.00  0.00     0.134 A 
ATOM     77  F   UNL A   1      42.692  24.394  24.984  1.00  0.00    -0.206 F 
ATOM     78  C   UNL A   1      41.866  22.298  25.636  1.00  0.00     0.040 A 
ATOM     79  C   UNL A   1      42.347  21.442  27.833  1.00  0.00     0.040 A 
ATOM     80  F   UNL A   1      43.607  22.721  29.345  1.00  0.00    -0.206 F 
ATOM     81  C   UNL A   1      41.742  21.289  26.588  1.00  0.00     0.006 A 
ENDBRANCH  60  74
BRANCH  61  82
ATOM     82  C   UNL A   1      47.732  32.170  29.733  1.00  0.00     0.057 A 
ATOM     83  C   UNL A   1      48.376  32.313  30.969  1.00  0.00     0.134 A 
ATOM     84  C   UNL A   1      47.836  33.231  28.826  1.00  0.00     0.134 A 
ATOM     85  F   UNL A   1      48.303  31.341  31.889  1.00  0.00    -0.206 F 
ATOM     86  C   UNL A   1      49.111  33.456  31.281  1.00  0.00     0.040 A 
ATOM     87  C   UNL A   1      48.601  34.363  29.110  1.00  0.00     0.040 A 
ATOM     88  F   UNL A   1      47.251  33.151  27.622  1.00  0.00    -0.206 F 
ATOM     89  C   UNL A   1      49.244  34.476  30.342  1.00  0.00     0.006 A 
ENDBRANCH  61  82
BRANCH  73  90
ATOM     90  C   UNL A   1      49.815  26.445  26.408  1.00  0.00     0.057 A 
ATOM     91  C   UNL A   1      50.718  25.648  27.124  1.00  0.00     0.134 A 
ATOM     92  C   UNL A   1      50.197  26.851  25.121  1.00  0.00     0.134 A 
ATOM     93  F   UNL A   1      50.425  25.229  28.364  1.00  0.00    -0.206 F 
ATOM     94  C   UNL A   1      51.947  25.265  26.582  1.00  0.00     0.040 A 
ATOM     95  C   UNL A   1      51.405  26.442  24.554  1.00  0.00     0.040 A 
ATOM     96  F   UNL A   1      49.373  27.601  24.373  1.00  0.00    -0.206 F 
ATOM     97  C   UNL A   1      52.286  25.651  25.288  1.00  0.00     0.006 A 
ENDBRANCH  73  90
ENDBRANCH  47  48
ENDBRANCH  40  42
ENDBRANCH  39  40
ENDBRANCH  38  39
ENDBRANCH  37  38
ENDBRANCH  36  37
ENDBRANCH  35  36
ENDBRANCH   1  35
TORSDOF 23
ENDMDL
