MODEL 1
REMARK VINA RESULT:     -12.0      0.000      0.000
REMARK SMILES O=C(OCCOCCOCCOC(=O)[C@H](c1c[nH]c2cc(F)ccc12)[NH+]1CC[NH+](Cc2cccc(Cl)c2)CC1)c1ccc(-c2c3nc(c(-c4c(F)cccc4F)c4ccc([nH]4)c(-c4c(F)cccc4F)c4nc(c(-c5c(F)cccc5F)c5ccc2[nH]5)C=C4)C=C3)cc1
REMARK SMILES IDX 8 1 7 2 6 3 5 4 4 5 3 6 2 7 1 8 40 9 41 10 93 11 42 12 92 13
REMARK SMILES IDX 43 14 44 15 45 16 86 17 46 18 91 19 85 20 87 21 47 22 90 23
REMARK SMILES IDX 84 24 83 25 48 27 74 28 57 29 73 30 58 31 61 32 72 33 88 34
REMARK SMILES IDX 59 35 60 36 71 38 89 39 62 40 49 41 50 42 55 43 51 44 52 45
REMARK SMILES IDX 54 46 56 47 53 48 75 49 76 50 81 51 77 52 78 53 80 54 82 55
REMARK SMILES IDX 79 56 63 57 64 58 69 59 65 60 66 61 68 62 70 63 67 64 9 65
REMARK SMILES IDX 10 66 11 67 12 68 13 69 14 70 15 71 26 72 27 73 39 74 28 76
REMARK SMILES IDX 38 77 29 78 30 80 31 81 32 82 37 83 33 84 35 85 34 86 36 87
REMARK SMILES IDX 16 88 17 89 25 90 18 91 19 92 24 93 20 95 23 96 21 97 22 98
REMARK H PARENT 87 26 61 37 26 75 29 79 18 94
REMARK Flexibility Score: inf
ROOT
ATOM      1  C   UNL A   1      39.699  21.453  26.144  1.00  0.00     0.188 C 
ENDROOT
BRANCH   1   2
ATOM      2  C   UNL A   1      41.196  21.740  26.123  1.00  0.00     0.188 C 
BRANCH   2   3
ATOM      3  O   UNL A   1      41.952  20.669  26.699  1.00  0.00    -0.376 OA
BRANCH   3   4
ATOM      4  C   UNL A   1      41.780  19.419  26.029  1.00  0.00     0.202 C 
BRANCH   4   5
ATOM      5  C   UNL A   1      43.050  18.566  25.906  1.00  0.00     0.261 C 
BRANCH   5   6
ATOM      6  O   UNL A   1      43.689  18.653  24.621  1.00  0.00    -0.460 OA
BRANCH   6   7
ATOM      7  C   UNL A   1      44.757  19.399  24.259  1.00  0.00     0.338 C 
ATOM      8  O   UNL A   1      45.624  18.904  23.541  1.00  0.00    -0.246 OA
BRANCH   7   9
ATOM      9  C   UNL A   1      44.891  20.834  24.613  1.00  0.00     0.060 A 
ATOM     10  C   UNL A   1      44.478  21.893  23.803  1.00  0.00     0.016 A 
ATOM     11  C   UNL A   1      45.327  21.120  25.916  1.00  0.00     0.016 A 
ATOM     12  C   UNL A   1      44.594  23.216  24.232  1.00  0.00     0.010 A 
ATOM     13  C   UNL A   1      45.379  22.437  26.377  1.00  0.00     0.010 A 
ATOM     14  C   UNL A   1      45.043  23.498  25.525  1.00  0.00    -0.014 A 
BRANCH  14  15
ATOM     15  C   UNL A   1      45.214  24.901  25.962  1.00  0.00     0.031 A 
ATOM     16  C   UNL A   1      46.546  25.556  25.773  1.00  0.00     0.074 A 
ATOM     17  C   UNL A   1      44.188  25.579  26.510  1.00  0.00     0.049 A 
ATOM     18  N   UNL A   1      46.944  26.734  26.169  1.00  0.00    -0.248 NA
ATOM     19  C   UNL A   1      47.573  24.775  25.066  1.00  0.00     0.031 C 
ATOM     20  C   UNL A   1      42.858  25.027  26.744  1.00  0.00     0.029 A 
ATOM     21  N   UNL A   1      44.094  26.868  26.971  1.00  0.00    -0.354 N 
ATOM     22  C   UNL A   1      48.285  26.809  25.821  1.00  0.00     0.074 A 
ATOM     23  C   UNL A   1      48.629  25.567  25.164  1.00  0.00     0.031 C 
ATOM     24  C   UNL A   1      42.076  25.975  27.280  1.00  0.00     0.029 A 
ATOM     25  C   UNL A   1      42.847  27.193  27.451  1.00  0.00     0.049 A 
ATOM     26  H   UNL A   1      44.848  27.500  26.960  1.00  0.00     0.167 HD
ATOM     27  C   UNL A   1      49.150  27.821  26.054  1.00  0.00     0.037 A 
ATOM     28  C   UNL A   1      42.376  28.336  27.985  1.00  0.00     0.037 A 
ATOM     29  C   UNL A   1      48.777  29.059  26.682  1.00  0.00     0.049 A 
ATOM     30  C   UNL A   1      43.344  29.465  28.176  1.00  0.00     0.074 A 
ATOM     31  C   UNL A   1      49.568  30.160  26.956  1.00  0.00     0.029 A 
ATOM     32  N   UNL A   1      47.498  29.358  27.131  1.00  0.00    -0.354 N 
ATOM     33  N   UNL A   1      44.612  29.520  27.845  1.00  0.00    -0.248 NA
ATOM     34  C   UNL A   1      42.840  30.666  28.852  1.00  0.00     0.031 C 
ATOM     35  C   UNL A   1      48.773  31.111  27.607  1.00  0.00     0.029 A 
ATOM     36  C   UNL A   1      47.482  30.618  27.705  1.00  0.00     0.049 A 
ATOM     37  H   UNL A   1      46.718  28.763  27.053  1.00  0.00     0.167 HD
ATOM     38  C   UNL A   1      45.068  30.746  28.302  1.00  0.00     0.074 A 
ATOM     39  C   UNL A   1      43.925  31.428  28.876  1.00  0.00     0.031 C 
ATOM     40  C   UNL A   1      46.325  31.250  28.284  1.00  0.00     0.037 A 
BRANCH  27  41
ATOM     41  C   UNL A   1      50.582  27.592  25.686  1.00  0.00     0.057 A 
ATOM     42  C   UNL A   1      51.538  27.172  26.619  1.00  0.00     0.134 A 
ATOM     43  C   UNL A   1      51.012  27.814  24.371  1.00  0.00     0.134 A 
ATOM     44  F   UNL A   1      51.195  26.974  27.901  1.00  0.00    -0.206 F 
ATOM     45  C   UNL A   1      52.875  26.995  26.260  1.00  0.00     0.040 A 
ATOM     46  C   UNL A   1      52.340  27.621  23.996  1.00  0.00     0.040 A 
ATOM     47  F   UNL A   1      50.147  28.230  23.434  1.00  0.00    -0.206 F 
ATOM     48  C   UNL A   1      53.279  27.214  24.943  1.00  0.00     0.006 A 
ENDBRANCH  27  41
BRANCH  28  49
ATOM     49  C   UNL A   1      40.948  28.461  28.392  1.00  0.00     0.057 A 
ATOM     50  C   UNL A   1      39.978  28.929  27.497  1.00  0.00     0.134 A 
ATOM     51  C   UNL A   1      40.511  28.110  29.676  1.00  0.00     0.134 A 
ATOM     52  F   UNL A   1      40.328  29.299  26.256  1.00  0.00    -0.206 F 
ATOM     53  C   UNL A   1      38.636  29.057  27.865  1.00  0.00     0.040 A 
ATOM     54  C   UNL A   1      39.167  28.198  30.048  1.00  0.00     0.040 A 
ATOM     55  F   UNL A   1      41.381  27.648  30.585  1.00  0.00    -0.206 F 
ATOM     56  C   UNL A   1      38.225  28.683  29.144  1.00  0.00     0.006 A 
ENDBRANCH  28  49
BRANCH  40  57
ATOM     57  C   UNL A   1      46.515  32.579  28.943  1.00  0.00     0.057 A 
ATOM     58  C   UNL A   1      46.865  32.671  30.295  1.00  0.00     0.134 A 
ATOM     59  C   UNL A   1      46.376  33.767  28.219  1.00  0.00     0.134 A 
ATOM     60  F   UNL A   1      46.995  31.563  31.041  1.00  0.00    -0.206 F 
ATOM     61  C   UNL A   1      47.055  33.906  30.912  1.00  0.00     0.040 A 
ATOM     62  C   UNL A   1      46.585  35.008  28.820  1.00  0.00     0.040 A 
ATOM     63  F   UNL A   1      46.046  33.739  26.920  1.00  0.00    -0.206 F 
ATOM     64  C   UNL A   1      46.921  35.079  30.171  1.00  0.00     0.006 A 
ENDBRANCH  40  57
ENDBRANCH  14  15
ENDBRANCH   7   9
ENDBRANCH   6   7
ENDBRANCH   5   6
ENDBRANCH   4   5
ENDBRANCH   3   4
ENDBRANCH   2   3
ENDBRANCH   1   2
BRANCH   1  65
ATOM     65  O   UNL A   1      38.843  22.574  25.939  1.00  0.00    -0.376 OA
BRANCH  65  66
ATOM     66  C   UNL A   1      37.475  22.327  25.634  1.00  0.00     0.202 C 
BRANCH  66  67
ATOM     67  C   UNL A   1      36.686  23.464  24.986  1.00  0.00     0.261 C 
BRANCH  67  68
ATOM     68  O   UNL A   1      35.255  23.350  25.056  1.00  0.00    -0.459 OA
BRANCH  68  69
ATOM     69  C   UNL A   1      34.647  23.086  23.854  1.00  0.00     0.370 C 
ATOM     70  O   UNL A   1      35.232  23.123  22.774  1.00  0.00    -0.245 OA
BRANCH  69  71
ATOM     71  C   UNL A   1      33.107  23.022  24.033  1.00  0.00     0.328 C 
BRANCH  71  72
ATOM     72  N   UNL A   1      32.466  24.113  23.265  1.00  0.00    -0.310 N 
ATOM     73  C   UNL A   1      31.015  24.223  23.380  1.00  0.00     0.325 C 
ATOM     74  C   UNL A   1      33.137  25.403  23.171  1.00  0.00     0.325 C 
ATOM     75  H   UNL A   1      32.641  23.724  22.338  1.00  0.00     0.349 HD
ATOM     76  C   UNL A   1      30.440  25.465  24.132  1.00  0.00     0.324 C 
ATOM     77  C   UNL A   1      32.610  26.496  24.116  1.00  0.00     0.324 C 
ATOM     78  N   UNL A   1      31.170  26.736  24.020  1.00  0.00    -0.322 N 
ATOM     79  H   UNL A   1      30.887  27.293  24.826  1.00  0.00     0.348 HD
BRANCH  78  80
ATOM     80  C   UNL A   1      30.756  27.650  22.940  1.00  0.00     0.299 C 
BRANCH  80  81
ATOM     81  C   UNL A   1      29.582  28.564  23.219  1.00  0.00     0.008 A 
ATOM     82  C   UNL A   1      28.273  28.069  23.151  1.00  0.00     0.009 A 
ATOM     83  C   UNL A   1      29.772  29.943  23.416  1.00  0.00     0.030 A 
ATOM     84  C   UNL A   1      27.183  28.940  23.118  1.00  0.00     0.002 A 
ATOM     85  C   UNL A   1      28.681  30.812  23.354  1.00  0.00     0.041 A 
ATOM     86  C   UNL A   1      27.391  30.316  23.182  1.00  0.00     0.020 A 
ATOM     87  Cl  UNL A   1      28.944  32.513  23.372  1.00  0.00    -0.084 Cl
ENDBRANCH  80  81
ENDBRANCH  78  80
ENDBRANCH  71  72
BRANCH  71  88
ATOM     88  C   UNL A   1      32.614  21.689  23.474  1.00  0.00     0.046 A 
ATOM     89  C   UNL A   1      32.125  21.492  22.189  1.00  0.00     0.094 A 
ATOM     90  C   UNL A   1      32.626  20.386  24.090  1.00  0.00     0.009 A 
ATOM     91  N   UNL A   1      31.950  20.157  21.975  1.00  0.00    -0.361 N 
ATOM     92  C   UNL A   1      32.245  19.455  23.117  1.00  0.00     0.049 A 
ATOM     93  C   UNL A   1      32.955  19.890  25.369  1.00  0.00     0.014 A 
ATOM     94  H   UNL A   1      31.655  19.756  21.126  1.00  0.00     0.166 HD
ATOM     95  C   UNL A   1      32.218  18.072  23.343  1.00  0.00     0.065 A 
ATOM     96  C   UNL A   1      32.897  18.512  25.627  1.00  0.00     0.040 A 
ATOM     97  C   UNL A   1      32.548  17.627  24.619  1.00  0.00     0.125 A 
ATOM     98  F   UNL A   1      32.526  16.313  24.878  1.00  0.00    -0.207 F 
ENDBRANCH  71  88
ENDBRANCH  69  71
ENDBRANCH  68  69
ENDBRANCH  67  68
ENDBRANCH  66  67
ENDBRANCH  65  66
ENDBRANCH   1  65
TORSDOF 21
ENDMDL
MODEL 2
REMARK VINA RESULT:     -11.9      4.414      6.654
REMARK SMILES O=C(OCCOCCOCCOC(=O)[C@H](c1c[nH]c2cc(F)ccc12)[NH+]1CC[NH+](Cc2cccc(Cl)c2)CC1)c1ccc(-c2c3nc(c(-c4c(F)cccc4F)c4ccc([nH]4)c(-c4c(F)cccc4F)c4nc(c(-c5c(F)cccc5F)c5ccc2[nH]5)C=C4)C=C3)cc1
REMARK SMILES IDX 8 1 7 2 6 3 5 4 4 5 3 6 2 7 1 8 40 9 41 10 93 11 42 12 92 13
REMARK SMILES IDX 43 14 44 15 45 16 86 17 46 18 91 19 85 20 87 21 47 22 90 23
REMARK SMILES IDX 84 24 83 25 48 27 74 28 57 29 73 30 58 31 61 32 72 33 88 34
REMARK SMILES IDX 59 35 60 36 71 38 89 39 62 40 49 41 50 42 55 43 51 44 52 45
REMARK SMILES IDX 54 46 56 47 53 48 75 49 76 50 81 51 77 52 78 53 80 54 82 55
REMARK SMILES IDX 79 56 63 57 64 58 69 59 65 60 66 61 68 62 70 63 67 64 9 65
REMARK SMILES IDX 10 66 11 67 12 68 13 69 14 70 15 71 26 72 27 73 39 74 28 76
REMARK SMILES IDX 38 77 29 78 30 80 31 81 32 82 37 83 33 84 35 85 34 86 36 87
REMARK SMILES IDX 16 88 17 89 25 90 18 91 19 92 24 93 20 95 23 96 21 97 22 98
REMARK H PARENT 87 26 61 37 26 75 29 79 18 94
REMARK Flexibility Score: inf
ROOT
ATOM      1  C   UNL A   1      39.822  21.463  26.156  1.00  0.00     0.188 C 
ENDROOT
BRANCH   1   2
ATOM      2  C   UNL A   1      40.521  21.433  27.510  1.00  0.00     0.188 C 
BRANCH   2   3
ATOM      3  O   UNL A   1      41.880  20.995  27.398  1.00  0.00    -0.376 OA
BRANCH   3   4
ATOM      4  C   UNL A   1      42.273  20.678  26.061  1.00  0.00     0.202 C 
BRANCH   4   5
ATOM      5  C   UNL A   1      43.400  21.549  25.490  1.00  0.00     0.261 C 
BRANCH   5   6
ATOM      6  O   UNL A   1      42.957  22.819  24.984  1.00  0.00    -0.460 OA
BRANCH   6   7
ATOM      7  C   UNL A   1      43.461  24.048  25.233  1.00  0.00     0.338 C 
ATOM      8  O   UNL A   1      44.302  24.522  24.470  1.00  0.00    -0.246 OA
BRANCH   7   9
ATOM      9  C   UNL A   1      42.976  24.906  26.342  1.00  0.00     0.060 A 
ATOM     10  C   UNL A   1      42.133  24.475  27.369  1.00  0.00     0.016 A 
ATOM     11  C   UNL A   1      43.532  26.192  26.429  1.00  0.00     0.016 A 
ATOM     12  C   UNL A   1      41.764  25.334  28.404  1.00  0.00     0.010 A 
ATOM     13  C   UNL A   1      43.222  27.032  27.500  1.00  0.00     0.010 A 
ATOM     14  C   UNL A   1      42.308  26.619  28.480  1.00  0.00    -0.014 A 
BRANCH  14  15
ATOM     15  C   UNL A   1      41.877  27.546  29.550  1.00  0.00     0.031 A 
ATOM     16  C   UNL A   1      42.678  27.610  30.812  1.00  0.00     0.074 A 
ATOM     17  C   UNL A   1      40.790  28.324  29.387  1.00  0.00     0.049 A 
ATOM     18  N   UNL A   1      42.428  28.272  31.909  1.00  0.00    -0.248 NA
ATOM     19  C   UNL A   1      43.909  26.806  30.856  1.00  0.00     0.031 C 
ATOM     20  C   UNL A   1      39.941  28.327  28.200  1.00  0.00     0.029 A 
ATOM     21  N   UNL A   1      40.209  29.255  30.209  1.00  0.00    -0.354 N 
ATOM     22  C   UNL A   1      43.432  27.911  32.796  1.00  0.00     0.074 A 
ATOM     23  C   UNL A   1      44.305  26.989  32.106  1.00  0.00     0.031 C 
ATOM     24  C   UNL A   1      38.966  29.233  28.360  1.00  0.00     0.029 A 
ATOM     25  C   UNL A   1      39.099  29.859  29.663  1.00  0.00     0.049 A 
ATOM     26  H   UNL A   1      40.552  29.472  31.106  1.00  0.00     0.167 HD
ATOM     27  C   UNL A   1      43.588  28.305  34.080  1.00  0.00     0.037 A 
ATOM     28  C   UNL A   1      38.271  30.798  30.157  1.00  0.00     0.037 A 
ATOM     29  C   UNL A   1      42.723  29.246  34.736  1.00  0.00     0.049 A 
ATOM     30  C   UNL A   1      38.505  31.261  31.564  1.00  0.00     0.074 A 
ATOM     31  C   UNL A   1      42.795  29.728  36.030  1.00  0.00     0.029 A 
ATOM     32  N   UNL A   1      41.625  29.853  34.139  1.00  0.00    -0.354 N 
ATOM     33  N   UNL A   1      39.458  30.909  32.394  1.00  0.00    -0.248 NA
ATOM     34  C   UNL A   1      37.533  32.209  32.122  1.00  0.00     0.031 C 
ATOM     35  C   UNL A   1      41.717  30.597  36.228  1.00  0.00     0.029 A 
ATOM     36  C   UNL A   1      40.995  30.685  35.048  1.00  0.00     0.049 A 
ATOM     37  H   UNL A   1      41.338  29.711  33.209  1.00  0.00     0.167 HD
ATOM     38  C   UNL A   1      39.183  31.563  33.583  1.00  0.00     0.074 A 
ATOM     39  C   UNL A   1      38.011  32.383  33.347  1.00  0.00     0.031 C 
ATOM     40  C   UNL A   1      39.817  31.467  34.776  1.00  0.00     0.037 A 
BRANCH  27  41
ATOM     41  C   UNL A   1      44.692  27.662  34.859  1.00  0.00     0.057 A 
ATOM     42  C   UNL A   1      44.527  26.443  35.528  1.00  0.00     0.134 A 
ATOM     43  C   UNL A   1      45.941  28.290  34.953  1.00  0.00     0.134 A 
ATOM     44  F   UNL A   1      43.345  25.809  35.504  1.00  0.00    -0.206 F 
ATOM     45  C   UNL A   1      45.562  25.879  36.275  1.00  0.00     0.040 A 
ATOM     46  C   UNL A   1      46.988  27.726  35.680  1.00  0.00     0.040 A 
ATOM     47  F   UNL A   1      46.158  29.466  34.345  1.00  0.00    -0.206 F 
ATOM     48  C   UNL A   1      46.799  26.518  36.348  1.00  0.00     0.006 A 
ENDBRANCH  27  41
BRANCH  28  49
ATOM     49  C   UNL A   1      37.148  31.337  29.339  1.00  0.00     0.057 A 
ATOM     50  C   UNL A   1      37.212  32.618  28.777  1.00  0.00     0.134 A 
ATOM     51  C   UNL A   1      35.989  30.591  29.088  1.00  0.00     0.134 A 
ATOM     52  F   UNL A   1      38.284  33.396  28.989  1.00  0.00    -0.206 F 
ATOM     53  C   UNL A   1      36.165  33.141  28.012  1.00  0.00     0.040 A 
ATOM     54  C   UNL A   1      34.950  31.084  28.295  1.00  0.00     0.040 A 
ATOM     55  F   UNL A   1      35.860  29.353  29.588  1.00  0.00    -0.206 F 
ATOM     56  C   UNL A   1      35.032  32.369  27.763  1.00  0.00     0.006 A 
ENDBRANCH  28  49
BRANCH  40  57
ATOM     57  C   UNL A   1      39.219  32.241  35.908  1.00  0.00     0.057 A 
ATOM     58  C   UNL A   1      38.271  31.659  36.758  1.00  0.00     0.134 A 
ATOM     59  C   UNL A   1      39.611  33.558  36.166  1.00  0.00     0.134 A 
ATOM     60  F   UNL A   1      37.846  30.404  36.546  1.00  0.00    -0.206 F 
ATOM     61  C   UNL A   1      37.718  32.371  37.821  1.00  0.00     0.040 A 
ATOM     62  C   UNL A   1      39.081  34.272  37.240  1.00  0.00     0.040 A 
ATOM     63  F   UNL A   1      40.518  34.165  35.386  1.00  0.00    -0.206 F 
ATOM     64  C   UNL A   1      38.129  33.680  38.068  1.00  0.00     0.006 A 
ENDBRANCH  40  57
ENDBRANCH  14  15
ENDBRANCH   7   9
ENDBRANCH   6   7
ENDBRANCH   5   6
ENDBRANCH   4   5
ENDBRANCH   3   4
ENDBRANCH   2   3
ENDBRANCH   1   2
BRANCH   1  65
ATOM     65  O   UNL A   1      38.579  22.159  26.108  1.00  0.00    -0.376 OA
BRANCH  65  66
ATOM     66  C   UNL A   1      37.596  21.715  25.181  1.00  0.00     0.202 C 
BRANCH  66  67
ATOM     67  C   UNL A   1      36.941  22.774  24.294  1.00  0.00     0.261 C 
BRANCH  67  68
ATOM     68  O   UNL A   1      35.506  22.830  24.344  1.00  0.00    -0.459 OA
BRANCH  68  69
ATOM     69  C   UNL A   1      35.004  23.789  25.188  1.00  0.00     0.370 C 
ATOM     70  O   UNL A   1      35.683  24.695  25.666  1.00  0.00    -0.245 OA
BRANCH  69  71
ATOM     71  C   UNL A   1      33.576  23.402  25.656  1.00  0.00     0.328 C 
BRANCH  71  72
ATOM     72  N   UNL A   1      32.574  23.937  24.707  1.00  0.00    -0.310 N 
ATOM     73  C   UNL A   1      31.249  24.218  25.251  1.00  0.00     0.325 C 
ATOM     74  C   UNL A   1      32.997  24.896  23.694  1.00  0.00     0.325 C 
ATOM     75  H   UNL A   1      32.471  23.087  24.152  1.00  0.00     0.349 HD
ATOM     76  C   UNL A   1      30.810  25.713  25.351  1.00  0.00     0.324 C 
ATOM     77  C   UNL A   1      32.688  26.370  24.005  1.00  0.00     0.324 C 
ATOM     78  N   UNL A   1      31.285  26.641  24.315  1.00  0.00    -0.322 N 
ATOM     79  H   UNL A   1      31.225  27.573  24.725  1.00  0.00     0.348 HD
BRANCH  78  80
ATOM     80  C   UNL A   1      30.410  26.838  23.144  1.00  0.00     0.299 C 
BRANCH  80  81
ATOM     81  C   UNL A   1      29.364  27.928  23.238  1.00  0.00     0.008 A 
ATOM     82  C   UNL A   1      28.027  27.599  23.498  1.00  0.00     0.009 A 
ATOM     83  C   UNL A   1      29.683  29.263  22.933  1.00  0.00     0.030 A 
ATOM     84  C   UNL A   1      27.012  28.537  23.305  1.00  0.00     0.002 A 
ATOM     85  C   UNL A   1      28.662  30.190  22.714  1.00  0.00     0.041 A 
ATOM     86  C   UNL A   1      27.328  29.825  22.875  1.00  0.00     0.020 A 
ATOM     87  Cl  UNL A   1      29.051  31.761  22.127  1.00  0.00    -0.084 Cl
ENDBRANCH  80  81
ENDBRANCH  78  80
ENDBRANCH  71  72
BRANCH  71  88
ATOM     88  C   UNL A   1      33.469  21.879  25.656  1.00  0.00     0.046 A 
ATOM     89  C   UNL A   1      33.701  21.060  26.754  1.00  0.00     0.094 A 
ATOM     90  C   UNL A   1      33.042  20.997  24.598  1.00  0.00     0.009 A 
ATOM     91  N   UNL A   1      33.340  19.782  26.446  1.00  0.00    -0.361 N 
ATOM     92  C   UNL A   1      32.935  19.710  25.136  1.00  0.00     0.049 A 
ATOM     93  C   UNL A   1      32.699  21.163  23.239  1.00  0.00     0.014 A 
ATOM     94  H   UNL A   1      33.365  19.023  27.071  1.00  0.00     0.166 HD
ATOM     95  C   UNL A   1      32.470  18.607  24.408  1.00  0.00     0.065 A 
ATOM     96  C   UNL A   1      32.268  20.063  22.482  1.00  0.00     0.040 A 
ATOM     97  C   UNL A   1      32.146  18.815  23.071  1.00  0.00     0.125 A 
ATOM     98  F   UNL A   1      31.705  17.784  22.339  1.00  0.00    -0.207 F 
ENDBRANCH  71  88
ENDBRANCH  69  71
ENDBRANCH  68  69
ENDBRANCH  67  68
ENDBRANCH  66  67
ENDBRANCH  65  66
ENDBRANCH   1  65
TORSDOF 21
ENDMDL
MODEL 3
REMARK VINA RESULT:     -11.6      3.988      9.406
REMARK SMILES O=C(OCCOCCOCCOC(=O)[C@H](c1c[nH]c2cc(F)ccc12)[NH+]1CC[NH+](Cc2cccc(Cl)c2)CC1)c1ccc(-c2c3nc(c(-c4c(F)cccc4F)c4ccc([nH]4)c(-c4c(F)cccc4F)c4nc(c(-c5c(F)cccc5F)c5ccc2[nH]5)C=C4)C=C3)cc1
REMARK SMILES IDX 8 1 7 2 6 3 5 4 4 5 3 6 2 7 1 8 40 9 41 10 93 11 42 12 92 13
REMARK SMILES IDX 43 14 44 15 45 16 86 17 46 18 91 19 85 20 87 21 47 22 90 23
REMARK SMILES IDX 84 24 83 25 48 27 74 28 57 29 73 30 58 31 61 32 72 33 88 34
REMARK SMILES IDX 59 35 60 36 71 38 89 39 62 40 49 41 50 42 55 43 51 44 52 45
REMARK SMILES IDX 54 46 56 47 53 48 75 49 76 50 81 51 77 52 78 53 80 54 82 55
REMARK SMILES IDX 79 56 63 57 64 58 69 59 65 60 66 61 68 62 70 63 67 64 9 65
REMARK SMILES IDX 10 66 11 67 12 68 13 69 14 70 15 71 26 72 27 73 39 74 28 76
REMARK SMILES IDX 38 77 29 78 30 80 31 81 32 82 37 83 33 84 35 85 34 86 36 87
REMARK SMILES IDX 16 88 17 89 25 90 18 91 19 92 24 93 20 95 23 96 21 97 22 98
REMARK H PARENT 87 26 61 37 26 75 29 79 18 94
REMARK Flexibility Score: inf
ROOT
ATOM      1  C   UNL A   1      33.554  31.410  27.767  1.00  0.00     0.188 C 
ENDROOT
BRANCH   1   2
ATOM      2  C   UNL A   1      34.910  32.096  27.646  1.00  0.00     0.188 C 
BRANCH   2   3
ATOM      3  O   UNL A   1      34.855  33.463  28.068  1.00  0.00    -0.376 OA
BRANCH   3   4
ATOM      4  C   UNL A   1      33.894  33.709  29.096  1.00  0.00     0.202 C 
BRANCH   4   5
ATOM      5  C   UNL A   1      34.469  33.811  30.514  1.00  0.00     0.261 C 
BRANCH   5   6
ATOM      6  O   UNL A   1      34.653  32.541  31.162  1.00  0.00    -0.460 OA
BRANCH   6   7
ATOM      7  C   UNL A   1      35.715  32.103  31.875  1.00  0.00     0.338 C 
ATOM      8  O   UNL A   1      35.637  32.046  33.101  1.00  0.00    -0.246 OA
BRANCH   7   9
ATOM      9  C   UNL A   1      36.954  31.593  31.238  1.00  0.00     0.060 A 
ATOM     10  C   UNL A   1      37.343  31.867  29.926  1.00  0.00     0.016 A 
ATOM     11  C   UNL A   1      37.855  30.915  32.075  1.00  0.00     0.016 A 
ATOM     12  C   UNL A   1      38.552  31.388  29.419  1.00  0.00     0.010 A 
ATOM     13  C   UNL A   1      39.097  30.495  31.594  1.00  0.00     0.010 A 
ATOM     14  C   UNL A   1      39.440  30.701  30.251  1.00  0.00    -0.014 A 
BRANCH  14  15
ATOM     15  C   UNL A   1      40.698  30.151  29.699  1.00  0.00     0.031 A 
ATOM     16  C   UNL A   1      41.902  31.037  29.631  1.00  0.00     0.074 A 
ATOM     17  C   UNL A   1      40.761  28.874  29.275  1.00  0.00     0.049 A 
ATOM     18  N   UNL A   1      43.069  30.795  29.099  1.00  0.00    -0.248 NA
ATOM     19  C   UNL A   1      41.769  32.379  30.218  1.00  0.00     0.031 C 
ATOM     20  C   UNL A   1      39.643  27.938  29.292  1.00  0.00     0.029 A 
ATOM     21  N   UNL A   1      41.795  28.142  28.749  1.00  0.00    -0.354 N 
ATOM     22  C   UNL A   1      43.786  31.976  29.225  1.00  0.00     0.074 A 
ATOM     23  C   UNL A   1      42.932  32.927  29.901  1.00  0.00     0.031 C 
ATOM     24  C   UNL A   1      40.056  26.751  28.823  1.00  0.00     0.029 A 
ATOM     25  C   UNL A   1      41.456  26.842  28.451  1.00  0.00     0.049 A 
ATOM     26  H   UNL A   1      42.695  28.512  28.598  1.00  0.00     0.167 HD
ATOM     27  C   UNL A   1      45.038  32.239  28.791  1.00  0.00     0.037 A 
ATOM     28  C   UNL A   1      42.181  25.839  27.923  1.00  0.00     0.037 A 
ATOM     29  C   UNL A   1      45.880  31.267  28.148  1.00  0.00     0.049 A 
ATOM     30  C   UNL A   1      43.589  26.144  27.505  1.00  0.00     0.074 A 
ATOM     31  C   UNL A   1      47.171  31.420  27.679  1.00  0.00     0.029 A 
ATOM     32  N   UNL A   1      45.507  29.955  27.887  1.00  0.00    -0.354 N 
ATOM     33  N   UNL A   1      44.254  27.268  27.628  1.00  0.00    -0.248 NA
ATOM     34  C   UNL A   1      44.332  25.068  26.838  1.00  0.00     0.031 C 
ATOM     35  C   UNL A   1      47.566  30.209  27.099  1.00  0.00     0.029 A 
ATOM     36  C   UNL A   1      46.536  29.293  27.240  1.00  0.00     0.049 A 
ATOM     37  H   UNL A   1      44.641  29.556  28.127  1.00  0.00     0.167 HD
ATOM     38  C   UNL A   1      45.480  27.048  27.023  1.00  0.00     0.074 A 
ATOM     39  C   UNL A   1      45.491  25.664  26.592  1.00  0.00     0.031 C 
ATOM     40  C   UNL A   1      46.495  27.920  26.808  1.00  0.00     0.037 A 
BRANCH  27  41
ATOM     41  C   UNL A   1      45.531  33.644  28.943  1.00  0.00     0.057 A 
ATOM     42  C   UNL A   1      46.230  34.075  30.078  1.00  0.00     0.134 A 
ATOM     43  C   UNL A   1      45.282  34.586  27.937  1.00  0.00     0.134 A 
ATOM     44  F   UNL A   1      46.470  33.229  31.091  1.00  0.00    -0.206 F 
ATOM     45  C   UNL A   1      46.651  35.399  30.211  1.00  0.00     0.040 A 
ATOM     46  C   UNL A   1      45.716  35.906  28.050  1.00  0.00     0.040 A 
ATOM     47  F   UNL A   1      44.606  34.238  26.832  1.00  0.00    -0.206 F 
ATOM     48  C   UNL A   1      46.400  36.318  29.193  1.00  0.00     0.006 A 
ENDBRANCH  27  41
BRANCH  28  49
ATOM     49  C   UNL A   1      41.593  24.482  27.738  1.00  0.00     0.057 A 
ATOM     50  C   UNL A   1      41.951  23.418  28.575  1.00  0.00     0.134 A 
ATOM     51  C   UNL A   1      40.656  24.212  26.732  1.00  0.00     0.134 A 
ATOM     52  F   UNL A   1      42.855  23.601  29.549  1.00  0.00    -0.206 F 
ATOM     53  C   UNL A   1      41.413  22.139  28.412  1.00  0.00     0.040 A 
ATOM     54  C   UNL A   1      40.082  22.947  26.579  1.00  0.00     0.040 A 
ATOM     55  F   UNL A   1      40.260  25.183  25.896  1.00  0.00    -0.206 F 
ATOM     56  C   UNL A   1      40.468  21.902  27.415  1.00  0.00     0.006 A 
ENDBRANCH  28  49
BRANCH  40  57
ATOM     57  C   UNL A   1      47.667  27.397  26.040  1.00  0.00     0.057 A 
ATOM     58  C   UNL A   1      47.705  27.471  24.643  1.00  0.00     0.134 A 
ATOM     59  C   UNL A   1      48.769  26.843  26.698  1.00  0.00     0.134 A 
ATOM     60  F   UNL A   1      46.666  27.977  23.960  1.00  0.00    -0.206 F 
ATOM     61  C   UNL A   1      48.798  26.996  23.921  1.00  0.00     0.040 A 
ATOM     62  C   UNL A   1      49.878  26.384  25.988  1.00  0.00     0.040 A 
ATOM     63  F   UNL A   1      48.789  26.750  28.036  1.00  0.00    -0.206 F 
ATOM     64  C   UNL A   1      49.892  26.456  24.596  1.00  0.00     0.006 A 
ENDBRANCH  40  57
ENDBRANCH  14  15
ENDBRANCH   7   9
ENDBRANCH   6   7
ENDBRANCH   5   6
ENDBRANCH   4   5
ENDBRANCH   3   4
ENDBRANCH   2   3
ENDBRANCH   1   2
BRANCH   1  65
ATOM     65  O   UNL A   1      33.290  30.375  26.824  1.00  0.00    -0.376 OA
BRANCH  65  66
ATOM     66  C   UNL A   1      32.023  29.728  26.874  1.00  0.00     0.202 C 
BRANCH  66  67
ATOM     67  C   UNL A   1      32.019  28.204  26.978  1.00  0.00     0.261 C 
BRANCH  67  68
ATOM     68  O   UNL A   1      31.440  27.504  25.864  1.00  0.00    -0.459 OA
BRANCH  68  69
ATOM     69  C   UNL A   1      32.337  27.156  24.884  1.00  0.00     0.370 C 
ATOM     70  O   UNL A   1      33.438  27.686  24.752  1.00  0.00    -0.245 OA
BRANCH  69  71
ATOM     71  C   UNL A   1      31.659  26.232  23.837  1.00  0.00     0.328 C 
BRANCH  71  72
ATOM     72  N   UNL A   1      31.584  24.850  24.361  1.00  0.00    -0.310 N 
ATOM     73  C   UNL A   1      31.038  23.842  23.458  1.00  0.00     0.325 C 
ATOM     74  C   UNL A   1      32.667  24.349  25.198  1.00  0.00     0.325 C 
ATOM     75  H   UNL A   1      30.856  25.026  25.053  1.00  0.00     0.349 HD
ATOM     76  C   UNL A   1      32.015  22.753  22.912  1.00  0.00     0.324 C 
ATOM     77  C   UNL A   1      33.689  23.443  24.490  1.00  0.00     0.324 C 
ATOM     78  N   UNL A   1      33.103  22.301  23.791  1.00  0.00    -0.322 N 
ATOM     79  H   UNL A   1      33.814  21.906  23.176  1.00  0.00     0.348 HD
BRANCH  78  80
ATOM     80  C   UNL A   1      32.833  21.121  24.633  1.00  0.00     0.299 C 
BRANCH  80  81
ATOM     81  C   UNL A   1      33.125  19.761  24.033  1.00  0.00     0.008 A 
ATOM     82  C   UNL A   1      32.342  19.274  22.978  1.00  0.00     0.009 A 
ATOM     83  C   UNL A   1      34.087  18.912  24.606  1.00  0.00     0.030 A 
ATOM     84  C   UNL A   1      32.402  17.931  22.607  1.00  0.00     0.002 A 
ATOM     85  C   UNL A   1      34.124  17.562  24.251  1.00  0.00     0.041 A 
ATOM     86  C   UNL A   1      33.269  17.065  23.271  1.00  0.00     0.020 A 
ATOM     87  Cl  UNL A   1      35.152  16.483  25.113  1.00  0.00    -0.084 Cl
ENDBRANCH  80  81
ENDBRANCH  78  80
ENDBRANCH  71  72
BRANCH  71  88
ATOM     88  C   UNL A   1      30.236  26.734  23.605  1.00  0.00     0.046 A 
ATOM     89  C   UNL A   1      29.081  26.099  24.042  1.00  0.00     0.094 A 
ATOM     90  C   UNL A   1      29.795  27.961  22.989  1.00  0.00     0.009 A 
ATOM     91  N   UNL A   1      28.010  26.911  23.821  1.00  0.00    -0.361 N 
ATOM     92  C   UNL A   1      28.411  28.055  23.178  1.00  0.00     0.049 A 
ATOM     93  C   UNL A   1      30.432  29.026  22.317  1.00  0.00     0.014 A 
ATOM     94  H   UNL A   1      27.084  26.708  24.084  1.00  0.00     0.166 HD
ATOM     95  C   UNL A   1      27.653  29.161  22.772  1.00  0.00     0.065 A 
ATOM     96  C   UNL A   1      29.684  30.125  21.869  1.00  0.00     0.040 A 
ATOM     97  C   UNL A   1      28.321  30.187  22.111  1.00  0.00     0.125 A 
ATOM     98  F   UNL A   1      27.629  31.258  21.701  1.00  0.00    -0.207 F 
ENDBRANCH  71  88
ENDBRANCH  69  71
ENDBRANCH  68  69
ENDBRANCH  67  68
ENDBRANCH  66  67
ENDBRANCH  65  66
ENDBRANCH   1  65
TORSDOF 21
ENDMDL
