MODEL 1
REMARK VINA RESULT:     -10.7      0.000      0.000
REMARK SMILES Cc1cccc(S(=O)(=O)N[C@@H](CCC(N)=O)C(=O)OCCOCCOCCOC(=O)c2ccc(-c3c4nc(c(-c5c(F)cccc5F)c5ccc([nH]5)c(-c5c(F)cccc5F)c5nc(c(-c6c(F)cccc6F)c6ccc3[nH]6)C=C5)C=C4)cc2)c1
REMARK SMILES IDX 23 1 22 2 21 3 20 4 19 5 17 6 18 7 11 8 10 9 7 11 8 12 9 13
REMARK SMILES IDX 6 14 1 15 2 16 3 17 85 18 4 19 5 20 12 21 13 22 14 23 15 24
REMARK SMILES IDX 16 25 24 28 25 29 26 30 27 31 28 32 29 33 30 34 31 35 32 36
REMARK SMILES IDX 84 37 33 38 83 39 34 40 35 41 36 42 77 43 37 44 82 45 76 46
REMARK SMILES IDX 78 47 38 48 81 49 75 50 74 51 39 53 65 54 48 55 64 56 49 57
REMARK SMILES IDX 52 58 63 59 79 60 50 61 51 62 62 64 80 65 53 66 40 67 41 68
REMARK SMILES IDX 46 69 42 70 43 71 45 72 47 73 44 74 66 75 67 76 72 77 68 78
REMARK SMILES IDX 69 79 71 80 73 81 70 82 54 83 55 84 60 85 56 86 57 87 59 88
REMARK SMILES IDX 61 89 58 90
REMARK H PARENT 10 10 15 26 15 27 78 52 52 63
REMARK Flexibility Score: inf
ROOT
ATOM      1  C   UNL A   1      33.468  28.663  25.429  1.00  0.00     0.188 C 
ENDROOT
BRANCH   1   2
ATOM      2  O   UNL A   1      32.054  28.607  25.495  1.00  0.00    -0.376 OA
BRANCH   2   3
ATOM      3  C   UNL A   1      31.448  29.548  24.618  1.00  0.00     0.202 C 
BRANCH   3   4
ATOM      4  C   UNL A   1      30.687  28.955  23.403  1.00  0.00     0.261 C 
BRANCH   4   5
ATOM      5  O   UNL A   1      29.808  27.602  23.601  1.00  0.00    -0.462 OA
BRANCH   5   6
ATOM      6  C   UNL A   1      29.610  26.215  23.733  1.00  0.00     0.324 C 
ATOM      7  O   UNL A   1      28.620  25.951  24.432  1.00  0.00    -0.250 OA
BRANCH   6   8
ATOM      8  C   UNL A   1      30.490  24.844  23.085  1.00  0.00     0.180 C 
BRANCH   8   9
ATOM      9  N   UNL A   1      31.524  25.175  22.066  1.00  0.00    -0.197 NA
ATOM     10  H   UNL A   1      31.181  24.672  21.248  1.00  0.00     0.142 HD
BRANCH   9  11
ATOM     11  S   UNL A   1      33.172  25.040  21.882  1.00  0.00     0.241 S 
ATOM     12  O   UNL A   1      33.651  26.345  21.481  1.00  0.00    -0.207 OA
ATOM     13  O   UNL A   1      33.269  23.941  20.937  1.00  0.00    -0.207 OA
BRANCH  11  14
ATOM     14  C   UNL A   1      34.148  24.539  23.260  1.00  0.00     0.082 A 
ATOM     15  C   UNL A   1      36.554  21.840  24.371  1.00  0.00     0.044 C 
ATOM     16  C   UNL A   1      35.671  23.047  24.416  1.00  0.00    -0.050 A 
ATOM     17  C   UNL A   1      35.479  23.752  25.606  1.00  0.00     0.003 A 
ATOM     18  C   UNL A   1      34.980  23.437  23.259  1.00  0.00     0.025 A 
ATOM     19  C   UNL A   1      34.637  24.861  25.627  1.00  0.00     0.002 A 
ATOM     20  C   UNL A   1      33.983  25.261  24.457  1.00  0.00     0.022 A 
ENDBRANCH  11  14
ENDBRANCH   9  11
ENDBRANCH   8   9
BRANCH   8  21
ATOM     21  C   UNL A   1      30.886  23.394  23.706  1.00  0.00     0.042 C 
BRANCH  21  22
ATOM     22  C   UNL A   1      31.281  22.694  25.189  1.00  0.00     0.102 C 
BRANCH  22  23
ATOM     23  C   UNL A   1      31.815  22.941  26.907  1.00  0.00     0.217 C 
ATOM     24  N   UNL A   1      32.623  22.115  27.584  1.00  0.00    -0.370 N 
ATOM     25  O   UNL A   1      31.752  23.964  27.629  1.00  0.00    -0.275 OA
ATOM     26  H   UNL A   1      32.836  21.225  27.219  1.00  0.00     0.159 HD
ATOM     27  H   UNL A   1      33.006  22.397  28.446  1.00  0.00     0.159 HD
ENDBRANCH  22  23
ENDBRANCH  21  22
ENDBRANCH   8  21
ENDBRANCH   6   8
ENDBRANCH   5   6
ENDBRANCH   4   5
ENDBRANCH   3   4
ENDBRANCH   2   3
ENDBRANCH   1   2
BRANCH   1  28
ATOM     28  C   UNL A   1      34.081  28.942  26.801  1.00  0.00     0.188 C 
BRANCH  28  29
ATOM     29  O   UNL A   1      33.382  29.896  27.577  1.00  0.00    -0.376 OA
BRANCH  29  30
ATOM     30  C   UNL A   1      33.342  31.241  27.090  1.00  0.00     0.202 C 
BRANCH  30  31
ATOM     31  C   UNL A   1      33.714  32.133  28.269  1.00  0.00     0.261 C 
BRANCH  31  32
ATOM     32  O   UNL A   1      34.774  31.496  29.024  1.00  0.00    -0.460 OA
BRANCH  32  33
ATOM     33  C   UNL A   1      36.035  31.808  28.626  1.00  0.00     0.338 C 
ATOM     34  O   UNL A   1      36.383  32.882  28.142  1.00  0.00    -0.246 OA
BRANCH  33  35
ATOM     35  C   UNL A   1      36.852  30.553  28.595  1.00  0.00     0.060 A 
ATOM     36  C   UNL A   1      36.895  29.793  29.740  1.00  0.00     0.016 A 
ATOM     37  C   UNL A   1      37.786  30.257  27.592  1.00  0.00     0.016 A 
ATOM     38  C   UNL A   1      37.991  28.938  29.949  1.00  0.00     0.010 A 
ATOM     39  C   UNL A   1      38.915  29.434  27.854  1.00  0.00     0.010 A 
ATOM     40  C   UNL A   1      39.141  28.880  29.122  1.00  0.00    -0.014 A 
BRANCH  40  41
ATOM     41  C   UNL A   1      40.677  28.438  29.451  1.00  0.00     0.031 A 
ATOM     42  C   UNL A   1      40.893  26.894  28.553  1.00  0.00     0.074 A 
ATOM     43  C   UNL A   1      41.670  29.240  30.358  1.00  0.00     0.049 A 
ATOM     44  N   UNL A   1      41.994  26.306  28.112  1.00  0.00    -0.248 NA
ATOM     45  C   UNL A   1      39.814  25.880  28.438  1.00  0.00     0.031 C 
ATOM     46  C   UNL A   1      43.159  29.705  30.305  1.00  0.00     0.029 A 
ATOM     47  N   UNL A   1      41.615  29.594  31.780  1.00  0.00    -0.354 N 
ATOM     48  C   UNL A   1      41.929  24.932  28.133  1.00  0.00     0.074 A 
ATOM     49  C   UNL A   1      40.489  24.721  28.254  1.00  0.00     0.031 C 
ATOM     50  C   UNL A   1      43.798  29.703  31.492  1.00  0.00     0.029 A 
ATOM     51  C   UNL A   1      42.804  29.628  32.501  1.00  0.00     0.049 A 
ATOM     52  H   UNL A   1      40.756  29.803  32.212  1.00  0.00     0.167 HD
ATOM     53  C   UNL A   1      42.987  24.060  28.431  1.00  0.00     0.037 A 
ATOM     54  C   UNL A   1      43.033  29.562  33.834  1.00  0.00     0.037 A 
ATOM     55  C   UNL A   1      44.013  24.379  29.552  1.00  0.00     0.049 A 
ATOM     56  C   UNL A   1      43.828  28.287  34.136  1.00  0.00     0.074 A 
ATOM     57  C   UNL A   1      45.325  24.878  29.564  1.00  0.00     0.029 A 
ATOM     58  N   UNL A   1      43.785  24.199  30.958  1.00  0.00    -0.354 N 
ATOM     59  N   UNL A   1      44.122  27.375  33.234  1.00  0.00    -0.248 NA
ATOM     60  C   UNL A   1      44.310  27.908  35.459  1.00  0.00     0.031 C 
ATOM     61  C   UNL A   1      45.664  25.388  30.838  1.00  0.00     0.029 A 
ATOM     62  C   UNL A   1      44.726  24.937  31.737  1.00  0.00     0.049 A 
ATOM     63  H   UNL A   1      43.071  23.638  31.337  1.00  0.00     0.167 HD
ATOM     64  C   UNL A   1      44.631  26.245  33.837  1.00  0.00     0.074 A 
ATOM     65  C   UNL A   1      44.843  26.695  35.211  1.00  0.00     0.031 C 
ATOM     66  C   UNL A   1      44.812  25.024  33.209  1.00  0.00     0.037 A 
BRANCH  53  67
ATOM     67  C   UNL A   1      43.505  23.469  27.071  1.00  0.00     0.057 A 
ATOM     68  C   UNL A   1      44.265  24.175  26.111  1.00  0.00     0.134 A 
ATOM     69  C   UNL A   1      43.176  22.162  26.659  1.00  0.00     0.134 A 
ATOM     70  F   UNL A   1      44.859  25.340  26.361  1.00  0.00    -0.206 F 
ATOM     71  C   UNL A   1      44.525  23.706  24.814  1.00  0.00     0.040 A 
ATOM     72  C   UNL A   1      43.465  21.661  25.374  1.00  0.00     0.040 A 
ATOM     73  F   UNL A   1      42.574  21.307  27.498  1.00  0.00    -0.206 F 
ATOM     74  C   UNL A   1      44.112  22.447  24.432  1.00  0.00     0.006 A 
ENDBRANCH  53  67
BRANCH  54  75
ATOM     75  C   UNL A   1      42.100  30.333  34.713  1.00  0.00     0.057 A 
ATOM     76  C   UNL A   1      42.199  31.743  34.670  1.00  0.00     0.134 A 
ATOM     77  C   UNL A   1      40.971  29.832  35.365  1.00  0.00     0.134 A 
ATOM     78  F   UNL A   1      43.254  32.318  34.068  1.00  0.00    -0.206 F 
ATOM     79  C   UNL A   1      41.206  32.603  35.164  1.00  0.00     0.040 A 
ATOM     80  C   UNL A   1      39.961  30.687  35.857  1.00  0.00     0.040 A 
ATOM     81  F   UNL A   1      40.776  28.510  35.456  1.00  0.00    -0.206 F 
ATOM     82  C   UNL A   1      40.060  32.072  35.733  1.00  0.00     0.006 A 
ENDBRANCH  54  75
BRANCH  66  83
ATOM     83  C   UNL A   1      45.381  23.805  33.905  1.00  0.00     0.057 A 
ATOM     84  C   UNL A   1      44.647  22.662  34.239  1.00  0.00     0.134 A 
ATOM     85  C   UNL A   1      46.767  23.731  34.190  1.00  0.00     0.134 A 
ATOM     86  F   UNL A   1      43.345  22.551  33.940  1.00  0.00    -0.206 F 
ATOM     87  C   UNL A   1      45.235  21.552  34.860  1.00  0.00     0.040 A 
ATOM     88  C   UNL A   1      47.375  22.606  34.742  1.00  0.00     0.040 A 
ATOM     89  F   UNL A   1      47.606  24.745  33.941  1.00  0.00    -0.206 F 
ATOM     90  C   UNL A   1      46.606  21.513  35.095  1.00  0.00     0.006 A 
ENDBRANCH  66  83
ENDBRANCH  40  41
ENDBRANCH  33  35
ENDBRANCH  32  33
ENDBRANCH  31  32
ENDBRANCH  30  31
ENDBRANCH  29  30
ENDBRANCH  28  29
ENDBRANCH   1  28
TORSDOF 23
ENDMDL
MODEL 2
REMARK VINA RESULT:     -10.7      2.614      4.228
REMARK SMILES Cc1cccc(S(=O)(=O)N[C@@H](CCC(N)=O)C(=O)OCCOCCOCCOC(=O)c2ccc(-c3c4nc(c(-c5c(F)cccc5F)c5ccc([nH]5)c(-c5c(F)cccc5F)c5nc(c(-c6c(F)cccc6F)c6ccc3[nH]6)C=C5)C=C4)cc2)c1
REMARK SMILES IDX 23 1 22 2 21 3 20 4 19 5 17 6 18 7 11 8 10 9 7 11 8 12 9 13
REMARK SMILES IDX 6 14 1 15 2 16 3 17 85 18 4 19 5 20 12 21 13 22 14 23 15 24
REMARK SMILES IDX 16 25 24 28 25 29 26 30 27 31 28 32 29 33 30 34 31 35 32 36
REMARK SMILES IDX 84 37 33 38 83 39 34 40 35 41 36 42 77 43 37 44 82 45 76 46
REMARK SMILES IDX 78 47 38 48 81 49 75 50 74 51 39 53 65 54 48 55 64 56 49 57
REMARK SMILES IDX 52 58 63 59 79 60 50 61 51 62 62 64 80 65 53 66 40 67 41 68
REMARK SMILES IDX 46 69 42 70 43 71 45 72 47 73 44 74 66 75 67 76 72 77 68 78
REMARK SMILES IDX 69 79 71 80 73 81 70 82 54 83 55 84 60 85 56 86 57 87 59 88
REMARK SMILES IDX 61 89 58 90
REMARK H PARENT 10 10 15 26 15 27 78 52 52 63
REMARK Flexibility Score: inf
ROOT
ATOM      1  C   UNL A   1      31.814  27.317  25.967  1.00  0.00     0.188 C 
ENDROOT
BRANCH   1   2
ATOM      2  O   UNL A   1      30.669  27.592  25.179  1.00  0.00    -0.376 OA
BRANCH   2   3
ATOM      3  C   UNL A   1      31.022  28.017  23.869  1.00  0.00     0.202 C 
BRANCH   3   4
ATOM      4  C   UNL A   1      30.975  26.930  22.764  1.00  0.00     0.261 C 
BRANCH   4   5
ATOM      5  O   UNL A   1      32.105  25.760  22.755  1.00  0.00    -0.462 OA
BRANCH   5   6
ATOM      6  C   UNL A   1      32.660  24.523  22.381  1.00  0.00     0.324 C 
ATOM      7  O   UNL A   1      33.089  24.538  21.218  1.00  0.00    -0.250 OA
BRANCH   6   8
ATOM      8  C   UNL A   1      32.852  23.018  23.260  1.00  0.00     0.180 C 
BRANCH   8   9
ATOM      9  N   UNL A   1      32.811  23.136  24.743  1.00  0.00    -0.197 NA
ATOM     10  H   UNL A   1      32.313  24.017  24.870  1.00  0.00     0.142 HD
BRANCH   9  11
ATOM     11  S   UNL A   1      33.882  23.164  26.016  1.00  0.00     0.241 S 
ATOM     12  O   UNL A   1      33.350  22.272  27.024  1.00  0.00    -0.207 OA
ATOM     13  O   UNL A   1      33.947  24.586  26.307  1.00  0.00    -0.207 OA
BRANCH  11  14
ATOM     14  C   UNL A   1      35.554  22.682  25.737  1.00  0.00     0.082 A 
ATOM     15  C   UNL A   1      37.665  19.684  24.812  1.00  0.00     0.044 C 
ATOM     16  C   UNL A   1      37.294  21.074  25.222  1.00  0.00    -0.050 A 
ATOM     17  C   UNL A   1      38.275  22.017  25.535  1.00  0.00     0.003 A 
ATOM     18  C   UNL A   1      35.939  21.413  25.352  1.00  0.00     0.025 A 
ATOM     19  C   UNL A   1      37.904  23.299  25.933  1.00  0.00     0.002 A 
ATOM     20  C   UNL A   1      36.550  23.635  26.023  1.00  0.00     0.022 A 
ENDBRANCH  11  14
ENDBRANCH   9  11
ENDBRANCH   8   9
BRANCH   8  21
ATOM     21  C   UNL A   1      32.482  21.475  22.899  1.00  0.00     0.042 C 
BRANCH  21  22
ATOM     22  C   UNL A   1      32.472  19.951  23.622  1.00  0.00     0.102 C 
BRANCH  22  23
ATOM     23  C   UNL A   1      32.611  18.978  25.149  1.00  0.00     0.217 C 
ATOM     24  N   UNL A   1      33.088  19.442  26.311  1.00  0.00    -0.370 N 
ATOM     25  O   UNL A   1      32.091  17.877  25.450  1.00  0.00    -0.275 OA
ATOM     26  H   UNL A   1      33.552  20.311  26.342  1.00  0.00     0.159 HD
ATOM     27  H   UNL A   1      32.975  18.916  27.135  1.00  0.00     0.159 HD
ENDBRANCH  22  23
ENDBRANCH  21  22
ENDBRANCH   8  21
ENDBRANCH   6   8
ENDBRANCH   5   6
ENDBRANCH   4   5
ENDBRANCH   3   4
ENDBRANCH   2   3
ENDBRANCH   1   2
BRANCH   1  28
ATOM     28  C   UNL A   1      31.714  27.969  27.345  1.00  0.00     0.188 C 
BRANCH  28  29
ATOM     29  O   UNL A   1      32.611  29.042  27.559  1.00  0.00    -0.376 OA
BRANCH  29  30
ATOM     30  C   UNL A   1      32.826  29.947  26.472  1.00  0.00     0.202 C 
BRANCH  30  31
ATOM     31  C   UNL A   1      32.476  31.335  26.997  1.00  0.00     0.261 C 
BRANCH  31  32
ATOM     32  O   UNL A   1      33.629  31.882  27.684  1.00  0.00    -0.460 OA
BRANCH  32  33
ATOM     33  C   UNL A   1      33.417  33.067  28.314  1.00  0.00     0.338 C 
ATOM     34  O   UNL A   1      32.552  33.887  28.016  1.00  0.00    -0.246 OA
BRANCH  33  35
ATOM     35  C   UNL A   1      34.579  33.343  29.218  1.00  0.00     0.060 A 
ATOM     36  C   UNL A   1      35.578  34.158  28.740  1.00  0.00     0.016 A 
ATOM     37  C   UNL A   1      34.850  32.609  30.382  1.00  0.00     0.016 A 
ATOM     38  C   UNL A   1      36.869  34.046  29.286  1.00  0.00     0.010 A 
ATOM     39  C   UNL A   1      36.176  32.468  30.874  1.00  0.00     0.010 A 
ATOM     40  C   UNL A   1      37.268  33.057  30.221  1.00  0.00    -0.014 A 
BRANCH  40  41
ATOM     41  C   UNL A   1      38.731  32.403  30.530  1.00  0.00     0.031 A 
ATOM     42  C   UNL A   1      38.806  30.964  29.450  1.00  0.00     0.074 A 
ATOM     43  C   UNL A   1      39.772  32.967  31.553  1.00  0.00     0.049 A 
ATOM     44  N   UNL A   1      39.849  30.310  28.967  1.00  0.00    -0.248 NA
ATOM     45  C   UNL A   1      37.624  30.104  29.184  1.00  0.00     0.031 C 
ATOM     46  C   UNL A   1      41.305  33.259  31.595  1.00  0.00     0.029 A 
ATOM     47  N   UNL A   1      39.703  33.150  33.006  1.00  0.00    -0.354 N 
ATOM     48  C   UNL A   1      39.629  28.961  28.813  1.00  0.00     0.074 A 
ATOM     49  C   UNL A   1      38.171  28.906  28.872  1.00  0.00     0.031 C 
ATOM     50  C   UNL A   1      41.894  33.038  32.787  1.00  0.00     0.029 A 
ATOM     51  C   UNL A   1      40.859  32.958  33.755  1.00  0.00     0.049 A 
ATOM     52  H   UNL A   1      38.857  33.403  33.441  1.00  0.00     0.167 HD
ATOM     53  C   UNL A   1      40.570  27.941  29.026  1.00  0.00     0.037 A 
ATOM     54  C   UNL A   1      41.028  32.703  35.074  1.00  0.00     0.037 A 
ATOM     55  C   UNL A   1      41.581  28.000  30.202  1.00  0.00     0.049 A 
ATOM     56  C   UNL A   1      41.662  31.318  35.233  1.00  0.00     0.074 A 
ATOM     57  C   UNL A   1      42.940  28.338  30.308  1.00  0.00     0.029 A 
ATOM     58  N   UNL A   1      41.281  27.678  31.569  1.00  0.00    -0.354 N 
ATOM     59  N   UNL A   1      41.886  30.494  34.232  1.00  0.00    -0.248 NA
ATOM     60  C   UNL A   1      42.047  30.727  36.510  1.00  0.00     0.031 C 
ATOM     61  C   UNL A   1      43.285  28.647  31.644  1.00  0.00     0.029 A 
ATOM     62  C   UNL A   1      42.268  28.202  32.457  1.00  0.00     0.049 A 
ATOM     63  H   UNL A   1      40.494  27.163  31.857  1.00  0.00     0.167 HD
ATOM     64  C   UNL A   1      42.241  29.247  34.701  1.00  0.00     0.074 A 
ATOM     65  C   UNL A   1      42.450  29.499  36.125  1.00  0.00     0.031 C 
ATOM     66  C   UNL A   1      42.307  28.099  33.930  1.00  0.00     0.037 A 
BRANCH  53  67
ATOM     67  C   UNL A   1      41.070  27.464  27.616  1.00  0.00     0.057 A 
ATOM     68  C   UNL A   1      40.690  26.259  26.980  1.00  0.00     0.134 A 
ATOM     69  C   UNL A   1      42.028  28.193  26.883  1.00  0.00     0.134 A 
ATOM     70  F   UNL A   1      39.660  25.515  27.379  1.00  0.00    -0.206 F 
ATOM     71  C   UNL A   1      41.312  25.745  25.833  1.00  0.00     0.040 A 
ATOM     72  C   UNL A   1      42.633  27.709  25.707  1.00  0.00     0.040 A 
ATOM     73  F   UNL A   1      42.402  29.420  27.271  1.00  0.00    -0.206 F 
ATOM     74  C   UNL A   1      42.302  26.463  25.195  1.00  0.00     0.006 A 
ENDBRANCH  53  67
BRANCH  54  75
ATOM     75  C   UNL A   1      40.155  33.465  36.020  1.00  0.00     0.057 A 
ATOM     76  C   UNL A   1      38.993  32.809  36.488  1.00  0.00     0.134 A 
ATOM     77  C   UNL A   1      40.494  34.638  36.698  1.00  0.00     0.134 A 
ATOM     78  F   UNL A   1      38.585  31.675  35.895  1.00  0.00    -0.206 F 
ATOM     79  C   UNL A   1      38.260  33.238  37.606  1.00  0.00     0.040 A 
ATOM     80  C   UNL A   1      39.771  35.074  37.829  1.00  0.00     0.040 A 
ATOM     81  F   UNL A   1      41.582  35.333  36.340  1.00  0.00    -0.206 F 
ATOM     82  C   UNL A   1      38.671  34.362  38.305  1.00  0.00     0.006 A 
ENDBRANCH  54  75
BRANCH  66  83
ATOM     83  C   UNL A   1      42.708  26.746  34.481  1.00  0.00     0.057 A 
ATOM     84  C   UNL A   1      41.819  25.806  35.013  1.00  0.00     0.134 A 
ATOM     85  C   UNL A   1      44.057  26.318  34.404  1.00  0.00     0.134 A 
ATOM     86  F   UNL A   1      40.499  26.035  35.058  1.00  0.00    -0.206 F 
ATOM     87  C   UNL A   1      42.247  24.558  35.485  1.00  0.00     0.040 A 
ATOM     88  C   UNL A   1      44.482  25.053  34.804  1.00  0.00     0.040 A 
ATOM     89  F   UNL A   1      45.033  27.103  33.930  1.00  0.00    -0.206 F 
ATOM     90  C   UNL A   1      43.577  24.170  35.363  1.00  0.00     0.006 A 
ENDBRANCH  66  83
ENDBRANCH  40  41
ENDBRANCH  33  35
ENDBRANCH  32  33
ENDBRANCH  31  32
ENDBRANCH  30  31
ENDBRANCH  29  30
ENDBRANCH  28  29
ENDBRANCH   1  28
TORSDOF 23
ENDMDL
MODEL 3
REMARK VINA RESULT:     -10.6      2.614      4.556
REMARK SMILES Cc1cccc(S(=O)(=O)N[C@@H](CCC(N)=O)C(=O)OCCOCCOCCOC(=O)c2ccc(-c3c4nc(c(-c5c(F)cccc5F)c5ccc([nH]5)c(-c5c(F)cccc5F)c5nc(c(-c6c(F)cccc6F)c6ccc3[nH]6)C=C5)C=C4)cc2)c1
REMARK SMILES IDX 23 1 22 2 21 3 20 4 19 5 17 6 18 7 11 8 10 9 7 11 8 12 9 13
REMARK SMILES IDX 6 14 1 15 2 16 3 17 85 18 4 19 5 20 12 21 13 22 14 23 15 24
REMARK SMILES IDX 16 25 24 28 25 29 26 30 27 31 28 32 29 33 30 34 31 35 32 36
REMARK SMILES IDX 84 37 33 38 83 39 34 40 35 41 36 42 77 43 37 44 82 45 76 46
REMARK SMILES IDX 78 47 38 48 81 49 75 50 74 51 39 53 65 54 48 55 64 56 49 57
REMARK SMILES IDX 52 58 63 59 79 60 50 61 51 62 62 64 80 65 53 66 40 67 41 68
REMARK SMILES IDX 46 69 42 70 43 71 45 72 47 73 44 74 66 75 67 76 72 77 68 78
REMARK SMILES IDX 69 79 71 80 73 81 70 82 54 83 55 84 60 85 56 86 57 87 59 88
REMARK SMILES IDX 61 89 58 90
REMARK H PARENT 10 10 15 26 15 27 78 52 52 63
REMARK Flexibility Score: inf
ROOT
ATOM      1  C   UNL A   1      31.260  27.862  25.227  1.00  0.00     0.188 C 
ENDROOT
BRANCH   1   2
ATOM      2  O   UNL A   1      31.104  26.946  24.157  1.00  0.00    -0.376 OA
BRANCH   2   3
ATOM      3  C   UNL A   1      29.941  26.143  24.317  1.00  0.00     0.202 C 
BRANCH   3   4
ATOM      4  C   UNL A   1      29.655  25.636  25.755  1.00  0.00     0.261 C 
BRANCH   4   5
ATOM      5  O   UNL A   1      30.732  24.657  26.479  1.00  0.00    -0.462 OA
BRANCH   5   6
ATOM      6  C   UNL A   1      31.995  24.067  26.671  1.00  0.00     0.324 C 
ATOM      7  O   UNL A   1      32.003  23.290  27.638  1.00  0.00    -0.250 OA
BRANCH   6   8
ATOM      8  C   UNL A   1      33.504  24.231  25.794  1.00  0.00     0.180 C 
BRANCH   8   9
ATOM      9  N   UNL A   1      34.498  23.147  26.029  1.00  0.00    -0.197 NA
ATOM     10  H   UNL A   1      35.182  23.328  25.294  1.00  0.00     0.142 HD
BRANCH   9  11
ATOM     11  S   UNL A   1      34.525  21.486  26.119  1.00  0.00     0.241 S 
ATOM     12  O   UNL A   1      33.971  21.133  27.408  1.00  0.00    -0.207 OA
ATOM     13  O   UNL A   1      35.927  21.205  25.862  1.00  0.00    -0.207 OA
BRANCH  11  14
ATOM     14  C   UNL A   1      33.647  20.550  24.912  1.00  0.00     0.082 A 
ATOM     15  C   UNL A   1      33.321  17.043  23.533  1.00  0.00     0.044 C 
ATOM     16  C   UNL A   1      33.123  18.517  23.699  1.00  0.00    -0.050 A 
ATOM     17  C   UNL A   1      32.329  19.239  22.805  1.00  0.00     0.003 A 
ATOM     18  C   UNL A   1      33.794  19.189  24.730  1.00  0.00     0.025 A 
ATOM     19  C   UNL A   1      32.176  20.614  22.968  1.00  0.00     0.002 A 
ATOM     20  C   UNL A   1      32.822  21.265  24.024  1.00  0.00     0.022 A 
ENDBRANCH  11  14
ENDBRANCH   9  11
ENDBRANCH   8   9
BRANCH   8  21
ATOM     21  C   UNL A   1      33.883  24.918  24.370  1.00  0.00     0.042 C 
BRANCH  21  22
ATOM     22  C   UNL A   1      33.485  24.797  22.735  1.00  0.00     0.102 C 
BRANCH  22  23
ATOM     23  C   UNL A   1      32.743  25.583  21.276  1.00  0.00     0.217 C 
ATOM     24  N   UNL A   1      31.864  26.592  21.314  1.00  0.00    -0.370 N 
ATOM     25  O   UNL A   1      33.081  25.519  20.070  1.00  0.00    -0.275 OA
ATOM     26  H   UNL A   1      31.443  26.848  22.168  1.00  0.00     0.159 HD
ATOM     27  H   UNL A   1      31.637  27.079  20.489  1.00  0.00     0.159 HD
ENDBRANCH  22  23
ENDBRANCH  21  22
ENDBRANCH   8  21
ENDBRANCH   6   8
ENDBRANCH   5   6
ENDBRANCH   4   5
ENDBRANCH   3   4
ENDBRANCH   2   3
ENDBRANCH   1   2
BRANCH   1  28
ATOM     28  C   UNL A   1      31.681  29.242  24.723  1.00  0.00     0.188 C 
BRANCH  28  29
ATOM     29  O   UNL A   1      32.160  30.117  25.726  1.00  0.00    -0.376 OA
BRANCH  29  30
ATOM     30  C   UNL A   1      33.060  29.576  26.698  1.00  0.00     0.202 C 
BRANCH  30  31
ATOM     31  C   UNL A   1      34.053  30.686  27.024  1.00  0.00     0.261 C 
BRANCH  31  32
ATOM     32  O   UNL A   1      33.741  31.226  28.332  1.00  0.00    -0.460 OA
BRANCH  32  33
ATOM     33  C   UNL A   1      33.757  32.582  28.417  1.00  0.00     0.338 C 
ATOM     34  O   UNL A   1      33.072  33.345  27.740  1.00  0.00    -0.246 OA
BRANCH  33  35
ATOM     35  C   UNL A   1      34.939  32.996  29.238  1.00  0.00     0.060 A 
ATOM     36  C   UNL A   1      35.924  33.724  28.614  1.00  0.00     0.016 A 
ATOM     37  C   UNL A   1      35.239  32.456  30.497  1.00  0.00     0.016 A 
ATOM     38  C   UNL A   1      37.227  33.699  29.140  1.00  0.00     0.010 A 
ATOM     39  C   UNL A   1      36.577  32.393  30.974  1.00  0.00     0.010 A 
ATOM     40  C   UNL A   1      37.651  32.871  30.210  1.00  0.00    -0.014 A 
BRANCH  40  41
ATOM     41  C   UNL A   1      39.123  32.272  30.584  1.00  0.00     0.031 A 
ATOM     42  C   UNL A   1      39.258  30.781  29.585  1.00  0.00     0.074 A 
ATOM     43  C   UNL A   1      40.127  32.917  31.596  1.00  0.00     0.049 A 
ATOM     44  N   UNL A   1      40.327  30.129  29.159  1.00  0.00    -0.248 NA
ATOM     45  C   UNL A   1      38.104  29.877  29.341  1.00  0.00     0.031 C 
ATOM     46  C   UNL A   1      41.651  33.250  31.655  1.00  0.00     0.029 A 
ATOM     47  N   UNL A   1      40.021  33.175  33.036  1.00  0.00    -0.354 N 
ATOM     48  C   UNL A   1      40.144  28.768  29.074  1.00  0.00     0.074 A 
ATOM     49  C   UNL A   1      38.688  28.678  29.106  1.00  0.00     0.031 C 
ATOM     50  C   UNL A   1      42.218  33.109  32.869  1.00  0.00     0.029 A 
ATOM     51  C   UNL A   1      41.165  33.053  33.818  1.00  0.00     0.049 A 
ATOM     52  H   UNL A   1      39.160  33.429  33.439  1.00  0.00     0.167 HD
ATOM     53  C   UNL A   1      41.106  27.786  29.361  1.00  0.00     0.037 A 
ATOM     54  C   UNL A   1      41.311  32.874  35.152  1.00  0.00     0.037 A 
ATOM     55  C   UNL A   1      42.089  27.934  30.553  1.00  0.00     0.049 A 
ATOM     56  C   UNL A   1      41.976  31.516  35.399  1.00  0.00     0.074 A 
ATOM     57  C   UNL A   1      43.436  28.313  30.669  1.00  0.00     0.029 A 
ATOM     58  N   UNL A   1      41.767  27.678  31.929  1.00  0.00    -0.354 N 
ATOM     59  N   UNL A   1      42.242  30.646  34.448  1.00  0.00    -0.248 NA
ATOM     60  C   UNL A   1      42.347  31.004  36.713  1.00  0.00     0.031 C 
ATOM     61  C   UNL A   1      43.744  28.701  31.993  1.00  0.00     0.029 A 
ATOM     62  C   UNL A   1      42.721  28.274  32.807  1.00  0.00     0.049 A 
ATOM     63  H   UNL A   1      40.987  27.158  32.228  1.00  0.00     0.167 HD
ATOM     64  C   UNL A   1      42.617  29.436  34.991  1.00  0.00     0.074 A 
ATOM     65  C   UNL A   1      42.789  29.769  36.403  1.00  0.00     0.031 C 
ATOM     66  C   UNL A   1      42.730  28.250  34.284  1.00  0.00     0.037 A 
BRANCH  53  67
ATOM     67  C   UNL A   1      41.648  27.247  27.989  1.00  0.00     0.057 A 
ATOM     68  C   UNL A   1      42.458  27.976  27.088  1.00  0.00     0.134 A 
ATOM     69  C   UNL A   1      41.294  25.973  27.502  1.00  0.00     0.134 A 
ATOM     70  F   UNL A   1      43.079  29.108  27.415  1.00  0.00    -0.206 F 
ATOM     71  C   UNL A   1      42.745  27.564  25.779  1.00  0.00     0.040 A 
ATOM     72  C   UNL A   1      41.609  25.527  26.203  1.00  0.00     0.040 A 
ATOM     73  F   UNL A   1      40.641  25.097  28.279  1.00  0.00    -0.206 F 
ATOM     74  C   UNL A   1      42.308  26.338  25.321  1.00  0.00     0.006 A 
ENDBRANCH  53  67
BRANCH  54  75
ATOM     75  C   UNL A   1      40.399  33.662  36.037  1.00  0.00     0.057 A 
ATOM     76  C   UNL A   1      39.242  33.003  36.514  1.00  0.00     0.134 A 
ATOM     77  C   UNL A   1      40.693  34.877  36.659  1.00  0.00     0.134 A 
ATOM     78  F   UNL A   1      38.875  31.829  35.974  1.00  0.00    -0.206 F 
ATOM     79  C   UNL A   1      38.474  33.471  37.591  1.00  0.00     0.040 A 
ATOM     80  C   UNL A   1      39.934  35.353  37.750  1.00  0.00     0.040 A 
ATOM     81  F   UNL A   1      41.773  35.580  36.289  1.00  0.00    -0.206 F 
ATOM     82  C   UNL A   1      38.841  34.640  38.239  1.00  0.00     0.006 A 
ENDBRANCH  54  75
BRANCH  66  83
ATOM     83  C   UNL A   1      43.152  26.940  34.916  1.00  0.00     0.057 A 
ATOM     84  C   UNL A   1      44.459  26.622  35.297  1.00  0.00     0.134 A 
ATOM     85  C   UNL A   1      42.179  25.961  35.241  1.00  0.00     0.134 A 
ATOM     86  F   UNL A   1      45.467  27.492  35.141  1.00  0.00    -0.206 F 
ATOM     87  C   UNL A   1      44.785  25.401  35.902  1.00  0.00     0.040 A 
ATOM     88  C   UNL A   1      42.480  24.775  35.906  1.00  0.00     0.040 A 
ATOM     89  F   UNL A   1      40.884  26.107  34.934  1.00  0.00    -0.206 F 
ATOM     90  C   UNL A   1      43.793  24.483  36.227  1.00  0.00     0.006 A 
ENDBRANCH  66  83
ENDBRANCH  40  41
ENDBRANCH  33  35
ENDBRANCH  32  33
ENDBRANCH  31  32
ENDBRANCH  30  31
ENDBRANCH  29  30
ENDBRANCH  28  29
ENDBRANCH   1  28
TORSDOF 23
ENDMDL
