MODEL 1
REMARK VINA RESULT:      -9.4      0.000      0.000
REMARK SMILES CC1=C(CC(=O)OCCOCCOCCOC(=O)c2ccc(-c3c4nc(c(-c5c(F)cccc5F)c5ccc([nH]5)c(-c5c(F)cccc5F)c5nc(c(-c6c(F)cccc6F)c6ccc3[nH]6)C=C5)C=C4)cc2)c2cc(F)ccc2/C1=C\c1ccc([S@@+](C)[O-])cc1
REMARK SMILES IDX 11 1 10 2 9 3 8 4 7 5 5 6 6 7 4 8 3 9 1 10 2 11 80 12 73 13
REMARK SMILES IDX 79 14 81 15 74 16 78 17 75 18 77 19 76 20 82 21 83 22 90 23
REMARK SMILES IDX 84 24 89 25 85 26 86 27 87 28 88 29 12 30 13 31 14 32 15 33
REMARK SMILES IDX 16 34 17 35 18 36 19 37 20 38 72 39 21 40 71 41 22 42 23 43
REMARK SMILES IDX 24 44 65 45 25 46 70 47 64 48 66 49 26 50 69 51 63 52 62 53
REMARK SMILES IDX 27 55 53 56 36 57 52 58 37 59 40 60 51 61 67 62 38 63 39 64
REMARK SMILES IDX 50 66 68 67 41 68 28 69 29 70 34 71 30 72 31 73 33 74 35 75
REMARK SMILES IDX 32 76 54 77 55 78 60 79 56 80 57 81 59 82 61 83 58 84 42 85
REMARK SMILES IDX 43 86 48 87 44 88 45 89 47 90 49 91 46 92
REMARK H PARENT 66 54 40 65
REMARK Flexibility Score: inf
ROOT
ATOM      1  C   UNL A   1      32.833  36.015  30.778  1.00  0.00     0.188 C 
ENDROOT
BRANCH   1   2
ATOM      2  O   UNL A   1      32.603  36.890  31.881  1.00  0.00    -0.376 OA
BRANCH   2   3
ATOM      3  C   UNL A   1      33.527  36.840  32.963  1.00  0.00     0.202 C 
BRANCH   3   4
ATOM      4  C   UNL A   1      34.653  35.820  32.781  1.00  0.00     0.261 C 
BRANCH   4   5
ATOM      5  O   UNL A   1      34.665  34.843  33.845  1.00  0.00    -0.463 OA
BRANCH   5   6
ATOM      6  C   UNL A   1      34.481  33.555  33.457  1.00  0.00     0.310 C 
ATOM      7  O   UNL A   1      33.417  33.112  33.037  1.00  0.00    -0.252 OA
BRANCH   6   8
ATOM      8  C   UNL A   1      35.757  32.712  33.447  1.00  0.00     0.159 C 
BRANCH   8   9
ATOM      9  C   UNL A   1      37.100  33.351  33.251  1.00  0.00    -0.025 C 
ATOM     10  C   UNL A   1      38.072  33.199  35.599  1.00  0.00     0.045 C 
ATOM     11  C   UNL A   1      38.090  33.561  34.153  1.00  0.00    -0.039 C 
ATOM     12  C   UNL A   1      39.278  34.129  33.485  1.00  0.00    -0.014 C 
ATOM     13  C   UNL A   1      37.659  33.670  31.921  1.00  0.00    -0.011 A 
ATOM     14  C   UNL A   1      38.950  34.214  32.048  1.00  0.00    -0.010 A 
ATOM     15  C   UNL A   1      40.446  34.431  34.088  1.00  0.00     0.017 C 
ATOM     16  C   UNL A   1      37.135  33.430  30.659  1.00  0.00     0.048 A 
ATOM     17  C   UNL A   1      39.666  34.621  30.926  1.00  0.00     0.012 A 
ATOM     18  C   UNL A   1      37.890  33.792  29.541  1.00  0.00     0.123 A 
ATOM     19  C   UNL A   1      39.123  34.420  29.661  1.00  0.00     0.040 A 
ATOM     20  F   UNL A   1      37.414  33.534  28.317  1.00  0.00    -0.207 F 
BRANCH  15  21
ATOM     21  C   UNL A   1      41.623  34.979  33.401  1.00  0.00    -0.025 A 
ATOM     22  C   UNL A   1      42.259  34.219  32.414  1.00  0.00     0.013 A 
ATOM     23  C   UNL A   1      42.218  36.167  33.841  1.00  0.00     0.013 A 
ATOM     24  C   UNL A   1      43.530  34.581  31.951  1.00  0.00     0.061 A 
ATOM     25  C   UNL A   1      43.482  36.536  33.365  1.00  0.00     0.061 A 
ATOM     26  C   UNL A   1      44.164  35.727  32.446  1.00  0.00     0.152 A 
BRANCH  26  27
ATOM     27  S   UNL A   1      45.906  36.069  32.080  1.00  0.00    -0.018 S 
ATOM     28  C   UNL A   1      46.649  34.498  32.563  1.00  0.00     0.346 C 
ATOM     29  O   UNL A   1      46.031  36.205  30.522  1.00  0.00    -0.612 OA
ENDBRANCH  26  27
ENDBRANCH  15  21
ENDBRANCH   8   9
ENDBRANCH   6   8
ENDBRANCH   5   6
ENDBRANCH   4   5
ENDBRANCH   3   4
ENDBRANCH   2   3
ENDBRANCH   1   2
BRANCH   1  30
ATOM     30  C   UNL A   1      32.941  36.634  29.376  1.00  0.00     0.188 C 
BRANCH  30  31
ATOM     31  O   UNL A   1      33.644  35.777  28.480  1.00  0.00    -0.376 OA
BRANCH  31  32
ATOM     32  C   UNL A   1      34.293  34.688  29.125  1.00  0.00     0.202 C 
BRANCH  32  33
ATOM     33  C   UNL A   1      34.109  33.414  28.300  1.00  0.00     0.261 C 
BRANCH  33  34
ATOM     34  O   UNL A   1      34.538  32.225  28.989  1.00  0.00    -0.460 OA
BRANCH  34  35
ATOM     35  C   UNL A   1      34.619  31.106  28.237  1.00  0.00     0.338 C 
ATOM     36  O   UNL A   1      33.840  30.734  27.382  1.00  0.00    -0.246 OA
BRANCH  35  37
ATOM     37  C   UNL A   1      35.889  30.431  28.558  1.00  0.00     0.060 A 
ATOM     38  C   UNL A   1      37.006  30.581  27.742  1.00  0.00     0.016 A 
ATOM     39  C   UNL A   1      35.981  29.701  29.741  1.00  0.00     0.016 A 
ATOM     40  C   UNL A   1      38.222  30.009  28.138  1.00  0.00     0.010 A 
ATOM     41  C   UNL A   1      37.202  29.178  30.164  1.00  0.00     0.010 A 
ATOM     42  C   UNL A   1      38.340  29.328  29.368  1.00  0.00    -0.014 A 
BRANCH  42  43
ATOM     43  C   UNL A   1      39.670  28.865  29.847  1.00  0.00     0.031 A 
ATOM     44  C   UNL A   1      40.317  29.446  31.073  1.00  0.00     0.074 A 
ATOM     45  C   UNL A   1      40.319  27.918  29.141  1.00  0.00     0.049 A 
ATOM     46  N   UNL A   1      41.387  29.036  31.709  1.00  0.00    -0.248 NA
ATOM     47  C   UNL A   1      39.705  30.653  31.646  1.00  0.00     0.031 C 
ATOM     48  C   UNL A   1      39.864  27.358  27.866  1.00  0.00     0.029 A 
ATOM     49  N   UNL A   1      41.486  27.246  29.402  1.00  0.00    -0.354 N 
ATOM     50  C   UNL A   1      41.562  29.919  32.768  1.00  0.00     0.074 A 
ATOM     51  C   UNL A   1      40.534  30.930  32.643  1.00  0.00     0.031 C 
ATOM     52  C   UNL A   1      40.707  26.384  27.490  1.00  0.00     0.029 A 
ATOM     53  C   UNL A   1      41.763  26.257  28.489  1.00  0.00     0.049 A 
ATOM     54  H   UNL A   1      42.068  27.452  30.169  1.00  0.00     0.167 HD
ATOM     55  C   UNL A   1      42.472  29.871  33.771  1.00  0.00     0.037 A 
ATOM     56  C   UNL A   1      42.737  25.328  28.478  1.00  0.00     0.037 A 
ATOM     57  C   UNL A   1      43.498  28.866  33.891  1.00  0.00     0.049 A 
ATOM     58  C   UNL A   1      43.719  25.275  29.613  1.00  0.00     0.074 A 
ATOM     59  C   UNL A   1      44.419  28.685  34.909  1.00  0.00     0.029 A 
ATOM     60  N   UNL A   1      43.745  27.879  32.950  1.00  0.00    -0.354 N 
ATOM     61  N   UNL A   1      43.786  26.027  30.684  1.00  0.00    -0.248 NA
ATOM     62  C   UNL A   1      44.750  24.232  29.545  1.00  0.00     0.031 C 
ATOM     63  C   UNL A   1      45.245  27.607  34.566  1.00  0.00     0.029 A 
ATOM     64  C   UNL A   1      44.816  27.097  33.352  1.00  0.00     0.049 A 
ATOM     65  H   UNL A   1      43.234  27.750  32.117  1.00  0.00     0.167 HD
ATOM     66  C   UNL A   1      44.852  25.537  31.426  1.00  0.00     0.074 A 
ATOM     67  C   UNL A   1      45.388  24.408  30.694  1.00  0.00     0.031 C 
ATOM     68  C   UNL A   1      45.343  25.980  32.609  1.00  0.00     0.037 A 
BRANCH  55  69
ATOM     69  C   UNL A   1      42.375  30.921  34.841  1.00  0.00     0.057 A 
ATOM     70  C   UNL A   1      41.351  30.895  35.795  1.00  0.00     0.134 A 
ATOM     71  C   UNL A   1      43.286  31.986  34.901  1.00  0.00     0.134 A 
ATOM     72  F   UNL A   1      40.439  29.912  35.790  1.00  0.00    -0.206 F 
ATOM     73  C   UNL A   1      41.240  31.886  36.773  1.00  0.00     0.040 A 
ATOM     74  C   UNL A   1      43.200  32.969  35.888  1.00  0.00     0.040 A 
ATOM     75  F   UNL A   1      44.293  32.069  34.018  1.00  0.00    -0.206 F 
ATOM     76  C   UNL A   1      42.171  32.923  36.826  1.00  0.00     0.006 A 
ENDBRANCH  55  69
BRANCH  56  77
ATOM     77  C   UNL A   1      42.783  24.317  27.394  1.00  0.00     0.057 A 
ATOM     78  C   UNL A   1      42.124  23.090  27.505  1.00  0.00     0.134 A 
ATOM     79  C   UNL A   1      43.493  24.567  26.213  1.00  0.00     0.134 A 
ATOM     80  F   UNL A   1      41.434  22.790  28.615  1.00  0.00    -0.206 F 
ATOM     81  C   UNL A   1      42.169  22.142  26.481  1.00  0.00     0.040 A 
ATOM     82  C   UNL A   1      43.529  23.638  25.172  1.00  0.00     0.040 A 
ATOM     83  F   UNL A   1      44.133  25.733  26.043  1.00  0.00    -0.206 F 
ATOM     84  C   UNL A   1      42.867  22.419  25.306  1.00  0.00     0.006 A 
ENDBRANCH  56  77
BRANCH  68  85
ATOM     85  C   UNL A   1      46.509  25.235  33.184  1.00  0.00     0.057 A 
ATOM     86  C   UNL A   1      47.822  25.605  32.867  1.00  0.00     0.134 A 
ATOM     87  C   UNL A   1      46.332  24.142  34.041  1.00  0.00     0.134 A 
ATOM     88  F   UNL A   1      48.060  26.642  32.050  1.00  0.00    -0.206 F 
ATOM     89  C   UNL A   1      48.918  24.913  33.382  1.00  0.00     0.040 A 
ATOM     90  C   UNL A   1      47.421  23.456  34.581  1.00  0.00     0.040 A 
ATOM     91  F   UNL A   1      45.099  23.748  34.395  1.00  0.00    -0.206 F 
ATOM     92  C   UNL A   1      48.719  23.839  34.248  1.00  0.00     0.006 A 
ENDBRANCH  68  85
ENDBRANCH  42  43
ENDBRANCH  35  37
ENDBRANCH  34  35
ENDBRANCH  33  34
ENDBRANCH  32  33
ENDBRANCH  31  32
ENDBRANCH  30  31
ENDBRANCH   1  30
TORSDOF 20
ENDMDL
MODEL 2
REMARK VINA RESULT:      -9.2      5.530     11.720
REMARK SMILES CC1=C(CC(=O)OCCOCCOCCOC(=O)c2ccc(-c3c4nc(c(-c5c(F)cccc5F)c5ccc([nH]5)c(-c5c(F)cccc5F)c5nc(c(-c6c(F)cccc6F)c6ccc3[nH]6)C=C5)C=C4)cc2)c2cc(F)ccc2/C1=C\c1ccc([S@@+](C)[O-])cc1
REMARK SMILES IDX 11 1 10 2 9 3 8 4 7 5 5 6 6 7 4 8 3 9 1 10 2 11 80 12 73 13
REMARK SMILES IDX 79 14 81 15 74 16 78 17 75 18 77 19 76 20 82 21 83 22 90 23
REMARK SMILES IDX 84 24 89 25 85 26 86 27 87 28 88 29 12 30 13 31 14 32 15 33
REMARK SMILES IDX 16 34 17 35 18 36 19 37 20 38 72 39 21 40 71 41 22 42 23 43
REMARK SMILES IDX 24 44 65 45 25 46 70 47 64 48 66 49 26 50 69 51 63 52 62 53
REMARK SMILES IDX 27 55 53 56 36 57 52 58 37 59 40 60 51 61 67 62 38 63 39 64
REMARK SMILES IDX 50 66 68 67 41 68 28 69 29 70 34 71 30 72 31 73 33 74 35 75
REMARK SMILES IDX 32 76 54 77 55 78 60 79 56 80 57 81 59 82 61 83 58 84 42 85
REMARK SMILES IDX 43 86 48 87 44 88 45 89 47 90 49 91 46 92
REMARK H PARENT 66 54 40 65
REMARK Flexibility Score: inf
ROOT
ATOM      1  C   UNL A   1      40.011  20.699  26.197  1.00  0.00     0.188 C 
ENDROOT
BRANCH   1   2
ATOM      2  O   UNL A   1      38.732  21.026  25.659  1.00  0.00    -0.376 OA
BRANCH   2   3
ATOM      3  C   UNL A   1      38.045  20.013  24.932  1.00  0.00     0.202 C 
BRANCH   3   4
ATOM      4  C   UNL A   1      36.534  20.233  24.824  1.00  0.00     0.261 C 
BRANCH   4   5
ATOM      5  O   UNL A   1      36.053  21.141  25.840  1.00  0.00    -0.463 OA
BRANCH   5   6
ATOM      6  C   UNL A   1      34.744  21.489  25.739  1.00  0.00     0.310 C 
ATOM      7  O   UNL A   1      33.951  20.955  24.969  1.00  0.00    -0.252 OA
BRANCH   6   8
ATOM      8  C   UNL A   1      34.285  22.519  26.771  1.00  0.00     0.159 C 
BRANCH   8   9
ATOM      9  C   UNL A   1      33.513  23.736  26.353  1.00  0.00    -0.025 C 
ATOM     10  C   UNL A   1      35.271  25.009  25.023  1.00  0.00     0.045 C 
ATOM     11  C   UNL A   1      33.918  24.795  25.611  1.00  0.00    -0.039 C 
ATOM     12  C   UNL A   1      32.784  25.707  25.361  1.00  0.00    -0.014 C 
ATOM     13  C   UNL A   1      32.050  23.862  26.517  1.00  0.00    -0.011 A 
ATOM     14  C   UNL A   1      31.601  25.087  25.989  1.00  0.00    -0.010 A 
ATOM     15  C   UNL A   1      32.838  26.842  24.634  1.00  0.00     0.017 C 
ATOM     16  C   UNL A   1      31.131  22.948  27.008  1.00  0.00     0.048 A 
ATOM     17  C   UNL A   1      30.257  25.442  26.057  1.00  0.00     0.012 A 
ATOM     18  C   UNL A   1      29.778  23.296  27.018  1.00  0.00     0.123 A 
ATOM     19  C   UNL A   1      29.340  24.542  26.590  1.00  0.00     0.040 A 
ATOM     20  F   UNL A   1      28.876  22.410  27.456  1.00  0.00    -0.207 F 
BRANCH  15  21
ATOM     21  C   UNL A   1      31.693  27.727  24.382  1.00  0.00    -0.025 A 
ATOM     22  C   UNL A   1      30.824  27.444  23.323  1.00  0.00     0.013 A 
ATOM     23  C   UNL A   1      31.560  28.937  25.072  1.00  0.00     0.013 A 
ATOM     24  C   UNL A   1      29.907  28.407  22.883  1.00  0.00     0.061 A 
ATOM     25  C   UNL A   1      30.631  29.892  24.641  1.00  0.00     0.061 A 
ATOM     26  C   UNL A   1      29.824  29.650  23.521  1.00  0.00     0.152 A 
BRANCH  26  27
ATOM     27  S   UNL A   1      28.856  31.008  22.810  1.00  0.00    -0.018 S 
ATOM     28  C   UNL A   1      28.447  30.303  21.202  1.00  0.00     0.346 C 
ATOM     29  O   UNL A   1      27.530  31.113  23.644  1.00  0.00    -0.612 OA
ENDBRANCH  26  27
ENDBRANCH  15  21
ENDBRANCH   8   9
ENDBRANCH   6   8
ENDBRANCH   5   6
ENDBRANCH   4   5
ENDBRANCH   3   4
ENDBRANCH   2   3
ENDBRANCH   1   2
BRANCH   1  30
ATOM     30  C   UNL A   1      41.117  21.763  26.128  1.00  0.00     0.188 C 
BRANCH  30  31
ATOM     31  O   UNL A   1      42.238  21.305  25.378  1.00  0.00    -0.376 OA
BRANCH  31  32
ATOM     32  C   UNL A   1      43.467  21.906  25.765  1.00  0.00     0.202 C 
BRANCH  32  33
ATOM     33  C   UNL A   1      44.041  22.710  24.598  1.00  0.00     0.261 C 
BRANCH  33  34
ATOM     34  O   UNL A   1      43.560  24.066  24.552  1.00  0.00    -0.460 OA
BRANCH  34  35
ATOM     35  C   UNL A   1      44.380  24.999  25.080  1.00  0.00     0.338 C 
ATOM     36  O   UNL A   1      45.512  25.270  24.731  1.00  0.00    -0.246 OA
BRANCH  35  37
ATOM     37  C   UNL A   1      43.630  25.731  26.117  1.00  0.00     0.060 A 
ATOM     38  C   UNL A   1      42.539  25.151  26.755  1.00  0.00     0.016 A 
ATOM     39  C   UNL A   1      44.082  26.989  26.510  1.00  0.00     0.016 A 
ATOM     40  C   UNL A   1      41.919  25.838  27.807  1.00  0.00     0.010 A 
ATOM     41  C   UNL A   1      43.503  27.649  27.592  1.00  0.00     0.010 A 
ATOM     42  C   UNL A   1      42.414  27.080  28.257  1.00  0.00    -0.014 A 
BRANCH  42  43
ATOM     43  C   UNL A   1      41.846  27.720  29.473  1.00  0.00     0.031 A 
ATOM     44  C   UNL A   1      42.482  27.556  30.825  1.00  0.00     0.074 A 
ATOM     45  C   UNL A   1      40.715  28.443  29.356  1.00  0.00     0.049 A 
ATOM     46  N   UNL A   1      42.206  28.181  31.944  1.00  0.00    -0.248 NA
ATOM     47  C   UNL A   1      43.544  26.548  30.949  1.00  0.00     0.031 C 
ATOM     48  C   UNL A   1      39.926  28.581  28.130  1.00  0.00     0.029 A 
ATOM     49  N   UNL A   1      40.042  29.211  30.272  1.00  0.00    -0.354 N 
ATOM     50  C   UNL A   1      43.073  27.659  32.896  1.00  0.00     0.074 A 
ATOM     51  C   UNL A   1      43.831  26.613  32.242  1.00  0.00     0.031 C 
ATOM     52  C   UNL A   1      38.915  29.435  28.352  1.00  0.00     0.029 A 
ATOM     53  C   UNL A   1      38.979  29.897  29.735  1.00  0.00     0.049 A 
ATOM     54  H   UNL A   1      40.296  29.267  31.222  1.00  0.00     0.167 HD
ATOM     55  C   UNL A   1      43.248  28.040  34.185  1.00  0.00     0.037 A 
ATOM     56  C   UNL A   1      38.170  30.821  30.284  1.00  0.00     0.037 A 
ATOM     57  C   UNL A   1      42.489  29.078  34.835  1.00  0.00     0.049 A 
ATOM     58  C   UNL A   1      38.398  31.250  31.706  1.00  0.00     0.074 A 
ATOM     59  C   UNL A   1      42.640  29.592  36.112  1.00  0.00     0.029 A 
ATOM     60  N   UNL A   1      41.424  29.753  34.258  1.00  0.00    -0.354 N 
ATOM     61  N   UNL A   1      39.315  30.852  32.553  1.00  0.00    -0.248 NA
ATOM     62  C   UNL A   1      37.486  32.270  32.242  1.00  0.00     0.031 C 
ATOM     63  C   UNL A   1      41.643  30.554  36.319  1.00  0.00     0.029 A 
ATOM     64  C   UNL A   1      40.895  30.663  35.159  1.00  0.00     0.049 A 
ATOM     65  H   UNL A   1      41.092  29.608  33.342  1.00  0.00     0.167 HD
ATOM     66  C   UNL A   1      39.105  31.585  33.713  1.00  0.00     0.074 A 
ATOM     67  C   UNL A   1      37.986  32.468  33.453  1.00  0.00     0.031 C 
ATOM     68  C   UNL A   1      39.777  31.532  34.888  1.00  0.00     0.037 A 
BRANCH  55  69
ATOM     69  C   UNL A   1      44.328  27.350  34.968  1.00  0.00     0.057 A 
ATOM     70  C   UNL A   1      44.059  26.203  35.723  1.00  0.00     0.134 A 
ATOM     71  C   UNL A   1      45.638  27.852  35.000  1.00  0.00     0.134 A 
ATOM     72  F   UNL A   1      42.827  25.676  35.748  1.00  0.00    -0.206 F 
ATOM     73  C   UNL A   1      45.055  25.577  36.477  1.00  0.00     0.040 A 
ATOM     74  C   UNL A   1      46.646  27.221  35.729  1.00  0.00     0.040 A 
ATOM     75  F   UNL A   1      45.963  28.947  34.296  1.00  0.00    -0.206 F 
ATOM     76  C   UNL A   1      46.354  26.081  36.475  1.00  0.00     0.006 A 
ENDBRANCH  55  69
BRANCH  56  77
ATOM     77  C   UNL A   1      37.119  31.468  29.462  1.00  0.00     0.057 A 
ATOM     78  C   UNL A   1      35.907  30.829  29.184  1.00  0.00     0.134 A 
ATOM     79  C   UNL A   1      37.309  32.753  28.938  1.00  0.00     0.134 A 
ATOM     80  F   UNL A   1      35.668  29.595  29.652  1.00  0.00    -0.206 F 
ATOM     81  C   UNL A   1      34.919  31.444  28.412  1.00  0.00     0.040 A 
ATOM     82  C   UNL A   1      36.323  33.387  28.182  1.00  0.00     0.040 A 
ATOM     83  F   UNL A   1      38.446  33.420  29.184  1.00  0.00    -0.206 F 
ATOM     84  C   UNL A   1      35.123  32.730  27.915  1.00  0.00     0.006 A 
ENDBRANCH  56  77
BRANCH  68  85
ATOM     85  C   UNL A   1      39.326  32.463  35.973  1.00  0.00     0.057 A 
ATOM     86  C   UNL A   1      39.873  33.747  36.090  1.00  0.00     0.134 A 
ATOM     87  C   UNL A   1      38.357  32.082  36.910  1.00  0.00     0.134 A 
ATOM     88  F   UNL A   1      40.807  34.170  35.225  1.00  0.00    -0.206 F 
ATOM     89  C   UNL A   1      39.473  34.619  37.101  1.00  0.00     0.040 A 
ATOM     90  C   UNL A   1      37.932  32.955  37.914  1.00  0.00     0.040 A 
ATOM     91  F   UNL A   1      37.783  30.872  36.842  1.00  0.00    -0.206 F 
ATOM     92  C   UNL A   1      38.495  34.227  38.013  1.00  0.00     0.006 A 
ENDBRANCH  68  85
ENDBRANCH  42  43
ENDBRANCH  35  37
ENDBRANCH  34  35
ENDBRANCH  33  34
ENDBRANCH  32  33
ENDBRANCH  31  32
ENDBRANCH  30  31
ENDBRANCH   1  30
TORSDOF 20
ENDMDL
MODEL 3
REMARK VINA RESULT:      -9.2      3.691      7.235
REMARK SMILES CC1=C(CC(=O)OCCOCCOCCOC(=O)c2ccc(-c3c4nc(c(-c5c(F)cccc5F)c5ccc([nH]5)c(-c5c(F)cccc5F)c5nc(c(-c6c(F)cccc6F)c6ccc3[nH]6)C=C5)C=C4)cc2)c2cc(F)ccc2/C1=C\c1ccc([S@@+](C)[O-])cc1
REMARK SMILES IDX 11 1 10 2 9 3 8 4 7 5 5 6 6 7 4 8 3 9 1 10 2 11 80 12 73 13
REMARK SMILES IDX 79 14 81 15 74 16 78 17 75 18 77 19 76 20 82 21 83 22 90 23
REMARK SMILES IDX 84 24 89 25 85 26 86 27 87 28 88 29 12 30 13 31 14 32 15 33
REMARK SMILES IDX 16 34 17 35 18 36 19 37 20 38 72 39 21 40 71 41 22 42 23 43
REMARK SMILES IDX 24 44 65 45 25 46 70 47 64 48 66 49 26 50 69 51 63 52 62 53
REMARK SMILES IDX 27 55 53 56 36 57 52 58 37 59 40 60 51 61 67 62 38 63 39 64
REMARK SMILES IDX 50 66 68 67 41 68 28 69 29 70 34 71 30 72 31 73 33 74 35 75
REMARK SMILES IDX 32 76 54 77 55 78 60 79 56 80 57 81 59 82 61 83 58 84 42 85
REMARK SMILES IDX 43 86 48 87 44 88 45 89 47 90 49 91 46 92
REMARK H PARENT 66 54 40 65
REMARK Flexibility Score: inf
ROOT
ATOM      1  C   UNL A   1      33.630  37.643  32.144  1.00  0.00     0.188 C 
ENDROOT
BRANCH   1   2
ATOM      2  O   UNL A   1      32.740  37.237  31.106  1.00  0.00    -0.376 OA
BRANCH   2   3
ATOM      3  C   UNL A   1      33.271  37.128  29.789  1.00  0.00     0.202 C 
BRANCH   3   4
ATOM      4  C   UNL A   1      32.698  35.966  28.975  1.00  0.00     0.261 C 
BRANCH   4   5
ATOM      5  O   UNL A   1      33.373  34.723  29.271  1.00  0.00    -0.463 OA
BRANCH   5   6
ATOM      6  C   UNL A   1      34.560  34.540  28.639  1.00  0.00     0.310 C 
ATOM      7  O   UNL A   1      34.782  34.888  27.483  1.00  0.00    -0.252 OA
BRANCH   6   8
ATOM      8  C   UNL A   1      35.670  33.983  29.532  1.00  0.00     0.159 C 
BRANCH   8   9
ATOM      9  C   UNL A   1      36.454  32.772  29.120  1.00  0.00    -0.025 C 
ATOM     10  C   UNL A   1      38.684  33.206  30.267  1.00  0.00     0.045 C 
ATOM     11  C   UNL A   1      37.729  32.430  29.426  1.00  0.00    -0.039 C 
ATOM     12  C   UNL A   1      38.044  31.093  28.884  1.00  0.00    -0.014 C 
ATOM     13  C   UNL A   1      35.844  31.600  28.457  1.00  0.00    -0.011 A 
ATOM     14  C   UNL A   1      36.811  30.602  28.237  1.00  0.00    -0.010 A 
ATOM     15  C   UNL A   1      39.217  30.444  29.032  1.00  0.00     0.017 C 
ATOM     16  C   UNL A   1      34.517  31.355  28.136  1.00  0.00     0.048 A 
ATOM     17  C   UNL A   1      36.475  29.413  27.597  1.00  0.00     0.012 A 
ATOM     18  C   UNL A   1      34.186  30.133  27.545  1.00  0.00     0.123 A 
ATOM     19  C   UNL A   1      35.151  29.184  27.235  1.00  0.00     0.040 A 
ATOM     20  F   UNL A   1      32.906  29.868  27.262  1.00  0.00    -0.207 F 
BRANCH  15  21
ATOM     21  C   UNL A   1      39.504  29.106  28.500  1.00  0.00    -0.025 A 
ATOM     22  C   UNL A   1      39.399  27.993  29.342  1.00  0.00     0.013 A 
ATOM     23  C   UNL A   1      40.047  28.948  27.221  1.00  0.00     0.013 A 
ATOM     24  C   UNL A   1      39.935  26.759  28.955  1.00  0.00     0.061 A 
ATOM     25  C   UNL A   1      40.567  27.708  26.827  1.00  0.00     0.061 A 
ATOM     26  C   UNL A   1      40.549  26.615  27.705  1.00  0.00     0.152 A 
BRANCH  26  27
ATOM     27  S   UNL A   1      41.491  25.123  27.288  1.00  0.00    -0.018 S 
ATOM     28  C   UNL A   1      43.127  25.600  27.877  1.00  0.00     0.346 C 
ATOM     29  O   UNL A   1      40.960  23.971  28.212  1.00  0.00    -0.612 OA
ENDBRANCH  26  27
ENDBRANCH  15  21
ENDBRANCH   8   9
ENDBRANCH   6   8
ENDBRANCH   5   6
ENDBRANCH   4   5
ENDBRANCH   3   4
ENDBRANCH   2   3
ENDBRANCH   1   2
BRANCH   1  30
ATOM     30  C   UNL A   1      33.981  36.620  33.235  1.00  0.00     0.188 C 
BRANCH  30  31
ATOM     31  O   UNL A   1      35.152  35.881  32.900  1.00  0.00    -0.376 OA
BRANCH  31  32
ATOM     32  C   UNL A   1      35.270  34.651  33.604  1.00  0.00     0.202 C 
BRANCH  32  33
ATOM     33  C   UNL A   1      36.555  33.935  33.185  1.00  0.00     0.261 C 
BRANCH  33  34
ATOM     34  O   UNL A   1      36.573  32.542  33.548  1.00  0.00    -0.460 OA
BRANCH  34  35
ATOM     35  C   UNL A   1      37.404  32.208  34.558  1.00  0.00     0.338 C 
ATOM     36  O   UNL A   1      37.204  32.330  35.750  1.00  0.00    -0.246 OA
BRANCH  35  37
ATOM     37  C   UNL A   1      38.593  31.561  33.975  1.00  0.00     0.060 A 
ATOM     38  C   UNL A   1      38.471  30.627  32.952  1.00  0.00     0.016 A 
ATOM     39  C   UNL A   1      39.855  31.960  34.410  1.00  0.00     0.016 A 
ATOM     40  C   UNL A   1      39.630  30.114  32.354  1.00  0.00     0.010 A 
ATOM     41  C   UNL A   1      41.008  31.494  33.780  1.00  0.00     0.010 A 
ATOM     42  C   UNL A   1      40.909  30.565  32.740  1.00  0.00    -0.014 A 
BRANCH  42  43
ATOM     43  C   UNL A   1      42.119  30.131  31.991  1.00  0.00     0.031 A 
ATOM     44  C   UNL A   1      42.802  28.823  32.279  1.00  0.00     0.074 A 
ATOM     45  C   UNL A   1      42.626  30.950  31.049  1.00  0.00     0.049 A 
ATOM     46  N   UNL A   1      43.758  28.230  31.606  1.00  0.00    -0.248 NA
ATOM     47  C   UNL A   1      42.381  28.097  33.486  1.00  0.00     0.031 C 
ATOM     48  C   UNL A   1      42.138  32.299  30.755  1.00  0.00     0.029 A 
ATOM     49  N   UNL A   1      43.648  30.764  30.154  1.00  0.00    -0.354 N 
ATOM     50  C   UNL A   1      44.035  27.055  32.294  1.00  0.00     0.074 A 
ATOM     51  C   UNL A   1      43.202  27.056  33.476  1.00  0.00     0.031 C 
ATOM     52  C   UNL A   1      42.817  32.792  29.708  1.00  0.00     0.029 A 
ATOM     53  C   UNL A   1      43.792  31.801  29.264  1.00  0.00     0.049 A 
ATOM     54  H   UNL A   1      44.224  29.964  30.150  1.00  0.00     0.167 HD
ATOM     55  C   UNL A   1      44.880  26.051  31.952  1.00  0.00     0.037 A 
ATOM     56  C   UNL A   1      44.592  31.925  28.190  1.00  0.00     0.037 A 
ATOM     57  C   UNL A   1      45.713  26.055  30.776  1.00  0.00     0.049 A 
ATOM     58  C   UNL A   1      45.501  30.789  27.813  1.00  0.00     0.074 A 
ATOM     59  C   UNL A   1      46.544  25.055  30.300  1.00  0.00     0.029 A 
ATOM     60  N   UNL A   1      45.827  27.120  29.897  1.00  0.00    -0.354 N 
ATOM     61  N   UNL A   1      45.650  29.622  28.390  1.00  0.00    -0.248 NA
ATOM     62  C   UNL A   1      46.341  30.984  26.624  1.00  0.00     0.031 C 
ATOM     63  C   UNL A   1      47.189  25.530  29.151  1.00  0.00     0.029 A 
ATOM     64  C   UNL A   1      46.732  26.812  28.893  1.00  0.00     0.049 A 
ATOM     65  H   UNL A   1      45.339  27.972  29.974  1.00  0.00     0.167 HD
ATOM     66  C   UNL A   1      46.583  28.936  27.624  1.00  0.00     0.074 A 
ATOM     67  C   UNL A   1      46.950  29.810  26.529  1.00  0.00     0.031 C 
ATOM     68  C   UNL A   1      47.091  27.694  27.812  1.00  0.00     0.037 A 
BRANCH  55  69
ATOM     69  C   UNL A   1      44.918  24.846  32.849  1.00  0.00     0.057 A 
ATOM     70  C   UNL A   1      44.186  23.692  32.546  1.00  0.00     0.134 A 
ATOM     71  C   UNL A   1      45.659  24.848  34.039  1.00  0.00     0.134 A 
ATOM     72  F   UNL A   1      43.447  23.625  31.430  1.00  0.00    -0.206 F 
ATOM     73  C   UNL A   1      44.196  22.581  33.393  1.00  0.00     0.040 A 
ATOM     74  C   UNL A   1      45.695  23.736  34.881  1.00  0.00     0.040 A 
ATOM     75  F   UNL A   1      46.384  25.922  34.387  1.00  0.00    -0.206 F 
ATOM     76  C   UNL A   1      44.958  22.598  34.560  1.00  0.00     0.006 A 
ENDBRANCH  55  69
BRANCH  56  77
ATOM     77  C   UNL A   1      44.512  33.138  27.342  1.00  0.00     0.057 A 
ATOM     78  C   UNL A   1      45.033  34.365  27.763  1.00  0.00     0.134 A 
ATOM     79  C   UNL A   1      43.909  33.090  26.078  1.00  0.00     0.134 A 
ATOM     80  F   UNL A   1      45.615  34.476  28.966  1.00  0.00    -0.206 F 
ATOM     81  C   UNL A   1      44.957  35.504  26.960  1.00  0.00     0.040 A 
ATOM     82  C   UNL A   1      43.845  34.215  25.256  1.00  0.00     0.040 A 
ATOM     83  F   UNL A   1      43.405  31.937  25.615  1.00  0.00    -0.206 F 
ATOM     84  C   UNL A   1      44.368  35.429  25.699  1.00  0.00     0.006 A 
ENDBRANCH  56  77
BRANCH  68  85
ATOM     85  C   UNL A   1      48.088  27.208  26.803  1.00  0.00     0.057 A 
ATOM     86  C   UNL A   1      49.458  27.436  26.982  1.00  0.00     0.134 A 
ATOM     87  C   UNL A   1      47.688  26.525  25.647  1.00  0.00     0.134 A 
ATOM     88  F   UNL A   1      49.904  28.086  28.066  1.00  0.00    -0.206 F 
ATOM     89  C   UNL A   1      50.396  27.002  26.046  1.00  0.00     0.040 A 
ATOM     90  C   UNL A   1      48.620  26.066  24.714  1.00  0.00     0.040 A 
ATOM     91  F   UNL A   1      46.392  26.261  25.426  1.00  0.00    -0.206 F 
ATOM     92  C   UNL A   1      49.978  26.308  24.911  1.00  0.00     0.006 A 
ENDBRANCH  68  85
ENDBRANCH  42  43
ENDBRANCH  35  37
ENDBRANCH  34  35
ENDBRANCH  33  34
ENDBRANCH  32  33
ENDBRANCH  31  32
ENDBRANCH  30  31
ENDBRANCH   1  30
TORSDOF 20
ENDMDL
