MODEL 1
REMARK VINA RESULT:     -10.8      0.000      0.000
REMARK SMILES O=C(OCCOCCOCCOC(=O)c1ccc(Cn2nnc3ccccc32)nc1)c1ccc(-c2c3nc(c(-c4c(F)cccc4F)c4ccc([nH]4)c(-c4c(F)cccc4F)c4nc(c(-c5c(F)cccc5F)c5ccc2[nH]5)C=C4)C=C3)cc1
REMARK SMILES IDX 7 1 6 2 5 3 4 4 3 5 2 6 1 7 31 8 32 9 84 10 33 11 83 12
REMARK SMILES IDX 34 13 35 14 36 15 77 16 37 17 82 18 76 19 78 20 38 21 81 22
REMARK SMILES IDX 75 23 74 24 39 26 65 27 48 28 64 29 49 30 52 31 63 32 79 33
REMARK SMILES IDX 50 34 51 35 62 37 80 38 53 39 40 40 41 41 46 42 42 43 43 44
REMARK SMILES IDX 45 45 47 46 44 47 66 48 67 49 72 50 68 51 69 52 71 53 73 54
REMARK SMILES IDX 70 55 54 56 55 57 60 58 56 59 57 60 59 61 61 62 58 63 8 64
REMARK SMILES IDX 9 65 10 66 11 67 12 68 13 69 14 70 15 71 16 72 30 73 17 74
REMARK SMILES IDX 29 75 18 76 19 77 20 78 21 79 28 80 22 81 23 82 27 83 24 84
REMARK SMILES IDX 26 85 25 86
REMARK H PARENT 78 25 52 36
REMARK Flexibility Score: inf
ROOT
ATOM      1  C   UNL A   1      34.519  19.867  24.753  1.00  0.00     0.188 C 
ENDROOT
BRANCH   1   2
ATOM      2  O   UNL A   1      35.145  20.770  25.645  1.00  0.00    -0.376 OA
BRANCH   2   3
ATOM      3  C   UNL A   1      36.131  21.599  25.050  1.00  0.00     0.202 C 
BRANCH   3   4
ATOM      4  C   UNL A   1      37.566  21.086  25.211  1.00  0.00     0.261 C 
BRANCH   4   5
ATOM      5  O   UNL A   1      38.617  22.042  25.496  1.00  0.00    -0.460 OA
BRANCH   5   6
ATOM      6  C   UNL A   1      39.552  22.032  26.480  1.00  0.00     0.338 C 
ATOM      7  O   UNL A   1      40.090  20.986  26.829  1.00  0.00    -0.246 OA
BRANCH   6   8
ATOM      8  C   UNL A   1      39.826  23.278  27.224  1.00  0.00     0.060 A 
ATOM      9  C   UNL A   1      38.948  24.345  27.026  1.00  0.00     0.016 A 
ATOM     10  C   UNL A   1      40.979  23.451  27.997  1.00  0.00     0.016 A 
ATOM     11  C   UNL A   1      39.317  25.610  27.467  1.00  0.00     0.010 A 
ATOM     12  C   UNL A   1      41.382  24.733  28.367  1.00  0.00     0.010 A 
ATOM     13  C   UNL A   1      40.568  25.826  28.069  1.00  0.00    -0.014 A 
BRANCH  13  14
ATOM     14  C   UNL A   1      40.763  27.123  28.735  1.00  0.00     0.031 A 
ATOM     15  C   UNL A   1      42.016  27.749  28.239  1.00  0.00     0.074 A 
ATOM     16  C   UNL A   1      39.942  27.813  29.553  1.00  0.00     0.049 A 
ATOM     17  N   UNL A   1      43.153  27.879  28.842  1.00  0.00    -0.248 NA
ATOM     18  C   UNL A   1      42.048  28.056  26.798  1.00  0.00     0.031 C 
ATOM     19  C   UNL A   1      38.546  27.535  29.886  1.00  0.00     0.029 A 
ATOM     20  N   UNL A   1      40.194  28.973  30.244  1.00  0.00    -0.354 N 
ATOM     21  C   UNL A   1      43.981  28.473  27.893  1.00  0.00     0.074 A 
ATOM     22  C   UNL A   1      43.341  28.307  26.619  1.00  0.00     0.031 C 
ATOM     23  C   UNL A   1      38.043  28.550  30.621  1.00  0.00     0.029 A 
ATOM     24  C   UNL A   1      39.069  29.559  30.814  1.00  0.00     0.049 A 
ATOM     25  H   UNL A   1      41.096  29.359  30.328  1.00  0.00     0.167 HD
ATOM     26  C   UNL A   1      44.952  29.355  28.249  1.00  0.00     0.037 A 
ATOM     27  C   UNL A   1      38.942  30.809  31.332  1.00  0.00     0.037 A 
ATOM     28  C   UNL A   1      45.316  29.217  29.634  1.00  0.00     0.049 A 
ATOM     29  C   UNL A   1      40.301  31.324  31.627  1.00  0.00     0.074 A 
ATOM     30  C   UNL A   1      45.856  28.227  30.429  1.00  0.00     0.029 A 
ATOM     31  N   UNL A   1      44.833  30.162  30.501  1.00  0.00    -0.354 N 
ATOM     32  N   UNL A   1      41.071  30.850  32.566  1.00  0.00    -0.248 NA
ATOM     33  C   UNL A   1      40.984  32.062  30.577  1.00  0.00     0.031 C 
ATOM     34  C   UNL A   1      45.272  28.417  31.717  1.00  0.00     0.029 A 
ATOM     35  C   UNL A   1      44.423  29.523  31.639  1.00  0.00     0.049 A 
ATOM     36  H   UNL A   1      44.787  31.131  30.334  1.00  0.00     0.167 HD
ATOM     37  C   UNL A   1      42.344  30.842  32.012  1.00  0.00     0.074 A 
ATOM     38  C   UNL A   1      42.239  31.675  30.816  1.00  0.00     0.031 C 
ATOM     39  C   UNL A   1      43.289  29.947  32.428  1.00  0.00     0.037 A 
BRANCH  26  40
ATOM     40  C   UNL A   1      45.215  30.626  27.468  1.00  0.00     0.057 A 
ATOM     41  C   UNL A   1      44.306  31.701  27.340  1.00  0.00     0.134 A 
ATOM     42  C   UNL A   1      46.535  30.921  27.091  1.00  0.00     0.134 A 
ATOM     43  F   UNL A   1      43.028  31.631  27.727  1.00  0.00    -0.206 F 
ATOM     44  C   UNL A   1      44.682  32.970  26.899  1.00  0.00     0.040 A 
ATOM     45  C   UNL A   1      46.934  32.206  26.706  1.00  0.00     0.040 A 
ATOM     46  F   UNL A   1      47.497  29.990  27.178  1.00  0.00    -0.206 F 
ATOM     47  C   UNL A   1      46.008  33.237  26.617  1.00  0.00     0.006 A 
ENDBRANCH  26  40
BRANCH  27  48
ATOM     48  C   UNL A   1      37.726  31.669  31.318  1.00  0.00     0.057 A 
ATOM     49  C   UNL A   1      36.812  31.665  32.391  1.00  0.00     0.134 A 
ATOM     50  C   UNL A   1      37.307  32.369  30.177  1.00  0.00     0.134 A 
ATOM     51  F   UNL A   1      37.031  30.929  33.490  1.00  0.00    -0.206 F 
ATOM     52  C   UNL A   1      35.591  32.345  32.358  1.00  0.00     0.040 A 
ATOM     53  C   UNL A   1      36.073  33.041  30.122  1.00  0.00     0.040 A 
ATOM     54  F   UNL A   1      38.060  32.381  29.068  1.00  0.00    -0.206 F 
ATOM     55  C   UNL A   1      35.213  33.034  31.217  1.00  0.00     0.006 A 
ENDBRANCH  27  48
BRANCH  39  56
ATOM     56  C   UNL A   1      43.016  29.175  33.688  1.00  0.00     0.057 A 
ATOM     57  C   UNL A   1      43.650  29.576  34.870  1.00  0.00     0.134 A 
ATOM     58  C   UNL A   1      42.275  27.984  33.735  1.00  0.00     0.134 A 
ATOM     59  F   UNL A   1      44.424  30.673  34.882  1.00  0.00    -0.206 F 
ATOM     60  C   UNL A   1      43.549  28.836  36.050  1.00  0.00     0.040 A 
ATOM     61  C   UNL A   1      42.143  27.250  34.918  1.00  0.00     0.040 A 
ATOM     62  F   UNL A   1      41.713  27.474  32.629  1.00  0.00    -0.206 F 
ATOM     63  C   UNL A   1      42.785  27.673  36.078  1.00  0.00     0.006 A 
ENDBRANCH  39  56
ENDBRANCH  13  14
ENDBRANCH   6   8
ENDBRANCH   5   6
ENDBRANCH   4   5
ENDBRANCH   3   4
ENDBRANCH   2   3
ENDBRANCH   1   2
BRANCH   1  64
ATOM     64  C   UNL A   1      33.159  19.396  25.284  1.00  0.00     0.188 C 
BRANCH  64  65
ATOM     65  O   UNL A   1      32.045  20.257  25.051  1.00  0.00    -0.376 OA
BRANCH  65  66
ATOM     66  C   UNL A   1      32.164  21.219  23.999  1.00  0.00     0.202 C 
BRANCH  66  67
ATOM     67  C   UNL A   1      32.267  22.694  24.391  1.00  0.00     0.261 C 
BRANCH  67  68
ATOM     68  O   UNL A   1      31.281  23.141  25.319  1.00  0.00    -0.460 OA
BRANCH  68  69
ATOM     69  C   UNL A   1      31.809  23.715  26.421  1.00  0.00     0.339 C 
ATOM     70  O   UNL A   1      32.082  23.182  27.487  1.00  0.00    -0.246 OA
BRANCH  69  71
ATOM     71  C   UNL A   1      31.905  25.152  26.206  1.00  0.00     0.078 A 
ATOM     72  C   UNL A   1      33.158  25.753  26.094  1.00  0.00     0.019 A 
ATOM     73  C   UNL A   1      30.775  25.934  26.085  1.00  0.00     0.127 A 
ATOM     74  C   UNL A   1      33.234  27.099  25.752  1.00  0.00     0.027 A 
ATOM     75  N   UNL A   1      30.830  27.251  25.800  1.00  0.00    -0.258 NA
ATOM     76  C   UNL A   1      32.049  27.799  25.544  1.00  0.00     0.062 A 
BRANCH  76  77
ATOM     77  C   UNL A   1      32.050  29.148  24.867  1.00  0.00     0.202 C 
BRANCH  77  78
ATOM     78  N   UNL A   1      31.130  29.119  23.741  1.00  0.00    -0.239 N 
ATOM     79  N   UNL A   1      31.225  28.140  22.813  1.00  0.00    -0.066 NA
ATOM     80  C   UNL A   1      30.043  29.928  23.508  1.00  0.00     0.089 A 
ATOM     81  N   UNL A   1      30.178  28.256  22.002  1.00  0.00    -0.130 NA
ATOM     82  C   UNL A   1      29.429  29.326  22.419  1.00  0.00     0.113 A 
ATOM     83  C   UNL A   1      29.513  31.050  24.157  1.00  0.00     0.030 A 
ATOM     84  C   UNL A   1      28.216  29.844  21.940  1.00  0.00     0.032 A 
ATOM     85  C   UNL A   1      28.294  31.542  23.682  1.00  0.00     0.002 A 
ATOM     86  C   UNL A   1      27.653  30.952  22.591  1.00  0.00     0.002 A 
ENDBRANCH  77  78
ENDBRANCH  76  77
ENDBRANCH  69  71
ENDBRANCH  68  69
ENDBRANCH  67  68
ENDBRANCH  66  67
ENDBRANCH  65  66
ENDBRANCH  64  65
ENDBRANCH   1  64
TORSDOF 19
ENDMDL
MODEL 2
REMARK VINA RESULT:     -10.6      1.771      2.895
REMARK SMILES O=C(OCCOCCOCCOC(=O)c1ccc(Cn2nnc3ccccc32)nc1)c1ccc(-c2c3nc(c(-c4c(F)cccc4F)c4ccc([nH]4)c(-c4c(F)cccc4F)c4nc(c(-c5c(F)cccc5F)c5ccc2[nH]5)C=C4)C=C3)cc1
REMARK SMILES IDX 7 1 6 2 5 3 4 4 3 5 2 6 1 7 31 8 32 9 84 10 33 11 83 12
REMARK SMILES IDX 34 13 35 14 36 15 77 16 37 17 82 18 76 19 78 20 38 21 81 22
REMARK SMILES IDX 75 23 74 24 39 26 65 27 48 28 64 29 49 30 52 31 63 32 79 33
REMARK SMILES IDX 50 34 51 35 62 37 80 38 53 39 40 40 41 41 46 42 42 43 43 44
REMARK SMILES IDX 45 45 47 46 44 47 66 48 67 49 72 50 68 51 69 52 71 53 73 54
REMARK SMILES IDX 70 55 54 56 55 57 60 58 56 59 57 60 59 61 61 62 58 63 8 64
REMARK SMILES IDX 9 65 10 66 11 67 12 68 13 69 14 70 15 71 16 72 30 73 17 74
REMARK SMILES IDX 29 75 18 76 19 77 20 78 21 79 28 80 22 81 23 82 27 83 24 84
REMARK SMILES IDX 26 85 25 86
REMARK H PARENT 78 25 52 36
REMARK Flexibility Score: inf
ROOT
ATOM      1  C   UNL A   1      34.347  19.976  24.881  1.00  0.00     0.188 C 
ENDROOT
BRANCH   1   2
ATOM      2  O   UNL A   1      35.760  19.995  24.976  1.00  0.00    -0.376 OA
BRANCH   2   3
ATOM      3  C   UNL A   1      36.304  21.216  25.450  1.00  0.00     0.202 C 
BRANCH   3   4
ATOM      4  C   UNL A   1      37.817  21.352  25.250  1.00  0.00     0.261 C 
BRANCH   4   5
ATOM      5  O   UNL A   1      38.492  22.501  25.821  1.00  0.00    -0.460 OA
BRANCH   5   6
ATOM      6  C   UNL A   1      39.660  22.563  26.510  1.00  0.00     0.338 C 
ATOM      7  O   UNL A   1      40.425  21.606  26.543  1.00  0.00    -0.246 OA
BRANCH   6   8
ATOM      8  C   UNL A   1      39.945  23.756  27.333  1.00  0.00     0.060 A 
ATOM      9  C   UNL A   1      39.028  24.806  27.274  1.00  0.00     0.016 A 
ATOM     10  C   UNL A   1      41.140  23.906  28.045  1.00  0.00     0.016 A 
ATOM     11  C   UNL A   1      39.388  26.044  27.792  1.00  0.00     0.010 A 
ATOM     12  C   UNL A   1      41.529  25.168  28.492  1.00  0.00     0.010 A 
ATOM     13  C   UNL A   1      40.668  26.254  28.332  1.00  0.00    -0.014 A 
BRANCH  13  14
ATOM     14  C   UNL A   1      40.869  27.500  29.087  1.00  0.00     0.031 A 
ATOM     15  C   UNL A   1      42.144  28.135  28.662  1.00  0.00     0.074 A 
ATOM     16  C   UNL A   1      40.040  28.150  29.930  1.00  0.00     0.049 A 
ATOM     17  N   UNL A   1      43.268  28.204  29.298  1.00  0.00    -0.248 NA
ATOM     18  C   UNL A   1      42.214  28.535  27.245  1.00  0.00     0.031 C 
ATOM     19  C   UNL A   1      38.632  27.875  30.212  1.00  0.00     0.029 A 
ATOM     20  N   UNL A   1      40.295  29.257  30.701  1.00  0.00    -0.354 N 
ATOM     21  C   UNL A   1      44.128  28.844  28.409  1.00  0.00     0.074 A 
ATOM     22  C   UNL A   1      43.515  28.773  27.112  1.00  0.00     0.031 C 
ATOM     23  C   UNL A   1      38.129  28.849  31.000  1.00  0.00     0.029 A 
ATOM     24  C   UNL A   1      39.166  29.824  31.283  1.00  0.00     0.049 A 
ATOM     25  H   UNL A   1      41.200  29.620  30.831  1.00  0.00     0.167 HD
ATOM     26  C   UNL A   1      45.104  29.683  28.844  1.00  0.00     0.037 A 
ATOM     27  C   UNL A   1      39.048  31.040  31.880  1.00  0.00     0.037 A 
ATOM     28  C   UNL A   1      45.433  29.448  30.225  1.00  0.00     0.049 A 
ATOM     29  C   UNL A   1      40.407  31.510  32.239  1.00  0.00     0.074 A 
ATOM     30  C   UNL A   1      45.937  28.398  30.965  1.00  0.00     0.029 A 
ATOM     31  N   UNL A   1      44.945  30.342  31.141  1.00  0.00    -0.354 N 
ATOM     32  N   UNL A   1      41.147  30.962  33.161  1.00  0.00    -0.248 NA
ATOM     33  C   UNL A   1      41.127  32.303  31.255  1.00  0.00     0.031 C 
ATOM     34  C   UNL A   1      45.326  28.514  32.249  1.00  0.00     0.029 A 
ATOM     35  C   UNL A   1      44.498  29.638  32.225  1.00  0.00     0.049 A 
ATOM     36  H   UNL A   1      44.920  31.321  31.038  1.00  0.00     0.167 HD
ATOM     37  C   UNL A   1      42.432  30.966  32.637  1.00  0.00     0.074 A 
ATOM     38  C   UNL A   1      42.369  31.878  31.497  1.00  0.00     0.031 C 
ATOM     39  C   UNL A   1      43.352  30.029  33.014  1.00  0.00     0.037 A 
BRANCH  26  40
ATOM     40  C   UNL A   1      45.407  30.997  28.155  1.00  0.00     0.057 A 
ATOM     41  C   UNL A   1      46.587  31.279  27.429  1.00  0.00     0.134 A 
ATOM     42  C   UNL A   1      44.354  31.902  27.944  1.00  0.00     0.134 A 
ATOM     43  F   UNL A   1      47.661  30.483  27.439  1.00  0.00    -0.206 F 
ATOM     44  C   UNL A   1      46.702  32.354  26.548  1.00  0.00     0.040 A 
ATOM     45  C   UNL A   1      44.439  32.948  27.017  1.00  0.00     0.040 A 
ATOM     46  F   UNL A   1      43.175  31.739  28.563  1.00  0.00    -0.206 F 
ATOM     47  C   UNL A   1      45.614  33.171  26.309  1.00  0.00     0.006 A 
ENDBRANCH  26  40
BRANCH  27  48
ATOM     48  C   UNL A   1      37.847  31.921  31.895  1.00  0.00     0.057 A 
ATOM     49  C   UNL A   1      36.843  31.776  32.874  1.00  0.00     0.134 A 
ATOM     50  C   UNL A   1      37.535  32.794  30.842  1.00  0.00     0.134 A 
ATOM     51  F   UNL A   1      36.958  30.878  33.862  1.00  0.00    -0.206 F 
ATOM     52  C   UNL A   1      35.637  32.482  32.843  1.00  0.00     0.040 A 
ATOM     53  C   UNL A   1      36.318  33.496  30.787  1.00  0.00     0.040 A 
ATOM     54  F   UNL A   1      38.382  32.956  29.815  1.00  0.00    -0.206 F 
ATOM     55  C   UNL A   1      35.366  33.345  31.792  1.00  0.00     0.006 A 
ENDBRANCH  27  48
BRANCH  39  56
ATOM     56  C   UNL A   1      43.036  29.181  34.214  1.00  0.00     0.057 A 
ATOM     57  C   UNL A   1      43.661  29.482  35.430  1.00  0.00     0.134 A 
ATOM     58  C   UNL A   1      42.261  28.012  34.168  1.00  0.00     0.134 A 
ATOM     59  F   UNL A   1      44.465  30.553  35.529  1.00  0.00    -0.206 F 
ATOM     60  C   UNL A   1      43.520  28.667  36.555  1.00  0.00     0.040 A 
ATOM     61  C   UNL A   1      42.089  27.203  35.295  1.00  0.00     0.040 A 
ATOM     62  F   UNL A   1      41.705  27.595  33.021  1.00  0.00    -0.206 F 
ATOM     63  C   UNL A   1      42.724  27.527  36.492  1.00  0.00     0.006 A 
ENDBRANCH  39  56
ENDBRANCH  13  14
ENDBRANCH   6   8
ENDBRANCH   5   6
ENDBRANCH   4   5
ENDBRANCH   3   4
ENDBRANCH   2   3
ENDBRANCH   1   2
BRANCH   1  64
ATOM     64  C   UNL A   1      33.703  21.038  25.780  1.00  0.00     0.188 C 
BRANCH  64  65
ATOM     65  O   UNL A   1      32.756  21.912  25.165  1.00  0.00    -0.376 OA
BRANCH  65  66
ATOM     66  C   UNL A   1      32.485  21.717  23.775  1.00  0.00     0.202 C 
BRANCH  66  67
ATOM     67  C   UNL A   1      33.035  22.749  22.790  1.00  0.00     0.261 C 
BRANCH  67  68
ATOM     68  O   UNL A   1      32.140  23.810  22.467  1.00  0.00    -0.460 OA
BRANCH  68  69
ATOM     69  C   UNL A   1      32.770  24.971  22.183  1.00  0.00     0.339 C 
ATOM     70  O   UNL A   1      33.428  25.242  21.189  1.00  0.00    -0.246 OA
BRANCH  69  71
ATOM     71  C   UNL A   1      32.659  25.862  23.329  1.00  0.00     0.078 A 
ATOM     72  C   UNL A   1      31.403  26.297  23.747  1.00  0.00     0.019 A 
ATOM     73  C   UNL A   1      33.776  26.270  24.029  1.00  0.00     0.127 A 
ATOM     74  C   UNL A   1      31.300  27.034  24.923  1.00  0.00     0.027 A 
ATOM     75  N   UNL A   1      33.699  27.024  25.144  1.00  0.00    -0.258 NA
ATOM     76  C   UNL A   1      32.464  27.319  25.632  1.00  0.00     0.062 A 
BRANCH  76  77
ATOM     77  C   UNL A   1      32.406  27.822  27.054  1.00  0.00     0.202 C 
BRANCH  77  78
ATOM     78  N   UNL A   1      32.823  29.214  27.086  1.00  0.00    -0.239 N 
ATOM     79  N   UNL A   1      31.904  30.201  26.989  1.00  0.00    -0.066 NA
ATOM     80  C   UNL A   1      34.081  29.720  27.315  1.00  0.00     0.089 A 
ATOM     81  N   UNL A   1      32.529  31.353  27.210  1.00  0.00    -0.130 NA
ATOM     82  C   UNL A   1      33.855  31.085  27.434  1.00  0.00     0.113 A 
ATOM     83  C   UNL A   1      35.343  29.140  27.489  1.00  0.00     0.030 A 
ATOM     84  C   UNL A   1      34.925  31.933  27.756  1.00  0.00     0.032 A 
ATOM     85  C   UNL A   1      36.395  29.996  27.829  1.00  0.00     0.002 A 
ATOM     86  C   UNL A   1      36.193  31.370  27.961  1.00  0.00     0.002 A 
ENDBRANCH  77  78
ENDBRANCH  76  77
ENDBRANCH  69  71
ENDBRANCH  68  69
ENDBRANCH  67  68
ENDBRANCH  66  67
ENDBRANCH  65  66
ENDBRANCH  64  65
ENDBRANCH   1  64
TORSDOF 19
ENDMDL
MODEL 3
REMARK VINA RESULT:     -10.6      1.531      2.587
REMARK SMILES O=C(OCCOCCOCCOC(=O)c1ccc(Cn2nnc3ccccc32)nc1)c1ccc(-c2c3nc(c(-c4c(F)cccc4F)c4ccc([nH]4)c(-c4c(F)cccc4F)c4nc(c(-c5c(F)cccc5F)c5ccc2[nH]5)C=C4)C=C3)cc1
REMARK SMILES IDX 7 1 6 2 5 3 4 4 3 5 2 6 1 7 31 8 32 9 84 10 33 11 83 12
REMARK SMILES IDX 34 13 35 14 36 15 77 16 37 17 82 18 76 19 78 20 38 21 81 22
REMARK SMILES IDX 75 23 74 24 39 26 65 27 48 28 64 29 49 30 52 31 63 32 79 33
REMARK SMILES IDX 50 34 51 35 62 37 80 38 53 39 40 40 41 41 46 42 42 43 43 44
REMARK SMILES IDX 45 45 47 46 44 47 66 48 67 49 72 50 68 51 69 52 71 53 73 54
REMARK SMILES IDX 70 55 54 56 55 57 60 58 56 59 57 60 59 61 61 62 58 63 8 64
REMARK SMILES IDX 9 65 10 66 11 67 12 68 13 69 14 70 15 71 16 72 30 73 17 74
REMARK SMILES IDX 29 75 18 76 19 77 20 78 21 79 28 80 22 81 23 82 27 83 24 84
REMARK SMILES IDX 26 85 25 86
REMARK H PARENT 78 25 52 36
REMARK Flexibility Score: inf
ROOT
ATOM      1  C   UNL A   1      34.241  19.264  24.323  1.00  0.00     0.188 C 
ENDROOT
BRANCH   1   2
ATOM      2  O   UNL A   1      35.476  19.390  25.003  1.00  0.00    -0.376 OA
BRANCH   2   3
ATOM      3  C   UNL A   1      35.937  20.724  25.149  1.00  0.00     0.202 C 
BRANCH   3   4
ATOM      4  C   UNL A   1      37.461  20.871  25.118  1.00  0.00     0.261 C 
BRANCH   4   5
ATOM      5  O   UNL A   1      38.060  22.030  25.751  1.00  0.00    -0.460 OA
BRANCH   5   6
ATOM      6  C   UNL A   1      39.308  22.188  26.262  1.00  0.00     0.338 C 
ATOM      7  O   UNL A   1      40.143  21.293  26.177  1.00  0.00    -0.246 OA
BRANCH   6   8
ATOM      8  C   UNL A   1      39.616  23.404  27.041  1.00  0.00     0.060 A 
ATOM      9  C   UNL A   1      38.865  24.547  26.763  1.00  0.00     0.016 A 
ATOM     10  C   UNL A   1      40.694  23.470  27.930  1.00  0.00     0.016 A 
ATOM     11  C   UNL A   1      39.300  25.773  27.252  1.00  0.00     0.010 A 
ATOM     12  C   UNL A   1      41.172  24.710  28.351  1.00  0.00     0.010 A 
ATOM     13  C   UNL A   1      40.497  25.874  27.981  1.00  0.00    -0.014 A 
BRANCH  13  14
ATOM     14  C   UNL A   1      40.740  27.147  28.676  1.00  0.00     0.031 A 
ATOM     15  C   UNL A   1      42.021  27.732  28.200  1.00  0.00     0.074 A 
ATOM     16  C   UNL A   1      39.942  27.853  29.503  1.00  0.00     0.049 A 
ATOM     17  N   UNL A   1      43.158  27.803  28.813  1.00  0.00    -0.248 NA
ATOM     18  C   UNL A   1      42.075  28.067  26.767  1.00  0.00     0.031 C 
ATOM     19  C   UNL A   1      38.534  27.625  29.822  1.00  0.00     0.029 A 
ATOM     20  N   UNL A   1      40.237  28.987  30.219  1.00  0.00    -0.354 N 
ATOM     21  C   UNL A   1      44.016  28.382  27.881  1.00  0.00     0.074 A 
ATOM     22  C   UNL A   1      43.378  28.269  26.600  1.00  0.00     0.031 C 
ATOM     23  C   UNL A   1      38.067  28.644  30.575  1.00  0.00     0.029 A 
ATOM     24  C   UNL A   1      39.132  29.606  30.795  1.00  0.00     0.049 A 
ATOM     25  H   UNL A   1      41.152  29.334  30.318  1.00  0.00     0.167 HD
ATOM     26  C   UNL A   1      45.019  29.216  28.261  1.00  0.00     0.037 A 
ATOM     27  C   UNL A   1      39.052  30.849  31.339  1.00  0.00     0.037 A 
ATOM     28  C   UNL A   1      45.368  29.035  29.646  1.00  0.00     0.049 A 
ATOM     29  C   UNL A   1      40.429  31.302  31.653  1.00  0.00     0.074 A 
ATOM     30  C   UNL A   1      45.862  28.007  30.423  1.00  0.00     0.029 A 
ATOM     31  N   UNL A   1      44.917  29.980  30.529  1.00  0.00    -0.354 N 
ATOM     32  N   UNL A   1      41.173  30.778  32.586  1.00  0.00    -0.248 NA
ATOM     33  C   UNL A   1      41.149  32.034  30.622  1.00  0.00     0.031 C 
ATOM     34  C   UNL A   1      45.277  28.194  31.711  1.00  0.00     0.029 A 
ATOM     35  C   UNL A   1      44.475  29.335  31.651  1.00  0.00     0.049 A 
ATOM     36  H   UNL A   1      44.913  30.953  30.383  1.00  0.00     0.167 HD
ATOM     37  C   UNL A   1      42.448  30.729  32.040  1.00  0.00     0.074 A 
ATOM     38  C   UNL A   1      42.385  31.591  30.861  1.00  0.00     0.031 C 
ATOM     39  C   UNL A   1      43.353  29.788  32.442  1.00  0.00     0.037 A 
BRANCH  26  40
ATOM     40  C   UNL A   1      45.339  30.491  27.509  1.00  0.00     0.057 A 
ATOM     41  C   UNL A   1      44.462  31.592  27.370  1.00  0.00     0.134 A 
ATOM     42  C   UNL A   1      46.677  30.757  27.177  1.00  0.00     0.134 A 
ATOM     43  F   UNL A   1      43.172  31.549  27.718  1.00  0.00    -0.206 F 
ATOM     44  C   UNL A   1      44.884  32.857  26.962  1.00  0.00     0.040 A 
ATOM     45  C   UNL A   1      47.121  32.037  26.825  1.00  0.00     0.040 A 
ATOM     46  F   UNL A   1      47.612  29.800  27.279  1.00  0.00    -0.206 F 
ATOM     47  C   UNL A   1      46.225  33.093  26.725  1.00  0.00     0.006 A 
ENDBRANCH  26  40
BRANCH  27  48
ATOM     48  C   UNL A   1      37.873  31.758  31.336  1.00  0.00     0.057 A 
ATOM     49  C   UNL A   1      37.681  32.709  30.313  1.00  0.00     0.134 A 
ATOM     50  C   UNL A   1      37.002  31.872  32.430  1.00  0.00     0.134 A 
ATOM     51  F   UNL A   1      38.524  32.793  29.274  1.00  0.00    -0.206 F 
ATOM     52  C   UNL A   1      36.670  33.673  30.345  1.00  0.00     0.040 A 
ATOM     53  C   UNL A   1      35.993  32.850  32.486  1.00  0.00     0.040 A 
ATOM     54  F   UNL A   1      37.136  31.070  33.496  1.00  0.00    -0.206 F 
ATOM     55  C   UNL A   1      35.821  33.751  31.438  1.00  0.00     0.006 A 
ENDBRANCH  27  48
BRANCH  39  56
ATOM     56  C   UNL A   1      43.040  29.002  33.684  1.00  0.00     0.057 A 
ATOM     57  C   UNL A   1      42.230  27.865  33.572  1.00  0.00     0.134 A 
ATOM     58  C   UNL A   1      43.388  29.410  34.981  1.00  0.00     0.134 A 
ATOM     59  F   UNL A   1      41.810  27.453  32.365  1.00  0.00    -0.206 F 
ATOM     60  C   UNL A   1      41.789  27.159  34.692  1.00  0.00     0.040 A 
ATOM     61  C   UNL A   1      42.977  28.694  36.110  1.00  0.00     0.040 A 
ATOM     62  F   UNL A   1      44.081  30.540  35.188  1.00  0.00    -0.206 F 
ATOM     63  C   UNL A   1      42.171  27.568  35.967  1.00  0.00     0.006 A 
ENDBRANCH  39  56
ENDBRANCH  13  14
ENDBRANCH   6   8
ENDBRANCH   5   6
ENDBRANCH   4   5
ENDBRANCH   3   4
ENDBRANCH   2   3
ENDBRANCH   1   2
BRANCH   1  64
ATOM     64  C   UNL A   1      33.059  19.210  25.299  1.00  0.00     0.188 C 
BRANCH  64  65
ATOM     65  O   UNL A   1      31.962  20.082  25.028  1.00  0.00    -0.376 OA
BRANCH  65  66
ATOM     66  C   UNL A   1      32.154  21.095  24.038  1.00  0.00     0.202 C 
BRANCH  66  67
ATOM     67  C   UNL A   1      31.771  22.530  24.403  1.00  0.00     0.261 C 
BRANCH  67  68
ATOM     68  O   UNL A   1      30.990  22.662  25.588  1.00  0.00    -0.460 OA
BRANCH  68  69
ATOM     69  C   UNL A   1      31.677  23.197  26.622  1.00  0.00     0.339 C 
ATOM     70  O   UNL A   1      31.911  22.688  27.708  1.00  0.00    -0.246 OA
BRANCH  69  71
ATOM     71  C   UNL A   1      32.015  24.577  26.302  1.00  0.00     0.078 A 
ATOM     72  C   UNL A   1      33.348  24.935  26.112  1.00  0.00     0.019 A 
ATOM     73  C   UNL A   1      31.037  25.538  26.158  1.00  0.00     0.127 A 
ATOM     74  C   UNL A   1      33.646  26.220  25.672  1.00  0.00     0.027 A 
ATOM     75  N   UNL A   1      31.311  26.803  25.779  1.00  0.00    -0.258 NA
ATOM     76  C   UNL A   1      32.596  27.106  25.449  1.00  0.00     0.062 A 
BRANCH  76  77
ATOM     77  C   UNL A   1      32.807  28.386  24.678  1.00  0.00     0.202 C 
BRANCH  77  78
ATOM     78  N   UNL A   1      32.867  29.502  25.609  1.00  0.00    -0.239 N 
ATOM     79  N   UNL A   1      31.805  30.325  25.751  1.00  0.00    -0.066 NA
ATOM     80  C   UNL A   1      33.866  29.812  26.500  1.00  0.00     0.089 A 
ATOM     81  N   UNL A   1      32.065  31.142  26.767  1.00  0.00    -0.130 NA
ATOM     82  C   UNL A   1      33.308  30.834  27.256  1.00  0.00     0.113 A 
ATOM     83  C   UNL A   1      35.136  29.280  26.759  1.00  0.00     0.030 A 
ATOM     84  C   UNL A   1      34.028  31.360  28.340  1.00  0.00     0.032 A 
ATOM     85  C   UNL A   1      35.832  29.801  27.854  1.00  0.00     0.002 A 
ATOM     86  C   UNL A   1      35.291  30.823  28.633  1.00  0.00     0.002 A 
ENDBRANCH  77  78
ENDBRANCH  76  77
ENDBRANCH  69  71
ENDBRANCH  68  69
ENDBRANCH  67  68
ENDBRANCH  66  67
ENDBRANCH  65  66
ENDBRANCH  64  65
ENDBRANCH   1  64
TORSDOF 19
ENDMDL
