MODEL 1
REMARK VINA RESULT:     -10.0      0.000      0.000
REMARK SMILES O=C(OCCOCCOCCOC(=O)c1ccccc1C(=O)c1cccc(S(=O)(=O)N2CCOCC2)c1)c1ccc(-c2c3nc(c(-c4c(F)cccc4F)c4ccc([nH]4)c(-c4c(F)cccc4F)c4nc(c(-c5c(F)cccc5F)c5ccc2[nH]5)C=C4)C=C3)cc1
REMARK SMILES IDX 8 1 7 2 6 3 5 4 4 5 3 6 2 7 1 8 38 9 39 10 91 11 40 12 90 13
REMARK SMILES IDX 41 14 42 15 43 16 84 17 44 18 89 19 83 20 85 21 45 22 88 23
REMARK SMILES IDX 82 24 81 25 46 27 72 28 55 29 71 30 56 31 59 32 70 33 86 34
REMARK SMILES IDX 57 35 58 36 69 38 87 39 60 40 47 41 48 42 53 43 49 44 50 45
REMARK SMILES IDX 52 46 54 47 51 48 73 49 74 50 79 51 75 52 76 53 78 54 80 55
REMARK SMILES IDX 77 56 61 57 62 58 67 59 63 60 64 61 66 62 68 63 65 64 9 65
REMARK SMILES IDX 10 66 11 67 12 68 13 69 14 70 15 71 16 72 20 73 17 74 19 75
REMARK SMILES IDX 18 76 21 77 22 78 23 79 24 80 37 81 25 82 27 83 26 84 28 85
REMARK SMILES IDX 29 86 30 87 31 88 32 89 36 90 33 91 35 92 34 93
REMARK H PARENT 85 26 59 37
REMARK Flexibility Score: inf
ROOT
ATOM      1  C   UNL A   1      30.155  25.684  26.050  1.00  0.00     0.188 C 
ENDROOT
BRANCH   1   2
ATOM      2  C   UNL A   1      30.867  26.724  25.193  1.00  0.00     0.188 C 
BRANCH   2   3
ATOM      3  O   UNL A   1      31.718  27.543  25.995  1.00  0.00    -0.376 OA
BRANCH   3   4
ATOM      4  C   UNL A   1      31.601  28.943  25.706  1.00  0.00     0.202 C 
BRANCH   4   5
ATOM      5  C   UNL A   1      32.924  29.679  25.896  1.00  0.00     0.261 C 
BRANCH   5   6
ATOM      6  O   UNL A   1      33.055  29.986  27.289  1.00  0.00    -0.460 OA
BRANCH   6   7
ATOM      7  C   UNL A   1      33.584  31.205  27.564  1.00  0.00     0.338 C 
ATOM      8  O   UNL A   1      33.028  32.285  27.517  1.00  0.00    -0.246 OA
BRANCH   7   9
ATOM      9  C   UNL A   1      35.001  30.985  27.906  1.00  0.00     0.060 A 
ATOM     10  C   UNL A   1      35.420  29.693  28.255  1.00  0.00     0.016 A 
ATOM     11  C   UNL A   1      35.894  32.056  27.935  1.00  0.00     0.016 A 
ATOM     12  C   UNL A   1      36.681  29.488  28.769  1.00  0.00     0.010 A 
ATOM     13  C   UNL A   1      37.177  31.848  28.441  1.00  0.00     0.010 A 
ATOM     14  C   UNL A   1      37.544  30.575  28.913  1.00  0.00    -0.014 A 
BRANCH  14  15
ATOM     15  C   UNL A   1      38.744  30.379  29.742  1.00  0.00     0.031 A 
ATOM     16  C   UNL A   1      39.908  29.656  29.148  1.00  0.00     0.074 A 
ATOM     17  C   UNL A   1      38.853  30.990  30.932  1.00  0.00     0.049 A 
ATOM     18  N   UNL A   1      41.039  29.327  29.705  1.00  0.00    -0.248 NA
ATOM     19  C   UNL A   1      39.801  29.293  27.724  1.00  0.00     0.031 C 
ATOM     20  C   UNL A   1      37.859  31.902  31.483  1.00  0.00     0.029 A 
ATOM     21  N   UNL A   1      39.842  30.962  31.875  1.00  0.00    -0.354 N 
ATOM     22  C   UNL A   1      41.779  28.716  28.705  1.00  0.00     0.074 A 
ATOM     23  C   UNL A   1      40.969  28.709  27.508  1.00  0.00     0.031 C 
ATOM     24  C   UNL A   1      38.270  32.323  32.686  1.00  0.00     0.029 A 
ATOM     25  C   UNL A   1      39.506  31.642  33.020  1.00  0.00     0.049 A 
ATOM     26  H   UNL A   1      40.703  30.505  31.748  1.00  0.00     0.167 HD
ATOM     27  C   UNL A   1      43.029  28.212  28.795  1.00  0.00     0.037 A 
ATOM     28  C   UNL A   1      40.091  31.657  34.228  1.00  0.00     0.037 A 
ATOM     29  C   UNL A   1      43.803  28.237  30.005  1.00  0.00     0.049 A 
ATOM     30  C   UNL A   1      41.378  30.911  34.372  1.00  0.00     0.074 A 
ATOM     31  C   UNL A   1      45.064  27.724  30.238  1.00  0.00     0.029 A 
ATOM     32  N   UNL A   1      43.373  28.810  31.197  1.00  0.00    -0.354 N 
ATOM     33  N   UNL A   1      42.053  30.269  33.448  1.00  0.00    -0.248 NA
ATOM     34  C   UNL A   1      41.988  30.883  35.703  1.00  0.00     0.031 C 
ATOM     35  C   UNL A   1      45.375  27.940  31.586  1.00  0.00     0.029 A 
ATOM     36  C   UNL A   1      44.324  28.622  32.183  1.00  0.00     0.049 A 
ATOM     37  H   UNL A   1      42.517  29.279  31.320  1.00  0.00     0.167 HD
ATOM     38  C   UNL A   1      43.183  29.779  34.077  1.00  0.00     0.074 A 
ATOM     39  C   UNL A   1      43.101  30.203  35.464  1.00  0.00     0.031 C 
ATOM     40  C   UNL A   1      44.200  29.053  33.554  1.00  0.00     0.037 A 
BRANCH  27  41
ATOM     41  C   UNL A   1      43.570  27.529  27.580  1.00  0.00     0.057 A 
ATOM     42  C   UNL A   1      43.400  26.158  27.352  1.00  0.00     0.134 A 
ATOM     43  C   UNL A   1      44.314  28.255  26.642  1.00  0.00     0.134 A 
ATOM     44  F   UNL A   1      42.727  25.400  28.232  1.00  0.00    -0.206 F 
ATOM     45  C   UNL A   1      43.965  25.530  26.241  1.00  0.00     0.040 A 
ATOM     46  C   UNL A   1      44.871  27.642  25.519  1.00  0.00     0.040 A 
ATOM     47  F   UNL A   1      44.529  29.568  26.814  1.00  0.00    -0.206 F 
ATOM     48  C   UNL A   1      44.701  26.274  25.319  1.00  0.00     0.006 A 
ENDBRANCH  27  41
BRANCH  28  49
ATOM     49  C   UNL A   1      39.408  32.305  35.377  1.00  0.00     0.057 A 
ATOM     50  C   UNL A   1      38.531  31.606  36.209  1.00  0.00     0.134 A 
ATOM     51  C   UNL A   1      39.636  33.658  35.676  1.00  0.00     0.134 A 
ATOM     52  F   UNL A   1      38.258  30.315  35.969  1.00  0.00    -0.206 F 
ATOM     53  C   UNL A   1      37.896  32.228  37.288  1.00  0.00     0.040 A 
ATOM     54  C   UNL A   1      39.025  34.287  36.761  1.00  0.00     0.040 A 
ATOM     55  F   UNL A   1      40.474  34.389  34.924  1.00  0.00    -0.206 F 
ATOM     56  C   UNL A   1      38.146  33.571  37.569  1.00  0.00     0.006 A 
ENDBRANCH  28  49
BRANCH  40  57
ATOM     57  C   UNL A   1      45.303  28.693  34.492  1.00  0.00     0.057 A 
ATOM     58  C   UNL A   1      46.393  29.546  34.698  1.00  0.00     0.134 A 
ATOM     59  C   UNL A   1      45.256  27.497  35.218  1.00  0.00     0.134 A 
ATOM     60  F   UNL A   1      46.499  30.693  34.011  1.00  0.00    -0.206 F 
ATOM     61  C   UNL A   1      47.410  29.214  35.591  1.00  0.00     0.040 A 
ATOM     62  C   UNL A   1      46.254  27.166  36.130  1.00  0.00     0.040 A 
ATOM     63  F   UNL A   1      44.233  26.643  35.060  1.00  0.00    -0.206 F 
ATOM     64  C   UNL A   1      47.337  28.024  36.316  1.00  0.00     0.006 A 
ENDBRANCH  40  57
ENDBRANCH  14  15
ENDBRANCH   7   9
ENDBRANCH   6   7
ENDBRANCH   5   6
ENDBRANCH   4   5
ENDBRANCH   3   4
ENDBRANCH   2   3
ENDBRANCH   1   2
BRANCH   1  65
ATOM     65  O   UNL A   1      30.981  24.694  26.648  1.00  0.00    -0.376 OA
BRANCH  65  66
ATOM     66  C   UNL A   1      30.460  23.383  26.840  1.00  0.00     0.202 C 
BRANCH  66  67
ATOM     67  C   UNL A   1      30.592  22.360  25.707  1.00  0.00     0.261 C 
BRANCH  67  68
ATOM     68  O   UNL A   1      31.868  21.756  25.396  1.00  0.00    -0.460 OA
BRANCH  68  69
ATOM     69  C   UNL A   1      32.299  22.083  24.161  1.00  0.00     0.338 C 
ATOM     70  O   UNL A   1      32.540  21.294  23.261  1.00  0.00    -0.246 OA
BRANCH  69  71
ATOM     71  C   UNL A   1      32.579  23.489  23.876  1.00  0.00     0.071 A 
ATOM     72  C   UNL A   1      31.856  24.035  22.799  1.00  0.00     0.016 A 
ATOM     73  C   UNL A   1      33.772  24.103  24.301  1.00  0.00     0.037 A 
ATOM     74  C   UNL A   1      32.321  25.174  22.136  1.00  0.00     0.001 A 
ATOM     75  C   UNL A   1      34.246  25.222  23.590  1.00  0.00     0.013 A 
ATOM     76  C   UNL A   1      33.531  25.751  22.514  1.00  0.00     0.001 A 
BRANCH  73  77
ATOM     77  C   UNL A   1      34.545  23.761  25.527  1.00  0.00     0.193 C 
ATOM     78  O   UNL A   1      34.037  24.000  26.621  1.00  0.00    -0.289 OA
BRANCH  77  79
ATOM     79  C   UNL A   1      35.889  23.159  25.520  1.00  0.00     0.024 A 
ATOM     80  C   UNL A   1      36.122  22.033  24.722  1.00  0.00     0.012 A 
ATOM     81  C   UNL A   1      36.911  23.694  26.305  1.00  0.00     0.034 A 
ATOM     82  C   UNL A   1      37.402  21.481  24.654  1.00  0.00     0.002 A 
ATOM     83  C   UNL A   1      38.199  23.170  26.199  1.00  0.00     0.083 A 
ATOM     84  C   UNL A   1      38.447  22.059  25.379  1.00  0.00     0.022 A 
BRANCH  83  85
ATOM     85  S   UNL A   1      39.601  23.990  26.941  1.00  0.00     0.243 S 
ATOM     86  O   UNL A   1      40.013  24.993  25.981  1.00  0.00    -0.207 OA
ATOM     87  O   UNL A   1      39.185  24.347  28.279  1.00  0.00    -0.207 OA
BRANCH  85  88
ATOM     88  N   UNL A   1      40.799  22.831  27.029  1.00  0.00    -0.193 NA
ATOM     89  C   UNL A   1      41.924  22.803  26.082  1.00  0.00     0.131 C 
ATOM     90  C   UNL A   1      40.943  21.906  28.175  1.00  0.00     0.131 C 
ATOM     91  C   UNL A   1      42.224  21.357  25.672  1.00  0.00     0.177 C 
ATOM     92  C   UNL A   1      41.294  20.496  27.663  1.00  0.00     0.177 C 
ATOM     93  O   UNL A   1      42.457  20.521  26.816  1.00  0.00    -0.379 OA
ENDBRANCH  85  88
ENDBRANCH  83  85
ENDBRANCH  77  79
ENDBRANCH  73  77
ENDBRANCH  69  71
ENDBRANCH  68  69
ENDBRANCH  67  68
ENDBRANCH  66  67
ENDBRANCH  65  66
ENDBRANCH   1  65
TORSDOF 21
ENDMDL
MODEL 2
REMARK VINA RESULT:      -9.9      3.672      7.381
REMARK SMILES O=C(OCCOCCOCCOC(=O)c1ccccc1C(=O)c1cccc(S(=O)(=O)N2CCOCC2)c1)c1ccc(-c2c3nc(c(-c4c(F)cccc4F)c4ccc([nH]4)c(-c4c(F)cccc4F)c4nc(c(-c5c(F)cccc5F)c5ccc2[nH]5)C=C4)C=C3)cc1
REMARK SMILES IDX 8 1 7 2 6 3 5 4 4 5 3 6 2 7 1 8 38 9 39 10 91 11 40 12 90 13
REMARK SMILES IDX 41 14 42 15 43 16 84 17 44 18 89 19 83 20 85 21 45 22 88 23
REMARK SMILES IDX 82 24 81 25 46 27 72 28 55 29 71 30 56 31 59 32 70 33 86 34
REMARK SMILES IDX 57 35 58 36 69 38 87 39 60 40 47 41 48 42 53 43 49 44 50 45
REMARK SMILES IDX 52 46 54 47 51 48 73 49 74 50 79 51 75 52 76 53 78 54 80 55
REMARK SMILES IDX 77 56 61 57 62 58 67 59 63 60 64 61 66 62 68 63 65 64 9 65
REMARK SMILES IDX 10 66 11 67 12 68 13 69 14 70 15 71 16 72 20 73 17 74 19 75
REMARK SMILES IDX 18 76 21 77 22 78 23 79 24 80 37 81 25 82 27 83 26 84 28 85
REMARK SMILES IDX 29 86 30 87 31 88 32 89 36 90 33 91 35 92 34 93
REMARK H PARENT 85 26 59 37
REMARK Flexibility Score: inf
ROOT
ATOM      1  C   UNL A   1      34.871  31.795  28.840  1.00  0.00     0.188 C 
ENDROOT
BRANCH   1   2
ATOM      2  C   UNL A   1      34.777  32.932  29.851  1.00  0.00     0.188 C 
BRANCH   2   3
ATOM      3  O   UNL A   1      34.409  32.434  31.137  1.00  0.00    -0.376 OA
BRANCH   3   4
ATOM      4  C   UNL A   1      35.316  32.821  32.179  1.00  0.00     0.202 C 
BRANCH   4   5
ATOM      5  C   UNL A   1      36.755  32.426  31.860  1.00  0.00     0.261 C 
BRANCH   5   6
ATOM      6  O   UNL A   1      36.970  31.108  32.379  1.00  0.00    -0.460 OA
BRANCH   6   7
ATOM      7  C   UNL A   1      37.076  30.130  31.444  1.00  0.00     0.338 C 
ATOM      8  O   UNL A   1      36.225  29.333  31.100  1.00  0.00    -0.246 OA
BRANCH   7   9
ATOM      9  C   UNL A   1      38.457  30.184  30.929  1.00  0.00     0.060 A 
ATOM     10  C   UNL A   1      38.659  30.318  29.548  1.00  0.00     0.016 A 
ATOM     11  C   UNL A   1      39.539  30.048  31.798  1.00  0.00     0.016 A 
ATOM     12  C   UNL A   1      39.920  30.172  29.014  1.00  0.00     0.010 A 
ATOM     13  C   UNL A   1      40.820  29.917  31.260  1.00  0.00     0.010 A 
ATOM     14  C   UNL A   1      40.995  29.919  29.865  1.00  0.00    -0.014 A 
BRANCH  14  15
ATOM     15  C   UNL A   1      42.252  29.463  29.248  1.00  0.00     0.031 A 
ATOM     16  C   UNL A   1      42.351  28.041  28.805  1.00  0.00     0.074 A 
ATOM     17  C   UNL A   1      43.211  30.347  28.931  1.00  0.00     0.049 A 
ATOM     18  N   UNL A   1      43.370  27.413  28.289  1.00  0.00    -0.248 NA
ATOM     19  C   UNL A   1      41.127  27.228  28.918  1.00  0.00     0.031 C 
ATOM     20  C   UNL A   1      43.097  31.788  29.118  1.00  0.00     0.029 A 
ATOM     21  N   UNL A   1      44.446  30.179  28.371  1.00  0.00    -0.354 N 
ATOM     22  C   UNL A   1      42.915  26.133  28.018  1.00  0.00     0.074 A 
ATOM     23  C   UNL A   1      41.532  26.065  28.434  1.00  0.00     0.031 C 
ATOM     24  C   UNL A   1      44.230  32.373  28.712  1.00  0.00     0.029 A 
ATOM     25  C   UNL A   1      45.173  31.342  28.324  1.00  0.00     0.049 A 
ATOM     26  H   UNL A   1      44.779  29.316  28.037  1.00  0.00     0.167 HD
ATOM     27  C   UNL A   1      43.606  25.111  27.465  1.00  0.00     0.037 A 
ATOM     28  C   UNL A   1      46.474  31.548  28.067  1.00  0.00     0.037 A 
ATOM     29  C   UNL A   1      44.981  25.217  27.064  1.00  0.00     0.049 A 
ATOM     30  C   UNL A   1      47.284  30.360  27.658  1.00  0.00     0.074 A 
ATOM     31  C   UNL A   1      45.805  24.246  26.530  1.00  0.00     0.029 A 
ATOM     32  N   UNL A   1      45.737  26.380  27.164  1.00  0.00    -0.354 N 
ATOM     33  N   UNL A   1      46.879  29.127  27.466  1.00  0.00    -0.248 NA
ATOM     34  C   UNL A   1      48.715  30.573  27.429  1.00  0.00     0.031 C 
ATOM     35  C   UNL A   1      47.076  24.808  26.356  1.00  0.00     0.029 A 
ATOM     36  C   UNL A   1      47.033  26.138  26.745  1.00  0.00     0.049 A 
ATOM     37  H   UNL A   1      45.400  27.246  27.486  1.00  0.00     0.167 HD
ATOM     38  C   UNL A   1      47.998  28.418  27.069  1.00  0.00     0.074 A 
ATOM     39  C   UNL A   1      49.100  29.363  27.046  1.00  0.00     0.031 C 
ATOM     40  C   UNL A   1      48.103  27.106  26.745  1.00  0.00     0.037 A 
BRANCH  27  41
ATOM     41  C   UNL A   1      42.898  23.799  27.355  1.00  0.00     0.057 A 
ATOM     42  C   UNL A   1      42.866  22.874  28.406  1.00  0.00     0.134 A 
ATOM     43  C   UNL A   1      42.273  23.439  26.156  1.00  0.00     0.134 A 
ATOM     44  F   UNL A   1      43.477  23.145  29.570  1.00  0.00    -0.206 F 
ATOM     45  C   UNL A   1      42.251  21.629  28.261  1.00  0.00     0.040 A 
ATOM     46  C   UNL A   1      41.640  22.205  26.003  1.00  0.00     0.040 A 
ATOM     47  F   UNL A   1      42.285  24.274  25.106  1.00  0.00    -0.206 F 
ATOM     48  C   UNL A   1      41.632  21.293  27.057  1.00  0.00     0.006 A 
ENDBRANCH  27  41
BRANCH  28  49
ATOM     49  C   UNL A   1      47.076  32.887  28.293  1.00  0.00     0.057 A 
ATOM     50  C   UNL A   1      47.159  33.843  27.278  1.00  0.00     0.134 A 
ATOM     51  C   UNL A   1      47.574  33.246  29.556  1.00  0.00     0.134 A 
ATOM     52  F   UNL A   1      46.715  33.559  26.045  1.00  0.00    -0.206 F 
ATOM     53  C   UNL A   1      47.726  35.101  27.505  1.00  0.00     0.040 A 
ATOM     54  C   UNL A   1      48.125  34.503  29.801  1.00  0.00     0.040 A 
ATOM     55  F   UNL A   1      47.519  32.379  30.579  1.00  0.00    -0.206 F 
ATOM     56  C   UNL A   1      48.207  35.435  28.770  1.00  0.00     0.006 A 
ENDBRANCH  28  49
BRANCH  40  57
ATOM     57  C   UNL A   1      49.456  26.638  26.326  1.00  0.00     0.057 A 
ATOM     58  C   UNL A   1      50.328  26.021  27.230  1.00  0.00     0.134 A 
ATOM     59  C   UNL A   1      49.875  26.777  24.997  1.00  0.00     0.134 A 
ATOM     60  F   UNL A   1      49.985  25.884  28.519  1.00  0.00    -0.206 F 
ATOM     61  C   UNL A   1      51.582  25.567  26.827  1.00  0.00     0.040 A 
ATOM     62  C   UNL A   1      51.116  26.306  24.579  1.00  0.00     0.040 A 
ATOM     63  F   UNL A   1      49.078  27.359  24.088  1.00  0.00    -0.206 F 
ATOM     64  C   UNL A   1      51.975  25.702  25.496  1.00  0.00     0.006 A 
ENDBRANCH  40  57
ENDBRANCH  14  15
ENDBRANCH   7   9
ENDBRANCH   6   7
ENDBRANCH   5   6
ENDBRANCH   4   5
ENDBRANCH   3   4
ENDBRANCH   2   3
ENDBRANCH   1   2
BRANCH   1  65
ATOM     65  O   UNL A   1      34.314  32.049  27.557  1.00  0.00    -0.376 OA
BRANCH  65  66
ATOM     66  C   UNL A   1      32.972  31.654  27.295  1.00  0.00     0.202 C 
BRANCH  66  67
ATOM     67  C   UNL A   1      32.694  30.210  26.862  1.00  0.00     0.261 C 
BRANCH  67  68
ATOM     68  O   UNL A   1      31.610  29.902  25.957  1.00  0.00    -0.460 OA
BRANCH  68  69
ATOM     69  C   UNL A   1      31.985  29.045  24.986  1.00  0.00     0.338 C 
ATOM     70  O   UNL A   1      33.117  28.625  24.808  1.00  0.00    -0.246 OA
BRANCH  69  71
ATOM     71  C   UNL A   1      30.982  28.629  24.007  1.00  0.00     0.071 A 
ATOM     72  C   UNL A   1      30.484  29.660  23.189  1.00  0.00     0.016 A 
ATOM     73  C   UNL A   1      30.239  27.445  24.171  1.00  0.00     0.037 A 
ATOM     74  C   UNL A   1      29.248  29.526  22.551  1.00  0.00     0.001 A 
ATOM     75  C   UNL A   1      28.976  27.350  23.555  1.00  0.00     0.013 A 
ATOM     76  C   UNL A   1      28.482  28.381  22.756  1.00  0.00     0.001 A 
BRANCH  73  77
ATOM     77  C   UNL A   1      30.708  26.203  24.845  1.00  0.00     0.193 C 
ATOM     78  O   UNL A   1      30.277  25.952  25.969  1.00  0.00    -0.289 OA
BRANCH  77  79
ATOM     79  C   UNL A   1      31.664  25.250  24.258  1.00  0.00     0.024 A 
ATOM     80  C   UNL A   1      32.358  25.616  23.098  1.00  0.00     0.012 A 
ATOM     81  C   UNL A   1      31.869  23.999  24.840  1.00  0.00     0.034 A 
ATOM     82  C   UNL A   1      33.313  24.753  22.557  1.00  0.00     0.002 A 
ATOM     83  C   UNL A   1      32.857  23.160  24.326  1.00  0.00     0.083 A 
ATOM     84  C   UNL A   1      33.577  23.531  23.180  1.00  0.00     0.022 A 
BRANCH  83  85
ATOM     85  S   UNL A   1      33.371  21.686  25.195  1.00  0.00     0.243 S 
ATOM     86  O   UNL A   1      32.690  21.735  26.472  1.00  0.00    -0.207 OA
ATOM     87  O   UNL A   1      33.171  20.594  24.270  1.00  0.00    -0.207 OA
BRANCH  85  88
ATOM     88  N   UNL A   1      35.006  21.881  25.469  1.00  0.00    -0.193 NA
ATOM     89  C   UNL A   1      35.525  22.929  26.361  1.00  0.00     0.131 C 
ATOM     90  C   UNL A   1      36.020  20.895  25.032  1.00  0.00     0.131 C 
ATOM     91  C   UNL A   1      36.777  23.564  25.745  1.00  0.00     0.177 C 
ATOM     92  C   UNL A   1      37.255  21.631  24.479  1.00  0.00     0.177 C 
ATOM     93  O   UNL A   1      37.771  22.577  25.432  1.00  0.00    -0.379 OA
ENDBRANCH  85  88
ENDBRANCH  83  85
ENDBRANCH  77  79
ENDBRANCH  73  77
ENDBRANCH  69  71
ENDBRANCH  68  69
ENDBRANCH  67  68
ENDBRANCH  66  67
ENDBRANCH  65  66
ENDBRANCH   1  65
TORSDOF 21
ENDMDL
MODEL 3
REMARK VINA RESULT:      -9.9      3.067      5.794
REMARK SMILES O=C(OCCOCCOCCOC(=O)c1ccccc1C(=O)c1cccc(S(=O)(=O)N2CCOCC2)c1)c1ccc(-c2c3nc(c(-c4c(F)cccc4F)c4ccc([nH]4)c(-c4c(F)cccc4F)c4nc(c(-c5c(F)cccc5F)c5ccc2[nH]5)C=C4)C=C3)cc1
REMARK SMILES IDX 8 1 7 2 6 3 5 4 4 5 3 6 2 7 1 8 38 9 39 10 91 11 40 12 90 13
REMARK SMILES IDX 41 14 42 15 43 16 84 17 44 18 89 19 83 20 85 21 45 22 88 23
REMARK SMILES IDX 82 24 81 25 46 27 72 28 55 29 71 30 56 31 59 32 70 33 86 34
REMARK SMILES IDX 57 35 58 36 69 38 87 39 60 40 47 41 48 42 53 43 49 44 50 45
REMARK SMILES IDX 52 46 54 47 51 48 73 49 74 50 79 51 75 52 76 53 78 54 80 55
REMARK SMILES IDX 77 56 61 57 62 58 67 59 63 60 64 61 66 62 68 63 65 64 9 65
REMARK SMILES IDX 10 66 11 67 12 68 13 69 14 70 15 71 16 72 20 73 17 74 19 75
REMARK SMILES IDX 18 76 21 77 22 78 23 79 24 80 37 81 25 82 27 83 26 84 28 85
REMARK SMILES IDX 29 86 30 87 31 88 32 89 36 90 33 91 35 92 34 93
REMARK H PARENT 85 26 59 37
REMARK Flexibility Score: inf
ROOT
ATOM      1  C   UNL A   1      32.458  22.665  23.001  1.00  0.00     0.188 C 
ENDROOT
BRANCH   1   2
ATOM      2  C   UNL A   1      31.057  22.936  23.537  1.00  0.00     0.188 C 
BRANCH   2   3
ATOM      3  O   UNL A   1      31.099  23.236  24.932  1.00  0.00    -0.376 OA
BRANCH   3   4
ATOM      4  C   UNL A   1      30.551  24.522  25.256  1.00  0.00     0.202 C 
BRANCH   4   5
ATOM      5  C   UNL A   1      31.575  25.640  25.079  1.00  0.00     0.261 C 
BRANCH   5   6
ATOM      6  O   UNL A   1      30.991  26.847  25.583  1.00  0.00    -0.460 OA
BRANCH   6   7
ATOM      7  C   UNL A   1      31.432  27.990  24.997  1.00  0.00     0.338 C 
ATOM      8  O   UNL A   1      30.932  28.589  24.065  1.00  0.00    -0.246 OA
BRANCH   7   9
ATOM      9  C   UNL A   1      32.679  28.366  25.687  1.00  0.00     0.060 A 
ATOM     10  C   UNL A   1      32.859  27.974  27.021  1.00  0.00     0.016 A 
ATOM     11  C   UNL A   1      33.636  29.146  25.037  1.00  0.00     0.016 A 
ATOM     12  C   UNL A   1      33.912  28.473  27.755  1.00  0.00     0.010 A 
ATOM     13  C   UNL A   1      34.713  29.639  25.775  1.00  0.00     0.010 A 
ATOM     14  C   UNL A   1      34.812  29.349  27.147  1.00  0.00    -0.014 A 
BRANCH  14  15
ATOM     15  C   UNL A   1      35.725  30.096  28.027  1.00  0.00     0.031 A 
ATOM     16  C   UNL A   1      37.151  29.660  28.106  1.00  0.00     0.074 A 
ATOM     17  C   UNL A   1      35.328  31.243  28.600  1.00  0.00     0.049 A 
ATOM     18  N   UNL A   1      38.113  30.133  28.847  1.00  0.00    -0.248 NA
ATOM     19  C   UNL A   1      37.559  28.574  27.197  1.00  0.00     0.031 C 
ATOM     20  C   UNL A   1      34.025  31.861  28.387  1.00  0.00     0.029 A 
ATOM     21  N   UNL A   1      35.971  32.101  29.448  1.00  0.00    -0.354 N 
ATOM     22  C   UNL A   1      39.239  29.405  28.500  1.00  0.00     0.074 A 
ATOM     23  C   UNL A   1      38.844  28.449  27.489  1.00  0.00     0.031 C 
ATOM     24  C   UNL A   1      33.950  32.984  29.113  1.00  0.00     0.029 A 
ATOM     25  C   UNL A   1      35.159  33.110  29.903  1.00  0.00     0.049 A 
ATOM     26  H   UNL A   1      36.916  32.005  29.704  1.00  0.00     0.167 HD
ATOM     27  C   UNL A   1      40.491  29.536  28.992  1.00  0.00     0.037 A 
ATOM     28  C   UNL A   1      35.341  33.993  30.896  1.00  0.00     0.037 A 
ATOM     29  C   UNL A   1      40.844  30.499  29.997  1.00  0.00     0.049 A 
ATOM     30  C   UNL A   1      36.669  33.986  31.581  1.00  0.00     0.074 A 
ATOM     31  C   UNL A   1      42.066  30.706  30.607  1.00  0.00     0.029 A 
ATOM     32  N   UNL A   1      39.957  31.418  30.546  1.00  0.00    -0.354 N 
ATOM     33  N   UNL A   1      37.721  33.251  31.308  1.00  0.00    -0.248 NA
ATOM     34  C   UNL A   1      36.849  34.914  32.700  1.00  0.00     0.031 C 
ATOM     35  C   UNL A   1      41.905  31.715  31.563  1.00  0.00     0.029 A 
ATOM     36  C   UNL A   1      40.592  32.164  31.522  1.00  0.00     0.049 A 
ATOM     37  H   UNL A   1      39.015  31.521  30.280  1.00  0.00     0.167 HD
ATOM     38  C   UNL A   1      38.699  33.642  32.203  1.00  0.00     0.074 A 
ATOM     39  C   UNL A   1      38.113  34.683  33.028  1.00  0.00     0.031 C 
ATOM     40  C   UNL A   1      39.970  33.187  32.326  1.00  0.00     0.037 A 
BRANCH  27  41
ATOM     41  C   UNL A   1      41.514  28.562  28.501  1.00  0.00     0.057 A 
ATOM     42  C   UNL A   1      42.147  28.703  27.259  1.00  0.00     0.134 A 
ATOM     43  C   UNL A   1      41.838  27.439  29.271  1.00  0.00     0.134 A 
ATOM     44  F   UNL A   1      41.854  29.739  26.458  1.00  0.00    -0.206 F 
ATOM     45  C   UNL A   1      43.055  27.749  26.795  1.00  0.00     0.040 A 
ATOM     46  C   UNL A   1      42.756  26.488  28.825  1.00  0.00     0.040 A 
ATOM     47  F   UNL A   1      41.251  27.239  30.461  1.00  0.00    -0.206 F 
ATOM     48  C   UNL A   1      43.363  26.639  27.580  1.00  0.00     0.006 A 
ENDBRANCH  27  41
BRANCH  28  49
ATOM     49  C   UNL A   1      34.214  34.853  31.343  1.00  0.00     0.057 A 
ATOM     50  C   UNL A   1      33.740  35.915  30.569  1.00  0.00     0.134 A 
ATOM     51  C   UNL A   1      33.572  34.613  32.568  1.00  0.00     0.134 A 
ATOM     52  F   UNL A   1      34.319  36.207  29.396  1.00  0.00    -0.206 F 
ATOM     53  C   UNL A   1      32.678  36.715  31.002  1.00  0.00     0.040 A 
ATOM     54  C   UNL A   1      32.498  35.390  33.003  1.00  0.00     0.040 A 
ATOM     55  F   UNL A   1      33.969  33.604  33.358  1.00  0.00    -0.206 F 
ATOM     56  C   UNL A   1      32.052  36.451  32.219  1.00  0.00     0.006 A 
ENDBRANCH  28  49
BRANCH  40  57
ATOM     57  C   UNL A   1      40.801  33.833  33.384  1.00  0.00     0.057 A 
ATOM     58  C   UNL A   1      40.734  33.421  34.719  1.00  0.00     0.134 A 
ATOM     59  C   UNL A   1      41.699  34.855  33.054  1.00  0.00     0.134 A 
ATOM     60  F   UNL A   1      39.873  32.461  35.092  1.00  0.00    -0.206 F 
ATOM     61  C   UNL A   1      41.529  34.014  35.698  1.00  0.00     0.040 A 
ATOM     62  C   UNL A   1      42.514  35.439  34.020  1.00  0.00     0.040 A 
ATOM     63  F   UNL A   1      41.805  35.288  31.789  1.00  0.00    -0.206 F 
ATOM     64  C   UNL A   1      42.427  35.021  35.347  1.00  0.00     0.006 A 
ENDBRANCH  40  57
ENDBRANCH  14  15
ENDBRANCH   7   9
ENDBRANCH   6   7
ENDBRANCH   5   6
ENDBRANCH   4   5
ENDBRANCH   3   4
ENDBRANCH   2   3
ENDBRANCH   1   2
BRANCH   1  65
ATOM     65  O   UNL A   1      33.461  22.404  23.974  1.00  0.00    -0.376 OA
BRANCH  65  66
ATOM     66  C   UNL A   1      34.827  22.607  23.631  1.00  0.00     0.202 C 
BRANCH  66  67
ATOM     67  C   UNL A   1      35.538  23.870  24.129  1.00  0.00     0.261 C 
BRANCH  67  68
ATOM     68  O   UNL A   1      36.898  23.815  24.614  1.00  0.00    -0.460 OA
BRANCH  68  69
ATOM     69  C   UNL A   1      37.056  22.889  25.581  1.00  0.00     0.338 C 
ATOM     70  O   UNL A   1      36.483  22.883  26.659  1.00  0.00    -0.246 OA
BRANCH  69  71
ATOM     71  C   UNL A   1      38.049  21.836  25.374  1.00  0.00     0.071 A 
ATOM     72  C   UNL A   1      37.547  20.644  24.817  1.00  0.00     0.016 A 
ATOM     73  C   UNL A   1      39.264  21.818  26.084  1.00  0.00     0.037 A 
ATOM     74  C   UNL A   1      38.237  19.440  24.976  1.00  0.00     0.001 A 
ATOM     75  C   UNL A   1      39.919  20.586  26.271  1.00  0.00     0.013 A 
ATOM     76  C   UNL A   1      39.408  19.406  25.727  1.00  0.00     0.001 A 
BRANCH  73  77
ATOM     77  C   UNL A   1      40.013  23.010  26.568  1.00  0.00     0.193 C 
ATOM     78  O   UNL A   1      39.434  24.096  26.581  1.00  0.00    -0.289 OA
BRANCH  77  79
ATOM     79  C   UNL A   1      41.410  22.983  27.030  1.00  0.00     0.024 A 
ATOM     80  C   UNL A   1      41.668  22.956  28.406  1.00  0.00     0.012 A 
ATOM     81  C   UNL A   1      42.462  22.995  26.113  1.00  0.00     0.034 A 
ATOM     82  C   UNL A   1      42.983  22.870  28.866  1.00  0.00     0.002 A 
ATOM     83  C   UNL A   1      43.771  22.860  26.574  1.00  0.00     0.083 A 
ATOM     84  C   UNL A   1      44.036  22.804  27.950  1.00  0.00     0.022 A 
BRANCH  83  85
ATOM     85  S   UNL A   1      45.128  22.570  25.449  1.00  0.00     0.243 S 
ATOM     86  O   UNL A   1      44.755  23.232  24.216  1.00  0.00    -0.207 OA
ATOM     87  O   UNL A   1      46.324  22.936  26.174  1.00  0.00    -0.207 OA
BRANCH  85  88
ATOM     88  N   UNL A   1      45.134  20.924  25.175  1.00  0.00    -0.193 NA
ATOM     89  C   UNL A   1      43.888  20.154  25.044  1.00  0.00     0.131 C 
ATOM     90  C   UNL A   1      46.357  20.170  24.819  1.00  0.00     0.131 C 
ATOM     91  C   UNL A   1      44.022  18.816  25.781  1.00  0.00     0.177 C 
ATOM     92  C   UNL A   1      46.373  18.824  25.569  1.00  0.00     0.177 C 
ATOM     93  O   UNL A   1      45.167  18.077  25.329  1.00  0.00    -0.379 OA
ENDBRANCH  85  88
ENDBRANCH  83  85
ENDBRANCH  77  79
ENDBRANCH  73  77
ENDBRANCH  69  71
ENDBRANCH  68  69
ENDBRANCH  67  68
ENDBRANCH  66  67
ENDBRANCH  65  66
ENDBRANCH   1  65
TORSDOF 21
ENDMDL
