MODEL 1
REMARK VINA RESULT:     -10.4      0.000      0.000
REMARK SMILES COc1cccc([C@@H]2CN(C(=O)CCSC)C[C@H]2C(=O)OCCOCCOCCOC(=O)c2ccc(-c3c4nc(c(-c5c(F)cccc5F)c5ccc([nH]5)c(-c5c(F)cccc5F)c5nc(c(-c6c(F)cccc6F)c6ccc3[nH]6)C=C5)C=C4)cc2)c1OC
REMARK SMILES IDX 25 1 24 2 23 3 22 4 21 5 19 6 20 7 18 8 8 9 9 10 10 11 17 12
REMARK SMILES IDX 7 13 3 14 4 15 87 16 5 17 6 18 2 19 1 20 88 21 89 22 11 23
REMARK SMILES IDX 12 24 13 25 14 26 15 27 16 28 26 29 27 30 28 31 29 32 30 33
REMARK SMILES IDX 31 34 32 35 33 36 34 37 86 38 35 39 85 40 36 41 37 42 38 43
REMARK SMILES IDX 79 44 39 45 84 46 78 47 80 48 40 49 83 50 77 51 76 52 41 54
REMARK SMILES IDX 67 55 50 56 66 57 51 58 54 59 65 60 81 61 52 62 53 63 64 65
REMARK SMILES IDX 82 66 55 67 42 68 43 69 48 70 44 71 45 72 47 73 49 74 46 75
REMARK SMILES IDX 68 76 69 77 74 78 70 79 71 80 73 81 75 82 72 83 56 84 57 85
REMARK SMILES IDX 62 86 58 87 59 88 61 89 63 90 60 91
REMARK H PARENT 80 53 54 64
REMARK Flexibility Score: inf
ROOT
ATOM      1  C   UNL A   1      40.954  20.557  27.031  1.00  0.00     0.188 C 
ENDROOT
BRANCH   1   2
ATOM      2  O   UNL A   1      39.630  20.778  26.563  1.00  0.00    -0.376 OA
BRANCH   2   3
ATOM      3  C   UNL A   1      39.357  21.886  25.716  1.00  0.00     0.202 C 
BRANCH   3   4
ATOM      4  C   UNL A   1      38.035  22.624  25.941  1.00  0.00     0.261 C 
BRANCH   4   5
ATOM      5  O   UNL A   1      37.695  23.599  24.928  1.00  0.00    -0.463 OA
BRANCH   5   6
ATOM      6  C   UNL A   1      36.754  23.213  24.029  1.00  0.00     0.311 C 
ATOM      7  O   UNL A   1      36.998  22.938  22.857  1.00  0.00    -0.252 OA
BRANCH   6   8
ATOM      8  C   UNL A   1      35.328  23.249  24.537  1.00  0.00     0.128 C 
ATOM      9  C   UNL A   1      34.201  23.960  23.746  1.00  0.00     0.059 C 
ATOM     10  C   UNL A   1      32.971  23.048  23.896  1.00  0.00     0.129 C 
ATOM     11  N   UNL A   1      33.430  21.820  24.504  1.00  0.00    -0.341 N 
ATOM     12  C   UNL A   1      34.864  21.807  24.684  1.00  0.00     0.135 C 
BRANCH   9  13
ATOM     13  C   UNL A   1      33.771  25.385  24.141  1.00  0.00     0.004 A 
ATOM     14  C   UNL A   1      33.246  27.737  23.676  1.00  0.00     0.161 A 
ATOM     15  C   UNL A   1      33.279  28.023  25.044  1.00  0.00     0.050 A 
ATOM     16  C   UNL A   1      33.518  26.432  23.216  1.00  0.00     0.164 A 
ATOM     17  C   UNL A   1      33.566  27.015  25.960  1.00  0.00     0.004 A 
ATOM     18  C   UNL A   1      33.802  25.712  25.515  1.00  0.00     0.008 A 
BRANCH  14  19
ATOM     19  O   UNL A   1      33.146  28.791  22.804  1.00  0.00    -0.493 OA
ATOM     20  C   UNL A   1      31.792  29.121  22.491  1.00  0.00     0.278 C 
ENDBRANCH  14  19
BRANCH  16  21
ATOM     21  O   UNL A   1      33.710  26.114  21.899  1.00  0.00    -0.493 OA
ATOM     22  C   UNL A   1      32.599  25.644  21.149  1.00  0.00     0.278 C 
ENDBRANCH  16  21
ENDBRANCH   9  13
BRANCH  11  23
ATOM     23  C   UNL A   1      32.653  20.764  24.917  1.00  0.00     0.223 C 
ATOM     24  O   UNL A   1      31.488  20.925  25.285  1.00  0.00    -0.275 OA
BRANCH  23  25
ATOM     25  C   UNL A   1      33.257  19.376  24.894  1.00  0.00     0.111 C 
BRANCH  25  26
ATOM     26  C   UNL A   1      32.508  18.456  23.936  1.00  0.00     0.079 C 
BRANCH  26  27
ATOM     27  S   UNL A   1      33.529  17.082  23.299  1.00  0.00    -0.165 SA
ATOM     28  C   UNL A   1      34.829  17.060  24.556  1.00  0.00     0.085 C 
ENDBRANCH  26  27
ENDBRANCH  25  26
ENDBRANCH  23  25
ENDBRANCH  11  23
ENDBRANCH   6   8
ENDBRANCH   5   6
ENDBRANCH   4   5
ENDBRANCH   3   4
ENDBRANCH   2   3
ENDBRANCH   1   2
BRANCH   1  29
ATOM     29  C   UNL A   1      41.844  19.519  26.341  1.00  0.00     0.188 C 
BRANCH  29  30
ATOM     30  O   UNL A   1      42.672  20.029  25.313  1.00  0.00    -0.376 OA
BRANCH  30  31
ATOM     31  C   UNL A   1      44.066  19.963  25.580  1.00  0.00     0.202 C 
BRANCH  31  32
ATOM     32  C   UNL A   1      44.668  21.370  25.629  1.00  0.00     0.261 C 
BRANCH  32  33
ATOM     33  O   UNL A   1      43.754  22.365  26.132  1.00  0.00    -0.460 OA
BRANCH  33  34
ATOM     34  C   UNL A   1      43.639  23.477  25.379  1.00  0.00     0.338 C 
ATOM     35  O   UNL A   1      43.959  23.612  24.203  1.00  0.00    -0.246 OA
BRANCH  34  36
ATOM     36  C   UNL A   1      42.869  24.482  26.126  1.00  0.00     0.060 A 
ATOM     37  C   UNL A   1      43.286  25.811  26.051  1.00  0.00     0.016 A 
ATOM     38  C   UNL A   1      41.821  24.124  26.970  1.00  0.00     0.016 A 
ATOM     39  C   UNL A   1      42.712  26.776  26.867  1.00  0.00     0.010 A 
ATOM     40  C   UNL A   1      41.247  25.099  27.798  1.00  0.00     0.010 A 
ATOM     41  C   UNL A   1      41.725  26.422  27.787  1.00  0.00    -0.014 A 
BRANCH  41  42
ATOM     42  C   UNL A   1      41.391  27.373  28.878  1.00  0.00     0.031 A 
ATOM     43  C   UNL A   1      42.264  27.381  30.106  1.00  0.00     0.074 A 
ATOM     44  C   UNL A   1      40.418  28.294  28.760  1.00  0.00     0.049 A 
ATOM     45  N   UNL A   1      42.095  28.000  31.245  1.00  0.00    -0.248 NA
ATOM     46  C   UNL A   1      43.504  26.592  30.027  1.00  0.00     0.031 C 
ATOM     47  C   UNL A   1      39.588  28.512  27.577  1.00  0.00     0.029 A 
ATOM     48  N   UNL A   1      39.968  29.229  29.663  1.00  0.00    -0.354 N 
ATOM     49  C   UNL A   1      43.176  27.634  32.035  1.00  0.00     0.074 A 
ATOM     50  C   UNL A   1      44.003  26.749  31.243  1.00  0.00     0.031 C 
ATOM     51  C   UNL A   1      38.724  29.512  27.831  1.00  0.00     0.029 A 
ATOM     52  C   UNL A   1      38.896  29.960  29.212  1.00  0.00     0.049 A 
ATOM     53  H   UNL A   1      40.377  29.362  30.549  1.00  0.00     0.167 HD
ATOM     54  C   UNL A   1      43.455  27.995  33.309  1.00  0.00     0.037 A 
ATOM     55  C   UNL A   1      38.116  30.850  29.855  1.00  0.00     0.037 A 
ATOM     56  C   UNL A   1      42.657  28.900  34.090  1.00  0.00     0.049 A 
ATOM     57  C   UNL A   1      38.381  31.162  31.307  1.00  0.00     0.074 A 
ATOM     58  C   UNL A   1      42.832  29.291  35.405  1.00  0.00     0.029 A 
ATOM     59  N   UNL A   1      41.541  29.570  33.617  1.00  0.00    -0.354 N 
ATOM     60  N   UNL A   1      39.346  30.734  32.084  1.00  0.00    -0.248 NA
ATOM     61  C   UNL A   1      37.434  32.067  31.975  1.00  0.00     0.031 C 
ATOM     62  C   UNL A   1      41.801  30.178  35.738  1.00  0.00     0.029 A 
ATOM     63  C   UNL A   1      41.011  30.369  34.615  1.00  0.00     0.049 A 
ATOM     64  H   UNL A   1      41.178  29.490  32.705  1.00  0.00     0.167 HD
ATOM     65  C   UNL A   1      39.138  31.338  33.319  1.00  0.00     0.074 A 
ATOM     66  C   UNL A   1      37.962  32.169  33.186  1.00  0.00     0.031 C 
ATOM     67  C   UNL A   1      39.855  31.211  34.462  1.00  0.00     0.037 A 
BRANCH  54  68
ATOM     68  C   UNL A   1      44.648  27.358  33.955  1.00  0.00     0.057 A 
ATOM     69  C   UNL A   1      44.572  26.125  34.611  1.00  0.00     0.134 A 
ATOM     70  C   UNL A   1      45.895  27.994  33.908  1.00  0.00     0.134 A 
ATOM     71  F   UNL A   1      43.400  25.480  34.711  1.00  0.00    -0.206 F 
ATOM     72  C   UNL A   1      45.692  25.554  35.218  1.00  0.00     0.040 A 
ATOM     73  C   UNL A   1      47.027  27.422  34.490  1.00  0.00     0.040 A 
ATOM     74  F   UNL A   1      46.033  29.180  33.296  1.00  0.00    -0.206 F 
ATOM     75  C   UNL A   1      46.926  26.201  35.152  1.00  0.00     0.006 A 
ENDBRANCH  54  68
BRANCH  55  76
ATOM     76  C   UNL A   1      36.959  31.475  29.162  1.00  0.00     0.057 A 
ATOM     77  C   UNL A   1      35.783  30.758  28.920  1.00  0.00     0.134 A 
ATOM     78  C   UNL A   1      37.027  32.786  28.674  1.00  0.00     0.134 A 
ATOM     79  F   UNL A   1      35.670  29.487  29.334  1.00  0.00    -0.206 F 
ATOM     80  C   UNL A   1      34.721  31.314  28.202  1.00  0.00     0.040 A 
ATOM     81  C   UNL A   1      35.965  33.364  27.979  1.00  0.00     0.040 A 
ATOM     82  F   UNL A   1      38.132  33.523  28.865  1.00  0.00    -0.206 F 
ATOM     83  C   UNL A   1      34.810  32.624  27.733  1.00  0.00     0.006 A 
ENDBRANCH  55  76
BRANCH  67  84
ATOM     84  C   UNL A   1      39.426  32.029  35.645  1.00  0.00     0.057 A 
ATOM     85  C   UNL A   1      39.896  33.330  35.858  1.00  0.00     0.134 A 
ATOM     86  C   UNL A   1      38.489  31.521  36.555  1.00  0.00     0.134 A 
ATOM     87  F   UNL A   1      40.802  33.869  35.029  1.00  0.00    -0.206 F 
ATOM     88  C   UNL A   1      39.464  34.091  36.945  1.00  0.00     0.040 A 
ATOM     89  C   UNL A   1      38.033  32.281  37.632  1.00  0.00     0.040 A 
ATOM     90  F   UNL A   1      37.991  30.285  36.402  1.00  0.00    -0.206 F 
ATOM     91  C   UNL A   1      38.524  33.570  37.832  1.00  0.00     0.006 A 
ENDBRANCH  67  84
ENDBRANCH  41  42
ENDBRANCH  34  36
ENDBRANCH  33  34
ENDBRANCH  32  33
ENDBRANCH  31  32
ENDBRANCH  30  31
ENDBRANCH  29  30
ENDBRANCH   1  29
TORSDOF 24
ENDMDL
MODEL 2
REMARK VINA RESULT:     -10.0      1.732      3.836
REMARK SMILES COc1cccc([C@@H]2CN(C(=O)CCSC)C[C@H]2C(=O)OCCOCCOCCOC(=O)c2ccc(-c3c4nc(c(-c5c(F)cccc5F)c5ccc([nH]5)c(-c5c(F)cccc5F)c5nc(c(-c6c(F)cccc6F)c6ccc3[nH]6)C=C5)C=C4)cc2)c1OC
REMARK SMILES IDX 25 1 24 2 23 3 22 4 21 5 19 6 20 7 18 8 8 9 9 10 10 11 17 12
REMARK SMILES IDX 7 13 3 14 4 15 87 16 5 17 6 18 2 19 1 20 88 21 89 22 11 23
REMARK SMILES IDX 12 24 13 25 14 26 15 27 16 28 26 29 27 30 28 31 29 32 30 33
REMARK SMILES IDX 31 34 32 35 33 36 34 37 86 38 35 39 85 40 36 41 37 42 38 43
REMARK SMILES IDX 79 44 39 45 84 46 78 47 80 48 40 49 83 50 77 51 76 52 41 54
REMARK SMILES IDX 67 55 50 56 66 57 51 58 54 59 65 60 81 61 52 62 53 63 64 65
REMARK SMILES IDX 82 66 55 67 42 68 43 69 48 70 44 71 45 72 47 73 49 74 46 75
REMARK SMILES IDX 68 76 69 77 74 78 70 79 71 80 73 81 75 82 72 83 56 84 57 85
REMARK SMILES IDX 62 86 58 87 59 88 61 89 63 90 60 91
REMARK H PARENT 80 53 54 64
REMARK Flexibility Score: inf
ROOT
ATOM      1  C   UNL A   1      40.768  20.915  26.815  1.00  0.00     0.188 C 
ENDROOT
BRANCH   1   2
ATOM      2  O   UNL A   1      39.447  21.138  26.343  1.00  0.00    -0.376 OA
BRANCH   2   3
ATOM      3  C   UNL A   1      39.100  22.397  25.783  1.00  0.00     0.202 C 
BRANCH   3   4
ATOM      4  C   UNL A   1      37.678  22.904  26.039  1.00  0.00     0.261 C 
BRANCH   4   5
ATOM      5  O   UNL A   1      37.213  23.921  25.121  1.00  0.00    -0.463 OA
BRANCH   5   6
ATOM      6  C   UNL A   1      36.498  23.473  24.058  1.00  0.00     0.311 C 
ATOM      7  O   UNL A   1      36.989  23.208  22.964  1.00  0.00    -0.252 OA
BRANCH   6   8
ATOM      8  C   UNL A   1      34.999  23.422  24.269  1.00  0.00     0.128 C 
ATOM      9  C   UNL A   1      34.349  22.410  25.246  1.00  0.00     0.059 C 
ATOM     10  C   UNL A   1      33.221  23.193  25.940  1.00  0.00     0.129 C 
ATOM     11  N   UNL A   1      33.382  24.581  25.568  1.00  0.00    -0.341 N 
ATOM     12  C   UNL A   1      34.567  24.793  24.768  1.00  0.00     0.135 C 
BRANCH   9  13
ATOM     13  C   UNL A   1      33.739  21.104  24.701  1.00  0.00     0.004 A 
ATOM     14  C   UNL A   1      33.762  18.702  24.205  1.00  0.00     0.161 A 
ATOM     15  C   UNL A   1      32.640  18.852  23.386  1.00  0.00     0.050 A 
ATOM     16  C   UNL A   1      34.334  19.823  24.840  1.00  0.00     0.164 A 
ATOM     17  C   UNL A   1      32.070  20.110  23.208  1.00  0.00     0.004 A 
ATOM     18  C   UNL A   1      32.609  21.221  23.862  1.00  0.00     0.008 A 
BRANCH  14  19
ATOM     19  O   UNL A   1      34.398  17.486  24.202  1.00  0.00    -0.493 OA
ATOM     20  C   UNL A   1      34.049  16.684  23.072  1.00  0.00     0.278 C 
ENDBRANCH  14  19
BRANCH  16  21
ATOM     21  O   UNL A   1      35.542  19.800  25.483  1.00  0.00    -0.493 OA
ATOM     22  C   UNL A   1      36.722  19.683  24.699  1.00  0.00     0.278 C 
ENDBRANCH  16  21
ENDBRANCH   9  13
BRANCH  11  23
ATOM     23  C   UNL A   1      32.536  25.619  25.876  1.00  0.00     0.223 C 
ATOM     24  O   UNL A   1      31.789  25.575  26.855  1.00  0.00    -0.275 OA
BRANCH  23  25
ATOM     25  C   UNL A   1      32.550  26.844  24.986  1.00  0.00     0.111 C 
BRANCH  25  26
ATOM     26  C   UNL A   1      31.283  27.675  25.161  1.00  0.00     0.079 C 
BRANCH  26  27
ATOM     27  S   UNL A   1      31.083  28.973  23.891  1.00  0.00    -0.165 SA
ATOM     28  C   UNL A   1      30.661  27.941  22.465  1.00  0.00     0.085 C 
ENDBRANCH  26  27
ENDBRANCH  25  26
ENDBRANCH  23  25
ENDBRANCH  11  23
ENDBRANCH   6   8
ENDBRANCH   5   6
ENDBRANCH   4   5
ENDBRANCH   3   4
ENDBRANCH   2   3
ENDBRANCH   1   2
BRANCH   1  29
ATOM     29  C   UNL A   1      41.657  19.871  26.132  1.00  0.00     0.188 C 
BRANCH  29  30
ATOM     30  O   UNL A   1      42.648  20.399  25.270  1.00  0.00    -0.376 OA
BRANCH  30  31
ATOM     31  C   UNL A   1      43.987  20.125  25.660  1.00  0.00     0.202 C 
BRANCH  31  32
ATOM     32  C   UNL A   1      44.806  21.417  25.700  1.00  0.00     0.261 C 
BRANCH  32  33
ATOM     33  O   UNL A   1      44.109  22.518  26.319  1.00  0.00    -0.460 OA
BRANCH  33  34
ATOM     34  C   UNL A   1      43.893  23.584  25.526  1.00  0.00     0.338 C 
ATOM     35  O   UNL A   1      44.162  23.688  24.333  1.00  0.00    -0.246 OA
BRANCH  34  36
ATOM     36  C   UNL A   1      43.082  24.569  26.257  1.00  0.00     0.060 A 
ATOM     37  C   UNL A   1      43.463  25.909  26.188  1.00  0.00     0.016 A 
ATOM     38  C   UNL A   1      42.030  24.182  27.083  1.00  0.00     0.016 A 
ATOM     39  C   UNL A   1      42.847  26.858  26.992  1.00  0.00     0.010 A 
ATOM     40  C   UNL A   1      41.414  25.141  27.901  1.00  0.00     0.010 A 
ATOM     41  C   UNL A   1      41.855  26.477  27.896  1.00  0.00    -0.014 A 
BRANCH  41  42
ATOM     42  C   UNL A   1      41.476  27.419  28.980  1.00  0.00     0.031 A 
ATOM     43  C   UNL A   1      42.301  27.422  30.240  1.00  0.00     0.074 A 
ATOM     44  C   UNL A   1      40.503  28.337  28.831  1.00  0.00     0.049 A 
ATOM     45  N   UNL A   1      42.085  28.032  31.376  1.00  0.00    -0.248 NA
ATOM     46  C   UNL A   1      43.546  26.639  30.203  1.00  0.00     0.031 C 
ATOM     47  C   UNL A   1      39.718  28.560  27.618  1.00  0.00     0.029 A 
ATOM     48  N   UNL A   1      40.016  29.264  29.722  1.00  0.00    -0.354 N 
ATOM     49  C   UNL A   1      43.138  27.665  32.204  1.00  0.00     0.074 A 
ATOM     50  C   UNL A   1      43.997  26.789  31.439  1.00  0.00     0.031 C 
ATOM     51  C   UNL A   1      38.841  29.554  27.845  1.00  0.00     0.029 A 
ATOM     52  C   UNL A   1      38.959  29.993  29.235  1.00  0.00     0.049 A 
ATOM     53  H   UNL A   1      40.390  29.392  30.624  1.00  0.00     0.167 HD
ATOM     54  C   UNL A   1      43.366  28.018  33.491  1.00  0.00     0.037 A 
ATOM     55  C   UNL A   1      38.150  30.876  29.854  1.00  0.00     0.037 A 
ATOM     56  C   UNL A   1      42.535  28.915  34.246  1.00  0.00     0.049 A 
ATOM     57  C   UNL A   1      38.359  31.179  31.317  1.00  0.00     0.074 A 
ATOM     58  C   UNL A   1      42.657  29.298  35.570  1.00  0.00     0.029 A 
ATOM     59  N   UNL A   1      41.434  29.584  33.735  1.00  0.00    -0.354 N 
ATOM     60  N   UNL A   1      39.295  30.749  32.127  1.00  0.00    -0.248 NA
ATOM     61  C   UNL A   1      37.383  32.076  31.954  1.00  0.00     0.031 C 
ATOM     62  C   UNL A   1      41.611  30.178  35.869  1.00  0.00     0.029 A 
ATOM     63  C   UNL A   1      40.864  30.373  34.718  1.00  0.00     0.049 A 
ATOM     64  H   UNL A   1      41.107  29.509  32.810  1.00  0.00     0.167 HD
ATOM     65  C   UNL A   1      39.038  31.344  33.357  1.00  0.00     0.074 A 
ATOM     66  C   UNL A   1      37.864  32.172  33.186  1.00  0.00     0.031 C 
ATOM     67  C   UNL A   1      39.711  31.212  34.526  1.00  0.00     0.037 A 
BRANCH  54  68
ATOM     68  C   UNL A   1      44.536  27.382  34.177  1.00  0.00     0.057 A 
ATOM     69  C   UNL A   1      44.438  26.147  34.828  1.00  0.00     0.134 A 
ATOM     70  C   UNL A   1      45.783  28.020  34.177  1.00  0.00     0.134 A 
ATOM     71  F   UNL A   1      43.264  25.500  34.884  1.00  0.00    -0.206 F 
ATOM     72  C   UNL A   1      45.537  25.576  35.472  1.00  0.00     0.040 A 
ATOM     73  C   UNL A   1      46.894  27.448  34.797  1.00  0.00     0.040 A 
ATOM     74  F   UNL A   1      45.941  29.207  33.573  1.00  0.00    -0.206 F 
ATOM     75  C   UNL A   1      46.771  26.225  35.452  1.00  0.00     0.006 A 
ENDBRANCH  54  68
BRANCH  55  76
ATOM     76  C   UNL A   1      37.019  31.501  29.121  1.00  0.00     0.057 A 
ATOM     77  C   UNL A   1      37.080  32.830  28.687  1.00  0.00     0.134 A 
ATOM     78  C   UNL A   1      35.828  30.802  28.892  1.00  0.00     0.134 A 
ATOM     79  F   UNL A   1      38.183  33.562  28.908  1.00  0.00    -0.206 F 
ATOM     80  C   UNL A   1      35.992  33.448  28.066  1.00  0.00     0.040 A 
ATOM     81  C   UNL A   1      34.742  31.398  28.249  1.00  0.00     0.040 A 
ATOM     82  F   UNL A   1      35.702  29.528  29.292  1.00  0.00    -0.206 F 
ATOM     83  C   UNL A   1      34.819  32.728  27.842  1.00  0.00     0.006 A 
ENDBRANCH  55  76
BRANCH  67  84
ATOM     84  C   UNL A   1      39.233  32.020  35.697  1.00  0.00     0.057 A 
ATOM     85  C   UNL A   1      39.643  33.343  35.903  1.00  0.00     0.134 A 
ATOM     86  C   UNL A   1      38.311  31.479  36.603  1.00  0.00     0.134 A 
ATOM     87  F   UNL A   1      40.532  33.915  35.078  1.00  0.00    -0.206 F 
ATOM     88  C   UNL A   1      39.165  34.093  36.979  1.00  0.00     0.040 A 
ATOM     89  C   UNL A   1      37.810  32.226  37.669  1.00  0.00     0.040 A 
ATOM     90  F   UNL A   1      37.871  30.220  36.457  1.00  0.00    -0.206 F 
ATOM     91  C   UNL A   1      38.241  33.538  37.862  1.00  0.00     0.006 A 
ENDBRANCH  67  84
ENDBRANCH  41  42
ENDBRANCH  34  36
ENDBRANCH  33  34
ENDBRANCH  32  33
ENDBRANCH  31  32
ENDBRANCH  30  31
ENDBRANCH  29  30
ENDBRANCH   1  29
TORSDOF 24
ENDMDL
MODEL 3
REMARK VINA RESULT:      -9.2      1.376      2.222
REMARK SMILES COc1cccc([C@@H]2CN(C(=O)CCSC)C[C@H]2C(=O)OCCOCCOCCOC(=O)c2ccc(-c3c4nc(c(-c5c(F)cccc5F)c5ccc([nH]5)c(-c5c(F)cccc5F)c5nc(c(-c6c(F)cccc6F)c6ccc3[nH]6)C=C5)C=C4)cc2)c1OC
REMARK SMILES IDX 25 1 24 2 23 3 22 4 21 5 19 6 20 7 18 8 8 9 9 10 10 11 17 12
REMARK SMILES IDX 7 13 3 14 4 15 87 16 5 17 6 18 2 19 1 20 88 21 89 22 11 23
REMARK SMILES IDX 12 24 13 25 14 26 15 27 16 28 26 29 27 30 28 31 29 32 30 33
REMARK SMILES IDX 31 34 32 35 33 36 34 37 86 38 35 39 85 40 36 41 37 42 38 43
REMARK SMILES IDX 79 44 39 45 84 46 78 47 80 48 40 49 83 50 77 51 76 52 41 54
REMARK SMILES IDX 67 55 50 56 66 57 51 58 54 59 65 60 81 61 52 62 53 63 64 65
REMARK SMILES IDX 82 66 55 67 42 68 43 69 48 70 44 71 45 72 47 73 49 74 46 75
REMARK SMILES IDX 68 76 69 77 74 78 70 79 71 80 73 81 75 82 72 83 56 84 57 85
REMARK SMILES IDX 62 86 58 87 59 88 61 89 63 90 60 91
REMARK H PARENT 80 53 54 64
REMARK Flexibility Score: inf
ROOT
ATOM      1  C   UNL A   1      41.509  21.261  26.872  1.00  0.00     0.188 C 
ENDROOT
BRANCH   1   2
ATOM      2  O   UNL A   1      40.220  20.947  26.364  1.00  0.00    -0.376 OA
BRANCH   2   3
ATOM      3  C   UNL A   1      39.259  21.979  26.189  1.00  0.00     0.202 C 
BRANCH   3   4
ATOM      4  C   UNL A   1      37.923  21.586  25.554  1.00  0.00     0.261 C 
BRANCH   4   5
ATOM      5  O   UNL A   1      37.004  22.679  25.327  1.00  0.00    -0.463 OA
BRANCH   5   6
ATOM      6  C   UNL A   1      36.313  22.637  24.159  1.00  0.00     0.311 C 
ATOM      7  O   UNL A   1      36.816  22.848  23.058  1.00  0.00    -0.252 OA
BRANCH   6   8
ATOM      8  C   UNL A   1      34.822  22.420  24.302  1.00  0.00     0.128 C 
ATOM      9  C   UNL A   1      33.831  22.815  23.178  1.00  0.00     0.059 C 
ATOM     10  C   UNL A   1      32.788  21.684  23.149  1.00  0.00     0.129 C 
ATOM     11  N   UNL A   1      33.285  20.632  24.007  1.00  0.00    -0.341 N 
ATOM     12  C   UNL A   1      34.602  20.931  24.524  1.00  0.00     0.135 C 
BRANCH   9  13
ATOM     13  C   UNL A   1      33.065  24.148  23.267  1.00  0.00     0.004 A 
ATOM     14  C   UNL A   1      31.801  25.888  24.449  1.00  0.00     0.161 A 
ATOM     15  C   UNL A   1      31.416  26.449  23.228  1.00  0.00     0.050 A 
ATOM     16  C   UNL A   1      32.598  24.725  24.477  1.00  0.00     0.164 A 
ATOM     17  C   UNL A   1      31.832  25.869  22.032  1.00  0.00     0.004 A 
ATOM     18  C   UNL A   1      32.651  24.737  22.052  1.00  0.00     0.008 A 
BRANCH  14  19
ATOM     19  O   UNL A   1      31.217  26.378  25.590  1.00  0.00    -0.493 OA
ATOM     20  C   UNL A   1      32.039  27.332  26.263  1.00  0.00     0.278 C 
ENDBRANCH  14  19
BRANCH  16  21
ATOM     21  O   UNL A   1      32.844  23.999  25.611  1.00  0.00    -0.493 OA
ATOM     22  C   UNL A   1      31.735  23.511  26.354  1.00  0.00     0.278 C 
ENDBRANCH  16  21
ENDBRANCH   9  13
BRANCH  11  23
ATOM     23  C   UNL A   1      32.629  19.476  24.358  1.00  0.00     0.223 C 
ATOM     24  O   UNL A   1      32.147  19.322  25.481  1.00  0.00    -0.275 OA
BRANCH  23  25
ATOM     25  C   UNL A   1      32.493  18.384  23.317  1.00  0.00     0.111 C 
BRANCH  25  26
ATOM     26  C   UNL A   1      33.615  17.358  23.436  1.00  0.00     0.079 C 
BRANCH  26  27
ATOM     27  S   UNL A   1      33.382  16.182  24.815  1.00  0.00    -0.165 SA
ATOM     28  C   UNL A   1      35.113  15.828  25.208  1.00  0.00     0.085 C 
ENDBRANCH  26  27
ENDBRANCH  25  26
ENDBRANCH  23  25
ENDBRANCH  11  23
ENDBRANCH   6   8
ENDBRANCH   5   6
ENDBRANCH   4   5
ENDBRANCH   3   4
ENDBRANCH   2   3
ENDBRANCH   1   2
BRANCH   1  29
ATOM     29  C   UNL A   1      42.751  20.612  26.255  1.00  0.00     0.188 C 
BRANCH  29  30
ATOM     30  O   UNL A   1      43.181  21.181  25.032  1.00  0.00    -0.376 OA
BRANCH  30  31
ATOM     31  C   UNL A   1      44.582  21.123  24.805  1.00  0.00     0.202 C 
BRANCH  31  32
ATOM     32  C   UNL A   1      45.140  22.526  24.549  1.00  0.00     0.261 C 
BRANCH  32  33
ATOM     33  O   UNL A   1      44.944  23.429  25.656  1.00  0.00    -0.460 OA
BRANCH  33  34
ATOM     34  C   UNL A   1      43.893  24.264  25.543  1.00  0.00     0.338 C 
ATOM     35  O   UNL A   1      43.061  24.289  24.642  1.00  0.00    -0.246 OA
BRANCH  34  36
ATOM     36  C   UNL A   1      43.760  25.038  26.786  1.00  0.00     0.060 A 
ATOM     37  C   UNL A   1      42.828  24.604  27.728  1.00  0.00     0.016 A 
ATOM     38  C   UNL A   1      44.457  26.227  26.985  1.00  0.00     0.016 A 
ATOM     39  C   UNL A   1      42.533  25.385  28.837  1.00  0.00     0.010 A 
ATOM     40  C   UNL A   1      44.151  27.019  28.102  1.00  0.00     0.010 A 
ATOM     41  C   UNL A   1      43.149  26.624  29.009  1.00  0.00    -0.014 A 
BRANCH  41  42
ATOM     42  C   UNL A   1      42.566  27.585  29.979  1.00  0.00     0.031 A 
ATOM     43  C   UNL A   1      43.274  27.786  31.293  1.00  0.00     0.074 A 
ATOM     44  C   UNL A   1      41.504  28.356  29.682  1.00  0.00     0.049 A 
ATOM     45  N   UNL A   1      42.889  28.444  32.356  1.00  0.00    -0.248 NA
ATOM     46  C   UNL A   1      44.605  27.171  31.415  1.00  0.00     0.031 C 
ATOM     47  C   UNL A   1      40.803  28.386  28.400  1.00  0.00     0.029 A 
ATOM     48  N   UNL A   1      40.831  29.274  30.454  1.00  0.00    -0.354 N 
ATOM     49  C   UNL A   1      43.904  28.277  33.289  1.00  0.00     0.074 A 
ATOM     50  C   UNL A   1      44.927  27.468  32.665  1.00  0.00     0.031 C 
ATOM     51  C   UNL A   1      39.794  29.273  28.477  1.00  0.00     0.029 A 
ATOM     52  C   UNL A   1      39.738  29.822  29.831  1.00  0.00     0.049 A 
ATOM     53  H   UNL A   1      41.108  29.514  31.368  1.00  0.00     0.167 HD
ATOM     54  C   UNL A   1      43.977  28.750  34.555  1.00  0.00     0.037 A 
ATOM     55  C   UNL A   1      38.777  30.635  30.312  1.00  0.00     0.037 A 
ATOM     56  C   UNL A   1      42.979  29.583  35.169  1.00  0.00     0.049 A 
ATOM     57  C   UNL A   1      38.820  31.068  31.757  1.00  0.00     0.074 A 
ATOM     58  C   UNL A   1      42.940  30.073  36.462  1.00  0.00     0.029 A 
ATOM     59  N   UNL A   1      41.852  30.065  34.523  1.00  0.00    -0.354 N 
ATOM     60  N   UNL A   1      39.731  30.823  32.668  1.00  0.00    -0.248 NA
ATOM     61  C   UNL A   1      37.691  31.874  32.242  1.00  0.00     0.031 C 
ATOM     62  C   UNL A   1      41.772  30.830  36.607  1.00  0.00     0.029 A 
ATOM     63  C   UNL A   1      41.107  30.842  35.392  1.00  0.00     0.049 A 
ATOM     64  H   UNL A   1      41.617  29.881  33.585  1.00  0.00     0.167 HD
ATOM     65  C   UNL A   1      39.298  31.467  33.822  1.00  0.00     0.074 A 
ATOM     66  C   UNL A   1      38.049  32.121  33.494  1.00  0.00     0.031 C 
ATOM     67  C   UNL A   1      39.880  31.509  35.045  1.00  0.00     0.037 A 
BRANCH  54  68
ATOM     68  C   UNL A   1      45.153  28.322  35.378  1.00  0.00     0.057 A 
ATOM     69  C   UNL A   1      46.314  29.095  35.478  1.00  0.00     0.134 A 
ATOM     70  C   UNL A   1      45.113  27.113  36.086  1.00  0.00     0.134 A 
ATOM     71  F   UNL A   1      46.422  30.250  34.803  1.00  0.00    -0.206 F 
ATOM     72  C   UNL A   1      47.406  28.673  36.240  1.00  0.00     0.040 A 
ATOM     73  C   UNL A   1      46.188  26.692  36.869  1.00  0.00     0.040 A 
ATOM     74  F   UNL A   1      44.029  26.325  36.028  1.00  0.00    -0.206 F 
ATOM     75  C   UNL A   1      47.340  27.470  36.943  1.00  0.00     0.006 A 
ENDBRANCH  54  68
BRANCH  55  76
ATOM     76  C   UNL A   1      37.643  31.054  29.447  1.00  0.00     0.057 A 
ATOM     77  C   UNL A   1      37.579  32.342  28.906  1.00  0.00     0.134 A 
ATOM     78  C   UNL A   1      36.568  30.193  29.192  1.00  0.00     0.134 A 
ATOM     79  F   UNL A   1      38.563  33.223  29.143  1.00  0.00    -0.206 F 
ATOM     80  C   UNL A   1      36.480  32.767  28.156  1.00  0.00     0.040 A 
ATOM     81  C   UNL A   1      35.476  30.595  28.423  1.00  0.00     0.040 A 
ATOM     82  F   UNL A   1      36.564  28.948  29.691  1.00  0.00    -0.206 F 
ATOM     83  C   UNL A   1      35.426  31.889  27.909  1.00  0.00     0.006 A 
ENDBRANCH  55  76
BRANCH  67  84
ATOM     84  C   UNL A   1      39.208  32.330  36.106  1.00  0.00     0.057 A 
ATOM     85  C   UNL A   1      39.555  33.665  36.341  1.00  0.00     0.134 A 
ATOM     86  C   UNL A   1      38.164  31.788  36.868  1.00  0.00     0.134 A 
ATOM     87  F   UNL A   1      40.553  34.240  35.654  1.00  0.00    -0.206 F 
ATOM     88  C   UNL A   1      38.900  34.428  37.311  1.00  0.00     0.040 A 
ATOM     89  C   UNL A   1      37.487  32.547  37.822  1.00  0.00     0.040 A 
ATOM     90  F   UNL A   1      37.776  30.517  36.684  1.00  0.00    -0.206 F 
ATOM     91  C   UNL A   1      37.858  33.871  38.049  1.00  0.00     0.006 A 
ENDBRANCH  67  84
ENDBRANCH  41  42
ENDBRANCH  34  36
ENDBRANCH  33  34
ENDBRANCH  32  33
ENDBRANCH  31  32
ENDBRANCH  30  31
ENDBRANCH  29  30
ENDBRANCH   1  29
TORSDOF 24
ENDMDL
