MODEL 1
REMARK VINA RESULT:      -9.8      0.000      0.000
REMARK SMILES C[C@@H]1c2ccccc2-c2ccc(C(=O)OCCOCCOCCOC(=O)c3ccc(-c4c5nc(c(-c6c(F)cccc6F)c6ccc([nH]6)c(-c6c(F)cccc6F)c6nc(c(-c7c(F)cccc7F)c7ccc4[nH]7)C=C6)C=C5)cc3)cc21
REMARK SMILES IDX 20 1 19 2 18 3 17 4 16 5 15 6 13 7 14 8 12 9 1 10 2 11 3 12
REMARK SMILES IDX 82 13 4 14 8 15 9 16 81 17 5 18 7 19 10 20 6 21 11 22 21 23
REMARK SMILES IDX 22 24 23 25 24 26 25 27 26 28 27 29 28 30 80 31 29 32 79 33
REMARK SMILES IDX 30 34 31 35 32 36 73 37 33 38 78 39 72 40 74 41 34 42 77 43
REMARK SMILES IDX 71 44 70 45 35 47 61 48 44 49 60 50 45 51 48 52 59 53 75 54
REMARK SMILES IDX 46 55 47 56 58 58 76 59 49 60 36 61 37 62 42 63 38 64 39 65
REMARK SMILES IDX 41 66 43 67 40 68 62 69 63 70 68 71 64 72 65 73 67 74 69 75
REMARK SMILES IDX 66 76 50 77 51 78 56 79 52 80 53 81 55 82 57 83 54 84
REMARK H PARENT 74 46 48 57
REMARK Flexibility Score: inf
ROOT
ATOM      1  C   UNL A   1      42.437  18.705  26.200  1.00  0.00     0.188 C 
ENDROOT
BRANCH   1   2
ATOM      2  C   UNL A   1      43.733  18.637  25.364  1.00  0.00     0.188 C 
BRANCH   2   3
ATOM      3  O   UNL A   1      44.319  19.811  24.832  1.00  0.00    -0.376 OA
BRANCH   3   4
ATOM      4  C   UNL A   1      45.711  20.041  24.990  1.00  0.00     0.202 C 
BRANCH   4   5
ATOM      5  C   UNL A   1      46.345  21.342  24.492  1.00  0.00     0.261 C 
BRANCH   5   6
ATOM      6  O   UNL A   1      45.510  22.495  24.670  1.00  0.00    -0.460 OA
BRANCH   6   7
ATOM      7  C   UNL A   1      46.173  23.629  25.001  1.00  0.00     0.338 C 
ATOM      8  O   UNL A   1      46.815  24.348  24.252  1.00  0.00    -0.246 OA
BRANCH   7   9
ATOM      9  C   UNL A   1      45.873  24.016  26.397  1.00  0.00     0.060 A 
ATOM     10  C   UNL A   1      42.645  22.976  29.501  1.00  0.00     0.018 C 
ATOM     11  C   UNL A   1      44.158  22.957  29.679  1.00  0.00     0.047 C 
ATOM     12  C   UNL A   1      44.602  23.774  30.887  1.00  0.00    -0.033 A 
ATOM     13  C   UNL A   1      44.900  23.656  28.543  1.00  0.00    -0.032 A 
ATOM     14  C   UNL A   1      44.351  23.535  32.230  1.00  0.00     0.005 A 
ATOM     15  C   UNL A   1      45.412  24.853  30.478  1.00  0.00    -0.014 A 
ATOM     16  C   UNL A   1      45.595  24.783  29.045  1.00  0.00    -0.014 A 
ATOM     17  C   UNL A   1      45.020  23.265  27.215  1.00  0.00     0.020 A 
ATOM     18  C   UNL A   1      44.918  24.399  33.170  1.00  0.00     0.000 A 
ATOM     19  C   UNL A   1      45.960  25.720  31.408  1.00  0.00     0.009 A 
ATOM     20  C   UNL A   1      46.378  25.565  28.215  1.00  0.00     0.010 A 
ATOM     21  C   UNL A   1      45.710  25.486  32.763  1.00  0.00     0.001 A 
ATOM     22  C   UNL A   1      46.525  25.168  26.886  1.00  0.00     0.016 A 
ENDBRANCH   7   9
ENDBRANCH   6   7
ENDBRANCH   5   6
ENDBRANCH   4   5
ENDBRANCH   3   4
ENDBRANCH   2   3
ENDBRANCH   1   2
BRANCH   1  23
ATOM     23  O   UNL A   1      41.336  19.458  25.751  1.00  0.00    -0.376 OA
BRANCH  23  24
ATOM     24  C   UNL A   1      41.023  20.725  26.304  1.00  0.00     0.202 C 
BRANCH  24  25
ATOM     25  C   UNL A   1      41.798  22.024  26.039  1.00  0.00     0.261 C 
BRANCH  25  26
ATOM     26  O   UNL A   1      41.209  23.240  26.497  1.00  0.00    -0.460 OA
BRANCH  26  27
ATOM     27  C   UNL A   1      41.875  24.364  26.134  1.00  0.00     0.338 C 
ATOM     28  O   UNL A   1      42.635  24.511  25.195  1.00  0.00    -0.246 OA
BRANCH  27  29
ATOM     29  C   UNL A   1      41.422  25.479  26.981  1.00  0.00     0.060 A 
ATOM     30  C   UNL A   1      42.138  26.682  26.939  1.00  0.00     0.016 A 
ATOM     31  C   UNL A   1      40.343  25.314  27.850  1.00  0.00     0.016 A 
ATOM     32  C   UNL A   1      41.791  27.724  27.796  1.00  0.00     0.010 A 
ATOM     33  C   UNL A   1      40.011  26.352  28.722  1.00  0.00     0.010 A 
ATOM     34  C   UNL A   1      40.752  27.547  28.719  1.00  0.00    -0.014 A 
BRANCH  34  35
ATOM     35  C   UNL A   1      40.556  28.532  29.808  1.00  0.00     0.031 A 
ATOM     36  C   UNL A   1      41.407  28.414  31.041  1.00  0.00     0.074 A 
ATOM     37  C   UNL A   1      39.642  29.511  29.706  1.00  0.00     0.049 A 
ATOM     38  N   UNL A   1      41.364  29.106  32.150  1.00  0.00    -0.248 NA
ATOM     39  C   UNL A   1      42.445  27.371  31.020  1.00  0.00     0.031 C 
ATOM     40  C   UNL A   1      38.786  29.753  28.546  1.00  0.00     0.029 A 
ATOM     41  N   UNL A   1      39.273  30.475  30.608  1.00  0.00    -0.354 N 
ATOM     42  C   UNL A   1      42.359  28.578  32.961  1.00  0.00     0.074 A 
ATOM     43  C   UNL A   1      42.975  27.493  32.228  1.00  0.00     0.031 C 
ATOM     44  C   UNL A   1      37.976  30.791  28.816  1.00  0.00     0.029 A 
ATOM     45  C   UNL A   1      38.233  31.261  30.176  1.00  0.00     0.049 A 
ATOM     46  H   UNL A   1      39.711  30.593  31.482  1.00  0.00     0.167 HD
ATOM     47  C   UNL A   1      42.732  28.966  34.204  1.00  0.00     0.037 A 
ATOM     48  C   UNL A   1      37.552  32.229  30.820  1.00  0.00     0.037 A 
ATOM     49  C   UNL A   1      42.115  30.039  34.935  1.00  0.00     0.049 A 
ATOM     50  C   UNL A   1      37.932  32.589  32.233  1.00  0.00     0.074 A 
ATOM     51  C   UNL A   1      42.430  30.518  36.194  1.00  0.00     0.029 A 
ATOM     52  N   UNL A   1      41.047  30.795  34.475  1.00  0.00    -0.354 N 
ATOM     53  N   UNL A   1      38.890  32.102  32.983  1.00  0.00    -0.248 NA
ATOM     54  C   UNL A   1      37.133  33.636  32.887  1.00  0.00     0.031 C 
ATOM     55  C   UNL A   1      41.522  31.532  36.516  1.00  0.00     0.029 A 
ATOM     56  C   UNL A   1      40.674  31.719  35.435  1.00  0.00     0.049 A 
ATOM     57  H   UNL A   1      40.619  30.689  33.595  1.00  0.00     0.167 HD
ATOM     58  C   UNL A   1      38.827  32.800  34.184  1.00  0.00     0.074 A 
ATOM     59  C   UNL A   1      37.743  33.752  34.058  1.00  0.00     0.031 C 
ATOM     60  C   UNL A   1      39.598  32.666  35.291  1.00  0.00     0.037 A 
BRANCH  47  61
ATOM     61  C   UNL A   1      43.842  28.198  34.858  1.00  0.00     0.057 A 
ATOM     62  C   UNL A   1      43.598  27.039  35.606  1.00  0.00     0.134 A 
ATOM     63  C   UNL A   1      45.172  28.615  34.723  1.00  0.00     0.134 A 
ATOM     64  F   UNL A   1      42.344  26.598  35.788  1.00  0.00    -0.206 F 
ATOM     65  C   UNL A   1      44.637  26.335  36.219  1.00  0.00     0.040 A 
ATOM     66  C   UNL A   1      46.221  27.905  35.309  1.00  0.00     0.040 A 
ATOM     67  F   UNL A   1      45.473  29.715  34.018  1.00  0.00    -0.206 F 
ATOM     68  C   UNL A   1      45.953  26.765  36.066  1.00  0.00     0.006 A 
ENDBRANCH  47  61
BRANCH  48  69
ATOM     69  C   UNL A   1      36.423  32.918  30.146  1.00  0.00     0.057 A 
ATOM     70  C   UNL A   1      36.650  33.889  29.164  1.00  0.00     0.134 A 
ATOM     71  C   UNL A   1      35.093  32.642  30.486  1.00  0.00     0.134 A 
ATOM     72  F   UNL A   1      37.902  34.216  28.815  1.00  0.00    -0.206 F 
ATOM     73  C   UNL A   1      35.596  34.574  28.557  1.00  0.00     0.040 A 
ATOM     74  C   UNL A   1      34.029  33.301  29.870  1.00  0.00     0.040 A 
ATOM     75  F   UNL A   1      34.810  31.724  31.422  1.00  0.00    -0.206 F 
ATOM     76  C   UNL A   1      34.280  34.276  28.907  1.00  0.00     0.006 A 
ENDBRANCH  48  69
BRANCH  60  77
ATOM     77  C   UNL A   1      39.326  33.594  36.439  1.00  0.00     0.057 A 
ATOM     78  C   UNL A   1      38.540  33.211  37.533  1.00  0.00     0.134 A 
ATOM     79  C   UNL A   1      39.898  34.873  36.471  1.00  0.00     0.134 A 
ATOM     80  F   UNL A   1      37.954  32.004  37.559  1.00  0.00    -0.206 F 
ATOM     81  C   UNL A   1      38.316  34.073  38.608  1.00  0.00     0.040 A 
ATOM     82  C   UNL A   1      39.703  35.734  37.552  1.00  0.00     0.040 A 
ATOM     83  F   UNL A   1      40.671  35.300  35.461  1.00  0.00    -0.206 F 
ATOM     84  C   UNL A   1      38.905  35.337  38.622  1.00  0.00     0.006 A 
ENDBRANCH  60  77
ENDBRANCH  34  35
ENDBRANCH  27  29
ENDBRANCH  26  27
ENDBRANCH  25  26
ENDBRANCH  24  25
ENDBRANCH  23  24
ENDBRANCH   1  23
TORSDOF 17
ENDMDL
MODEL 2
REMARK VINA RESULT:      -9.8      3.483      6.386
REMARK SMILES C[C@@H]1c2ccccc2-c2ccc(C(=O)OCCOCCOCCOC(=O)c3ccc(-c4c5nc(c(-c6c(F)cccc6F)c6ccc([nH]6)c(-c6c(F)cccc6F)c6nc(c(-c7c(F)cccc7F)c7ccc4[nH]7)C=C6)C=C5)cc3)cc21
REMARK SMILES IDX 20 1 19 2 18 3 17 4 16 5 15 6 13 7 14 8 12 9 1 10 2 11 3 12
REMARK SMILES IDX 82 13 4 14 8 15 9 16 81 17 5 18 7 19 10 20 6 21 11 22 21 23
REMARK SMILES IDX 22 24 23 25 24 26 25 27 26 28 27 29 28 30 80 31 29 32 79 33
REMARK SMILES IDX 30 34 31 35 32 36 73 37 33 38 78 39 72 40 74 41 34 42 77 43
REMARK SMILES IDX 71 44 70 45 35 47 61 48 44 49 60 50 45 51 48 52 59 53 75 54
REMARK SMILES IDX 46 55 47 56 58 58 76 59 49 60 36 61 37 62 42 63 38 64 39 65
REMARK SMILES IDX 41 66 43 67 40 68 62 69 63 70 68 71 64 72 65 73 67 74 69 75
REMARK SMILES IDX 66 76 50 77 51 78 56 79 52 80 53 81 55 82 57 83 54 84
REMARK H PARENT 74 46 48 57
REMARK Flexibility Score: inf
ROOT
ATOM      1  C   UNL A   1      40.255  19.686  26.128  1.00  0.00     0.188 C 
ENDROOT
BRANCH   1   2
ATOM      2  C   UNL A   1      39.782  21.155  26.142  1.00  0.00     0.188 C 
BRANCH   2   3
ATOM      3  O   UNL A   1      38.454  21.497  25.789  1.00  0.00    -0.376 OA
BRANCH   3   4
ATOM      4  C   UNL A   1      37.763  20.732  24.813  1.00  0.00     0.202 C 
BRANCH   4   5
ATOM      5  C   UNL A   1      36.325  20.271  25.063  1.00  0.00     0.261 C 
BRANCH   5   6
ATOM      6  O   UNL A   1      35.333  21.155  24.521  1.00  0.00    -0.460 OA
BRANCH   6   7
ATOM      7  C   UNL A   1      34.267  21.374  25.329  1.00  0.00     0.338 C 
ATOM      8  O   UNL A   1      33.696  20.552  26.027  1.00  0.00    -0.246 OA
BRANCH   7   9
ATOM      9  C   UNL A   1      33.971  22.821  25.414  1.00  0.00     0.060 A 
ATOM     10  C   UNL A   1      30.186  25.419  25.650  1.00  0.00     0.018 C 
ATOM     11  C   UNL A   1      31.416  25.470  26.548  1.00  0.00     0.047 C 
ATOM     12  C   UNL A   1      31.999  26.877  26.639  1.00  0.00    -0.033 A 
ATOM     13  C   UNL A   1      32.595  24.682  25.986  1.00  0.00    -0.032 A 
ATOM     14  C   UNL A   1      31.432  28.011  27.199  1.00  0.00     0.005 A 
ATOM     15  C   UNL A   1      33.305  26.900  26.108  1.00  0.00    -0.014 A 
ATOM     16  C   UNL A   1      33.672  25.560  25.708  1.00  0.00    -0.014 A 
ATOM     17  C   UNL A   1      32.726  23.307  25.833  1.00  0.00     0.020 A 
ATOM     18  C   UNL A   1      32.189  29.185  27.219  1.00  0.00     0.000 A 
ATOM     19  C   UNL A   1      34.050  28.068  26.111  1.00  0.00     0.009 A 
ATOM     20  C   UNL A   1      34.876  25.080  25.224  1.00  0.00     0.010 A 
ATOM     21  C   UNL A   1      33.483  29.215  26.673  1.00  0.00     0.001 A 
ATOM     22  C   UNL A   1      35.027  23.700  25.090  1.00  0.00     0.016 A 
ENDBRANCH   7   9
ENDBRANCH   6   7
ENDBRANCH   5   6
ENDBRANCH   4   5
ENDBRANCH   3   4
ENDBRANCH   2   3
ENDBRANCH   1   2
BRANCH   1  23
ATOM     23  O   UNL A   1      41.543  19.355  25.667  1.00  0.00    -0.376 OA
BRANCH  23  24
ATOM     24  C   UNL A   1      42.697  20.044  26.117  1.00  0.00     0.202 C 
BRANCH  24  25
ATOM     25  C   UNL A   1      43.262  21.328  25.493  1.00  0.00     0.261 C 
BRANCH  25  26
ATOM     26  O   UNL A   1      43.395  22.464  26.347  1.00  0.00    -0.460 OA
BRANCH  26  27
ATOM     27  C   UNL A   1      43.523  23.648  25.698  1.00  0.00     0.338 C 
ATOM     28  O   UNL A   1      43.949  23.841  24.575  1.00  0.00    -0.246 OA
BRANCH  27  29
ATOM     29  C   UNL A   1      42.912  24.707  26.517  1.00  0.00     0.060 A 
ATOM     30  C   UNL A   1      43.512  25.972  26.528  1.00  0.00     0.016 A 
ATOM     31  C   UNL A   1      41.799  24.433  27.312  1.00  0.00     0.016 A 
ATOM     32  C   UNL A   1      43.013  26.968  27.364  1.00  0.00     0.010 A 
ATOM     33  C   UNL A   1      41.312  25.426  28.163  1.00  0.00     0.010 A 
ATOM     34  C   UNL A   1      41.936  26.685  28.215  1.00  0.00    -0.014 A 
BRANCH  34  35
ATOM     35  C   UNL A   1      41.577  27.637  29.292  1.00  0.00     0.031 A 
ATOM     36  C   UNL A   1      42.334  27.569  30.588  1.00  0.00     0.074 A 
ATOM     37  C   UNL A   1      40.598  28.542  29.124  1.00  0.00     0.049 A 
ATOM     38  N   UNL A   1      42.147  28.240  31.695  1.00  0.00    -0.248 NA
ATOM     39  C   UNL A   1      43.450  26.611  30.642  1.00  0.00     0.031 C 
ATOM     40  C   UNL A   1      39.821  28.732  27.901  1.00  0.00     0.029 A 
ATOM     41  N   UNL A   1      40.083  29.461  30.001  1.00  0.00    -0.354 N 
ATOM     42  C   UNL A   1      43.114  27.781  32.579  1.00  0.00     0.074 A 
ATOM     43  C   UNL A   1      43.870  26.758  31.890  1.00  0.00     0.031 C 
ATOM     44  C   UNL A   1      38.911  29.698  28.112  1.00  0.00     0.029 A 
ATOM     45  C   UNL A   1      39.021  30.168  29.493  1.00  0.00     0.049 A 
ATOM     46  H   UNL A   1      40.439  29.601  30.908  1.00  0.00     0.167 HD
ATOM     47  C   UNL A   1      43.355  28.180  33.851  1.00  0.00     0.037 A 
ATOM     48  C   UNL A   1      38.216  31.070  30.087  1.00  0.00     0.037 A 
ATOM     49  C   UNL A   1      42.598  29.190  34.538  1.00  0.00     0.049 A 
ATOM     50  C   UNL A   1      38.453  31.440  31.528  1.00  0.00     0.074 A 
ATOM     51  C   UNL A   1      42.773  29.675  35.822  1.00  0.00     0.029 A 
ATOM     52  N   UNL A   1      41.513  29.866  34.000  1.00  0.00    -0.354 N 
ATOM     53  N   UNL A   1      39.384  31.019  32.350  1.00  0.00    -0.248 NA
ATOM     54  C   UNL A   1      37.523  32.411  32.125  1.00  0.00     0.031 C 
ATOM     55  C   UNL A   1      41.764  30.609  36.078  1.00  0.00     0.029 A 
ATOM     56  C   UNL A   1      40.993  30.745  34.934  1.00  0.00     0.049 A 
ATOM     57  H   UNL A   1      41.166  29.739  33.087  1.00  0.00     0.167 HD
ATOM     58  C   UNL A   1      39.170  31.693  33.547  1.00  0.00     0.074 A 
ATOM     59  C   UNL A   1      38.027  32.559  33.342  1.00  0.00     0.031 C 
ATOM     60  C   UNL A   1      39.859  31.605  34.711  1.00  0.00     0.037 A 
BRANCH  47  61
ATOM     61  C   UNL A   1      44.467  27.493  34.586  1.00  0.00     0.057 A 
ATOM     62  C   UNL A   1      45.787  27.958  34.534  1.00  0.00     0.134 A 
ATOM     63  C   UNL A   1      44.210  26.360  35.369  1.00  0.00     0.134 A 
ATOM     64  F   UNL A   1      46.103  29.027  33.788  1.00  0.00    -0.206 F 
ATOM     65  C   UNL A   1      46.817  27.307  35.215  1.00  0.00     0.040 A 
ATOM     66  C   UNL A   1      45.226  25.716  36.075  1.00  0.00     0.040 A 
ATOM     67  F   UNL A   1      42.967  25.865  35.462  1.00  0.00    -0.206 F 
ATOM     68  C   UNL A   1      46.536  26.185  35.993  1.00  0.00     0.006 A 
ENDBRANCH  47  61
BRANCH  48  69
ATOM     69  C   UNL A   1      37.093  31.677  29.330  1.00  0.00     0.057 A 
ATOM     70  C   UNL A   1      37.196  32.964  28.789  1.00  0.00     0.134 A 
ATOM     71  C   UNL A   1      35.882  30.997  29.153  1.00  0.00     0.134 A 
ATOM     72  F   UNL A   1      38.320  33.676  28.950  1.00  0.00    -0.206 F 
ATOM     73  C   UNL A   1      36.129  33.560  28.115  1.00  0.00     0.040 A 
ATOM     74  C   UNL A   1      34.816  31.571  28.459  1.00  0.00     0.040 A 
ATOM     75  F   UNL A   1      35.720  29.762  29.650  1.00  0.00    -0.206 F 
ATOM     76  C   UNL A   1      34.936  32.860  27.943  1.00  0.00     0.006 A 
ENDBRANCH  48  69
BRANCH  60  77
ATOM     77  C   UNL A   1      39.424  32.493  35.841  1.00  0.00     0.057 A 
ATOM     78  C   UNL A   1      39.909  33.798  35.988  1.00  0.00     0.134 A 
ATOM     79  C   UNL A   1      38.469  32.050  36.767  1.00  0.00     0.134 A 
ATOM     80  F   UNL A   1      40.834  34.279  35.143  1.00  0.00    -0.206 F 
ATOM     81  C   UNL A   1      39.477  34.625  37.028  1.00  0.00     0.040 A 
ATOM     82  C   UNL A   1      38.010  32.875  37.794  1.00  0.00     0.040 A 
ATOM     83  F   UNL A   1      37.954  30.815  36.677  1.00  0.00    -0.206 F 
ATOM     84  C   UNL A   1      38.519  34.165  37.930  1.00  0.00     0.006 A 
ENDBRANCH  60  77
ENDBRANCH  34  35
ENDBRANCH  27  29
ENDBRANCH  26  27
ENDBRANCH  25  26
ENDBRANCH  24  25
ENDBRANCH  23  24
ENDBRANCH   1  23
TORSDOF 17
ENDMDL
MODEL 3
REMARK VINA RESULT:      -9.6      3.135      5.795
REMARK SMILES C[C@@H]1c2ccccc2-c2ccc(C(=O)OCCOCCOCCOC(=O)c3ccc(-c4c5nc(c(-c6c(F)cccc6F)c6ccc([nH]6)c(-c6c(F)cccc6F)c6nc(c(-c7c(F)cccc7F)c7ccc4[nH]7)C=C6)C=C5)cc3)cc21
REMARK SMILES IDX 20 1 19 2 18 3 17 4 16 5 15 6 13 7 14 8 12 9 1 10 2 11 3 12
REMARK SMILES IDX 82 13 4 14 8 15 9 16 81 17 5 18 7 19 10 20 6 21 11 22 21 23
REMARK SMILES IDX 22 24 23 25 24 26 25 27 26 28 27 29 28 30 80 31 29 32 79 33
REMARK SMILES IDX 30 34 31 35 32 36 73 37 33 38 78 39 72 40 74 41 34 42 77 43
REMARK SMILES IDX 71 44 70 45 35 47 61 48 44 49 60 50 45 51 48 52 59 53 75 54
REMARK SMILES IDX 46 55 47 56 58 58 76 59 49 60 36 61 37 62 42 63 38 64 39 65
REMARK SMILES IDX 41 66 43 67 40 68 62 69 63 70 68 71 64 72 65 73 67 74 69 75
REMARK SMILES IDX 66 76 50 77 51 78 56 79 52 80 53 81 55 82 57 83 54 84
REMARK H PARENT 74 46 48 57
REMARK Flexibility Score: inf
ROOT
ATOM      1  C   UNL A   1      44.841  19.735  24.730  1.00  0.00     0.188 C 
ENDROOT
BRANCH   1   2
ATOM      2  C   UNL A   1      44.275  18.530  25.511  1.00  0.00     0.188 C 
BRANCH   2   3
ATOM      3  O   UNL A   1      42.952  18.544  26.014  1.00  0.00    -0.376 OA
BRANCH   3   4
ATOM      4  C   UNL A   1      42.127  19.679  25.802  1.00  0.00     0.202 C 
BRANCH   4   5
ATOM      5  C   UNL A   1      40.936  19.957  26.724  1.00  0.00     0.261 C 
BRANCH   5   6
ATOM      6  O   UNL A   1      39.713  20.222  26.022  1.00  0.00    -0.460 OA
BRANCH   6   7
ATOM      7  C   UNL A   1      39.343  21.526  26.001  1.00  0.00     0.338 C 
ATOM      8  O   UNL A   1      40.072  22.496  26.127  1.00  0.00    -0.246 OA
BRANCH   7   9
ATOM      9  C   UNL A   1      37.922  21.654  25.610  1.00  0.00     0.060 A 
ATOM     10  C   UNL A   1      34.737  24.966  25.738  1.00  0.00     0.018 C 
ATOM     11  C   UNL A   1      35.134  24.092  24.555  1.00  0.00     0.047 C 
ATOM     12  C   UNL A   1      33.929  23.401  23.925  1.00  0.00    -0.033 A 
ATOM     13  C   UNL A   1      35.997  22.901  24.959  1.00  0.00    -0.032 A 
ATOM     14  C   UNL A   1      32.858  23.975  23.257  1.00  0.00     0.005 A 
ATOM     15  C   UNL A   1      34.050  22.002  24.043  1.00  0.00    -0.014 A 
ATOM     16  C   UNL A   1      35.314  21.693  24.675  1.00  0.00    -0.014 A 
ATOM     17  C   UNL A   1      37.302  22.897  25.438  1.00  0.00     0.020 A 
ATOM     18  C   UNL A   1      31.893  23.126  22.708  1.00  0.00     0.000 A 
ATOM     19  C   UNL A   1      33.086  21.160  23.514  1.00  0.00     0.009 A 
ATOM     20  C   UNL A   1      35.906  20.466  24.915  1.00  0.00     0.010 A 
ATOM     21  C   UNL A   1      32.003  21.732  22.841  1.00  0.00     0.001 A 
ATOM     22  C   UNL A   1      37.223  20.450  25.374  1.00  0.00     0.016 A 
ENDBRANCH   7   9
ENDBRANCH   6   7
ENDBRANCH   5   6
ENDBRANCH   4   5
ENDBRANCH   3   4
ENDBRANCH   2   3
ENDBRANCH   1   2
BRANCH   1  23
ATOM     23  O   UNL A   1      45.901  20.496  25.259  1.00  0.00    -0.376 OA
BRANCH  23  24
ATOM     24  C   UNL A   1      45.709  21.821  25.723  1.00  0.00     0.202 C 
BRANCH  24  25
ATOM     25  C   UNL A   1      45.798  23.086  24.856  1.00  0.00     0.261 C 
BRANCH  25  26
ATOM     26  O   UNL A   1      45.015  24.209  25.259  1.00  0.00    -0.460 OA
BRANCH  26  27
ATOM     27  C   UNL A   1      43.677  24.048  25.112  1.00  0.00     0.338 C 
ATOM     28  O   UNL A   1      43.093  23.200  24.464  1.00  0.00    -0.246 OA
BRANCH  27  29
ATOM     29  C   UNL A   1      42.985  24.994  26.003  1.00  0.00     0.060 A 
ATOM     30  C   UNL A   1      43.367  26.341  25.973  1.00  0.00     0.016 A 
ATOM     31  C   UNL A   1      42.015  24.541  26.899  1.00  0.00     0.016 A 
ATOM     32  C   UNL A   1      42.796  27.243  26.869  1.00  0.00     0.010 A 
ATOM     33  C   UNL A   1      41.459  25.443  27.808  1.00  0.00     0.010 A 
ATOM     34  C   UNL A   1      41.870  26.787  27.816  1.00  0.00    -0.014 A 
BRANCH  34  35
ATOM     35  C   UNL A   1      41.468  27.669  28.937  1.00  0.00     0.031 A 
ATOM     36  C   UNL A   1      42.217  27.563  30.235  1.00  0.00     0.074 A 
ATOM     37  C   UNL A   1      40.458  28.545  28.806  1.00  0.00     0.049 A 
ATOM     38  N   UNL A   1      41.998  28.169  31.373  1.00  0.00    -0.248 NA
ATOM     39  C   UNL A   1      43.368  26.645  30.251  1.00  0.00     0.031 C 
ATOM     40  C   UNL A   1      39.683  28.769  27.588  1.00  0.00     0.029 A 
ATOM     41  N   UNL A   1      39.903  29.399  29.725  1.00  0.00    -0.354 N 
ATOM     42  C   UNL A   1      42.975  27.701  32.242  1.00  0.00     0.074 A 
ATOM     43  C   UNL A   1      43.774  26.742  31.508  1.00  0.00     0.031 C 
ATOM     44  C   UNL A   1      38.737  29.689  27.840  1.00  0.00     0.029 A 
ATOM     45  C   UNL A   1      38.819  30.092  29.243  1.00  0.00     0.049 A 
ATOM     46  H   UNL A   1      40.247  29.506  30.641  1.00  0.00     0.167 HD
ATOM     47  C   UNL A   1      43.192  28.042  33.534  1.00  0.00     0.037 A 
ATOM     48  C   UNL A   1      37.978  30.933  29.875  1.00  0.00     0.037 A 
ATOM     49  C   UNL A   1      42.393  28.988  34.265  1.00  0.00     0.049 A 
ATOM     50  C   UNL A   1      38.190  31.236  31.336  1.00  0.00     0.074 A 
ATOM     51  C   UNL A   1      42.541  29.413  35.573  1.00  0.00     0.029 A 
ATOM     52  N   UNL A   1      41.288  29.650  33.752  1.00  0.00    -0.354 N 
ATOM     53  N   UNL A   1      39.130  30.808  32.143  1.00  0.00    -0.248 NA
ATOM     54  C   UNL A   1      37.221  32.142  31.972  1.00  0.00     0.031 C 
ATOM     55  C   UNL A   1      41.496  30.295  35.867  1.00  0.00     0.029 A 
ATOM     56  C   UNL A   1      40.729  30.461  34.725  1.00  0.00     0.049 A 
ATOM     57  H   UNL A   1      40.952  29.558  32.831  1.00  0.00     0.167 HD
ATOM     58  C   UNL A   1      38.883  31.412  33.371  1.00  0.00     0.074 A 
ATOM     59  C   UNL A   1      37.710  32.245  33.199  1.00  0.00     0.031 C 
ATOM     60  C   UNL A   1      39.566  31.290  34.536  1.00  0.00     0.037 A 
BRANCH  47  61
ATOM     61  C   UNL A   1      44.323  27.360  34.244  1.00  0.00     0.057 A 
ATOM     62  C   UNL A   1      45.601  27.928  34.318  1.00  0.00     0.134 A 
ATOM     63  C   UNL A   1      44.126  26.124  34.874  1.00  0.00     0.134 A 
ATOM     64  F   UNL A   1      45.860  29.101  33.719  1.00  0.00    -0.206 F 
ATOM     65  C   UNL A   1      46.650  27.281  34.974  1.00  0.00     0.040 A 
ATOM     66  C   UNL A   1      45.160  25.480  35.554  1.00  0.00     0.040 A 
ATOM     67  F   UNL A   1      42.926  25.527  34.841  1.00  0.00    -0.206 F 
ATOM     68  C   UNL A   1      46.429  26.056  35.599  1.00  0.00     0.006 A 
ENDBRANCH  47  61
BRANCH  48  69
ATOM     69  C   UNL A   1      36.839  31.536  29.139  1.00  0.00     0.057 A 
ATOM     70  C   UNL A   1      35.702  30.785  28.822  1.00  0.00     0.134 A 
ATOM     71  C   UNL A   1      36.872  32.869  28.712  1.00  0.00     0.134 A 
ATOM     72  F   UNL A   1      35.623  29.495  29.181  1.00  0.00    -0.206 F 
ATOM     73  C   UNL A   1      34.646  31.331  28.091  1.00  0.00     0.040 A 
ATOM     74  C   UNL A   1      35.813  33.435  28.002  1.00  0.00     0.040 A 
ATOM     75  F   UNL A   1      37.935  33.641  28.981  1.00  0.00    -0.206 F 
ATOM     76  C   UNL A   1      34.697  32.663  27.683  1.00  0.00     0.006 A 
ENDBRANCH  48  69
BRANCH  60  77
ATOM     77  C   UNL A   1      39.090  32.102  35.705  1.00  0.00     0.057 A 
ATOM     78  C   UNL A   1      38.241  31.569  36.682  1.00  0.00     0.134 A 
ATOM     79  C   UNL A   1      39.526  33.423  35.879  1.00  0.00     0.134 A 
ATOM     80  F   UNL A   1      37.777  30.314  36.569  1.00  0.00    -0.206 F 
ATOM     81  C   UNL A   1      37.825  32.325  37.780  1.00  0.00     0.040 A 
ATOM     82  C   UNL A   1      39.140  34.180  36.985  1.00  0.00     0.040 A 
ATOM     83  F   UNL A   1      40.350  33.992  34.986  1.00  0.00    -0.206 F 
ATOM     84  C   UNL A   1      38.282  33.633  37.937  1.00  0.00     0.006 A 
ENDBRANCH  60  77
ENDBRANCH  34  35
ENDBRANCH  27  29
ENDBRANCH  26  27
ENDBRANCH  25  26
ENDBRANCH  24  25
ENDBRANCH  23  24
ENDBRANCH   1  23
TORSDOF 17
ENDMDL
