MODEL 1
REMARK VINA RESULT:     -10.9      0.000      0.000
REMARK SMILES Cc1ccc2c(c1)C=C(C(=O)OCCOCCOCCOC(=O)c1ccc(-c3c4nc(c(-c5c(F)cccc5F)c5ccc([nH]5)c(-c5c(F)cccc5F)c5nc(c(-c6c(F)cccc6F)c6ccc3[nH]6)C=C5)C=C4)cc1)[C@@H](C(F)(F)F)O2
REMARK SMILES IDX 17 1 16 2 15 3 14 4 13 5 12 6 10 7 11 8 9 9 1 10 2 11 3 12
REMARK SMILES IDX 7 13 4 14 6 15 5 16 8 17 83 18 78 19 79 20 80 21 81 22 82 23
REMARK SMILES IDX 18 24 19 25 20 26 21 27 22 28 23 29 24 30 25 31 77 32 26 33
REMARK SMILES IDX 76 34 27 35 28 36 29 37 70 38 30 39 75 40 69 41 71 42 31 43
REMARK SMILES IDX 74 44 68 45 67 46 32 48 58 49 41 50 57 51 42 52 45 53 56 54
REMARK SMILES IDX 72 55 43 56 44 57 55 59 73 60 46 61 33 62 34 63 39 64 35 65
REMARK SMILES IDX 36 66 38 67 40 68 37 69 59 70 60 71 65 72 61 73 62 74 64 75
REMARK SMILES IDX 66 76 63 77 47 78 48 79 53 80 49 81 50 82 52 83 54 84 51 85
REMARK H PARENT 71 47 45 58
REMARK Flexibility Score: inf
ROOT
ATOM      1  C   UNL A   1      42.069  19.801  26.151  1.00  0.00     0.188 C 
ENDROOT
BRANCH   1   2
ATOM      2  C   UNL A   1      41.149  20.856  26.803  1.00  0.00     0.188 C 
BRANCH   2   3
ATOM      3  O   UNL A   1      40.469  21.802  26.009  1.00  0.00    -0.376 OA
BRANCH   3   4
ATOM      4  C   UNL A   1      39.179  22.272  26.361  1.00  0.00     0.202 C 
BRANCH   4   5
ATOM      5  C   UNL A   1      37.942  22.142  25.463  1.00  0.00     0.261 C 
BRANCH   5   6
ATOM      6  O   UNL A   1      37.131  23.314  25.341  1.00  0.00    -0.460 OA
BRANCH   6   7
ATOM      7  C   UNL A   1      36.367  23.367  24.223  1.00  0.00     0.338 C 
ATOM      8  O   UNL A   1      36.673  22.976  23.109  1.00  0.00    -0.246 OA
BRANCH   7   9
ATOM      9  C   UNL A   1      35.012  23.833  24.573  1.00  0.00     0.087 C 
ATOM     10  C   UNL A   1      32.104  28.530  27.293  1.00  0.00     0.044 C 
ATOM     11  C   UNL A   1      32.227  27.216  26.579  1.00  0.00    -0.050 A 
ATOM     12  C   UNL A   1      31.129  26.358  26.461  1.00  0.00     0.007 A 
ATOM     13  C   UNL A   1      33.472  26.800  26.088  1.00  0.00     0.015 A 
ATOM     14  C   UNL A   1      31.264  25.120  25.829  1.00  0.00     0.047 A 
ATOM     15  C   UNL A   1      33.617  25.542  25.489  1.00  0.00     0.017 A 
ATOM     16  C   UNL A   1      32.506  24.711  25.344  1.00  0.00     0.128 A 
ATOM     17  C   UNL A   1      34.925  25.072  25.074  1.00  0.00     0.027 C 
ATOM     18  O   UNL A   1      32.546  23.482  24.751  1.00  0.00    -0.475 OA
ATOM     19  C   UNL A   1      33.830  22.927  24.355  1.00  0.00     0.316 C 
BRANCH  19  20
ATOM     20  C   UNL A   1      34.009  21.570  25.049  1.00  0.00     0.430 C 
ATOM     21  F   UNL A   1      34.774  20.732  24.307  1.00  0.00    -0.167 F 
ATOM     22  F   UNL A   1      34.626  21.698  26.247  1.00  0.00    -0.167 F 
ATOM     23  F   UNL A   1      32.826  20.953  25.269  1.00  0.00    -0.167 F 
ENDBRANCH  19  20
ENDBRANCH   7   9
ENDBRANCH   6   7
ENDBRANCH   5   6
ENDBRANCH   4   5
ENDBRANCH   3   4
ENDBRANCH   2   3
ENDBRANCH   1   2
BRANCH   1  24
ATOM     24  O   UNL A   1      43.152  20.193  25.338  1.00  0.00    -0.376 OA
BRANCH  24  25
ATOM     25  C   UNL A   1      43.794  21.439  25.556  1.00  0.00     0.202 C 
BRANCH  25  26
ATOM     26  C   UNL A   1      44.110  22.442  24.436  1.00  0.00     0.261 C 
BRANCH  26  27
ATOM     27  O   UNL A   1      43.569  23.758  24.594  1.00  0.00    -0.460 OA
BRANCH  27  28
ATOM     28  C   UNL A   1      44.440  24.687  25.079  1.00  0.00     0.338 C 
ATOM     29  O   UNL A   1      45.522  24.990  24.634  1.00  0.00    -0.246 OA
BRANCH  28  30
ATOM     30  C   UNL A   1      43.758  25.439  26.154  1.00  0.00     0.060 A 
ATOM     31  C   UNL A   1      42.719  24.857  26.879  1.00  0.00     0.016 A 
ATOM     32  C   UNL A   1      44.170  26.752  26.423  1.00  0.00     0.016 A 
ATOM     33  C   UNL A   1      42.103  25.590  27.895  1.00  0.00     0.010 A 
ATOM     34  C   UNL A   1      43.542  27.488  27.430  1.00  0.00     0.010 A 
ATOM     35  C   UNL A   1      42.517  26.903  28.186  1.00  0.00    -0.014 A 
BRANCH  35  36
ATOM     36  C   UNL A   1      41.982  27.582  29.391  1.00  0.00     0.031 A 
ATOM     37  C   UNL A   1      42.651  27.482  30.727  1.00  0.00     0.074 A 
ATOM     38  C   UNL A   1      40.865  28.321  29.252  1.00  0.00     0.049 A 
ATOM     39  N   UNL A   1      42.377  28.130  31.833  1.00  0.00    -0.248 NA
ATOM     40  C   UNL A   1      43.761  26.528  30.845  1.00  0.00     0.031 C 
ATOM     41  C   UNL A   1      40.100  28.457  28.011  1.00  0.00     0.029 A 
ATOM     42  N   UNL A   1      40.194  29.108  30.150  1.00  0.00    -0.354 N 
ATOM     43  C   UNL A   1      43.300  27.690  32.772  1.00  0.00     0.074 A 
ATOM     44  C   UNL A   1      44.102  26.672  32.120  1.00  0.00     0.031 C 
ATOM     45  C   UNL A   1      39.083  29.308  28.217  1.00  0.00     0.029 A 
ATOM     46  C   UNL A   1      39.114  29.758  29.604  1.00  0.00     0.049 A 
ATOM     47  H   UNL A   1      40.457  29.196  31.094  1.00  0.00     0.167 HD
ATOM     48  C   UNL A   1      43.471  28.111  34.050  1.00  0.00     0.037 A 
ATOM     49  C   UNL A   1      38.254  30.633  30.156  1.00  0.00     0.037 A 
ATOM     50  C   UNL A   1      42.646  29.100  34.703  1.00  0.00     0.049 A 
ATOM     51  C   UNL A   1      38.441  31.045  31.588  1.00  0.00     0.074 A 
ATOM     52  C   UNL A   1      42.764  29.614  35.984  1.00  0.00     0.029 A 
ATOM     53  N   UNL A   1      41.537  29.710  34.135  1.00  0.00    -0.354 N 
ATOM     54  N   UNL A   1      39.376  30.695  32.437  1.00  0.00    -0.248 NA
ATOM     55  C   UNL A   1      37.457  31.990  32.132  1.00  0.00     0.031 C 
ATOM     56  C   UNL A   1      41.696  30.492  36.209  1.00  0.00     0.029 A 
ATOM     57  C   UNL A   1      40.944  30.571  35.049  1.00  0.00     0.049 A 
ATOM     58  H   UNL A   1      41.217  29.554  33.217  1.00  0.00     0.167 HD
ATOM     59  C   UNL A   1      39.110  31.399  33.605  1.00  0.00     0.074 A 
ATOM     60  C   UNL A   1      37.940  32.212  33.344  1.00  0.00     0.031 C 
ATOM     61  C   UNL A   1      39.775  31.373  34.787  1.00  0.00     0.037 A 
BRANCH  48  62
ATOM     62  C   UNL A   1      44.599  27.499  34.832  1.00  0.00     0.057 A 
ATOM     63  C   UNL A   1      44.372  26.436  35.717  1.00  0.00     0.134 A 
ATOM     64  C   UNL A   1      45.908  27.993  34.744  1.00  0.00     0.134 A 
ATOM     65  F   UNL A   1      43.142  25.922  35.863  1.00  0.00    -0.206 F 
ATOM     66  C   UNL A   1      45.404  25.887  36.481  1.00  0.00     0.040 A 
ATOM     67  C   UNL A   1      46.954  27.434  35.482  1.00  0.00     0.040 A 
ATOM     68  F   UNL A   1      46.196  29.009  33.916  1.00  0.00    -0.206 F 
ATOM     69  C   UNL A   1      46.701  26.380  36.357  1.00  0.00     0.006 A 
ENDBRANCH  48  62
BRANCH  49  70
ATOM     70  C   UNL A   1      37.152  31.204  29.344  1.00  0.00     0.057 A 
ATOM     71  C   UNL A   1      37.225  32.502  28.826  1.00  0.00     0.134 A 
ATOM     72  C   UNL A   1      36.012  30.450  29.041  1.00  0.00     0.134 A 
ATOM     73  F   UNL A   1      38.287  33.278  29.090  1.00  0.00    -0.206 F 
ATOM     74  C   UNL A   1      36.207  33.029  28.032  1.00  0.00     0.040 A 
ATOM     75  C   UNL A   1      35.000  30.954  28.224  1.00  0.00     0.040 A 
ATOM     76  F   UNL A   1      35.892  29.194  29.496  1.00  0.00    -0.206 F 
ATOM     77  C   UNL A   1      35.095  32.249  27.719  1.00  0.00     0.006 A 
ENDBRANCH  49  70
BRANCH  61  78
ATOM     78  C   UNL A   1      39.262  32.279  35.873  1.00  0.00     0.057 A 
ATOM     79  C   UNL A   1      38.318  31.817  36.799  1.00  0.00     0.134 A 
ATOM     80  C   UNL A   1      39.712  33.598  36.016  1.00  0.00     0.134 A 
ATOM     81  F   UNL A   1      37.837  30.567  36.718  1.00  0.00    -0.206 F 
ATOM     82  C   UNL A   1      37.849  32.631  37.833  1.00  0.00     0.040 A 
ATOM     83  C   UNL A   1      39.275  34.410  37.065  1.00  0.00     0.040 A 
ATOM     84  F   UNL A   1      40.628  34.100  35.174  1.00  0.00    -0.206 F 
ATOM     85  C   UNL A   1      38.338  33.927  37.975  1.00  0.00     0.006 A 
ENDBRANCH  61  78
ENDBRANCH  35  36
ENDBRANCH  28  30
ENDBRANCH  27  28
ENDBRANCH  26  27
ENDBRANCH  25  26
ENDBRANCH  24  25
ENDBRANCH   1  24
TORSDOF 18
ENDMDL
MODEL 2
REMARK VINA RESULT:     -10.5      1.491      2.967
REMARK SMILES Cc1ccc2c(c1)C=C(C(=O)OCCOCCOCCOC(=O)c1ccc(-c3c4nc(c(-c5c(F)cccc5F)c5ccc([nH]5)c(-c5c(F)cccc5F)c5nc(c(-c6c(F)cccc6F)c6ccc3[nH]6)C=C5)C=C4)cc1)[C@@H](C(F)(F)F)O2
REMARK SMILES IDX 17 1 16 2 15 3 14 4 13 5 12 6 10 7 11 8 9 9 1 10 2 11 3 12
REMARK SMILES IDX 7 13 4 14 6 15 5 16 8 17 83 18 78 19 79 20 80 21 81 22 82 23
REMARK SMILES IDX 18 24 19 25 20 26 21 27 22 28 23 29 24 30 25 31 77 32 26 33
REMARK SMILES IDX 76 34 27 35 28 36 29 37 70 38 30 39 75 40 69 41 71 42 31 43
REMARK SMILES IDX 74 44 68 45 67 46 32 48 58 49 41 50 57 51 42 52 45 53 56 54
REMARK SMILES IDX 72 55 43 56 44 57 55 59 73 60 46 61 33 62 34 63 39 64 35 65
REMARK SMILES IDX 36 66 38 67 40 68 37 69 59 70 60 71 65 72 61 73 62 74 64 75
REMARK SMILES IDX 66 76 63 77 47 78 48 79 53 80 49 81 50 82 52 83 54 84 51 85
REMARK H PARENT 71 47 45 58
REMARK Flexibility Score: inf
ROOT
ATOM      1  C   UNL A   1      41.032  20.965  26.626  1.00  0.00     0.188 C 
ENDROOT
BRANCH   1   2
ATOM      2  C   UNL A   1      40.266  22.169  26.035  1.00  0.00     0.188 C 
BRANCH   2   3
ATOM      3  O   UNL A   1      38.861  22.233  26.117  1.00  0.00    -0.376 OA
BRANCH   3   4
ATOM      4  C   UNL A   1      38.181  23.473  26.211  1.00  0.00     0.202 C 
BRANCH   4   5
ATOM      5  C   UNL A   1      36.751  23.711  25.707  1.00  0.00     0.261 C 
BRANCH   5   6
ATOM      6  O   UNL A   1      35.753  22.820  26.212  1.00  0.00    -0.460 OA
BRANCH   6   7
ATOM      7  C   UNL A   1      34.473  23.210  25.995  1.00  0.00     0.338 C 
ATOM      8  O   UNL A   1      33.961  24.261  26.342  1.00  0.00    -0.246 OA
BRANCH   7   9
ATOM      9  C   UNL A   1      33.802  22.233  25.117  1.00  0.00     0.087 C 
ATOM     10  C   UNL A   1      33.653  16.204  23.876  1.00  0.00     0.044 C 
ATOM     11  C   UNL A   1      33.266  17.647  23.739  1.00  0.00    -0.050 A 
ATOM     12  C   UNL A   1      32.479  18.079  22.666  1.00  0.00     0.007 A 
ATOM     13  C   UNL A   1      33.757  18.594  24.647  1.00  0.00     0.015 A 
ATOM     14  C   UNL A   1      32.157  19.431  22.525  1.00  0.00     0.047 A 
ATOM     15  C   UNL A   1      33.467  19.955  24.484  1.00  0.00     0.017 A 
ATOM     16  C   UNL A   1      32.650  20.368  23.432  1.00  0.00     0.128 A 
ATOM     17  C   UNL A   1      34.059  20.942  25.366  1.00  0.00     0.027 C 
ATOM     18  O   UNL A   1      32.292  21.667  23.210  1.00  0.00    -0.475 OA
ATOM     19  C   UNL A   1      32.887  22.715  24.024  1.00  0.00     0.316 C 
BRANCH  19  20
ATOM     20  C   UNL A   1      33.580  23.720  23.094  1.00  0.00     0.430 C 
ATOM     21  F   UNL A   1      32.954  23.796  21.895  1.00  0.00    -0.167 F 
ATOM     22  F   UNL A   1      33.573  24.970  23.614  1.00  0.00    -0.167 F 
ATOM     23  F   UNL A   1      34.870  23.388  22.859  1.00  0.00    -0.167 F 
ENDBRANCH  19  20
ENDBRANCH   7   9
ENDBRANCH   6   7
ENDBRANCH   5   6
ENDBRANCH   4   5
ENDBRANCH   3   4
ENDBRANCH   2   3
ENDBRANCH   1   2
BRANCH   1  24
ATOM     24  O   UNL A   1      42.423  21.032  26.845  1.00  0.00    -0.376 OA
BRANCH  24  25
ATOM     25  C   UNL A   1      43.324  20.890  25.758  1.00  0.00     0.202 C 
BRANCH  25  26
ATOM     26  C   UNL A   1      44.151  22.050  25.181  1.00  0.00     0.261 C 
BRANCH  26  27
ATOM     27  O   UNL A   1      43.474  23.303  25.046  1.00  0.00    -0.460 OA
BRANCH  27  28
ATOM     28  C   UNL A   1      44.246  24.405  25.265  1.00  0.00     0.338 C 
ATOM     29  O   UNL A   1      45.200  24.778  24.624  1.00  0.00    -0.246 OA
BRANCH  28  30
ATOM     30  C   UNL A   1      43.601  25.215  26.320  1.00  0.00     0.060 A 
ATOM     31  C   UNL A   1      42.504  24.722  27.023  1.00  0.00     0.016 A 
ATOM     32  C   UNL A   1      44.110  26.493  26.593  1.00  0.00     0.016 A 
ATOM     33  C   UNL A   1      41.925  25.507  28.022  1.00  0.00     0.010 A 
ATOM     34  C   UNL A   1      43.520  27.283  27.582  1.00  0.00     0.010 A 
ATOM     35  C   UNL A   1      42.435  26.785  28.317  1.00  0.00    -0.014 A 
BRANCH  35  36
ATOM     36  C   UNL A   1      41.928  27.512  29.506  1.00  0.00     0.031 A 
ATOM     37  C   UNL A   1      42.600  27.423  30.842  1.00  0.00     0.074 A 
ATOM     38  C   UNL A   1      40.836  28.284  29.353  1.00  0.00     0.049 A 
ATOM     39  N   UNL A   1      42.353  28.108  31.932  1.00  0.00    -0.248 NA
ATOM     40  C   UNL A   1      43.678  26.436  30.980  1.00  0.00     0.031 C 
ATOM     41  C   UNL A   1      40.070  28.414  28.111  1.00  0.00     0.029 A 
ATOM     42  N   UNL A   1      40.195  29.115  30.233  1.00  0.00    -0.354 N 
ATOM     43  C   UNL A   1      43.265  27.661  32.879  1.00  0.00     0.074 A 
ATOM     44  C   UNL A   1      44.030  26.601  32.249  1.00  0.00     0.031 C 
ATOM     45  C   UNL A   1      39.083  29.303  28.300  1.00  0.00     0.029 A 
ATOM     46  C   UNL A   1      39.136  29.788  29.675  1.00  0.00     0.049 A 
ATOM     47  H   UNL A   1      40.466  29.219  31.174  1.00  0.00     0.167 HD
ATOM     48  C   UNL A   1      43.456  28.108  34.145  1.00  0.00     0.037 A 
ATOM     49  C   UNL A   1      38.308  30.704  30.208  1.00  0.00     0.037 A 
ATOM     50  C   UNL A   1      42.667  29.140  34.776  1.00  0.00     0.049 A 
ATOM     51  C   UNL A   1      38.515  31.146  31.629  1.00  0.00     0.074 A 
ATOM     52  C   UNL A   1      42.808  29.682  36.043  1.00  0.00     0.029 A 
ATOM     53  N   UNL A   1      41.577  29.773  34.197  1.00  0.00    -0.354 N 
ATOM     54  N   UNL A   1      39.441  30.786  32.482  1.00  0.00    -0.248 NA
ATOM     55  C   UNL A   1      37.566  32.136  32.152  1.00  0.00     0.031 C 
ATOM     56  C   UNL A   1      41.771  30.600  36.250  1.00  0.00     0.029 A 
ATOM     57  C   UNL A   1      41.017  30.675  35.090  1.00  0.00     0.049 A 
ATOM     58  H   UNL A   1      41.247  29.604  33.284  1.00  0.00     0.167 HD
ATOM     59  C   UNL A   1      39.204  31.527  33.633  1.00  0.00     0.074 A 
ATOM     60  C   UNL A   1      38.062  32.373  33.356  1.00  0.00     0.031 C 
ATOM     61  C   UNL A   1      39.874  31.509  34.813  1.00  0.00     0.037 A 
BRANCH  48  62
ATOM     62  C   UNL A   1      44.566  27.479  34.938  1.00  0.00     0.057 A 
ATOM     63  C   UNL A   1      44.340  26.337  35.719  1.00  0.00     0.134 A 
ATOM     64  C   UNL A   1      45.855  28.030  34.965  1.00  0.00     0.134 A 
ATOM     65  F   UNL A   1      43.127  25.764  35.753  1.00  0.00    -0.206 F 
ATOM     66  C   UNL A   1      45.353  25.768  36.494  1.00  0.00     0.040 A 
ATOM     67  C   UNL A   1      46.884  27.453  35.713  1.00  0.00     0.040 A 
ATOM     68  F   UNL A   1      46.142  29.121  34.239  1.00  0.00    -0.206 F 
ATOM     69  C   UNL A   1      46.632  26.321  36.485  1.00  0.00     0.006 A 
ENDBRANCH  48  62
BRANCH  49  70
ATOM     70  C   UNL A   1      37.221  31.291  29.386  1.00  0.00     0.057 A 
ATOM     71  C   UNL A   1      36.044  30.582  29.121  1.00  0.00     0.134 A 
ATOM     72  C   UNL A   1      37.324  32.590  28.874  1.00  0.00     0.134 A 
ATOM     73  F   UNL A   1      35.890  29.329  29.576  1.00  0.00    -0.206 F 
ATOM     74  C   UNL A   1      35.006  31.144  28.379  1.00  0.00     0.040 A 
ATOM     75  C   UNL A   1      36.281  33.175  28.155  1.00  0.00     0.040 A 
ATOM     76  F   UNL A   1      38.421  33.324  29.108  1.00  0.00    -0.206 F 
ATOM     77  C   UNL A   1      35.118  32.450  27.904  1.00  0.00     0.006 A 
ENDBRANCH  49  70
BRANCH  61  78
ATOM     78  C   UNL A   1      39.397  32.458  35.877  1.00  0.00     0.057 A 
ATOM     79  C   UNL A   1      38.399  32.072  36.782  1.00  0.00     0.134 A 
ATOM     80  C   UNL A   1      39.933  33.745  36.022  1.00  0.00     0.134 A 
ATOM     81  F   UNL A   1      37.834  30.857  36.698  1.00  0.00    -0.206 F 
ATOM     82  C   UNL A   1      37.960  32.926  37.796  1.00  0.00     0.040 A 
ATOM     83  C   UNL A   1      39.526  34.596  37.053  1.00  0.00     0.040 A 
ATOM     84  F   UNL A   1      40.903  34.174  35.201  1.00  0.00    -0.206 F 
ATOM     85  C   UNL A   1      38.534  34.187  37.941  1.00  0.00     0.006 A 
ENDBRANCH  61  78
ENDBRANCH  35  36
ENDBRANCH  28  30
ENDBRANCH  27  28
ENDBRANCH  26  27
ENDBRANCH  25  26
ENDBRANCH  24  25
ENDBRANCH   1  24
TORSDOF 18
ENDMDL
MODEL 3
REMARK VINA RESULT:     -10.4      2.250      7.027
REMARK SMILES Cc1ccc2c(c1)C=C(C(=O)OCCOCCOCCOC(=O)c1ccc(-c3c4nc(c(-c5c(F)cccc5F)c5ccc([nH]5)c(-c5c(F)cccc5F)c5nc(c(-c6c(F)cccc6F)c6ccc3[nH]6)C=C5)C=C4)cc1)[C@@H](C(F)(F)F)O2
REMARK SMILES IDX 17 1 16 2 15 3 14 4 13 5 12 6 10 7 11 8 9 9 1 10 2 11 3 12
REMARK SMILES IDX 7 13 4 14 6 15 5 16 8 17 83 18 78 19 79 20 80 21 81 22 82 23
REMARK SMILES IDX 18 24 19 25 20 26 21 27 22 28 23 29 24 30 25 31 77 32 26 33
REMARK SMILES IDX 76 34 27 35 28 36 29 37 70 38 30 39 75 40 69 41 71 42 31 43
REMARK SMILES IDX 74 44 68 45 67 46 32 48 58 49 41 50 57 51 42 52 45 53 56 54
REMARK SMILES IDX 72 55 43 56 44 57 55 59 73 60 46 61 33 62 34 63 39 64 35 65
REMARK SMILES IDX 36 66 38 67 40 68 37 69 59 70 60 71 65 72 61 73 62 74 64 75
REMARK SMILES IDX 66 76 63 77 47 78 48 79 53 80 49 81 50 82 52 83 54 84 51 85
REMARK H PARENT 71 47 45 58
REMARK Flexibility Score: inf
ROOT
ATOM      1  C   UNL A   1      35.970  20.580  25.068  1.00  0.00     0.188 C 
ENDROOT
BRANCH   1   2
ATOM      2  C   UNL A   1      34.441  20.562  25.277  1.00  0.00     0.188 C 
BRANCH   2   3
ATOM      3  O   UNL A   1      33.568  20.774  24.191  1.00  0.00    -0.376 OA
BRANCH   3   4
ATOM      4  C   UNL A   1      33.381  22.064  23.632  1.00  0.00     0.202 C 
BRANCH   4   5
ATOM      5  C   UNL A   1      34.506  23.091  23.445  1.00  0.00     0.261 C 
BRANCH   5   6
ATOM      6  O   UNL A   1      34.218  24.422  23.884  1.00  0.00    -0.460 OA
BRANCH   6   7
ATOM      7  C   UNL A   1      33.650  25.223  22.950  1.00  0.00     0.338 C 
ATOM      8  O   UNL A   1      33.512  24.977  21.764  1.00  0.00    -0.246 OA
BRANCH   7   9
ATOM      9  C   UNL A   1      33.061  26.404  23.607  1.00  0.00     0.087 C 
ATOM     10  C   UNL A   1      34.436  30.831  27.660  1.00  0.00     0.044 C 
ATOM     11  C   UNL A   1      33.582  30.075  26.686  1.00  0.00    -0.050 A 
ATOM     12  C   UNL A   1      32.211  30.334  26.582  1.00  0.00     0.007 A 
ATOM     13  C   UNL A   1      34.138  29.041  25.921  1.00  0.00     0.015 A 
ATOM     14  C   UNL A   1      31.417  29.598  25.701  1.00  0.00     0.047 A 
ATOM     15  C   UNL A   1      33.335  28.275  25.066  1.00  0.00     0.017 A 
ATOM     16  C   UNL A   1      31.977  28.569  24.944  1.00  0.00     0.128 A 
ATOM     17  C   UNL A   1      33.893  27.141  24.355  1.00  0.00     0.027 C 
ATOM     18  O   UNL A   1      31.123  27.896  24.118  1.00  0.00    -0.475 OA
ATOM     19  C   UNL A   1      31.602  26.718  23.411  1.00  0.00     0.316 C 
BRANCH  19  20
ATOM     20  C   UNL A   1      30.702  25.530  23.778  1.00  0.00     0.430 C 
ATOM     21  F   UNL A   1      29.466  25.943  24.150  1.00  0.00    -0.167 F 
ATOM     22  F   UNL A   1      30.531  24.690  22.731  1.00  0.00    -0.167 F 
ATOM     23  F   UNL A   1      31.212  24.804  24.799  1.00  0.00    -0.167 F 
ENDBRANCH  19  20
ENDBRANCH   7   9
ENDBRANCH   6   7
ENDBRANCH   5   6
ENDBRANCH   4   5
ENDBRANCH   3   4
ENDBRANCH   2   3
ENDBRANCH   1   2
BRANCH   1  24
ATOM     24  O   UNL A   1      36.781  21.511  25.749  1.00  0.00    -0.376 OA
BRANCH  24  25
ATOM     25  C   UNL A   1      38.117  21.735  25.328  1.00  0.00     0.202 C 
BRANCH  25  26
ATOM     26  C   UNL A   1      39.236  22.216  26.266  1.00  0.00     0.261 C 
BRANCH  26  27
ATOM     27  O   UNL A   1      39.276  23.621  26.532  1.00  0.00    -0.460 OA
BRANCH  27  28
ATOM     28  C   UNL A   1      40.517  24.130  26.772  1.00  0.00     0.338 C 
ATOM     29  O   UNL A   1      41.564  23.796  26.267  1.00  0.00    -0.246 OA
BRANCH  28  30
ATOM     30  C   UNL A   1      40.366  25.327  27.626  1.00  0.00     0.060 A 
ATOM     31  C   UNL A   1      39.372  25.383  28.601  1.00  0.00     0.016 A 
ATOM     32  C   UNL A   1      41.237  26.409  27.430  1.00  0.00     0.016 A 
ATOM     33  C   UNL A   1      39.262  26.524  29.398  1.00  0.00     0.010 A 
ATOM     34  C   UNL A   1      41.116  27.555  28.219  1.00  0.00     0.010 A 
ATOM     35  C   UNL A   1      40.139  27.610  29.223  1.00  0.00    -0.014 A 
BRANCH  35  36
ATOM     36  C   UNL A   1      40.127  28.719  30.207  1.00  0.00     0.031 A 
ATOM     37  C   UNL A   1      39.142  29.845  30.129  1.00  0.00     0.074 A 
ATOM     38  C   UNL A   1      41.030  28.684  31.205  1.00  0.00     0.049 A 
ATOM     39  N   UNL A   1      38.924  30.806  30.993  1.00  0.00    -0.248 NA
ATOM     40  C   UNL A   1      38.301  29.910  28.927  1.00  0.00     0.031 C 
ATOM     41  C   UNL A   1      42.069  27.663  31.359  1.00  0.00     0.029 A 
ATOM     42  N   UNL A   1      41.209  29.512  32.282  1.00  0.00    -0.354 N 
ATOM     43  C   UNL A   1      37.898  31.574  30.459  1.00  0.00     0.074 A 
ATOM     44  C   UNL A   1      37.581  31.000  29.165  1.00  0.00     0.031 C 
ATOM     45  C   UNL A   1      42.753  27.905  32.488  1.00  0.00     0.029 A 
ATOM     46  C   UNL A   1      42.216  29.104  33.121  1.00  0.00     0.049 A 
ATOM     47  H   UNL A   1      40.670  30.321  32.437  1.00  0.00     0.167 HD
ATOM     48  C   UNL A   1      37.270  32.644  31.008  1.00  0.00     0.037 A 
ATOM     49  C   UNL A   1      42.649  29.630  34.282  1.00  0.00     0.037 A 
ATOM     50  C   UNL A   1      37.614  33.230  32.282  1.00  0.00     0.049 A 
ATOM     51  C   UNL A   1      41.964  30.843  34.841  1.00  0.00     0.074 A 
ATOM     52  C   UNL A   1      37.012  34.294  32.934  1.00  0.00     0.029 A 
ATOM     53  N   UNL A   1      38.665  32.818  33.088  1.00  0.00    -0.354 N 
ATOM     54  N   UNL A   1      40.932  31.503  34.375  1.00  0.00    -0.248 NA
ATOM     55  C   UNL A   1      42.498  31.375  36.102  1.00  0.00     0.031 C 
ATOM     56  C   UNL A   1      37.733  34.560  34.105  1.00  0.00     0.029 A 
ATOM     57  C   UNL A   1      38.748  33.624  34.215  1.00  0.00     0.049 A 
ATOM     58  H   UNL A   1      39.265  32.063  32.889  1.00  0.00     0.167 HD
ATOM     59  C   UNL A   1      40.676  32.508  35.298  1.00  0.00     0.074 A 
ATOM     60  C   UNL A   1      41.646  32.354  36.363  1.00  0.00     0.031 C 
ATOM     61  C   UNL A   1      39.722  33.472  35.267  1.00  0.00     0.037 A 
BRANCH  48  62
ATOM     62  C   UNL A   1      36.139  33.254  30.228  1.00  0.00     0.057 A 
ATOM     63  C   UNL A   1      36.387  34.070  29.115  1.00  0.00     0.134 A 
ATOM     64  C   UNL A   1      34.802  33.071  30.605  1.00  0.00     0.134 A 
ATOM     65  F   UNL A   1      37.643  34.300  28.705  1.00  0.00    -0.206 F 
ATOM     66  C   UNL A   1      35.347  34.677  28.408  1.00  0.00     0.040 A 
ATOM     67  C   UNL A   1      33.752  33.649  29.889  1.00  0.00     0.040 A 
ATOM     68  F   UNL A   1      34.493  32.301  31.660  1.00  0.00    -0.206 F 
ATOM     69  C   UNL A   1      34.025  34.459  28.788  1.00  0.00     0.006 A 
ENDBRANCH  48  62
BRANCH  49  70
ATOM     70  C   UNL A   1      43.774  28.994  35.011  1.00  0.00     0.057 A 
ATOM     71  C   UNL A   1      43.561  27.931  35.895  1.00  0.00     0.134 A 
ATOM     72  C   UNL A   1      45.094  29.418  34.814  1.00  0.00     0.134 A 
ATOM     73  F   UNL A   1      42.318  27.486  36.133  1.00  0.00    -0.206 F 
ATOM     74  C   UNL A   1      44.619  27.308  36.555  1.00  0.00     0.040 A 
ATOM     75  C   UNL A   1      46.165  28.784  35.445  1.00  0.00     0.040 A 
ATOM     76  F   UNL A   1      45.362  30.422  33.968  1.00  0.00    -0.206 F 
ATOM     77  C   UNL A   1      45.928  27.727  36.321  1.00  0.00     0.006 A 
ENDBRANCH  49  70
BRANCH  61  78
ATOM     78  C   UNL A   1      39.670  34.412  36.441  1.00  0.00     0.057 A 
ATOM     79  C   UNL A   1      39.021  34.038  37.625  1.00  0.00     0.134 A 
ATOM     80  C   UNL A   1      40.274  35.676  36.409  1.00  0.00     0.134 A 
ATOM     81  F   UNL A   1      38.414  32.846  37.724  1.00  0.00    -0.206 F 
ATOM     82  C   UNL A   1      38.985  34.883  38.737  1.00  0.00     0.040 A 
ATOM     83  C   UNL A   1      40.274  36.515  37.526  1.00  0.00     0.040 A 
ATOM     84  F   UNL A   1      40.927  36.090  35.314  1.00  0.00    -0.206 F 
ATOM     85  C   UNL A   1      39.624  36.119  38.693  1.00  0.00     0.006 A 
ENDBRANCH  61  78
ENDBRANCH  35  36
ENDBRANCH  28  30
ENDBRANCH  27  28
ENDBRANCH  26  27
ENDBRANCH  25  26
ENDBRANCH  24  25
ENDBRANCH   1  24
TORSDOF 18
ENDMDL
