MODEL 1
REMARK VINA RESULT:     -10.3      0.000      0.000
REMARK SMILES CNc1nccc(-c2cc(C(=O)OCCOCCOCCOC(=O)c3ccc(-c4c5nc(c(-c6c(F)cccc6F)c6ccc([nH]6)c(-c6c(F)cccc6F)c6nc(c(-c7c(F)cccc7F)c7ccc4[nH]7)C=C6)C=C5)cc3)ccn2)n1
REMARK SMILES IDX 17 1 16 2 15 3 14 4 13 5 11 6 12 7 10 8 8 9 9 10 81 11 80 12
REMARK SMILES IDX 79 13 7 14 3 15 4 16 82 17 5 18 6 19 2 20 1 21 18 23 19 24
REMARK SMILES IDX 20 25 21 26 22 27 23 28 24 29 25 30 26 31 78 32 27 33 77 34
REMARK SMILES IDX 28 35 29 36 30 37 71 38 31 39 76 40 70 41 72 42 32 43 75 44
REMARK SMILES IDX 69 45 68 46 33 48 59 49 42 50 58 51 43 52 46 53 57 54 73 55
REMARK SMILES IDX 44 56 45 57 56 59 74 60 47 61 34 62 35 63 40 64 36 65 37 66
REMARK SMILES IDX 39 67 41 68 38 69 60 70 61 71 66 72 62 73 63 74 65 75 67 76
REMARK SMILES IDX 64 77 48 78 49 79 54 80 50 81 51 82 53 83 55 84 52 85
REMARK H PARENT 2 22 72 47 46 58
REMARK Flexibility Score: inf
ROOT
ATOM      1  C   UNL A   1      33.067  37.114  31.772  1.00  0.00     0.188 C 
ENDROOT
BRANCH   1   2
ATOM      2  O   UNL A   1      32.514  36.475  30.632  1.00  0.00    -0.376 OA
BRANCH   2   3
ATOM      3  C   UNL A   1      33.361  36.014  29.587  1.00  0.00     0.202 C 
BRANCH   3   4
ATOM      4  C   UNL A   1      34.030  34.630  29.645  1.00  0.00     0.261 C 
BRANCH   4   5
ATOM      5  O   UNL A   1      34.236  33.986  28.379  1.00  0.00    -0.460 OA
BRANCH   5   6
ATOM      6  C   UNL A   1      33.185  33.271  27.905  1.00  0.00     0.338 C 
ATOM      7  O   UNL A   1      32.093  33.692  27.578  1.00  0.00    -0.246 OA
BRANCH   6   8
ATOM      8  C   UNL A   1      33.621  31.882  27.638  1.00  0.00     0.063 A 
ATOM      9  C   UNL A   1      33.208  29.621  26.960  1.00  0.00     0.090 A 
ATOM     10  C   UNL A   1      32.720  30.901  27.229  1.00  0.00     0.046 A 
ATOM     11  N   UNL A   1      34.512  29.299  27.172  1.00  0.00    -0.255 NA
ATOM     12  C   UNL A   1      35.353  30.265  27.602  1.00  0.00     0.112 A 
ATOM     13  C   UNL A   1      34.966  31.569  27.819  1.00  0.00     0.036 A 
BRANCH   9  14
ATOM     14  C   UNL A   1      32.382  28.620  26.252  1.00  0.00     0.094 A 
ATOM     15  C   UNL A   1      31.320  27.919  24.334  1.00  0.00     0.222 A 
ATOM     16  N   UNL A   1      30.739  26.886  24.962  1.00  0.00    -0.222 NA
ATOM     17  N   UNL A   1      32.138  28.799  24.931  1.00  0.00    -0.211 NA
ATOM     18  C   UNL A   1      31.021  26.720  26.260  1.00  0.00     0.117 A 
ATOM     19  C   UNL A   1      31.844  27.559  26.959  1.00  0.00     0.051 A 
BRANCH  15  20
ATOM     20  N   UNL A   1      31.048  27.978  22.998  1.00  0.00    -0.357 N 
ATOM     21  C   UNL A   1      30.717  29.194  22.322  1.00  0.00     0.143 C 
ATOM     22  H   UNL A   1      31.080  27.144  22.475  1.00  0.00     0.163 HD
ENDBRANCH  15  20
ENDBRANCH   9  14
ENDBRANCH   6   8
ENDBRANCH   5   6
ENDBRANCH   4   5
ENDBRANCH   3   4
ENDBRANCH   2   3
ENDBRANCH   1   2
BRANCH   1  23
ATOM     23  C   UNL A   1      33.640  36.277  32.936  1.00  0.00     0.188 C 
BRANCH  23  24
ATOM     24  O   UNL A   1      35.043  36.236  32.997  1.00  0.00    -0.376 OA
BRANCH  24  25
ATOM     25  C   UNL A   1      35.707  34.985  33.027  1.00  0.00     0.202 C 
BRANCH  25  26
ATOM     26  C   UNL A   1      35.241  33.737  33.810  1.00  0.00     0.261 C 
BRANCH  26  27
ATOM     27  O   UNL A   1      35.873  32.481  33.548  1.00  0.00    -0.460 OA
BRANCH  27  28
ATOM     28  C   UNL A   1      35.732  31.989  32.293  1.00  0.00     0.338 C 
ATOM     29  O   UNL A   1      34.710  31.913  31.639  1.00  0.00    -0.246 OA
BRANCH  28  30
ATOM     30  C   UNL A   1      37.074  31.700  31.748  1.00  0.00     0.060 A 
ATOM     31  C   UNL A   1      37.355  32.051  30.420  1.00  0.00     0.016 A 
ATOM     32  C   UNL A   1      38.030  31.049  32.527  1.00  0.00     0.016 A 
ATOM     33  C   UNL A   1      38.590  31.723  29.858  1.00  0.00     0.010 A 
ATOM     34  C   UNL A   1      39.259  30.702  31.956  1.00  0.00     0.010 A 
ATOM     35  C   UNL A   1      39.531  31.007  30.609  1.00  0.00    -0.014 A 
BRANCH  35  36
ATOM     36  C   UNL A   1      40.712  30.408  29.937  1.00  0.00     0.031 A 
ATOM     37  C   UNL A   1      41.911  31.282  29.683  1.00  0.00     0.074 A 
ATOM     38  C   UNL A   1      40.731  29.115  29.571  1.00  0.00     0.049 A 
ATOM     39  N   UNL A   1      43.026  31.005  29.058  1.00  0.00    -0.248 NA
ATOM     40  C   UNL A   1      41.836  32.657  30.203  1.00  0.00     0.031 C 
ATOM     41  C   UNL A   1      39.655  28.154  29.795  1.00  0.00     0.029 A 
ATOM     42  N   UNL A   1      41.698  28.393  28.914  1.00  0.00    -0.354 N 
ATOM     43  C   UNL A   1      43.780  32.171  29.099  1.00  0.00     0.074 A 
ATOM     44  C   UNL A   1      42.983  33.168  29.780  1.00  0.00     0.031 C 
ATOM     45  C   UNL A   1      40.015  26.968  29.273  1.00  0.00     0.029 A 
ATOM     46  C   UNL A   1      41.330  27.097  28.645  1.00  0.00     0.049 A 
ATOM     47  H   UNL A   1      42.572  28.768  28.661  1.00  0.00     0.167 HD
ATOM     48  C   UNL A   1      45.028  32.392  28.620  1.00  0.00     0.037 A 
ATOM     49  C   UNL A   1      41.970  26.136  27.950  1.00  0.00     0.037 A 
ATOM     50  C   UNL A   1      45.818  31.401  27.938  1.00  0.00     0.049 A 
ATOM     51  C   UNL A   1      43.326  26.429  27.358  1.00  0.00     0.074 A 
ATOM     52  C   UNL A   1      47.098  31.523  27.426  1.00  0.00     0.029 A 
ATOM     53  N   UNL A   1      45.400  30.107  27.663  1.00  0.00    -0.354 N 
ATOM     54  N   UNL A   1      44.041  27.527  27.420  1.00  0.00    -0.248 NA
ATOM     55  C   UNL A   1      43.968  25.342  26.602  1.00  0.00     0.031 C 
ATOM     56  C   UNL A   1      47.431  30.323  26.790  1.00  0.00     0.029 A 
ATOM     57  C   UNL A   1      46.386  29.430  26.967  1.00  0.00     0.049 A 
ATOM     58  H   UNL A   1      44.530  29.728  27.925  1.00  0.00     0.167 HD
ATOM     59  C   UNL A   1      45.227  27.251  26.749  1.00  0.00     0.074 A 
ATOM     60  C   UNL A   1      45.140  25.879  26.295  1.00  0.00     0.031 C 
ATOM     61  C   UNL A   1      46.296  28.058  26.533  1.00  0.00     0.037 A 
BRANCH  48  62
ATOM     62  C   UNL A   1      45.600  33.769  28.790  1.00  0.00     0.057 A 
ATOM     63  C   UNL A   1      45.400  34.780  27.841  1.00  0.00     0.134 A 
ATOM     64  C   UNL A   1      46.343  34.096  29.932  1.00  0.00     0.134 A 
ATOM     65  F   UNL A   1      44.711  34.531  26.716  1.00  0.00    -0.206 F 
ATOM     66  C   UNL A   1      45.939  36.058  28.009  1.00  0.00     0.040 A 
ATOM     67  C   UNL A   1      46.860  35.378  30.126  1.00  0.00     0.040 A 
ATOM     68  F   UNL A   1      46.569  33.178  30.883  1.00  0.00    -0.206 F 
ATOM     69  C   UNL A   1      46.665  36.360  29.159  1.00  0.00     0.006 A 
ENDBRANCH  48  62
BRANCH  49  70
ATOM     70  C   UNL A   1      41.340  24.805  27.760  1.00  0.00     0.057 A 
ATOM     71  C   UNL A   1      41.763  23.687  28.490  1.00  0.00     0.134 A 
ATOM     72  C   UNL A   1      40.323  24.607  26.817  1.00  0.00     0.134 A 
ATOM     73  F   UNL A   1      42.751  23.805  29.389  1.00  0.00    -0.206 F 
ATOM     74  C   UNL A   1      41.216  22.421  28.275  1.00  0.00     0.040 A 
ATOM     75  C   UNL A   1      39.746  23.353  26.612  1.00  0.00     0.040 A 
ATOM     76  F   UNL A   1      39.872  25.636  26.082  1.00  0.00    -0.206 F 
ATOM     77  C   UNL A   1      40.201  22.253  27.337  1.00  0.00     0.006 A 
ENDBRANCH  49  70
BRANCH  61  78
ATOM     78  C   UNL A   1      47.485  27.466  25.831  1.00  0.00     0.057 A 
ATOM     79  C   UNL A   1      47.634  27.515  24.439  1.00  0.00     0.134 A 
ATOM     80  C   UNL A   1      48.519  26.870  26.567  1.00  0.00     0.134 A 
ATOM     81  F   UNL A   1      46.680  28.062  23.671  1.00  0.00    -0.206 F 
ATOM     82  C   UNL A   1      48.753  26.969  23.804  1.00  0.00     0.040 A 
ATOM     83  C   UNL A   1      49.656  26.350  25.947  1.00  0.00     0.040 A 
ATOM     84  F   UNL A   1      48.449  26.800  27.905  1.00  0.00    -0.206 F 
ATOM     85  C   UNL A   1      49.770  26.391  24.560  1.00  0.00     0.006 A 
ENDBRANCH  61  78
ENDBRANCH  35  36
ENDBRANCH  28  30
ENDBRANCH  27  28
ENDBRANCH  26  27
ENDBRANCH  25  26
ENDBRANCH  24  25
ENDBRANCH  23  24
ENDBRANCH   1  23
TORSDOF 19
ENDMDL
MODEL 2
REMARK VINA RESULT:     -10.2      5.355     10.545
REMARK SMILES CNc1nccc(-c2cc(C(=O)OCCOCCOCCOC(=O)c3ccc(-c4c5nc(c(-c6c(F)cccc6F)c6ccc([nH]6)c(-c6c(F)cccc6F)c6nc(c(-c7c(F)cccc7F)c7ccc4[nH]7)C=C6)C=C5)cc3)ccn2)n1
REMARK SMILES IDX 17 1 16 2 15 3 14 4 13 5 11 6 12 7 10 8 8 9 9 10 81 11 80 12
REMARK SMILES IDX 79 13 7 14 3 15 4 16 82 17 5 18 6 19 2 20 1 21 18 23 19 24
REMARK SMILES IDX 20 25 21 26 22 27 23 28 24 29 25 30 26 31 78 32 27 33 77 34
REMARK SMILES IDX 28 35 29 36 30 37 71 38 31 39 76 40 70 41 72 42 32 43 75 44
REMARK SMILES IDX 69 45 68 46 33 48 59 49 42 50 58 51 43 52 46 53 57 54 73 55
REMARK SMILES IDX 44 56 45 57 56 59 74 60 47 61 34 62 35 63 40 64 36 65 37 66
REMARK SMILES IDX 39 67 41 68 38 69 60 70 61 71 66 72 62 73 63 74 65 75 67 76
REMARK SMILES IDX 64 77 48 78 49 79 54 80 50 81 51 82 53 83 55 84 52 85
REMARK H PARENT 2 22 72 47 46 58
REMARK Flexibility Score: inf
ROOT
ATOM      1  C   UNL A   1      40.194  21.775  26.869  1.00  0.00     0.188 C 
ENDROOT
BRANCH   1   2
ATOM      2  O   UNL A   1      39.212  21.064  26.132  1.00  0.00    -0.376 OA
BRANCH   2   3
ATOM      3  C   UNL A   1      38.184  21.764  25.445  1.00  0.00     0.202 C 
BRANCH   3   4
ATOM      4  C   UNL A   1      36.847  21.089  25.094  1.00  0.00     0.261 C 
BRANCH   4   5
ATOM      5  O   UNL A   1      35.885  21.923  24.431  1.00  0.00    -0.460 OA
BRANCH   5   6
ATOM      6  C   UNL A   1      35.061  22.632  25.243  1.00  0.00     0.338 C 
ATOM      7  O   UNL A   1      35.033  22.621  26.458  1.00  0.00    -0.246 OA
BRANCH   6   8
ATOM      8  C   UNL A   1      34.301  23.611  24.433  1.00  0.00     0.063 A 
ATOM      9  C   UNL A   1      33.166  25.700  24.145  1.00  0.00     0.090 A 
ATOM     10  C   UNL A   1      33.843  24.809  24.978  1.00  0.00     0.046 A 
ATOM     11  N   UNL A   1      32.872  25.386  22.855  1.00  0.00    -0.255 NA
ATOM     12  C   UNL A   1      33.300  24.201  22.368  1.00  0.00     0.112 A 
ATOM     13  C   UNL A   1      34.038  23.298  23.102  1.00  0.00     0.036 A 
BRANCH   9  14
ATOM     14  C   UNL A   1      32.911  27.095  24.564  1.00  0.00     0.094 A 
ATOM     15  C   UNL A   1      31.747  29.064  24.308  1.00  0.00     0.222 A 
ATOM     16  N   UNL A   1      32.521  29.707  25.195  1.00  0.00    -0.222 NA
ATOM     17  N   UNL A   1      31.902  27.776  23.967  1.00  0.00    -0.211 NA
ATOM     18  C   UNL A   1      33.491  29.000  25.787  1.00  0.00     0.117 A 
ATOM     19  C   UNL A   1      33.730  27.682  25.511  1.00  0.00     0.051 A 
BRANCH  15  20
ATOM     20  N   UNL A   1      30.732  29.827  23.806  1.00  0.00    -0.357 N 
ATOM     21  C   UNL A   1      30.004  29.476  22.625  1.00  0.00     0.143 C 
ATOM     22  H   UNL A   1      30.490  30.657  24.277  1.00  0.00     0.163 HD
ENDBRANCH  15  20
ENDBRANCH   9  14
ENDBRANCH   6   8
ENDBRANCH   5   6
ENDBRANCH   4   5
ENDBRANCH   3   4
ENDBRANCH   2   3
ENDBRANCH   1   2
BRANCH   1  23
ATOM     23  C   UNL A   1      41.331  21.017  27.590  1.00  0.00     0.188 C 
BRANCH  23  24
ATOM     24  O   UNL A   1      41.958  20.024  26.818  1.00  0.00    -0.376 OA
BRANCH  24  25
ATOM     25  C   UNL A   1      42.885  20.398  25.813  1.00  0.00     0.202 C 
BRANCH  25  26
ATOM     26  C   UNL A   1      43.674  21.726  25.767  1.00  0.00     0.261 C 
BRANCH  26  27
ATOM     27  O   UNL A   1      43.075  22.863  25.137  1.00  0.00    -0.460 OA
BRANCH  27  28
ATOM     28  C   UNL A   1      43.807  24.003  25.139  1.00  0.00     0.338 C 
ATOM     29  O   UNL A   1      44.770  24.265  24.444  1.00  0.00    -0.246 OA
BRANCH  28  30
ATOM     30  C   UNL A   1      43.144  24.987  26.019  1.00  0.00     0.060 A 
ATOM     31  C   UNL A   1      43.729  26.250  26.185  1.00  0.00     0.016 A 
ATOM     32  C   UNL A   1      41.979  24.648  26.708  1.00  0.00     0.016 A 
ATOM     33  C   UNL A   1      43.162  27.171  27.068  1.00  0.00     0.010 A 
ATOM     34  C   UNL A   1      41.424  25.564  27.607  1.00  0.00     0.010 A 
ATOM     35  C   UNL A   1      42.033  26.816  27.817  1.00  0.00    -0.014 A 
BRANCH  35  36
ATOM     36  C   UNL A   1      41.603  27.668  28.955  1.00  0.00     0.031 A 
ATOM     37  C   UNL A   1      42.352  27.554  30.256  1.00  0.00     0.074 A 
ATOM     38  C   UNL A   1      40.582  28.534  28.839  1.00  0.00     0.049 A 
ATOM     39  N   UNL A   1      42.122  28.140  31.403  1.00  0.00    -0.248 NA
ATOM     40  C   UNL A   1      43.514  26.650  30.262  1.00  0.00     0.031 C 
ATOM     41  C   UNL A   1      39.804  28.769  27.626  1.00  0.00     0.029 A 
ATOM     42  N   UNL A   1      40.017  29.369  29.771  1.00  0.00    -0.354 N 
ATOM     43  C   UNL A   1      43.103  27.670  32.268  1.00  0.00     0.074 A 
ATOM     44  C   UNL A   1      43.907  26.725  31.525  1.00  0.00     0.031 C 
ATOM     45  C   UNL A   1      38.851  29.681  27.891  1.00  0.00     0.029 A 
ATOM     46  C   UNL A   1      38.929  30.064  29.300  1.00  0.00     0.049 A 
ATOM     47  H   UNL A   1      40.359  29.462  30.690  1.00  0.00     0.167 HD
ATOM     48  C   UNL A   1      43.319  28.001  33.564  1.00  0.00     0.037 A 
ATOM     49  C   UNL A   1      38.081  30.892  29.941  1.00  0.00     0.037 A 
ATOM     50  C   UNL A   1      42.515  28.937  34.304  1.00  0.00     0.049 A 
ATOM     51  C   UNL A   1      38.296  31.186  31.405  1.00  0.00     0.074 A 
ATOM     52  C   UNL A   1      42.661  29.347  35.618  1.00  0.00     0.029 A 
ATOM     53  N   UNL A   1      41.408  29.601  33.799  1.00  0.00    -0.354 N 
ATOM     54  N   UNL A   1      39.237  30.753  32.210  1.00  0.00    -0.248 NA
ATOM     55  C   UNL A   1      37.329  32.089  32.048  1.00  0.00     0.031 C 
ATOM     56  C   UNL A   1      41.608  30.215  35.925  1.00  0.00     0.029 A 
ATOM     57  C   UNL A   1      40.847  30.399  34.781  1.00  0.00     0.049 A 
ATOM     58  H   UNL A   1      41.072  29.518  32.877  1.00  0.00     0.167 HD
ATOM     59  C   UNL A   1      39.000  31.361  33.438  1.00  0.00     0.074 A 
ATOM     60  C   UNL A   1      37.831  32.199  33.270  1.00  0.00     0.031 C 
ATOM     61  C   UNL A   1      39.691  31.242  34.599  1.00  0.00     0.037 A 
BRANCH  48  62
ATOM     62  C   UNL A   1      44.454  27.318  34.271  1.00  0.00     0.057 A 
ATOM     63  C   UNL A   1      44.290  26.091  34.928  1.00  0.00     0.134 A 
ATOM     64  C   UNL A   1      45.735  27.884  34.275  1.00  0.00     0.134 A 
ATOM     65  F   UNL A   1      43.086  25.501  34.978  1.00  0.00    -0.206 F 
ATOM     66  C   UNL A   1      45.353  25.466  35.584  1.00  0.00     0.040 A 
ATOM     67  C   UNL A   1      46.812  27.253  34.900  1.00  0.00     0.040 A 
ATOM     68  F   UNL A   1      45.964  29.054  33.660  1.00  0.00    -0.206 F 
ATOM     69  C   UNL A   1      46.620  26.045  35.564  1.00  0.00     0.006 A 
ENDBRANCH  48  62
BRANCH  49  70
ATOM     70  C   UNL A   1      36.938  31.502  29.213  1.00  0.00     0.057 A 
ATOM     71  C   UNL A   1      35.773  30.773  28.948  1.00  0.00     0.134 A 
ATOM     72  C   UNL A   1      36.997  32.816  28.732  1.00  0.00     0.134 A 
ATOM     73  F   UNL A   1      35.665  29.501  29.358  1.00  0.00    -0.206 F 
ATOM     74  C   UNL A   1      34.718  31.319  28.213  1.00  0.00     0.040 A 
ATOM     75  C   UNL A   1      35.939  33.385  28.022  1.00  0.00     0.040 A 
ATOM     76  F   UNL A   1      38.086  33.569  28.951  1.00  0.00    -0.206 F 
ATOM     77  C   UNL A   1      34.799  32.631  27.753  1.00  0.00     0.006 A 
ENDBRANCH  49  70
BRANCH  61  78
ATOM     78  C   UNL A   1      39.246  32.081  35.764  1.00  0.00     0.057 A 
ATOM     79  C   UNL A   1      39.688  33.397  35.951  1.00  0.00     0.134 A 
ATOM     80  C   UNL A   1      38.325  31.575  36.691  1.00  0.00     0.134 A 
ATOM     81  F   UNL A   1      40.577  33.943  35.108  1.00  0.00    -0.206 F 
ATOM     82  C   UNL A   1      39.255  34.167  37.034  1.00  0.00     0.040 A 
ATOM     83  C   UNL A   1      37.859  32.345  37.758  1.00  0.00     0.040 A 
ATOM     84  F   UNL A   1      37.848  30.327  36.566  1.00  0.00    -0.206 F 
ATOM     85  C   UNL A   1      38.332  33.643  37.936  1.00  0.00     0.006 A 
ENDBRANCH  61  78
ENDBRANCH  35  36
ENDBRANCH  28  30
ENDBRANCH  27  28
ENDBRANCH  26  27
ENDBRANCH  25  26
ENDBRANCH  24  25
ENDBRANCH  23  24
ENDBRANCH   1  23
TORSDOF 19
ENDMDL
MODEL 3
REMARK VINA RESULT:     -10.2      1.558      2.516
REMARK SMILES CNc1nccc(-c2cc(C(=O)OCCOCCOCCOC(=O)c3ccc(-c4c5nc(c(-c6c(F)cccc6F)c6ccc([nH]6)c(-c6c(F)cccc6F)c6nc(c(-c7c(F)cccc7F)c7ccc4[nH]7)C=C6)C=C5)cc3)ccn2)n1
REMARK SMILES IDX 17 1 16 2 15 3 14 4 13 5 11 6 12 7 10 8 8 9 9 10 81 11 80 12
REMARK SMILES IDX 79 13 7 14 3 15 4 16 82 17 5 18 6 19 2 20 1 21 18 23 19 24
REMARK SMILES IDX 20 25 21 26 22 27 23 28 24 29 25 30 26 31 78 32 27 33 77 34
REMARK SMILES IDX 28 35 29 36 30 37 71 38 31 39 76 40 70 41 72 42 32 43 75 44
REMARK SMILES IDX 69 45 68 46 33 48 59 49 42 50 58 51 43 52 46 53 57 54 73 55
REMARK SMILES IDX 44 56 45 57 56 59 74 60 47 61 34 62 35 63 40 64 36 65 37 66
REMARK SMILES IDX 39 67 41 68 38 69 60 70 61 71 66 72 62 73 63 74 65 75 67 76
REMARK SMILES IDX 64 77 48 78 49 79 54 80 50 81 51 82 53 83 55 84 52 85
REMARK H PARENT 2 22 72 47 46 58
REMARK Flexibility Score: inf
ROOT
ATOM      1  C   UNL A   1      33.499  35.683  28.955  1.00  0.00     0.188 C 
ENDROOT
BRANCH   1   2
ATOM      2  O   UNL A   1      34.259  34.720  28.243  1.00  0.00    -0.376 OA
BRANCH   2   3
ATOM      3  C   UNL A   1      34.406  33.402  28.753  1.00  0.00     0.202 C 
BRANCH   3   4
ATOM      4  C   UNL A   1      35.210  32.330  27.996  1.00  0.00     0.261 C 
BRANCH   4   5
ATOM      5  O   UNL A   1      34.430  31.352  27.291  1.00  0.00    -0.460 OA
BRANCH   5   6
ATOM      6  C   UNL A   1      34.789  30.059  27.490  1.00  0.00     0.338 C 
ATOM      7  O   UNL A   1      35.722  29.644  28.149  1.00  0.00    -0.246 OA
BRANCH   6   8
ATOM      8  C   UNL A   1      33.740  29.171  26.941  1.00  0.00     0.063 A 
ATOM      9  C   UNL A   1      32.986  27.089  26.027  1.00  0.00     0.090 A 
ATOM     10  C   UNL A   1      34.032  27.883  26.498  1.00  0.00     0.046 A 
ATOM     11  N   UNL A   1      31.721  27.575  25.910  1.00  0.00    -0.255 NA
ATOM     12  C   UNL A   1      31.478  28.841  26.315  1.00  0.00     0.112 A 
ATOM     13  C   UNL A   1      32.439  29.663  26.861  1.00  0.00     0.036 A 
BRANCH   9  14
ATOM     14  C   UNL A   1      33.161  25.636  25.819  1.00  0.00     0.094 A 
ATOM     15  C   UNL A   1      32.510  23.473  26.263  1.00  0.00     0.222 A 
ATOM     16  N   UNL A   1      33.549  22.959  25.588  1.00  0.00    -0.222 NA
ATOM     17  N   UNL A   1      32.279  24.787  26.401  1.00  0.00    -0.211 NA
ATOM     18  C   UNL A   1      34.387  23.821  25.002  1.00  0.00     0.117 A 
ATOM     19  C   UNL A   1      34.239  25.178  25.081  1.00  0.00     0.051 A 
BRANCH  15  20
ATOM     20  N   UNL A   1      31.657  22.533  26.765  1.00  0.00    -0.357 N 
ATOM     21  C   UNL A   1      30.242  22.577  26.562  1.00  0.00     0.143 C 
ATOM     22  H   UNL A   1      32.034  21.791  27.292  1.00  0.00     0.163 HD
ENDBRANCH  15  20
ENDBRANCH   9  14
ENDBRANCH   6   8
ENDBRANCH   5   6
ENDBRANCH   4   5
ENDBRANCH   3   4
ENDBRANCH   2   3
ENDBRANCH   1   2
BRANCH   1  23
ATOM     23  C   UNL A   1      33.052  35.407  30.408  1.00  0.00     0.188 C 
BRANCH  23  24
ATOM     24  O   UNL A   1      33.769  36.114  31.388  1.00  0.00    -0.376 OA
BRANCH  24  25
ATOM     25  C   UNL A   1      34.455  35.402  32.404  1.00  0.00     0.202 C 
BRANCH  25  26
ATOM     26  C   UNL A   1      34.329  33.888  32.684  1.00  0.00     0.261 C 
BRANCH  26  27
ATOM     27  O   UNL A   1      35.287  32.997  32.106  1.00  0.00    -0.460 OA
BRANCH  27  28
ATOM     28  C   UNL A   1      36.217  32.487  32.949  1.00  0.00     0.338 C 
ATOM     29  O   UNL A   1      36.221  32.540  34.164  1.00  0.00    -0.246 OA
BRANCH  28  30
ATOM     30  C   UNL A   1      37.176  31.685  32.163  1.00  0.00     0.060 A 
ATOM     31  C   UNL A   1      38.074  30.848  32.840  1.00  0.00     0.016 A 
ATOM     32  C   UNL A   1      37.216  31.792  30.773  1.00  0.00     0.016 A 
ATOM     33  C   UNL A   1      39.038  30.135  32.126  1.00  0.00     0.010 A 
ATOM     34  C   UNL A   1      38.196  31.093  30.060  1.00  0.00     0.010 A 
ATOM     35  C   UNL A   1      39.133  30.289  30.737  1.00  0.00    -0.014 A 
BRANCH  35  36
ATOM     36  C   UNL A   1      40.323  29.771  30.015  1.00  0.00     0.031 A 
ATOM     37  C   UNL A   1      41.474  30.709  29.767  1.00  0.00     0.074 A 
ATOM     38  C   UNL A   1      40.392  28.494  29.598  1.00  0.00     0.049 A 
ATOM     39  N   UNL A   1      42.584  30.508  29.105  1.00  0.00    -0.248 NA
ATOM     40  C   UNL A   1      41.349  32.058  30.340  1.00  0.00     0.031 C 
ATOM     41  C   UNL A   1      39.367  27.477  29.811  1.00  0.00     0.029 A 
ATOM     42  N   UNL A   1      41.374  27.844  28.892  1.00  0.00    -0.354 N 
ATOM     43  C   UNL A   1      43.284  31.706  29.173  1.00  0.00     0.074 A 
ATOM     44  C   UNL A   1      42.460  32.638  29.911  1.00  0.00     0.031 C 
ATOM     45  C   UNL A   1      39.768  26.329  29.235  1.00  0.00     0.029 A 
ATOM     46  C   UNL A   1      41.059  26.543  28.582  1.00  0.00     0.049 A 
ATOM     47  H   UNL A   1      42.224  28.269  28.633  1.00  0.00     0.167 HD
ATOM     48  C   UNL A   1      44.508  32.002  28.674  1.00  0.00     0.037 A 
ATOM     49  C   UNL A   1      41.725  25.640  27.835  1.00  0.00     0.037 A 
ATOM     50  C   UNL A   1      45.325  31.076  27.935  1.00  0.00     0.049 A 
ATOM     51  C   UNL A   1      43.051  26.018  27.223  1.00  0.00     0.074 A 
ATOM     52  C   UNL A   1      46.585  31.277  27.398  1.00  0.00     0.029 A 
ATOM     53  N   UNL A   1      44.960  29.775  27.621  1.00  0.00    -0.354 N 
ATOM     54  N   UNL A   1      43.715  27.145  27.310  1.00  0.00    -0.248 NA
ATOM     55  C   UNL A   1      43.722  24.991  26.411  1.00  0.00     0.031 C 
ATOM     56  C   UNL A   1      46.957  30.119  26.709  1.00  0.00     0.029 A 
ATOM     57  C   UNL A   1      45.959  29.172  26.876  1.00  0.00     0.049 A 
ATOM     58  H   UNL A   1      44.116  29.346  27.889  1.00  0.00     0.167 HD
ATOM     59  C   UNL A   1      44.896  26.950  26.602  1.00  0.00     0.074 A 
ATOM     60  C   UNL A   1      44.860  25.593  26.097  1.00  0.00     0.031 C 
ATOM     61  C   UNL A   1      45.921  27.814  26.392  1.00  0.00     0.037 A 
BRANCH  48  62
ATOM     62  C   UNL A   1      45.021  33.398  28.883  1.00  0.00     0.057 A 
ATOM     63  C   UNL A   1      45.847  33.733  29.964  1.00  0.00     0.134 A 
ATOM     64  C   UNL A   1      44.703  34.417  27.976  1.00  0.00     0.134 A 
ATOM     65  F   UNL A   1      46.178  32.809  30.880  1.00  0.00    -0.206 F 
ATOM     66  C   UNL A   1      46.316  35.035  30.149  1.00  0.00     0.040 A 
ATOM     67  C   UNL A   1      45.192  35.714  28.133  1.00  0.00     0.040 A 
ATOM     68  F   UNL A   1      43.921  34.165  26.915  1.00  0.00    -0.206 F 
ATOM     69  C   UNL A   1      45.994  36.028  29.227  1.00  0.00     0.006 A 
ENDBRANCH  48  62
BRANCH  49  70
ATOM     70  C   UNL A   1      41.151  24.288  27.609  1.00  0.00     0.057 A 
ATOM     71  C   UNL A   1      41.651  23.164  28.278  1.00  0.00     0.134 A 
ATOM     72  C   UNL A   1      40.115  24.081  26.690  1.00  0.00     0.134 A 
ATOM     73  F   UNL A   1      42.661  23.293  29.150  1.00  0.00    -0.206 F 
ATOM     74  C   UNL A   1      41.157  21.883  28.026  1.00  0.00     0.040 A 
ATOM     75  C   UNL A   1      39.591  22.809  26.450  1.00  0.00     0.040 A 
ATOM     76  F   UNL A   1      39.592  25.115  26.014  1.00  0.00    -0.206 F 
ATOM     77  C   UNL A   1      40.120  21.704  27.114  1.00  0.00     0.006 A 
ENDBRANCH  49  70
BRANCH  61  78
ATOM     78  C   UNL A   1      47.117  27.305  25.639  1.00  0.00     0.057 A 
ATOM     79  C   UNL A   1      47.290  27.526  24.267  1.00  0.00     0.134 A 
ATOM     80  C   UNL A   1      48.136  26.614  26.311  1.00  0.00     0.134 A 
ATOM     81  F   UNL A   1      46.351  28.172  23.558  1.00  0.00    -0.206 F 
ATOM     82  C   UNL A   1      48.415  27.055  23.586  1.00  0.00     0.040 A 
ATOM     83  C   UNL A   1      49.279  26.167  25.649  1.00  0.00     0.040 A 
ATOM     84  F   UNL A   1      48.044  26.378  27.629  1.00  0.00    -0.206 F 
ATOM     85  C   UNL A   1      49.417  26.379  24.279  1.00  0.00     0.006 A 
ENDBRANCH  61  78
ENDBRANCH  35  36
ENDBRANCH  28  30
ENDBRANCH  27  28
ENDBRANCH  26  27
ENDBRANCH  25  26
ENDBRANCH  24  25
ENDBRANCH  23  24
ENDBRANCH   1  23
TORSDOF 19
ENDMDL
