MODEL 1
REMARK VINA RESULT:     -13.6      0.000      0.000
REMARK SMILES O=C(OCCOCCOCCOC(=O)c1ccccc1C(=O)Nc1ccc(N2C(=O)[C@H]3[C@@H]4CC[C@@H](C4)[C@@H]3C2=O)cc1)c1ccc(-c2c3nc(c(-c4c(F)cccc4F)c4ccc([nH]4)c(-c4c(F)cccc4F)c4nc(c(-c5c(F)cccc5F)c5ccc2[nH]5)C=C4)C=C3)cc1
REMARK SMILES IDX 8 1 7 2 6 3 5 4 4 5 3 6 2 7 1 8 42 9 43 10 95 11 44 12 94 13
REMARK SMILES IDX 45 14 46 15 47 16 88 17 48 18 93 19 87 20 89 21 49 22 92 23
REMARK SMILES IDX 86 24 85 25 50 27 76 28 59 29 75 30 60 31 63 32 74 33 90 34
REMARK SMILES IDX 61 35 62 36 73 38 91 39 64 40 51 41 52 42 57 43 53 44 54 45
REMARK SMILES IDX 56 46 58 47 55 48 77 49 78 50 83 51 79 52 80 53 82 54 84 55
REMARK SMILES IDX 81 56 65 57 66 58 71 59 67 60 68 61 70 62 72 63 69 64 9 65
REMARK SMILES IDX 10 66 11 67 12 68 13 69 14 70 15 71 16 72 20 73 17 74 19 75
REMARK SMILES IDX 18 76 21 77 22 78 23 79 24 81 25 82 41 83 26 84 40 85 27 86
REMARK SMILES IDX 28 87 29 88 38 89 30 90 31 91 37 92 39 93 32 94 35 95 33 96
REMARK SMILES IDX 36 97 34 98
REMARK H PARENT 89 26 63 37 23 80
REMARK Flexibility Score: inf
ROOT
ATOM      1  C   UNL A   1      40.731  20.839  26.344  1.00  0.00     0.188 C 
ENDROOT
BRANCH   1   2
ATOM      2  C   UNL A   1      42.061  21.573  26.369  1.00  0.00     0.188 C 
BRANCH   2   3
ATOM      3  O   UNL A   1      42.952  21.083  25.398  1.00  0.00    -0.376 OA
BRANCH   3   4
ATOM      4  C   UNL A   1      44.244  21.677  25.417  1.00  0.00     0.202 C 
BRANCH   4   5
ATOM      5  C   UNL A   1      44.480  22.791  24.369  1.00  0.00     0.261 C 
BRANCH   5   6
ATOM      6  O   UNL A   1      43.724  23.974  24.711  1.00  0.00    -0.460 OA
BRANCH   6   7
ATOM      7  C   UNL A   1      44.423  25.080  25.093  1.00  0.00     0.338 C 
ATOM      8  O   UNL A   1      45.587  25.333  24.834  1.00  0.00    -0.246 OA
BRANCH   7   9
ATOM      9  C   UNL A   1      43.615  25.830  26.095  1.00  0.00     0.060 A 
ATOM     10  C   UNL A   1      43.897  27.190  26.236  1.00  0.00     0.016 A 
ATOM     11  C   UNL A   1      42.525  25.281  26.786  1.00  0.00     0.016 A 
ATOM     12  C   UNL A   1      43.087  28.022  26.955  1.00  0.00     0.010 A 
ATOM     13  C   UNL A   1      41.809  26.089  27.690  1.00  0.00     0.010 A 
ATOM     14  C   UNL A   1      42.131  27.451  27.787  1.00  0.00    -0.014 A 
BRANCH  14  15
ATOM     15  C   UNL A   1      41.923  28.302  28.971  1.00  0.00     0.031 A 
ATOM     16  C   UNL A   1      40.660  29.133  28.936  1.00  0.00     0.074 A 
ATOM     17  C   UNL A   1      42.503  27.934  30.127  1.00  0.00     0.049 A 
ATOM     18  N   UNL A   1      39.997  29.684  29.913  1.00  0.00    -0.248 NA
ATOM     19  C   UNL A   1      39.979  29.232  27.627  1.00  0.00     0.031 C 
ATOM     20  C   UNL A   1      43.504  26.872  30.258  1.00  0.00     0.029 A 
ATOM     21  N   UNL A   1      42.261  28.327  31.411  1.00  0.00    -0.354 N 
ATOM     22  C   UNL A   1      38.822  30.160  29.340  1.00  0.00     0.074 A 
ATOM     23  C   UNL A   1      38.827  29.792  27.948  1.00  0.00     0.031 C 
ATOM     24  C   UNL A   1      43.789  26.698  31.559  1.00  0.00     0.029 A 
ATOM     25  C   UNL A   1      43.040  27.676  32.336  1.00  0.00     0.049 A 
ATOM     26  H   UNL A   1      41.593  29.009  31.651  1.00  0.00     0.167 HD
ATOM     27  C   UNL A   1      37.847  30.891  29.923  1.00  0.00     0.037 A 
ATOM     28  C   UNL A   1      43.151  27.899  33.658  1.00  0.00     0.037 A 
ATOM     29  C   UNL A   1      37.955  31.336  31.281  1.00  0.00     0.049 A 
ATOM     30  C   UNL A   1      42.233  28.942  34.239  1.00  0.00     0.074 A 
ATOM     31  C   UNL A   1      37.223  32.292  31.952  1.00  0.00     0.029 A 
ATOM     32  N   UNL A   1      38.915  30.854  32.165  1.00  0.00    -0.354 N 
ATOM     33  N   UNL A   1      41.218  29.549  33.665  1.00  0.00    -0.248 NA
ATOM     34  C   UNL A   1      42.482  29.356  35.622  1.00  0.00     0.031 C 
ATOM     35  C   UNL A   1      37.792  32.439  33.224  1.00  0.00     0.029 A 
ATOM     36  C   UNL A   1      38.829  31.526  33.365  1.00  0.00     0.049 A 
ATOM     37  H   UNL A   1      39.560  30.138  31.964  1.00  0.00     0.167 HD
ATOM     38  C   UNL A   1      40.701  30.415  34.615  1.00  0.00     0.074 A 
ATOM     39  C   UNL A   1      41.505  30.235  35.811  1.00  0.00     0.031 C 
ATOM     40  C   UNL A   1      39.667  31.290  34.517  1.00  0.00     0.037 A 
BRANCH  27  41
ATOM     41  C   UNL A   1      36.755  31.386  29.019  1.00  0.00     0.057 A 
ATOM     42  C   UNL A   1      36.693  32.709  28.564  1.00  0.00     0.134 A 
ATOM     43  C   UNL A   1      35.667  30.552  28.726  1.00  0.00     0.134 A 
ATOM     44  F   UNL A   1      37.675  33.577  28.852  1.00  0.00    -0.206 F 
ATOM     45  C   UNL A   1      35.576  33.191  27.872  1.00  0.00     0.040 A 
ATOM     46  C   UNL A   1      34.553  31.019  28.025  1.00  0.00     0.040 A 
ATOM     47  F   UNL A   1      35.647  29.283  29.161  1.00  0.00    -0.206 F 
ATOM     48  C   UNL A   1      34.500  32.345  27.605  1.00  0.00     0.006 A 
ENDBRANCH  27  41
BRANCH  28  49
ATOM     49  C   UNL A   1      44.228  27.246  34.452  1.00  0.00     0.057 A 
ATOM     50  C   UNL A   1      44.034  26.049  35.149  1.00  0.00     0.134 A 
ATOM     51  C   UNL A   1      45.495  27.844  34.565  1.00  0.00     0.134 A 
ATOM     52  F   UNL A   1      42.845  25.430  35.109  1.00  0.00    -0.206 F 
ATOM     53  C   UNL A   1      45.046  25.482  35.933  1.00  0.00     0.040 A 
ATOM     54  C   UNL A   1      46.523  27.275  35.320  1.00  0.00     0.040 A 
ATOM     55  F   UNL A   1      45.761  28.998  33.935  1.00  0.00    -0.206 F 
ATOM     56  C   UNL A   1      46.296  26.093  36.017  1.00  0.00     0.006 A 
ENDBRANCH  28  49
BRANCH  40  57
ATOM     57  C   UNL A   1      39.347  32.082  35.742  1.00  0.00     0.057 A 
ATOM     58  C   UNL A   1      39.894  33.350  35.959  1.00  0.00     0.134 A 
ATOM     59  C   UNL A   1      38.422  31.593  36.670  1.00  0.00     0.134 A 
ATOM     60  F   UNL A   1      40.793  33.861  35.103  1.00  0.00    -0.206 F 
ATOM     61  C   UNL A   1      39.540  34.106  37.075  1.00  0.00     0.040 A 
ATOM     62  C   UNL A   1      38.040  32.350  37.774  1.00  0.00     0.040 A 
ATOM     63  F   UNL A   1      37.858  30.388  36.502  1.00  0.00    -0.206 F 
ATOM     64  C   UNL A   1      38.604  33.609  37.981  1.00  0.00     0.006 A 
ENDBRANCH  40  57
ENDBRANCH  14  15
ENDBRANCH   7   9
ENDBRANCH   6   7
ENDBRANCH   5   6
ENDBRANCH   4   5
ENDBRANCH   3   4
ENDBRANCH   2   3
ENDBRANCH   1   2
BRANCH   1  65
ATOM     65  O   UNL A   1      39.626  21.699  26.679  1.00  0.00    -0.376 OA
BRANCH  65  66
ATOM     66  C   UNL A   1      38.542  21.822  25.726  1.00  0.00     0.202 C 
BRANCH  66  67
ATOM     67  C   UNL A   1      37.489  23.169  25.726  1.00  0.00     0.261 C 
BRANCH  67  68
ATOM     68  O   UNL A   1      36.040  23.624  24.402  1.00  0.00    -0.460 OA
BRANCH  68  69
ATOM     69  C   UNL A   1      35.027  24.004  23.527  1.00  0.00     0.339 C 
ATOM     70  O   UNL A   1      35.104  24.944  22.742  1.00  0.00    -0.246 OA
BRANCH  69  71
ATOM     71  C   UNL A   1      33.904  22.994  23.360  1.00  0.00     0.072 A 
ATOM     72  C   UNL A   1      33.354  23.015  22.049  1.00  0.00     0.016 A 
ATOM     73  C   UNL A   1      33.347  22.105  24.314  1.00  0.00     0.054 A 
ATOM     74  C   UNL A   1      32.234  22.260  21.695  1.00  0.00     0.001 A 
ATOM     75  C   UNL A   1      32.188  21.375  23.927  1.00  0.00     0.015 A 
ATOM     76  C   UNL A   1      31.628  21.464  22.650  1.00  0.00     0.001 A 
BRANCH  73  77
ATOM     77  C   UNL A   1      33.769  21.816  25.744  1.00  0.00     0.256 C 
ATOM     78  O   UNL A   1      34.586  20.918  25.960  1.00  0.00    -0.269 OA
ATOM     79  N   UNL A   1      33.270  22.489  26.833  1.00  0.00    -0.322 N 
ATOM     80  H   UNL A   1      33.326  22.049  27.713  1.00  0.00     0.170 HD
BRANCH  79  81
ATOM     81  C   UNL A   1      32.692  23.750  26.775  1.00  0.00     0.041 A 
ATOM     82  C   UNL A   1      33.814  25.117  26.402  1.00  0.00     0.028 A 
ATOM     83  C   UNL A   1      30.980  23.805  26.224  1.00  0.00     0.028 A 
ATOM     84  C   UNL A   1      33.215  26.458  25.329  1.00  0.00     0.029 A 
ATOM     85  C   UNL A   1      30.384  25.195  25.240  1.00  0.00     0.029 A 
ATOM     86  C   UNL A   1      31.468  26.555  24.815  1.00  0.00     0.052 A 
BRANCH  86  87
ATOM     87  N   UNL A   1      30.928  27.686  24.095  1.00  0.00    -0.250 N 
ATOM     88  C   UNL A   1      31.029  29.019  24.509  1.00  0.00     0.237 C 
ATOM     89  C   UNL A   1      30.537  27.735  22.752  1.00  0.00     0.237 C 
ATOM     90  O   UNL A   1      31.840  29.576  25.221  1.00  0.00    -0.274 OA
ATOM     91  C   UNL A   1      29.827  29.643  23.848  1.00  0.00     0.095 C 
ATOM     92  C   UNL A   1      30.037  29.094  22.474  1.00  0.00     0.095 C 
ATOM     93  O   UNL A   1      30.868  27.077  21.775  1.00  0.00    -0.274 OA
ATOM     94  C   UNL A   1      29.217  31.001  23.457  1.00  0.00     0.002 C 
ATOM     95  C   UNL A   1      28.835  29.623  21.702  1.00  0.00     0.002 C 
ATOM     96  C   UNL A   1      27.696  30.739  23.571  1.00  0.00     0.005 C 
ATOM     97  C   UNL A   1      29.240  31.095  21.893  1.00  0.00     0.009 C 
ATOM     98  C   UNL A   1      27.495  29.617  22.501  1.00  0.00     0.005 C 
ENDBRANCH  86  87
ENDBRANCH  79  81
ENDBRANCH  73  77
ENDBRANCH  69  71
ENDBRANCH  68  69
ENDBRANCH  67  68
ENDBRANCH  66  67
ENDBRANCH  65  66
ENDBRANCH   1  65
TORSDOF 20
ENDMDL
MODEL 2
REMARK VINA RESULT:     -11.8      5.444      7.598
REMARK SMILES O=C(OCCOCCOCCOC(=O)c1ccccc1C(=O)Nc1ccc(N2C(=O)[C@H]3[C@@H]4CC[C@@H](C4)[C@@H]3C2=O)cc1)c1ccc(-c2c3nc(c(-c4c(F)cccc4F)c4ccc([nH]4)c(-c4c(F)cccc4F)c4nc(c(-c5c(F)cccc5F)c5ccc2[nH]5)C=C4)C=C3)cc1
REMARK SMILES IDX 8 1 7 2 6 3 5 4 4 5 3 6 2 7 1 8 42 9 43 10 95 11 44 12 94 13
REMARK SMILES IDX 45 14 46 15 47 16 88 17 48 18 93 19 87 20 89 21 49 22 92 23
REMARK SMILES IDX 86 24 85 25 50 27 76 28 59 29 75 30 60 31 63 32 74 33 90 34
REMARK SMILES IDX 61 35 62 36 73 38 91 39 64 40 51 41 52 42 57 43 53 44 54 45
REMARK SMILES IDX 56 46 58 47 55 48 77 49 78 50 83 51 79 52 80 53 82 54 84 55
REMARK SMILES IDX 81 56 65 57 66 58 71 59 67 60 68 61 70 62 72 63 69 64 9 65
REMARK SMILES IDX 10 66 11 67 12 68 13 69 14 70 15 71 16 72 20 73 17 74 19 75
REMARK SMILES IDX 18 76 21 77 22 78 23 79 24 81 25 82 41 83 26 84 40 85 27 86
REMARK SMILES IDX 28 87 29 88 38 89 30 90 31 91 37 92 39 93 32 94 35 95 33 96
REMARK SMILES IDX 36 97 34 98
REMARK H PARENT 89 26 63 37 23 80
REMARK Flexibility Score: inf
ROOT
ATOM      1  C   UNL A   1      41.654  23.137  26.678  1.00  0.00     0.188 C 
ENDROOT
BRANCH   1   2
ATOM      2  C   UNL A   1      42.890  22.492  27.281  1.00  0.00     0.188 C 
BRANCH   2   3
ATOM      3  O   UNL A   1      43.637  21.783  26.325  1.00  0.00    -0.376 OA
BRANCH   3   4
ATOM      4  C   UNL A   1      44.409  22.592  25.447  1.00  0.00     0.202 C 
BRANCH   4   5
ATOM      5  C   UNL A   1      45.943  22.488  25.622  1.00  0.00     0.261 C 
BRANCH   5   6
ATOM      6  O   UNL A   1      46.469  23.709  26.189  1.00  0.00    -0.460 OA
BRANCH   6   7
ATOM      7  C   UNL A   1      46.371  24.844  25.441  1.00  0.00     0.338 C 
ATOM      8  O   UNL A   1      46.752  24.997  24.294  1.00  0.00    -0.246 OA
BRANCH   7   9
ATOM      9  C   UNL A   1      45.944  25.962  26.328  1.00  0.00     0.060 A 
ATOM     10  C   UNL A   1      46.957  26.673  26.973  1.00  0.00     0.016 A 
ATOM     11  C   UNL A   1      44.618  26.408  26.437  1.00  0.00     0.016 A 
ATOM     12  C   UNL A   1      46.708  27.843  27.632  1.00  0.00     0.010 A 
ATOM     13  C   UNL A   1      44.328  27.495  27.282  1.00  0.00     0.010 A 
ATOM     14  C   UNL A   1      45.386  28.177  27.901  1.00  0.00    -0.014 A 
BRANCH  14  15
ATOM     15  C   UNL A   1      45.305  28.923  29.169  1.00  0.00     0.031 A 
ATOM     16  C   UNL A   1      44.964  30.389  29.017  1.00  0.00     0.074 A 
ATOM     17  C   UNL A   1      45.025  28.239  30.291  1.00  0.00     0.049 A 
ATOM     18  N   UNL A   1      44.468  31.224  29.885  1.00  0.00    -0.248 NA
ATOM     19  C   UNL A   1      45.070  30.946  27.651  1.00  0.00     0.031 C 
ATOM     20  C   UNL A   1      45.006  26.777  30.395  1.00  0.00     0.029 A 
ATOM     21  N   UNL A   1      44.599  28.667  31.515  1.00  0.00    -0.354 N 
ATOM     22  C   UNL A   1      44.180  32.378  29.164  1.00  0.00     0.074 A 
ATOM     23  C   UNL A   1      44.500  32.130  27.783  1.00  0.00     0.031 C 
ATOM     24  C   UNL A   1      44.586  26.431  31.624  1.00  0.00     0.029 A 
ATOM     25  C   UNL A   1      44.371  27.643  32.402  1.00  0.00     0.049 A 
ATOM     26  H   UNL A   1      44.468  29.617  31.740  1.00  0.00     0.167 HD
ATOM     27  C   UNL A   1      43.734  33.564  29.634  1.00  0.00     0.037 A 
ATOM     28  C   UNL A   1      44.069  27.708  33.711  1.00  0.00     0.037 A 
ATOM     29  C   UNL A   1      43.552  33.794  31.036  1.00  0.00     0.049 A 
ATOM     30  C   UNL A   1      43.855  29.086  34.280  1.00  0.00     0.074 A 
ATOM     31  C   UNL A   1      43.377  34.981  31.716  1.00  0.00     0.029 A 
ATOM     32  N   UNL A   1      43.568  32.774  31.982  1.00  0.00    -0.354 N 
ATOM     33  N   UNL A   1      43.757  30.229  33.639  1.00  0.00    -0.248 NA
ATOM     34  C   UNL A   1      43.741  29.198  35.736  1.00  0.00     0.031 C 
ATOM     35  C   UNL A   1      43.361  34.681  33.085  1.00  0.00     0.029 A 
ATOM     36  C   UNL A   1      43.454  33.305  33.249  1.00  0.00     0.049 A 
ATOM     37  H   UNL A   1      43.648  31.814  31.777  1.00  0.00     0.167 HD
ATOM     38  C   UNL A   1      43.565  31.200  34.610  1.00  0.00     0.074 A 
ATOM     39  C   UNL A   1      43.538  30.501  35.883  1.00  0.00     0.031 C 
ATOM     40  C   UNL A   1      43.433  32.544  34.475  1.00  0.00     0.037 A 
BRANCH  27  41
ATOM     41  C   UNL A   1      43.644  34.683  28.637  1.00  0.00     0.057 A 
ATOM     42  C   UNL A   1      44.773  35.340  28.133  1.00  0.00     0.134 A 
ATOM     43  C   UNL A   1      42.389  35.206  28.294  1.00  0.00     0.134 A 
ATOM     44  F   UNL A   1      46.007  34.926  28.462  1.00  0.00    -0.206 F 
ATOM     45  C   UNL A   1      44.658  36.492  27.346  1.00  0.00     0.040 A 
ATOM     46  C   UNL A   1      42.261  36.347  27.499  1.00  0.00     0.040 A 
ATOM     47  F   UNL A   1      41.267  34.645  28.769  1.00  0.00    -0.206 F 
ATOM     48  C   UNL A   1      43.399  37.000  27.031  1.00  0.00     0.006 A 
ENDBRANCH  27  41
BRANCH  28  49
ATOM     49  C   UNL A   1      44.095  26.484  34.560  1.00  0.00     0.057 A 
ATOM     50  C   UNL A   1      45.283  25.909  35.021  1.00  0.00     0.134 A 
ATOM     51  C   UNL A   1      42.901  25.826  34.901  1.00  0.00     0.134 A 
ATOM     52  F   UNL A   1      46.466  26.466  34.718  1.00  0.00    -0.206 F 
ATOM     53  C   UNL A   1      45.286  24.728  35.773  1.00  0.00     0.040 A 
ATOM     54  C   UNL A   1      42.885  24.664  35.674  1.00  0.00     0.040 A 
ATOM     55  F   UNL A   1      41.718  26.309  34.490  1.00  0.00    -0.206 F 
ATOM     56  C   UNL A   1      44.084  24.105  36.104  1.00  0.00     0.006 A 
ENDBRANCH  28  49
BRANCH  40  57
ATOM     57  C   UNL A   1      43.223  33.321  35.733  1.00  0.00     0.057 A 
ATOM     58  C   UNL A   1      44.296  33.850  36.457  1.00  0.00     0.134 A 
ATOM     59  C   UNL A   1      41.926  33.602  36.175  1.00  0.00     0.134 A 
ATOM     60  F   UNL A   1      45.561  33.603  36.079  1.00  0.00    -0.206 F 
ATOM     61  C   UNL A   1      44.085  34.626  37.595  1.00  0.00     0.040 A 
ATOM     62  C   UNL A   1      41.702  34.398  37.295  1.00  0.00     0.040 A 
ATOM     63  F   UNL A   1      40.861  33.129  35.510  1.00  0.00    -0.206 F 
ATOM     64  C   UNL A   1      42.785  34.908  38.010  1.00  0.00     0.006 A 
ENDBRANCH  40  57
ENDBRANCH  14  15
ENDBRANCH   7   9
ENDBRANCH   6   7
ENDBRANCH   5   6
ENDBRANCH   4   5
ENDBRANCH   3   4
ENDBRANCH   2   3
ENDBRANCH   1   2
BRANCH   1  65
ATOM     65  O   UNL A   1      41.716  24.574  26.708  1.00  0.00    -0.376 OA
BRANCH  65  66
ATOM     66  C   UNL A   1      40.481  25.308  26.891  1.00  0.00     0.202 C 
BRANCH  66  67
ATOM     67  C   UNL A   1      39.494  25.086  28.270  1.00  0.00     0.261 C 
BRANCH  67  68
ATOM     68  O   UNL A   1      39.035  26.421  29.708  1.00  0.00    -0.460 OA
BRANCH  68  69
ATOM     69  C   UNL A   1      38.663  27.372  30.653  1.00  0.00     0.339 C 
ATOM     70  O   UNL A   1      38.626  27.171  31.863  1.00  0.00    -0.246 OA
BRANCH  69  71
ATOM     71  C   UNL A   1      38.596  28.802  30.140  1.00  0.00     0.072 A 
ATOM     72  C   UNL A   1      37.422  29.042  29.375  1.00  0.00     0.016 A 
ATOM     73  C   UNL A   1      39.529  29.856  30.300  1.00  0.00     0.054 A 
ATOM     74  C   UNL A   1      37.202  30.247  28.703  1.00  0.00     0.001 A 
ATOM     75  C   UNL A   1      39.287  31.057  29.576  1.00  0.00     0.015 A 
ATOM     76  C   UNL A   1      38.157  31.244  28.776  1.00  0.00     0.001 A 
BRANCH  73  77
ATOM     77  C   UNL A   1      40.813  29.913  31.110  1.00  0.00     0.256 C 
ATOM     78  O   UNL A   1      41.853  29.463  30.623  1.00  0.00    -0.269 OA
ATOM     79  N   UNL A   1      40.884  30.423  32.385  1.00  0.00    -0.322 N 
ATOM     80  H   UNL A   1      41.634  30.136  32.955  1.00  0.00     0.170 HD
BRANCH  79  81
ATOM     81  C   UNL A   1      39.966  31.316  32.921  1.00  0.00     0.041 A 
ATOM     82  C   UNL A   1      40.033  33.002  32.272  1.00  0.00     0.028 A 
ATOM     83  C   UNL A   1      38.399  30.609  33.452  1.00  0.00     0.028 A 
ATOM     84  C   UNL A   1      38.467  33.894  32.024  1.00  0.00     0.029 A 
ATOM     85  C   UNL A   1      36.871  31.553  33.282  1.00  0.00     0.029 A 
ATOM     86  C   UNL A   1      36.881  33.213  32.612  1.00  0.00     0.052 A 
BRANCH  86  87
ATOM     87  N   UNL A   1      35.646  33.963  32.570  1.00  0.00    -0.250 N 
ATOM     88  C   UNL A   1      34.640  33.790  31.612  1.00  0.00     0.237 C 
ATOM     89  C   UNL A   1      35.064  34.707  33.602  1.00  0.00     0.237 C 
ATOM     90  O   UNL A   1      34.341  32.832  30.929  1.00  0.00    -0.274 OA
ATOM     91  C   UNL A   1      33.979  35.145  31.607  1.00  0.00     0.095 C 
ATOM     92  C   UNL A   1      33.819  35.304  33.085  1.00  0.00     0.095 C 
ATOM     93  O   UNL A   1      35.158  34.637  34.820  1.00  0.00    -0.274 OA
ATOM     94  C   UNL A   1      32.701  35.878  31.163  1.00  0.00     0.002 C 
ATOM     95  C   UNL A   1      33.193  36.686  33.219  1.00  0.00     0.002 C 
ATOM     96  C   UNL A   1      33.217  37.302  30.841  1.00  0.00     0.005 C 
ATOM     97  C   UNL A   1      31.918  36.288  32.456  1.00  0.00     0.009 C 
ATOM     98  C   UNL A   1      33.760  37.755  32.235  1.00  0.00     0.005 C 
ENDBRANCH  86  87
ENDBRANCH  79  81
ENDBRANCH  73  77
ENDBRANCH  69  71
ENDBRANCH  68  69
ENDBRANCH  67  68
ENDBRANCH  66  67
ENDBRANCH  65  66
ENDBRANCH   1  65
TORSDOF 20
ENDMDL
MODEL 3
REMARK VINA RESULT:     -11.8      1.417      5.931
REMARK SMILES O=C(OCCOCCOCCOC(=O)c1ccccc1C(=O)Nc1ccc(N2C(=O)[C@H]3[C@@H]4CC[C@@H](C4)[C@@H]3C2=O)cc1)c1ccc(-c2c3nc(c(-c4c(F)cccc4F)c4ccc([nH]4)c(-c4c(F)cccc4F)c4nc(c(-c5c(F)cccc5F)c5ccc2[nH]5)C=C4)C=C3)cc1
REMARK SMILES IDX 8 1 7 2 6 3 5 4 4 5 3 6 2 7 1 8 42 9 43 10 95 11 44 12 94 13
REMARK SMILES IDX 45 14 46 15 47 16 88 17 48 18 93 19 87 20 89 21 49 22 92 23
REMARK SMILES IDX 86 24 85 25 50 27 76 28 59 29 75 30 60 31 63 32 74 33 90 34
REMARK SMILES IDX 61 35 62 36 73 38 91 39 64 40 51 41 52 42 57 43 53 44 54 45
REMARK SMILES IDX 56 46 58 47 55 48 77 49 78 50 83 51 79 52 80 53 82 54 84 55
REMARK SMILES IDX 81 56 65 57 66 58 71 59 67 60 68 61 70 62 72 63 69 64 9 65
REMARK SMILES IDX 10 66 11 67 12 68 13 69 14 70 15 71 16 72 20 73 17 74 19 75
REMARK SMILES IDX 18 76 21 77 22 78 23 79 24 81 25 82 41 83 26 84 40 85 27 86
REMARK SMILES IDX 28 87 29 88 38 89 30 90 31 91 37 92 39 93 32 94 35 95 33 96
REMARK SMILES IDX 36 97 34 98
REMARK H PARENT 89 26 63 37 23 80
REMARK Flexibility Score: inf
ROOT
ATOM      1  C   UNL A   1      40.518  21.355  26.892  1.00  0.00     0.188 C 
ENDROOT
BRANCH   1   2
ATOM      2  C   UNL A   1      41.563  22.432  26.653  1.00  0.00     0.188 C 
BRANCH   2   3
ATOM      3  O   UNL A   1      42.292  22.207  25.471  1.00  0.00    -0.376 OA
BRANCH   3   4
ATOM      4  C   UNL A   1      43.670  22.550  25.543  1.00  0.00     0.202 C 
BRANCH   4   5
ATOM      5  C   UNL A   1      44.116  23.712  24.624  1.00  0.00     0.261 C 
BRANCH   5   6
ATOM      6  O   UNL A   1      43.692  24.980  25.173  1.00  0.00    -0.460 OA
BRANCH   6   7
ATOM      7  C   UNL A   1      44.646  25.936  25.361  1.00  0.00     0.338 C 
ATOM      8  O   UNL A   1      45.713  26.025  24.779  1.00  0.00    -0.246 OA
BRANCH   7   9
ATOM      9  C   UNL A   1      44.293  26.727  26.573  1.00  0.00     0.060 A 
ATOM     10  C   UNL A   1      43.909  26.004  27.704  1.00  0.00     0.016 A 
ATOM     11  C   UNL A   1      44.455  28.117  26.671  1.00  0.00     0.016 A 
ATOM     12  C   UNL A   1      43.775  26.598  28.926  1.00  0.00     0.010 A 
ATOM     13  C   UNL A   1      44.120  28.763  27.875  1.00  0.00     0.010 A 
ATOM     14  C   UNL A   1      43.745  27.987  28.982  1.00  0.00    -0.014 A 
BRANCH  14  15
ATOM     15  C   UNL A   1      42.875  28.426  30.087  1.00  0.00     0.031 A 
ATOM     16  C   UNL A   1      43.603  28.750  31.372  1.00  0.00     0.074 A 
ATOM     17  C   UNL A   1      41.690  28.981  29.780  1.00  0.00     0.049 A 
ATOM     18  N   UNL A   1      43.228  29.483  32.381  1.00  0.00    -0.248 NA
ATOM     19  C   UNL A   1      45.008  28.294  31.460  1.00  0.00     0.031 C 
ATOM     20  C   UNL A   1      41.095  28.991  28.440  1.00  0.00     0.029 A 
ATOM     21  N   UNL A   1      40.834  29.732  30.532  1.00  0.00    -0.354 N 
ATOM     22  C   UNL A   1      44.351  29.595  33.195  1.00  0.00     0.074 A 
ATOM     23  C   UNL A   1      45.438  28.908  32.547  1.00  0.00     0.031 C 
ATOM     24  C   UNL A   1      39.965  29.717  28.469  1.00  0.00     0.029 A 
ATOM     25  C   UNL A   1      39.732  30.164  29.835  1.00  0.00     0.049 A 
ATOM     26  H   UNL A   1      40.992  29.943  31.480  1.00  0.00     0.167 HD
ATOM     27  C   UNL A   1      44.446  30.181  34.408  1.00  0.00     0.037 A 
ATOM     28  C   UNL A   1      38.643  30.810  30.289  1.00  0.00     0.037 A 
ATOM     29  C   UNL A   1      43.300  30.741  35.061  1.00  0.00     0.049 A 
ATOM     30  C   UNL A   1      38.657  31.205  31.742  1.00  0.00     0.074 A 
ATOM     31  C   UNL A   1      43.138  31.123  36.376  1.00  0.00     0.029 A 
ATOM     32  N   UNL A   1      42.086  30.955  34.416  1.00  0.00    -0.354 N 
ATOM     33  N   UNL A   1      39.657  31.155  32.594  1.00  0.00    -0.248 NA
ATOM     34  C   UNL A   1      37.405  31.711  32.310  1.00  0.00     0.031 C 
ATOM     35  C   UNL A   1      41.798  31.500  36.541  1.00  0.00     0.029 A 
ATOM     36  C   UNL A   1      41.150  31.420  35.315  1.00  0.00     0.049 A 
ATOM     37  H   UNL A   1      41.919  30.798  33.458  1.00  0.00     0.167 HD
ATOM     38  C   UNL A   1      39.162  31.626  33.798  1.00  0.00     0.074 A 
ATOM     39  C   UNL A   1      37.773  31.978  33.557  1.00  0.00     0.031 C 
ATOM     40  C   UNL A   1      39.781  31.752  35.000  1.00  0.00     0.037 A 
BRANCH  27  41
ATOM     41  C   UNL A   1      45.758  30.028  35.121  1.00  0.00     0.057 A 
ATOM     42  C   UNL A   1      46.817  30.929  34.958  1.00  0.00     0.134 A 
ATOM     43  C   UNL A   1      46.009  28.868  35.868  1.00  0.00     0.134 A 
ATOM     44  F   UNL A   1      46.663  32.035  34.212  1.00  0.00    -0.206 F 
ATOM     45  C   UNL A   1      48.085  30.670  35.490  1.00  0.00     0.040 A 
ATOM     46  C   UNL A   1      47.267  28.605  36.415  1.00  0.00     0.040 A 
ATOM     47  F   UNL A   1      45.048  27.947  36.035  1.00  0.00    -0.206 F 
ATOM     48  C   UNL A   1      48.313  29.503  36.217  1.00  0.00     0.006 A 
ENDBRANCH  27  41
BRANCH  28  49
ATOM     49  C   UNL A   1      37.444  30.983  29.422  1.00  0.00     0.057 A 
ATOM     50  C   UNL A   1      36.580  29.930  29.108  1.00  0.00     0.134 A 
ATOM     51  C   UNL A   1      37.156  32.231  28.843  1.00  0.00     0.134 A 
ATOM     52  F   UNL A   1      36.801  28.703  29.603  1.00  0.00    -0.206 F 
ATOM     53  C   UNL A   1      35.490  30.104  28.247  1.00  0.00     0.040 A 
ATOM     54  C   UNL A   1      36.056  32.427  28.005  1.00  0.00     0.040 A 
ATOM     55  F   UNL A   1      37.942  33.291  29.087  1.00  0.00    -0.206 F 
ATOM     56  C   UNL A   1      35.223  31.357  27.697  1.00  0.00     0.006 A 
ENDBRANCH  28  49
BRANCH  40  57
ATOM     57  C   UNL A   1      38.962  32.312  36.116  1.00  0.00     0.057 A 
ATOM     58  C   UNL A   1      38.154  31.498  36.914  1.00  0.00     0.134 A 
ATOM     59  C   UNL A   1      39.050  33.672  36.434  1.00  0.00     0.134 A 
ATOM     60  F   UNL A   1      38.029  30.189  36.646  1.00  0.00    -0.206 F 
ATOM     61  C   UNL A   1      37.442  32.023  37.991  1.00  0.00     0.040 A 
ATOM     62  C   UNL A   1      38.365  34.203  37.523  1.00  0.00     0.040 A 
ATOM     63  F   UNL A   1      39.821  34.495  35.707  1.00  0.00    -0.206 F 
ATOM     64  C   UNL A   1      37.555  33.377  38.302  1.00  0.00     0.006 A 
ENDBRANCH  40  57
ENDBRANCH  14  15
ENDBRANCH   7   9
ENDBRANCH   6   7
ENDBRANCH   5   6
ENDBRANCH   4   5
ENDBRANCH   3   4
ENDBRANCH   2   3
ENDBRANCH   1   2
BRANCH   1  65
ATOM     65  O   UNL A   1      39.177  21.841  26.696  1.00  0.00    -0.376 OA
BRANCH  65  66
ATOM     66  C   UNL A   1      38.809  22.319  25.379  1.00  0.00     0.202 C 
BRANCH  66  67
ATOM     67  C   UNL A   1      37.419  23.283  25.125  1.00  0.00     0.261 C 
BRANCH  67  68
ATOM     68  O   UNL A   1      35.627  22.726  24.394  1.00  0.00    -0.460 OA
BRANCH  68  69
ATOM     69  C   UNL A   1      34.414  22.360  23.818  1.00  0.00     0.339 C 
ATOM     70  O   UNL A   1      34.014  22.762  22.729  1.00  0.00    -0.246 OA
BRANCH  69  71
ATOM     71  C   UNL A   1      33.723  21.171  24.465  1.00  0.00     0.072 A 
ATOM     72  C   UNL A   1      33.464  20.129  23.533  1.00  0.00     0.016 A 
ATOM     73  C   UNL A   1      33.301  21.000  25.807  1.00  0.00     0.054 A 
ATOM     74  C   UNL A   1      32.732  18.989  23.871  1.00  0.00     0.001 A 
ATOM     75  C   UNL A   1      32.532  19.841  26.107  1.00  0.00     0.015 A 
ATOM     76  C   UNL A   1      32.233  18.863  25.154  1.00  0.00     0.001 A 
BRANCH  73  77
ATOM     77  C   UNL A   1      33.503  21.895  27.018  1.00  0.00     0.256 C 
ATOM     78  O   UNL A   1      34.102  21.452  28.000  1.00  0.00    -0.269 OA
ATOM     79  N   UNL A   1      33.033  23.184  27.096  1.00  0.00    -0.322 N 
ATOM     80  H   UNL A   1      32.908  23.576  27.991  1.00  0.00     0.170 HD
BRANCH  79  81
ATOM     81  C   UNL A   1      32.722  23.970  25.995  1.00  0.00     0.041 A 
ATOM     82  C   UNL A   1      30.986  23.968  25.488  1.00  0.00     0.028 A 
ATOM     83  C   UNL A   1      33.731  25.441  25.768  1.00  0.00     0.028 A 
ATOM     84  C   UNL A   1      30.257  25.527  24.899  1.00  0.00     0.029 A 
ATOM     85  C   UNL A   1      33.005  26.949  25.092  1.00  0.00     0.029 A 
ATOM     86  C   UNL A   1      31.282  27.006  24.609  1.00  0.00     0.052 A 
BRANCH  86  87
ATOM     87  N   UNL A   1      30.763  28.209  23.997  1.00  0.00    -0.250 N 
ATOM     88  C   UNL A   1      30.915  29.499  24.517  1.00  0.00     0.237 C 
ATOM     89  C   UNL A   1      30.347  28.380  22.673  1.00  0.00     0.237 C 
ATOM     90  O   UNL A   1      31.757  29.971  25.253  1.00  0.00    -0.274 OA
ATOM     91  C   UNL A   1      29.720  30.211  23.938  1.00  0.00     0.095 C 
ATOM     92  C   UNL A   1      29.884  29.771  22.519  1.00  0.00     0.095 C 
ATOM     93  O   UNL A   1      30.637  27.796  21.637  1.00  0.00    -0.274 OA
ATOM     94  C   UNL A   1      29.145  31.614  23.673  1.00  0.00     0.002 C 
ATOM     95  C   UNL A   1      28.683  30.398  21.821  1.00  0.00     0.002 C 
ATOM     96  C   UNL A   1      27.618  31.388  23.801  1.00  0.00     0.005 C 
ATOM     97  C   UNL A   1      29.138  31.837  22.123  1.00  0.00     0.009 C 
ATOM     98  C   UNL A   1      27.360  30.366  22.647  1.00  0.00     0.005 C 
ENDBRANCH  86  87
ENDBRANCH  79  81
ENDBRANCH  73  77
ENDBRANCH  69  71
ENDBRANCH  68  69
ENDBRANCH  67  68
ENDBRANCH  66  67
ENDBRANCH  65  66
ENDBRANCH   1  65
TORSDOF 20
ENDMDL
