MODEL 1
REMARK VINA RESULT:     -10.4      0.000      0.000
REMARK SMILES C[C@@H](C(=O)OCCOCCOCCOC(=O)c1ccc(-c2c3nc(c(-c4c(F)cccc4F)c4ccc([nH]4)c(-c4c(F)cccc4F)c4nc(c(-c5c(F)cccc5F)c5ccc2[nH]5)C=C4)C=C3)cc1)c1ccc(C[C@@H]2CCC[C@@H]2O)cc1Br
REMARK SMILES IDX 9 1 8 2 7 3 6 4 5 5 3 6 4 7 2 8 1 9 71 10 72 11 83 12 73 13
REMARK SMILES IDX 82 14 84 15 74 16 75 17 76 18 77 19 80 20 78 21 79 22 81 23
REMARK SMILES IDX 10 25 11 26 12 27 13 28 14 29 15 30 16 31 17 32 18 33 70 34
REMARK SMILES IDX 19 35 69 36 20 37 21 38 22 39 63 40 23 41 68 42 62 43 64 44
REMARK SMILES IDX 24 45 67 46 61 47 60 48 25 50 51 51 34 52 50 53 35 54 38 55
REMARK SMILES IDX 49 56 65 57 36 58 37 59 48 61 66 62 39 63 26 64 27 65 32 66
REMARK SMILES IDX 28 67 29 68 31 69 33 70 30 71 52 72 53 73 58 74 54 75 55 76
REMARK SMILES IDX 57 77 59 78 56 79 40 80 41 81 46 82 42 83 43 84 45 85 47 86
REMARK SMILES IDX 44 87
REMARK H PARENT 81 24 64 49 38 60
REMARK Flexibility Score: inf
ROOT
ATOM      1  C   UNL A   1      34.507  31.833  28.585  1.00  0.00     0.188 C 
ENDROOT
BRANCH   1   2
ATOM      2  O   UNL A   1      33.704  31.680  27.422  1.00  0.00    -0.376 OA
BRANCH   2   3
ATOM      3  C   UNL A   1      33.118  30.393  27.249  1.00  0.00     0.202 C 
BRANCH   3   4
ATOM      4  C   UNL A   1      32.606  30.116  25.836  1.00  0.00     0.261 C 
BRANCH   4   5
ATOM      5  O   UNL A   1      31.595  29.089  25.841  1.00  0.00    -0.463 OA
BRANCH   5   6
ATOM      6  C   UNL A   1      30.912  28.818  24.706  1.00  0.00     0.313 C 
ATOM      7  O   UNL A   1      30.225  29.634  24.102  1.00  0.00    -0.252 OA
BRANCH   6   8
ATOM      8  C   UNL A   1      31.024  27.345  24.321  1.00  0.00     0.127 C 
ATOM      9  C   UNL A   1      29.726  26.626  24.765  1.00  0.00     0.025 C 
BRANCH   8  10
ATOM     10  C   UNL A   1      32.312  26.548  24.620  1.00  0.00    -0.020 A 
ATOM     11  C   UNL A   1      32.343  25.828  25.845  1.00  0.00     0.006 A 
ATOM     12  C   UNL A   1      33.391  26.303  23.753  1.00  0.00     0.022 A 
ATOM     13  C   UNL A   1      33.342  24.896  26.169  1.00  0.00     0.004 A 
ATOM     14  C   UNL A   1      34.406  25.376  24.095  1.00  0.00     0.019 A 
ATOM     15  Br  UNL A   1      33.606  27.084  22.034  1.00  0.00    -0.050 Br
ATOM     16  C   UNL A   1      34.380  24.637  25.288  1.00  0.00    -0.047 A 
BRANCH  16  17
ATOM     17  C   UNL A   1      35.364  23.506  25.515  1.00  0.00     0.041 C 
BRANCH  17  18
ATOM     18  C   UNL A   1      35.080  22.065  25.026  1.00  0.00     0.022 C 
ATOM     19  C   UNL A   1      34.134  21.933  23.831  1.00  0.00     0.007 C 
ATOM     20  C   UNL A   1      34.492  21.110  26.055  1.00  0.00     0.117 C 
ATOM     21  C   UNL A   1      32.803  21.404  24.369  1.00  0.00     0.003 C 
ATOM     22  C   UNL A   1      32.988  21.220  25.864  1.00  0.00     0.032 C 
BRANCH  20  23
ATOM     23  O   UNL A   1      34.882  21.468  27.358  1.00  0.00    -0.393 OA
ATOM     24  H   UNL A   1      35.094  20.667  27.863  1.00  0.00     0.210 HD
ENDBRANCH  20  23
ENDBRANCH  17  18
ENDBRANCH  16  17
ENDBRANCH   8  10
ENDBRANCH   6   8
ENDBRANCH   5   6
ENDBRANCH   4   5
ENDBRANCH   3   4
ENDBRANCH   2   3
ENDBRANCH   1   2
BRANCH   1  25
ATOM     25  C   UNL A   1      34.660  33.292  29.072  1.00  0.00     0.188 C 
BRANCH  25  26
ATOM     26  O   UNL A   1      33.886  33.740  30.175  1.00  0.00    -0.376 OA
BRANCH  26  27
ATOM     27  C   UNL A   1      34.598  34.221  31.312  1.00  0.00     0.202 C 
BRANCH  27  28
ATOM     28  C   UNL A   1      34.608  33.347  32.576  1.00  0.00     0.261 C 
BRANCH  28  29
ATOM     29  O   UNL A   1      35.237  32.061  32.389  1.00  0.00    -0.460 OA
BRANCH  29  30
ATOM     30  C   UNL A   1      36.385  31.852  33.069  1.00  0.00     0.338 C 
ATOM     31  O   UNL A   1      36.633  32.174  34.231  1.00  0.00    -0.246 OA
BRANCH  30  32
ATOM     32  C   UNL A   1      37.343  31.089  32.249  1.00  0.00     0.060 A 
ATOM     33  C   UNL A   1      38.407  30.430  32.865  1.00  0.00     0.016 A 
ATOM     34  C   UNL A   1      37.275  31.136  30.855  1.00  0.00     0.016 A 
ATOM     35  C   UNL A   1      39.387  29.812  32.096  1.00  0.00     0.010 A 
ATOM     36  C   UNL A   1      38.296  30.551  30.083  1.00  0.00     0.010 A 
ATOM     37  C   UNL A   1      39.385  29.916  30.702  1.00  0.00    -0.014 A 
BRANCH  37  38
ATOM     38  C   UNL A   1      40.638  29.579  29.965  1.00  0.00     0.031 A 
ATOM     39  C   UNL A   1      40.706  28.264  29.226  1.00  0.00     0.074 A 
ATOM     40  C   UNL A   1      41.623  30.479  29.774  1.00  0.00     0.049 A 
ATOM     41  N   UNL A   1      41.683  27.754  28.519  1.00  0.00    -0.248 NA
ATOM     42  C   UNL A   1      39.504  27.414  29.281  1.00  0.00     0.031 C 
ATOM     43  C   UNL A   1      41.614  31.856  30.266  1.00  0.00     0.029 A 
ATOM     44  N   UNL A   1      42.768  30.406  29.010  1.00  0.00    -0.354 N 
ATOM     45  C   UNL A   1      41.255  26.487  28.138  1.00  0.00     0.074 A 
ATOM     46  C   UNL A   1      39.904  26.331  28.629  1.00  0.00     0.031 C 
ATOM     47  C   UNL A   1      42.636  32.526  29.701  1.00  0.00     0.029 A 
ATOM     48  C   UNL A   1      43.420  31.610  28.873  1.00  0.00     0.049 A 
ATOM     49  H   UNL A   1      43.088  29.570  28.601  1.00  0.00     0.167 HD
ATOM     50  C   UNL A   1      41.940  25.525  27.476  1.00  0.00     0.037 A 
ATOM     51  C   UNL A   1      44.504  31.936  28.138  1.00  0.00     0.037 A 
ATOM     52  C   UNL A   1      43.256  25.694  26.923  1.00  0.00     0.049 A 
ATOM     53  C   UNL A   1      45.255  30.854  27.403  1.00  0.00     0.074 A 
ATOM     54  C   UNL A   1      44.057  24.756  26.296  1.00  0.00     0.029 A 
ATOM     55  N   UNL A   1      43.953  26.890  26.905  1.00  0.00    -0.354 N 
ATOM     56  N   UNL A   1      44.908  29.612  27.169  1.00  0.00    -0.248 NA
ATOM     57  C   UNL A   1      46.579  31.216  26.871  1.00  0.00     0.031 C 
ATOM     58  C   UNL A   1      45.257  25.377  25.932  1.00  0.00     0.029 A 
ATOM     59  C   UNL A   1      45.181  26.712  26.291  1.00  0.00     0.049 A 
ATOM     60  H   UNL A   1      43.623  27.742  27.275  1.00  0.00     0.167 HD
ATOM     61  C   UNL A   1      45.979  29.042  26.486  1.00  0.00     0.074 A 
ATOM     62  C   UNL A   1      46.956  30.089  26.284  1.00  0.00     0.031 C 
ATOM     63  C   UNL A   1      46.151  27.755  26.094  1.00  0.00     0.037 A 
BRANCH  50  64
ATOM     64  C   UNL A   1      41.323  24.160  27.411  1.00  0.00     0.057 A 
ATOM     65  C   UNL A   1      41.749  23.093  28.207  1.00  0.00     0.134 A 
ATOM     66  C   UNL A   1      40.245  23.934  26.543  1.00  0.00     0.134 A 
ATOM     67  F   UNL A   1      42.790  23.240  29.041  1.00  0.00    -0.206 F 
ATOM     68  C   UNL A   1      41.130  21.843  28.134  1.00  0.00     0.040 A 
ATOM     69  C   UNL A   1      39.603  22.699  26.480  1.00  0.00     0.040 A 
ATOM     70  F   UNL A   1      39.788  24.919  25.755  1.00  0.00    -0.206 F 
ATOM     71  C   UNL A   1      40.049  21.646  27.275  1.00  0.00     0.006 A 
ENDBRANCH  50  64
BRANCH  51  72
ATOM     72  C   UNL A   1      44.975  33.345  28.040  1.00  0.00     0.057 A 
ATOM     73  C   UNL A   1      44.568  34.157  26.971  1.00  0.00     0.134 A 
ATOM     74  C   UNL A   1      45.879  33.897  28.953  1.00  0.00     0.134 A 
ATOM     75  F   UNL A   1      43.725  33.678  26.044  1.00  0.00    -0.206 F 
ATOM     76  C   UNL A   1      45.056  35.454  26.805  1.00  0.00     0.040 A 
ATOM     77  C   UNL A   1      46.349  35.205  28.820  1.00  0.00     0.040 A 
ATOM     78  F   UNL A   1      46.324  33.172  29.989  1.00  0.00    -0.206 F 
ATOM     79  C   UNL A   1      45.945  35.984  27.737  1.00  0.00     0.006 A 
ENDBRANCH  51  72
BRANCH  63  80
ATOM     80  C   UNL A   1      47.450  27.394  25.432  1.00  0.00     0.057 A 
ATOM     81  C   UNL A   1      47.652  27.601  24.061  1.00  0.00     0.134 A 
ATOM     82  C   UNL A   1      48.529  26.899  26.176  1.00  0.00     0.134 A 
ATOM     83  F   UNL A   1      46.658  28.069  23.291  1.00  0.00    -0.206 F 
ATOM     84  C   UNL A   1      48.873  27.310  23.449  1.00  0.00     0.040 A 
ATOM     85  C   UNL A   1      49.763  26.627  25.580  1.00  0.00     0.040 A 
ATOM     86  F   UNL A   1      48.409  26.690  27.495  1.00  0.00    -0.206 F 
ATOM     87  C   UNL A   1      49.935  26.828  24.212  1.00  0.00     0.006 A 
ENDBRANCH  63  80
ENDBRANCH  37  38
ENDBRANCH  30  32
ENDBRANCH  29  30
ENDBRANCH  28  29
ENDBRANCH  27  28
ENDBRANCH  26  27
ENDBRANCH  25  26
ENDBRANCH   1  25
TORSDOF 21
ENDMDL
MODEL 2
REMARK VINA RESULT:     -10.3      2.059      2.826
REMARK SMILES C[C@@H](C(=O)OCCOCCOCCOC(=O)c1ccc(-c2c3nc(c(-c4c(F)cccc4F)c4ccc([nH]4)c(-c4c(F)cccc4F)c4nc(c(-c5c(F)cccc5F)c5ccc2[nH]5)C=C4)C=C3)cc1)c1ccc(C[C@@H]2CCC[C@@H]2O)cc1Br
REMARK SMILES IDX 9 1 8 2 7 3 6 4 5 5 3 6 4 7 2 8 1 9 71 10 72 11 83 12 73 13
REMARK SMILES IDX 82 14 84 15 74 16 75 17 76 18 77 19 80 20 78 21 79 22 81 23
REMARK SMILES IDX 10 25 11 26 12 27 13 28 14 29 15 30 16 31 17 32 18 33 70 34
REMARK SMILES IDX 19 35 69 36 20 37 21 38 22 39 63 40 23 41 68 42 62 43 64 44
REMARK SMILES IDX 24 45 67 46 61 47 60 48 25 50 51 51 34 52 50 53 35 54 38 55
REMARK SMILES IDX 49 56 65 57 36 58 37 59 48 61 66 62 39 63 26 64 27 65 32 66
REMARK SMILES IDX 28 67 29 68 31 69 33 70 30 71 52 72 53 73 58 74 54 75 55 76
REMARK SMILES IDX 57 77 59 78 56 79 40 80 41 81 46 82 42 83 43 84 45 85 47 86
REMARK SMILES IDX 44 87
REMARK H PARENT 81 24 64 49 38 60
REMARK Flexibility Score: inf
ROOT
ATOM      1  C   UNL A   1      33.069  30.484  27.030  1.00  0.00     0.188 C 
ENDROOT
BRANCH   1   2
ATOM      2  O   UNL A   1      32.822  29.859  25.777  1.00  0.00    -0.376 OA
BRANCH   2   3
ATOM      3  C   UNL A   1      31.460  29.535  25.513  1.00  0.00     0.202 C 
BRANCH   3   4
ATOM      4  C   UNL A   1      31.131  29.339  24.034  1.00  0.00     0.261 C 
BRANCH   4   5
ATOM      5  O   UNL A   1      31.729  28.131  23.524  1.00  0.00    -0.463 OA
BRANCH   5   6
ATOM      6  C   UNL A   1      31.215  26.930  23.875  1.00  0.00     0.313 C 
ATOM      7  O   UNL A   1      30.021  26.715  24.048  1.00  0.00    -0.252 OA
BRANCH   6   8
ATOM      8  C   UNL A   1      32.314  25.900  24.123  1.00  0.00     0.127 C 
ATOM      9  C   UNL A   1      33.654  26.487  23.614  1.00  0.00     0.025 C 
BRANCH   8  10
ATOM     10  C   UNL A   1      32.103  24.417  23.753  1.00  0.00    -0.020 A 
ATOM     11  C   UNL A   1      32.684  23.978  22.533  1.00  0.00     0.006 A 
ATOM     12  C   UNL A   1      31.554  23.401  24.555  1.00  0.00     0.022 A 
ATOM     13  C   UNL A   1      32.762  22.628  22.156  1.00  0.00     0.004 A 
ATOM     14  C   UNL A   1      31.619  22.042  24.160  1.00  0.00     0.019 A 
ATOM     15  Br  UNL A   1      30.746  23.672  26.254  1.00  0.00    -0.050 Br
ATOM     16  C   UNL A   1      32.250  21.633  22.975  1.00  0.00    -0.047 A 
BRANCH  16  17
ATOM     17  C   UNL A   1      32.486  20.161  22.696  1.00  0.00     0.041 C 
BRANCH  17  18
ATOM     18  C   UNL A   1      32.600  19.121  23.837  1.00  0.00     0.022 C 
ATOM     19  C   UNL A   1      33.858  19.206  24.704  1.00  0.00     0.007 C 
ATOM     20  C   UNL A   1      32.550  17.659  23.420  1.00  0.00     0.117 C 
ATOM     21  C   UNL A   1      34.752  18.028  24.312  1.00  0.00     0.003 C 
ATOM     22  C   UNL A   1      34.005  17.263  23.234  1.00  0.00     0.032 C 
BRANCH  20  23
ATOM     23  O   UNL A   1      31.807  17.495  22.237  1.00  0.00    -0.393 OA
ATOM     24  H   UNL A   1      31.910  18.283  21.680  1.00  0.00     0.210 HD
ENDBRANCH  20  23
ENDBRANCH  17  18
ENDBRANCH  16  17
ENDBRANCH   8  10
ENDBRANCH   6   8
ENDBRANCH   5   6
ENDBRANCH   4   5
ENDBRANCH   3   4
ENDBRANCH   2   3
ENDBRANCH   1   2
BRANCH   1  25
ATOM     25  C   UNL A   1      34.562  30.571  27.420  1.00  0.00     0.188 C 
BRANCH  25  26
ATOM     26  O   UNL A   1      35.121  31.835  27.749  1.00  0.00    -0.376 OA
BRANCH  26  27
ATOM     27  C   UNL A   1      34.467  32.586  28.768  1.00  0.00     0.202 C 
BRANCH  27  28
ATOM     28  C   UNL A   1      34.935  32.387  30.219  1.00  0.00     0.261 C 
BRANCH  28  29
ATOM     29  O   UNL A   1      36.310  31.963  30.334  1.00  0.00    -0.460 OA
BRANCH  29  30
ATOM     30  C   UNL A   1      36.529  30.830  31.035  1.00  0.00     0.338 C 
ATOM     31  O   UNL A   1      35.882  30.407  31.993  1.00  0.00    -0.246 OA
BRANCH  30  32
ATOM     32  C   UNL A   1      37.651  30.070  30.454  1.00  0.00     0.060 A 
ATOM     33  C   UNL A   1      38.478  29.315  31.287  1.00  0.00     0.016 A 
ATOM     34  C   UNL A   1      37.977  30.210  29.103  1.00  0.00     0.016 A 
ATOM     35  C   UNL A   1      39.611  28.695  30.773  1.00  0.00     0.010 A 
ATOM     36  C   UNL A   1      39.151  29.622  28.600  1.00  0.00     0.010 A 
ATOM     37  C   UNL A   1      40.001  28.889  29.444  1.00  0.00    -0.014 A 
BRANCH  37  38
ATOM     38  C   UNL A   1      41.398  28.532  29.058  1.00  0.00     0.031 A 
ATOM     39  C   UNL A   1      41.647  27.182  28.429  1.00  0.00     0.074 A 
ATOM     40  C   UNL A   1      42.399  29.435  29.068  1.00  0.00     0.049 A 
ATOM     41  N   UNL A   1      42.769  26.650  28.013  1.00  0.00    -0.248 NA
ATOM     42  C   UNL A   1      40.469  26.319  28.232  1.00  0.00     0.031 C 
ATOM     43  C   UNL A   1      42.267  30.835  29.467  1.00  0.00     0.029 A 
ATOM     44  N   UNL A   1      43.697  29.339  28.614  1.00  0.00    -0.354 N 
ATOM     45  C   UNL A   1      42.449  25.360  27.607  1.00  0.00     0.074 A 
ATOM     46  C   UNL A   1      41.019  25.210  27.757  1.00  0.00     0.031 C 
ATOM     47  C   UNL A   1      43.397  31.490  29.137  1.00  0.00     0.029 A 
ATOM     48  C   UNL A   1      44.362  30.543  28.577  1.00  0.00     0.049 A 
ATOM     49  H   UNL A   1      44.109  28.488  28.341  1.00  0.00     0.167 HD
ATOM     50  C   UNL A   1      43.277  24.374  27.186  1.00  0.00     0.037 A 
ATOM     51  C   UNL A   1      45.593  30.846  28.116  1.00  0.00     0.037 A 
ATOM     52  C   UNL A   1      44.689  24.533  26.966  1.00  0.00     0.049 A 
ATOM     53  C   UNL A   1      46.504  29.738  27.648  1.00  0.00     0.074 A 
ATOM     54  C   UNL A   1      45.621  23.575  26.606  1.00  0.00     0.029 A 
ATOM     55  N   UNL A   1      45.367  25.736  27.056  1.00  0.00    -0.354 N 
ATOM     56  N   UNL A   1      46.226  28.481  27.402  1.00  0.00    -0.248 NA
ATOM     57  C   UNL A   1      47.917  30.091  27.439  1.00  0.00     0.031 C 
ATOM     58  C   UNL A   1      46.873  24.193  26.517  1.00  0.00     0.029 A 
ATOM     59  C   UNL A   1      46.709  25.544  26.774  1.00  0.00     0.049 A 
ATOM     60  H   UNL A   1      44.956  26.601  27.287  1.00  0.00     0.167 HD
ATOM     61  C   UNL A   1      47.432  27.892  27.035  1.00  0.00     0.074 A 
ATOM     62  C   UNL A   1      48.428  28.941  27.024  1.00  0.00     0.031 C 
ATOM     63  C   UNL A   1      47.697  26.589  26.767  1.00  0.00     0.037 A 
BRANCH  50  64
ATOM     64  C   UNL A   1      42.697  22.999  27.044  1.00  0.00     0.057 A 
ATOM     65  C   UNL A   1      42.482  22.388  25.806  1.00  0.00     0.134 A 
ATOM     66  C   UNL A   1      42.381  22.264  28.196  1.00  0.00     0.134 A 
ATOM     67  F   UNL A   1      42.743  23.048  24.667  1.00  0.00    -0.206 F 
ATOM     68  C   UNL A   1      41.962  21.094  25.717  1.00  0.00     0.040 A 
ATOM     69  C   UNL A   1      41.886  20.964  28.121  1.00  0.00     0.040 A 
ATOM     70  F   UNL A   1      42.567  22.795  29.414  1.00  0.00    -0.206 F 
ATOM     71  C   UNL A   1      41.671  20.376  26.877  1.00  0.00     0.006 A 
ENDBRANCH  50  64
BRANCH  51  72
ATOM     72  C   UNL A   1      46.073  32.254  28.062  1.00  0.00     0.057 A 
ATOM     73  C   UNL A   1      45.890  33.022  26.903  1.00  0.00     0.134 A 
ATOM     74  C   UNL A   1      46.772  32.848  29.118  1.00  0.00     0.134 A 
ATOM     75  F   UNL A   1      45.253  32.502  25.843  1.00  0.00    -0.206 F 
ATOM     76  C   UNL A   1      46.400  34.318  26.790  1.00  0.00     0.040 A 
ATOM     77  C   UNL A   1      47.258  34.155  29.033  1.00  0.00     0.040 A 
ATOM     78  F   UNL A   1      46.998  32.166  30.250  1.00  0.00    -0.206 F 
ATOM     79  C   UNL A   1      47.080  34.889  27.862  1.00  0.00     0.006 A 
ENDBRANCH  51  72
BRANCH  63  80
ATOM     80  C   UNL A   1      49.120  26.213  26.466  1.00  0.00     0.057 A 
ATOM     81  C   UNL A   1      49.696  26.481  25.217  1.00  0.00     0.134 A 
ATOM     82  C   UNL A   1      49.940  25.640  27.445  1.00  0.00     0.134 A 
ATOM     83  F   UNL A   1      48.963  27.024  24.233  1.00  0.00    -0.206 F 
ATOM     84  C   UNL A   1      51.031  26.174  24.946  1.00  0.00     0.040 A 
ATOM     85  C   UNL A   1      51.284  25.352  27.195  1.00  0.00     0.040 A 
ATOM     86  F   UNL A   1      49.457  25.369  28.667  1.00  0.00    -0.206 F 
ATOM     87  C   UNL A   1      51.831  25.615  25.940  1.00  0.00     0.006 A 
ENDBRANCH  63  80
ENDBRANCH  37  38
ENDBRANCH  30  32
ENDBRANCH  29  30
ENDBRANCH  28  29
ENDBRANCH  27  28
ENDBRANCH  26  27
ENDBRANCH  25  26
ENDBRANCH   1  25
TORSDOF 21
ENDMDL
MODEL 3
REMARK VINA RESULT:     -10.2      4.657     10.517
REMARK SMILES C[C@@H](C(=O)OCCOCCOCCOC(=O)c1ccc(-c2c3nc(c(-c4c(F)cccc4F)c4ccc([nH]4)c(-c4c(F)cccc4F)c4nc(c(-c5c(F)cccc5F)c5ccc2[nH]5)C=C4)C=C3)cc1)c1ccc(C[C@@H]2CCC[C@@H]2O)cc1Br
REMARK SMILES IDX 9 1 8 2 7 3 6 4 5 5 3 6 4 7 2 8 1 9 71 10 72 11 83 12 73 13
REMARK SMILES IDX 82 14 84 15 74 16 75 17 76 18 77 19 80 20 78 21 79 22 81 23
REMARK SMILES IDX 10 25 11 26 12 27 13 28 14 29 15 30 16 31 17 32 18 33 70 34
REMARK SMILES IDX 19 35 69 36 20 37 21 38 22 39 63 40 23 41 68 42 62 43 64 44
REMARK SMILES IDX 24 45 67 46 61 47 60 48 25 50 51 51 34 52 50 53 35 54 38 55
REMARK SMILES IDX 49 56 65 57 36 58 37 59 48 61 66 62 39 63 26 64 27 65 32 66
REMARK SMILES IDX 28 67 29 68 31 69 33 70 30 71 52 72 53 73 58 74 54 75 55 76
REMARK SMILES IDX 57 77 59 78 56 79 40 80 41 81 46 82 42 83 43 84 45 85 47 86
REMARK SMILES IDX 44 87
REMARK H PARENT 81 24 64 49 38 60
REMARK Flexibility Score: inf
ROOT
ATOM      1  C   UNL A   1      39.805  21.461  26.529  1.00  0.00     0.188 C 
ENDROOT
BRANCH   1   2
ATOM      2  O   UNL A   1      38.738  21.390  25.592  1.00  0.00    -0.376 OA
BRANCH   2   3
ATOM      3  C   UNL A   1      37.667  22.302  25.817  1.00  0.00     0.202 C 
BRANCH   3   4
ATOM      4  C   UNL A   1      36.274  21.689  25.675  1.00  0.00     0.261 C 
BRANCH   4   5
ATOM      5  O   UNL A   1      35.964  21.419  24.294  1.00  0.00    -0.463 OA
BRANCH   5   6
ATOM      6  C   UNL A   1      35.471  22.408  23.513  1.00  0.00     0.313 C 
ATOM      7  O   UNL A   1      36.109  22.978  22.636  1.00  0.00    -0.252 OA
BRANCH   6   8
ATOM      8  C   UNL A   1      34.052  22.793  23.924  1.00  0.00     0.127 C 
ATOM      9  C   UNL A   1      33.128  22.628  22.693  1.00  0.00     0.025 C 
BRANCH   8  10
ATOM     10  C   UNL A   1      33.787  24.080  24.735  1.00  0.00    -0.020 A 
ATOM     11  C   UNL A   1      34.192  25.303  24.135  1.00  0.00     0.006 A 
ATOM     12  C   UNL A   1      33.038  24.210  25.917  1.00  0.00     0.022 A 
ATOM     13  C   UNL A   1      33.839  26.564  24.640  1.00  0.00     0.004 A 
ATOM     14  C   UNL A   1      32.703  25.487  26.432  1.00  0.00     0.019 A 
ATOM     15  Br  UNL A   1      32.327  22.762  26.922  1.00  0.00    -0.050 Br
ATOM     16  C   UNL A   1      33.069  26.678  25.787  1.00  0.00    -0.047 A 
BRANCH  16  17
ATOM     17  C   UNL A   1      32.509  28.009  26.250  1.00  0.00     0.041 C 
BRANCH  17  18
ATOM     18  C   UNL A   1      33.220  29.348  25.936  1.00  0.00     0.022 C 
ATOM     19  C   UNL A   1      34.143  29.895  27.027  1.00  0.00     0.007 C 
ATOM     20  C   UNL A   1      32.316  30.528  25.607  1.00  0.00     0.117 C 
ATOM     21  C   UNL A   1      33.424  31.083  27.668  1.00  0.00     0.003 C 
ATOM     22  C   UNL A   1      32.100  31.227  26.939  1.00  0.00     0.032 C 
BRANCH  20  23
ATOM     23  O   UNL A   1      31.105  30.093  25.040  1.00  0.00    -0.393 OA
ATOM     24  H   UNL A   1      30.843  30.703  24.332  1.00  0.00     0.210 HD
ENDBRANCH  20  23
ENDBRANCH  17  18
ENDBRANCH  16  17
ENDBRANCH   8  10
ENDBRANCH   6   8
ENDBRANCH   5   6
ENDBRANCH   4   5
ENDBRANCH   3   4
ENDBRANCH   2   3
ENDBRANCH   1   2
BRANCH   1  25
ATOM     25  C   UNL A   1      40.955  20.462  26.268  1.00  0.00     0.188 C 
BRANCH  25  26
ATOM     26  O   UNL A   1      42.295  20.935  26.246  1.00  0.00    -0.376 OA
BRANCH  26  27
ATOM     27  C   UNL A   1      42.552  22.179  26.893  1.00  0.00     0.202 C 
BRANCH  27  28
ATOM     28  C   UNL A   1      42.790  23.413  26.008  1.00  0.00     0.261 C 
BRANCH  28  29
ATOM     29  O   UNL A   1      41.678  24.332  25.982  1.00  0.00    -0.460 OA
BRANCH  29  30
ATOM     30  C   UNL A   1      41.970  25.616  25.676  1.00  0.00     0.338 C 
ATOM     31  O   UNL A   1      42.583  26.027  24.692  1.00  0.00    -0.246 OA
BRANCH  30  32
ATOM     32  C   UNL A   1      41.382  26.532  26.670  1.00  0.00     0.060 A 
ATOM     33  C   UNL A   1      41.619  27.903  26.568  1.00  0.00     0.016 A 
ATOM     34  C   UNL A   1      40.709  26.030  27.786  1.00  0.00     0.016 A 
ATOM     35  C   UNL A   1      41.176  28.766  27.565  1.00  0.00     0.010 A 
ATOM     36  C   UNL A   1      40.308  26.901  28.814  1.00  0.00     0.010 A 
ATOM     37  C   UNL A   1      40.574  28.278  28.729  1.00  0.00    -0.014 A 
BRANCH  37  38
ATOM     38  C   UNL A   1      40.477  29.185  29.909  1.00  0.00     0.031 A 
ATOM     39  C   UNL A   1      39.273  30.090  30.022  1.00  0.00     0.074 A 
ATOM     40  C   UNL A   1      41.312  29.086  30.963  1.00  0.00     0.049 A 
ATOM     41  N   UNL A   1      38.969  30.962  30.952  1.00  0.00    -0.248 NA
ATOM     42  C   UNL A   1      38.270  29.990  28.948  1.00  0.00     0.031 C 
ATOM     43  C   UNL A   1      42.408  28.126  31.082  1.00  0.00     0.029 A 
ATOM     44  N   UNL A   1      41.291  29.721  32.186  1.00  0.00    -0.354 N 
ATOM     45  C   UNL A   1      37.803  31.583  30.522  1.00  0.00     0.074 A 
ATOM     46  C   UNL A   1      37.412  30.943  29.285  1.00  0.00     0.031 C 
ATOM     47  C   UNL A   1      42.879  28.158  32.343  1.00  0.00     0.029 A 
ATOM     48  C   UNL A   1      42.174  29.193  33.099  1.00  0.00     0.049 A 
ATOM     49  H   UNL A   1      40.699  30.481  32.387  1.00  0.00     0.167 HD
ATOM     50  C   UNL A   1      37.140  32.622  31.083  1.00  0.00     0.037 A 
ATOM     51  C   UNL A   1      42.366  29.493  34.401  1.00  0.00     0.037 A 
ATOM     52  C   UNL A   1      37.478  33.219  32.346  1.00  0.00     0.049 A 
ATOM     53  C   UNL A   1      41.618  30.651  35.014  1.00  0.00     0.074 A 
ATOM     54  C   UNL A   1      36.908  34.319  32.963  1.00  0.00     0.029 A 
ATOM     55  N   UNL A   1      38.460  32.747  33.200  1.00  0.00    -0.354 N 
ATOM     56  N   UNL A   1      40.604  31.331  34.539  1.00  0.00    -0.248 NA
ATOM     57  C   UNL A   1      42.082  31.110  36.333  1.00  0.00     0.031 C 
ATOM     58  C   UNL A   1      37.571  34.535  34.176  1.00  0.00     0.029 A 
ATOM     59  C   UNL A   1      38.522  33.541  34.333  1.00  0.00     0.049 A 
ATOM     60  H   UNL A   1      39.030  31.962  33.027  1.00  0.00     0.167 HD
ATOM     61  C   UNL A   1      40.327  32.311  35.488  1.00  0.00     0.074 A 
ATOM     62  C   UNL A   1      41.233  32.094  36.595  1.00  0.00     0.031 C 
ATOM     63  C   UNL A   1      39.426  33.323  35.430  1.00  0.00     0.037 A 
BRANCH  50  64
ATOM     64  C   UNL A   1      36.046  33.257  30.279  1.00  0.00     0.057 A 
ATOM     65  C   UNL A   1      34.692  33.138  30.607  1.00  0.00     0.134 A 
ATOM     66  C   UNL A   1      36.377  34.040  29.164  1.00  0.00     0.134 A 
ATOM     67  F   UNL A   1      34.309  32.386  31.650  1.00  0.00    -0.206 F 
ATOM     68  C   UNL A   1      33.704  33.768  29.846  1.00  0.00     0.040 A 
ATOM     69  C   UNL A   1      35.403  34.693  28.412  1.00  0.00     0.040 A 
ATOM     70  F   UNL A   1      37.659  34.195  28.799  1.00  0.00    -0.206 F 
ATOM     71  C   UNL A   1      34.059  34.554  28.750  1.00  0.00     0.006 A 
ENDBRANCH  50  64
BRANCH  51  72
ATOM     72  C   UNL A   1      43.305  28.704  35.245  1.00  0.00     0.057 A 
ATOM     73  C   UNL A   1      44.685  28.948  35.192  1.00  0.00     0.134 A 
ATOM     74  C   UNL A   1      42.873  27.657  36.066  1.00  0.00     0.134 A 
ATOM     75  F   UNL A   1      45.168  29.919  34.402  1.00  0.00    -0.206 F 
ATOM     76  C   UNL A   1      45.598  28.172  35.908  1.00  0.00     0.040 A 
ATOM     77  C   UNL A   1      43.772  26.894  36.815  1.00  0.00     0.040 A 
ATOM     78  F   UNL A   1      41.570  27.355  36.151  1.00  0.00    -0.206 F 
ATOM     79  C   UNL A   1      45.140  27.145  36.728  1.00  0.00     0.006 A 
ENDBRANCH  51  72
BRANCH  63  80
ATOM     80  C   UNL A   1      39.388  34.291  36.578  1.00  0.00     0.057 A 
ATOM     81  C   UNL A   1      38.716  33.985  37.768  1.00  0.00     0.134 A 
ATOM     82  C   UNL A   1      40.080  35.507  36.523  1.00  0.00     0.134 A 
ATOM     83  F   UNL A   1      38.029  32.839  37.885  1.00  0.00    -0.206 F 
ATOM     84  C   UNL A   1      38.715  34.862  38.854  1.00  0.00     0.040 A 
ATOM     85  C   UNL A   1      40.108  36.382  37.612  1.00  0.00     0.040 A 
ATOM     86  F   UNL A   1      40.757  35.858  35.418  1.00  0.00    -0.206 F 
ATOM     87  C   UNL A   1      39.419  36.062  38.780  1.00  0.00     0.006 A 
ENDBRANCH  63  80
ENDBRANCH  37  38
ENDBRANCH  30  32
ENDBRANCH  29  30
ENDBRANCH  28  29
ENDBRANCH  27  28
ENDBRANCH  26  27
ENDBRANCH  25  26
ENDBRANCH   1  25
TORSDOF 21
ENDMDL
