MODEL 1
REMARK VINA RESULT:     -11.4      0.000      0.000
REMARK SMILES C=CC[C@@]1(C(=O)OCCOCCOCCOC(=O)c2ccc(-c3c4nc(c(-c5c(F)cccc5F)c5ccc([nH]5)c(-c5c(F)cccc5F)c5nc(c(-c6c(F)cccc6F)c6ccc3[nH]6)C=C5)C=C4)cc2)CCCN(C(=O)c2ccc3c(c2)OCO3)C1
REMARK SMILES IDX 11 1 10 2 9 3 8 4 7 5 5 6 6 7 4 8 73 9 88 10 74 11 76 12
REMARK SMILES IDX 75 13 3 14 2 15 1 16 77 17 78 18 79 19 80 20 84 21 81 22
REMARK SMILES IDX 83 23 82 24 85 25 87 26 86 27 12 28 13 29 14 30 15 31 16 32
REMARK SMILES IDX 17 33 18 34 19 35 20 36 72 37 21 38 71 39 22 40 23 41 24 42
REMARK SMILES IDX 65 43 25 44 70 45 64 46 66 47 26 48 69 49 63 50 62 51 27 53
REMARK SMILES IDX 53 54 36 55 52 56 37 57 40 58 51 59 67 60 38 61 39 62 50 64
REMARK SMILES IDX 68 65 41 66 28 67 29 68 34 69 30 70 31 71 33 72 35 73 32 74
REMARK SMILES IDX 54 75 55 76 60 77 56 78 57 79 59 80 61 81 58 82 42 83 43 84
REMARK SMILES IDX 48 85 44 86 45 87 47 88 49 89 46 90
REMARK H PARENT 66 52 40 63
REMARK Flexibility Score: inf
ROOT
ATOM      1  C   UNL A   1      39.495  21.795  26.232  1.00  0.00     0.188 C 
ENDROOT
BRANCH   1   2
ATOM      2  O   UNL A   1      38.114  21.961  25.933  1.00  0.00    -0.376 OA
BRANCH   2   3
ATOM      3  C   UNL A   1      37.594  21.196  24.852  1.00  0.00     0.202 C 
BRANCH   3   4
ATOM      4  C   UNL A   1      36.173  20.634  24.995  1.00  0.00     0.261 C 
BRANCH   4   5
ATOM      5  O   UNL A   1      35.090  21.493  24.602  1.00  0.00    -0.463 OA
BRANCH   5   6
ATOM      6  C   UNL A   1      34.020  21.472  25.442  1.00  0.00     0.314 C 
ATOM      7  O   UNL A   1      34.090  21.794  26.625  1.00  0.00    -0.252 OA
BRANCH   6   8
ATOM      8  C   UNL A   1      32.743  20.913  24.806  1.00  0.00     0.089 C 
ATOM      9  C   UNL A   1      32.747  21.301  23.293  1.00  0.00     0.023 C 
ATOM     10  C   UNL A   1      31.545  21.589  25.485  1.00  0.00     0.138 C 
ATOM     11  C   UNL A   1      32.652  22.802  23.036  1.00  0.00     0.023 C 
ATOM     12  N   UNL A   1      31.498  23.024  25.227  1.00  0.00    -0.337 N 
ATOM     13  C   UNL A   1      31.513  23.437  23.815  1.00  0.00     0.120 C 
BRANCH   8  14
ATOM     14  C   UNL A   1      32.582  19.371  24.832  1.00  0.00     0.047 C 
BRANCH  14  15
ATOM     15  C   UNL A   1      33.140  18.502  23.752  1.00  0.00    -0.034 C 
ATOM     16  C   UNL A   1      33.758  17.328  23.913  1.00  0.00     0.004 C 
ENDBRANCH  14  15
ENDBRANCH   8  14
BRANCH  12  17
ATOM     17  C   UNL A   1      31.347  23.894  26.307  1.00  0.00     0.254 C 
ATOM     18  O   UNL A   1      30.642  23.691  27.286  1.00  0.00    -0.269 OA
BRANCH  17  19
ATOM     19  C   UNL A   1      32.063  25.176  26.203  1.00  0.00     0.043 A 
ATOM     20  C   UNL A   1      33.456  25.190  26.011  1.00  0.00     0.018 A 
ATOM     21  C   UNL A   1      31.286  26.337  26.109  1.00  0.00     0.064 A 
ATOM     22  C   UNL A   1      34.080  26.378  25.620  1.00  0.00     0.051 A 
ATOM     23  C   UNL A   1      31.923  27.467  25.669  1.00  0.00     0.166 A 
ATOM     24  C   UNL A   1      33.277  27.485  25.416  1.00  0.00     0.165 A 
ATOM     25  O   UNL A   1      31.310  28.633  25.337  1.00  0.00    -0.454 OA
ATOM     26  O   UNL A   1      33.675  28.677  24.894  1.00  0.00    -0.454 OA
ATOM     27  C   UNL A   1      32.395  29.303  24.663  1.00  0.00     0.468 C 
ENDBRANCH  17  19
ENDBRANCH  12  17
ENDBRANCH   6   8
ENDBRANCH   5   6
ENDBRANCH   4   5
ENDBRANCH   3   4
ENDBRANCH   2   3
ENDBRANCH   1   2
BRANCH   1  28
ATOM     28  C   UNL A   1      40.033  20.373  26.128  1.00  0.00     0.188 C 
BRANCH  28  29
ATOM     29  O   UNL A   1      41.313  20.240  26.726  1.00  0.00    -0.376 OA
BRANCH  29  30
ATOM     30  C   UNL A   1      42.460  20.151  25.888  1.00  0.00     0.202 C 
BRANCH  30  31
ATOM     31  C   UNL A   1      43.406  21.349  25.692  1.00  0.00     0.261 C 
BRANCH  31  32
ATOM     32  O   UNL A   1      42.816  22.551  25.184  1.00  0.00    -0.460 OA
BRANCH  32  33
ATOM     33  C   UNL A   1      43.593  23.659  25.138  1.00  0.00     0.338 C 
ATOM     34  O   UNL A   1      44.411  23.940  24.279  1.00  0.00    -0.246 OA
BRANCH  33  35
ATOM     35  C   UNL A   1      43.102  24.591  26.194  1.00  0.00     0.060 A 
ATOM     36  C   UNL A   1      43.611  25.896  26.213  1.00  0.00     0.016 A 
ATOM     37  C   UNL A   1      42.060  24.242  27.064  1.00  0.00     0.016 A 
ATOM     38  C   UNL A   1      43.087  26.847  27.095  1.00  0.00     0.010 A 
ATOM     39  C   UNL A   1      41.547  25.189  27.958  1.00  0.00     0.010 A 
ATOM     40  C   UNL A   1      42.066  26.495  27.988  1.00  0.00    -0.014 A 
BRANCH  40  41
ATOM     41  C   UNL A   1      41.655  27.437  29.059  1.00  0.00     0.031 A 
ATOM     42  C   UNL A   1      42.411  27.418  30.359  1.00  0.00     0.074 A 
ATOM     43  C   UNL A   1      40.645  28.309  28.887  1.00  0.00     0.049 A 
ATOM     44  N   UNL A   1      42.192  28.089  31.461  1.00  0.00    -0.248 NA
ATOM     45  C   UNL A   1      43.578  26.523  30.418  1.00  0.00     0.031 C 
ATOM     46  C   UNL A   1      39.868  28.478  27.662  1.00  0.00     0.029 A 
ATOM     47  N   UNL A   1      40.097  29.217  29.762  1.00  0.00    -0.354 N 
ATOM     48  C   UNL A   1      43.187  27.693  32.344  1.00  0.00     0.074 A 
ATOM     49  C   UNL A   1      43.997  26.709  31.660  1.00  0.00     0.031 C 
ATOM     50  C   UNL A   1      38.931  29.422  27.868  1.00  0.00     0.029 A 
ATOM     51  C   UNL A   1      39.016  29.894  29.249  1.00  0.00     0.049 A 
ATOM     52  H   UNL A   1      40.446  29.369  30.670  1.00  0.00     0.167 HD
ATOM     53  C   UNL A   1      43.409  28.114  33.612  1.00  0.00     0.037 A 
ATOM     54  C   UNL A   1      38.174  30.768  29.838  1.00  0.00     0.037 A 
ATOM     55  C   UNL A   1      42.605  29.088  34.299  1.00  0.00     0.049 A 
ATOM     56  C   UNL A   1      38.378  31.141  31.285  1.00  0.00     0.074 A 
ATOM     57  C   UNL A   1      42.761  29.584  35.581  1.00  0.00     0.029 A 
ATOM     58  N   UNL A   1      41.485  29.707  33.764  1.00  0.00    -0.354 N 
ATOM     59  N   UNL A   1      39.327  30.770  32.111  1.00  0.00    -0.248 NA
ATOM     60  C   UNL A   1      37.388  32.049  31.884  1.00  0.00     0.031 C 
ATOM     61  C   UNL A   1      41.704  30.462  35.842  1.00  0.00     0.029 A 
ATOM     62  C   UNL A   1      40.921  30.554  34.703  1.00  0.00     0.049 A 
ATOM     63  H   UNL A   1      41.142  29.565  32.852  1.00  0.00     0.167 HD
ATOM     64  C   UNL A   1      39.060  31.414  33.315  1.00  0.00     0.074 A 
ATOM     65  C   UNL A   1      37.871  32.213  33.106  1.00  0.00     0.031 C 
ATOM     66  C   UNL A   1      39.737  31.346  34.487  1.00  0.00     0.037 A 
BRANCH  53  67
ATOM     67  C   UNL A   1      44.553  27.488  34.354  1.00  0.00     0.057 A 
ATOM     68  C   UNL A   1      44.418  26.273  35.038  1.00  0.00     0.134 A 
ATOM     69  C   UNL A   1      45.813  28.097  34.357  1.00  0.00     0.134 A 
ATOM     70  F   UNL A   1      43.233  25.649  35.089  1.00  0.00    -0.206 F 
ATOM     71  C   UNL A   1      45.494  25.696  35.714  1.00  0.00     0.040 A 
ATOM     72  C   UNL A   1      46.903  27.516  35.007  1.00  0.00     0.040 A 
ATOM     73  F   UNL A   1      46.010  29.261  33.719  1.00  0.00    -0.206 F 
ATOM     74  C   UNL A   1      46.743  26.315  35.693  1.00  0.00     0.006 A 
ENDBRANCH  53  67
BRANCH  54  75
ATOM     75  C   UNL A   1      37.023  31.325  29.080  1.00  0.00     0.057 A 
ATOM     76  C   UNL A   1      37.022  32.648  28.623  1.00  0.00     0.134 A 
ATOM     77  C   UNL A   1      35.876  30.560  28.835  1.00  0.00     0.134 A 
ATOM     78  F   UNL A   1      38.077  33.443  28.855  1.00  0.00    -0.206 F 
ATOM     79  C   UNL A   1      35.918  33.194  27.965  1.00  0.00     0.040 A 
ATOM     80  C   UNL A   1      34.776  31.084  28.154  1.00  0.00     0.040 A 
ATOM     81  F   UNL A   1      35.807  29.288  29.257  1.00  0.00    -0.206 F 
ATOM     82  C   UNL A   1      34.793  32.409  27.724  1.00  0.00     0.006 A 
ENDBRANCH  54  75
BRANCH  66  83
ATOM     83  C   UNL A   1      39.227  32.176  35.631  1.00  0.00     0.057 A 
ATOM     84  C   UNL A   1      38.381  31.643  36.612  1.00  0.00     0.134 A 
ATOM     85  C   UNL A   1      39.625  33.512  35.779  1.00  0.00     0.134 A 
ATOM     86  F   UNL A   1      37.954  30.375  36.525  1.00  0.00    -0.206 F 
ATOM     87  C   UNL A   1      37.932  32.414  37.686  1.00  0.00     0.040 A 
ATOM     88  C   UNL A   1      39.204  34.284  36.863  1.00  0.00     0.040 A 
ATOM     89  F   UNL A   1      40.443  34.082  34.882  1.00  0.00    -0.206 F 
ATOM     90  C   UNL A   1      38.349  33.737  37.817  1.00  0.00     0.006 A 
ENDBRANCH  66  83
ENDBRANCH  40  41
ENDBRANCH  33  35
ENDBRANCH  32  33
ENDBRANCH  31  32
ENDBRANCH  30  31
ENDBRANCH  29  30
ENDBRANCH  28  29
ENDBRANCH   1  28
TORSDOF 21
ENDMDL
MODEL 2
REMARK VINA RESULT:     -10.8      4.288      9.773
REMARK SMILES C=CC[C@@]1(C(=O)OCCOCCOCCOC(=O)c2ccc(-c3c4nc(c(-c5c(F)cccc5F)c5ccc([nH]5)c(-c5c(F)cccc5F)c5nc(c(-c6c(F)cccc6F)c6ccc3[nH]6)C=C5)C=C4)cc2)CCCN(C(=O)c2ccc3c(c2)OCO3)C1
REMARK SMILES IDX 11 1 10 2 9 3 8 4 7 5 5 6 6 7 4 8 73 9 88 10 74 11 76 12
REMARK SMILES IDX 75 13 3 14 2 15 1 16 77 17 78 18 79 19 80 20 84 21 81 22
REMARK SMILES IDX 83 23 82 24 85 25 87 26 86 27 12 28 13 29 14 30 15 31 16 32
REMARK SMILES IDX 17 33 18 34 19 35 20 36 72 37 21 38 71 39 22 40 23 41 24 42
REMARK SMILES IDX 65 43 25 44 70 45 64 46 66 47 26 48 69 49 63 50 62 51 27 53
REMARK SMILES IDX 53 54 36 55 52 56 37 57 40 58 51 59 67 60 38 61 39 62 50 64
REMARK SMILES IDX 68 65 41 66 28 67 29 68 34 69 30 70 31 71 33 72 35 73 32 74
REMARK SMILES IDX 54 75 55 76 60 77 56 78 57 79 59 80 61 81 58 82 42 83 43 84
REMARK SMILES IDX 48 85 44 86 45 87 47 88 49 89 46 90
REMARK H PARENT 66 52 40 63
REMARK Flexibility Score: inf
ROOT
ATOM      1  C   UNL A   1      35.119  31.320  27.881  1.00  0.00     0.188 C 
ENDROOT
BRANCH   1   2
ATOM      2  O   UNL A   1      33.849  30.678  27.884  1.00  0.00    -0.376 OA
BRANCH   2   3
ATOM      3  C   UNL A   1      33.640  29.664  26.908  1.00  0.00     0.202 C 
BRANCH   3   4
ATOM      4  C   UNL A   1      32.582  29.923  25.826  1.00  0.00     0.261 C 
BRANCH   4   5
ATOM      5  O   UNL A   1      32.441  28.925  24.801  1.00  0.00    -0.463 OA
BRANCH   5   6
ATOM      6  C   UNL A   1      31.362  28.110  24.952  1.00  0.00     0.314 C 
ATOM      7  O   UNL A   1      31.169  27.433  25.958  1.00  0.00    -0.252 OA
BRANCH   6   8
ATOM      8  C   UNL A   1      30.465  28.033  23.712  1.00  0.00     0.089 C 
ATOM      9  C   UNL A   1      29.381  26.937  23.968  1.00  0.00     0.023 C 
ATOM     10  C   UNL A   1      31.337  27.598  22.527  1.00  0.00     0.138 C 
ATOM     11  C   UNL A   1      29.945  25.525  24.095  1.00  0.00     0.023 C 
ATOM     12  N   UNL A   1      31.866  26.249  22.695  1.00  0.00    -0.337 N 
ATOM     13  C   UNL A   1      30.883  25.185  22.950  1.00  0.00     0.120 C 
BRANCH   8  14
ATOM     14  C   UNL A   1      29.672  29.317  23.358  1.00  0.00     0.047 C 
BRANCH  14  15
ATOM     15  C   UNL A   1      29.001  29.491  22.035  1.00  0.00    -0.034 C 
ATOM     16  C   UNL A   1      28.044  30.375  21.734  1.00  0.00     0.004 C 
ENDBRANCH  14  15
ENDBRANCH   8  14
BRANCH  12  17
ATOM     17  C   UNL A   1      33.233  26.038  22.510  1.00  0.00     0.254 C 
ATOM     18  O   UNL A   1      33.888  26.439  21.556  1.00  0.00    -0.269 OA
BRANCH  17  19
ATOM     19  C   UNL A   1      33.900  25.216  23.532  1.00  0.00     0.043 A 
ATOM     20  C   UNL A   1      34.036  25.700  24.845  1.00  0.00     0.018 A 
ATOM     21  C   UNL A   1      34.203  23.892  23.191  1.00  0.00     0.064 A 
ATOM     22  C   UNL A   1      34.394  24.816  25.866  1.00  0.00     0.051 A 
ATOM     23  C   UNL A   1      34.494  23.044  24.226  1.00  0.00     0.166 A 
ATOM     24  C   UNL A   1      34.572  23.487  25.528  1.00  0.00     0.165 A 
ATOM     25  O   UNL A   1      34.630  21.696  24.120  1.00  0.00    -0.454 OA
ATOM     26  O   UNL A   1      34.772  22.459  26.398  1.00  0.00    -0.454 OA
ATOM     27  C   UNL A   1      34.598  21.330  25.515  1.00  0.00     0.468 C 
ENDBRANCH  17  19
ENDBRANCH  12  17
ENDBRANCH   6   8
ENDBRANCH   5   6
ENDBRANCH   4   5
ENDBRANCH   3   4
ENDBRANCH   2   3
ENDBRANCH   1   2
BRANCH   1  28
ATOM     28  C   UNL A   1      35.098  32.840  27.991  1.00  0.00     0.188 C 
BRANCH  28  29
ATOM     29  O   UNL A   1      34.055  33.300  28.838  1.00  0.00    -0.376 OA
BRANCH  29  30
ATOM     30  C   UNL A   1      34.382  34.139  29.941  1.00  0.00     0.202 C 
BRANCH  30  31
ATOM     31  C   UNL A   1      34.417  33.594  31.380  1.00  0.00     0.261 C 
BRANCH  31  32
ATOM     32  O   UNL A   1      35.033  32.314  31.562  1.00  0.00    -0.460 OA
BRANCH  32  33
ATOM     33  C   UNL A   1      35.966  32.201  32.539  1.00  0.00     0.338 C 
ATOM     34  O   UNL A   1      35.787  32.345  33.736  1.00  0.00    -0.246 OA
BRANCH  33  35
ATOM     35  C   UNL A   1      37.196  31.635  31.915  1.00  0.00     0.060 A 
ATOM     36  C   UNL A   1      37.392  31.832  30.542  1.00  0.00     0.016 A 
ATOM     37  C   UNL A   1      38.211  31.045  32.681  1.00  0.00     0.016 A 
ATOM     38  C   UNL A   1      38.590  31.441  29.935  1.00  0.00     0.010 A 
ATOM     39  C   UNL A   1      39.403  30.639  32.070  1.00  0.00     0.010 A 
ATOM     40  C   UNL A   1      39.595  30.822  30.690  1.00  0.00    -0.014 A 
BRANCH  40  41
ATOM     41  C   UNL A   1      40.773  30.222  30.014  1.00  0.00     0.031 A 
ATOM     42  C   UNL A   1      41.979  31.088  29.775  1.00  0.00     0.074 A 
ATOM     43  C   UNL A   1      40.791  28.932  29.632  1.00  0.00     0.049 A 
ATOM     44  N   UNL A   1      43.090  30.813  29.141  1.00  0.00    -0.248 NA
ATOM     45  C   UNL A   1      41.922  32.448  30.334  1.00  0.00     0.031 C 
ATOM     46  C   UNL A   1      39.719  27.965  29.855  1.00  0.00     0.029 A 
ATOM     47  N   UNL A   1      41.757  28.216  28.965  1.00  0.00    -0.354 N 
ATOM     48  C   UNL A   1      43.861  31.965  29.219  1.00  0.00     0.074 A 
ATOM     49  C   UNL A   1      43.084  32.948  29.942  1.00  0.00     0.031 C 
ATOM     50  C   UNL A   1      40.080  26.784  29.320  1.00  0.00     0.029 A 
ATOM     51  C   UNL A   1      41.388  26.923  28.681  1.00  0.00     0.049 A 
ATOM     52  H   UNL A   1      42.631  28.594  28.715  1.00  0.00     0.167 HD
ATOM     53  C   UNL A   1      45.106  32.184  28.736  1.00  0.00     0.037 A 
ATOM     54  C   UNL A   1      42.020  25.974  27.961  1.00  0.00     0.037 A 
ATOM     55  C   UNL A   1      45.882  31.212  28.013  1.00  0.00     0.049 A 
ATOM     56  C   UNL A   1      43.361  26.276  27.342  1.00  0.00     0.074 A 
ATOM     57  C   UNL A   1      47.158  31.340  27.495  1.00  0.00     0.029 A 
ATOM     58  N   UNL A   1      45.449  29.933  27.697  1.00  0.00    -0.354 N 
ATOM     59  N   UNL A   1      44.088  27.365  27.428  1.00  0.00    -0.248 NA
ATOM     60  C   UNL A   1      43.966  25.219  26.516  1.00  0.00     0.031 C 
ATOM     61  C   UNL A   1      47.477  30.159  26.817  1.00  0.00     0.029 A 
ATOM     62  C   UNL A   1      46.420  29.275  26.960  1.00  0.00     0.049 A 
ATOM     63  H   UNL A   1      44.580  29.549  27.958  1.00  0.00     0.167 HD
ATOM     64  C   UNL A   1      45.240  27.115  26.689  1.00  0.00     0.074 A 
ATOM     65  C   UNL A   1      45.124  25.766  26.177  1.00  0.00     0.031 C 
ATOM     66  C   UNL A   1      46.296  27.932  26.454  1.00  0.00     0.037 A 
BRANCH  53  67
ATOM     67  C   UNL A   1      45.694  33.548  28.942  1.00  0.00     0.057 A 
ATOM     68  C   UNL A   1      46.485  33.855  30.057  1.00  0.00     0.134 A 
ATOM     69  C   UNL A   1      45.491  34.558  27.994  1.00  0.00     0.134 A 
ATOM     70  F   UNL A   1      46.702  32.937  31.010  1.00  0.00    -0.206 F 
ATOM     71  C   UNL A   1      47.036  35.126  30.231  1.00  0.00     0.040 A 
ATOM     72  C   UNL A   1      46.058  35.825  28.144  1.00  0.00     0.040 A 
ATOM     73  F   UNL A   1      44.745  34.329  26.903  1.00  0.00    -0.206 F 
ATOM     74  C   UNL A   1      46.829  36.112  29.268  1.00  0.00     0.006 A 
ENDBRANCH  53  67
BRANCH  54  75
ATOM     75  C   UNL A   1      41.378  24.652  27.740  1.00  0.00     0.057 A 
ATOM     76  C   UNL A   1      41.770  23.519  28.464  1.00  0.00     0.134 A 
ATOM     77  C   UNL A   1      40.389  24.479  26.764  1.00  0.00     0.134 A 
ATOM     78  F   UNL A   1      42.736  23.611  29.389  1.00  0.00    -0.206 F 
ATOM     79  C   UNL A   1      41.213  22.263  28.216  1.00  0.00     0.040 A 
ATOM     80  C   UNL A   1      39.804  23.234  26.524  1.00  0.00     0.040 A 
ATOM     81  F   UNL A   1      39.976  25.521  26.026  1.00  0.00    -0.206 F 
ATOM     82  C   UNL A   1      40.222  22.119  27.247  1.00  0.00     0.006 A 
ENDBRANCH  54  75
BRANCH  66  83
ATOM     83  C   UNL A   1      47.426  27.384  25.628  1.00  0.00     0.057 A 
ATOM     84  C   UNL A   1      48.468  26.643  26.200  1.00  0.00     0.134 A 
ATOM     85  C   UNL A   1      47.447  27.561  24.239  1.00  0.00     0.134 A 
ATOM     86  F   UNL A   1      48.514  26.447  27.526  1.00  0.00    -0.206 F 
ATOM     87  C   UNL A   1      49.502  26.117  25.423  1.00  0.00     0.040 A 
ATOM     88  C   UNL A   1      48.460  27.016  23.448  1.00  0.00     0.040 A 
ATOM     89  F   UNL A   1      46.474  28.251  23.625  1.00  0.00    -0.206 F 
ATOM     90  C   UNL A   1      49.495  26.297  24.041  1.00  0.00     0.006 A 
ENDBRANCH  66  83
ENDBRANCH  40  41
ENDBRANCH  33  35
ENDBRANCH  32  33
ENDBRANCH  31  32
ENDBRANCH  30  31
ENDBRANCH  29  30
ENDBRANCH  28  29
ENDBRANCH   1  28
TORSDOF 21
ENDMDL
MODEL 3
REMARK VINA RESULT:     -10.6      4.394      9.399
REMARK SMILES C=CC[C@@]1(C(=O)OCCOCCOCCOC(=O)c2ccc(-c3c4nc(c(-c5c(F)cccc5F)c5ccc([nH]5)c(-c5c(F)cccc5F)c5nc(c(-c6c(F)cccc6F)c6ccc3[nH]6)C=C5)C=C4)cc2)CCCN(C(=O)c2ccc3c(c2)OCO3)C1
REMARK SMILES IDX 11 1 10 2 9 3 8 4 7 5 5 6 6 7 4 8 73 9 88 10 74 11 76 12
REMARK SMILES IDX 75 13 3 14 2 15 1 16 77 17 78 18 79 19 80 20 84 21 81 22
REMARK SMILES IDX 83 23 82 24 85 25 87 26 86 27 12 28 13 29 14 30 15 31 16 32
REMARK SMILES IDX 17 33 18 34 19 35 20 36 72 37 21 38 71 39 22 40 23 41 24 42
REMARK SMILES IDX 65 43 25 44 70 45 64 46 66 47 26 48 69 49 63 50 62 51 27 53
REMARK SMILES IDX 53 54 36 55 52 56 37 57 40 58 51 59 67 60 38 61 39 62 50 64
REMARK SMILES IDX 68 65 41 66 28 67 29 68 34 69 30 70 31 71 33 72 35 73 32 74
REMARK SMILES IDX 54 75 55 76 60 77 56 78 57 79 59 80 61 81 58 82 42 83 43 84
REMARK SMILES IDX 48 85 44 86 45 87 47 88 49 89 46 90
REMARK H PARENT 66 52 40 63
REMARK Flexibility Score: inf
ROOT
ATOM      1  C   UNL A   1      34.428  31.535  27.785  1.00  0.00     0.188 C 
ENDROOT
BRANCH   1   2
ATOM      2  O   UNL A   1      33.611  30.575  27.125  1.00  0.00    -0.376 OA
BRANCH   2   3
ATOM      3  C   UNL A   1      34.152  29.268  26.974  1.00  0.00     0.202 C 
BRANCH   3   4
ATOM      4  C   UNL A   1      33.989  28.582  25.609  1.00  0.00     0.261 C 
BRANCH   4   5
ATOM      5  O   UNL A   1      33.515  27.225  25.614  1.00  0.00    -0.463 OA
BRANCH   5   6
ATOM      6  C   UNL A   1      33.782  26.530  24.476  1.00  0.00     0.314 C 
ATOM      7  O   UNL A   1      33.958  27.069  23.387  1.00  0.00    -0.252 OA
BRANCH   6   8
ATOM      8  C   UNL A   1      33.740  25.009  24.655  1.00  0.00     0.089 C 
ATOM      9  C   UNL A   1      33.772  24.355  23.236  1.00  0.00     0.023 C 
ATOM     10  C   UNL A   1      32.411  24.651  25.332  1.00  0.00     0.138 C 
ATOM     11  C   UNL A   1      32.540  24.655  22.387  1.00  0.00     0.023 C 
ATOM     12  N   UNL A   1      31.259  24.965  24.494  1.00  0.00    -0.337 N 
ATOM     13  C   UNL A   1      31.252  24.381  23.144  1.00  0.00     0.120 C 
BRANCH   8  14
ATOM     14  C   UNL A   1      34.928  24.375  25.423  1.00  0.00     0.047 C 
BRANCH  14  15
ATOM     15  C   UNL A   1      35.078  22.895  25.561  1.00  0.00    -0.034 C 
ATOM     16  C   UNL A   1      36.213  22.226  25.792  1.00  0.00     0.004 C 
ENDBRANCH  14  15
ENDBRANCH   8  14
BRANCH  12  17
ATOM     17  C   UNL A   1      30.211  25.704  25.044  1.00  0.00     0.254 C 
ATOM     18  O   UNL A   1      29.805  25.606  26.196  1.00  0.00    -0.269 OA
BRANCH  17  19
ATOM     19  C   UNL A   1      29.522  26.624  24.126  1.00  0.00     0.043 A 
ATOM     20  C   UNL A   1      28.117  26.632  24.061  1.00  0.00     0.018 A 
ATOM     21  C   UNL A   1      30.303  27.597  23.489  1.00  0.00     0.064 A 
ATOM     22  C   UNL A   1      27.468  27.692  23.422  1.00  0.00     0.051 A 
ATOM     23  C   UNL A   1      29.631  28.648  22.925  1.00  0.00     0.166 A 
ATOM     24  C   UNL A   1      28.255  28.704  22.904  1.00  0.00     0.165 A 
ATOM     25  O   UNL A   1      30.210  29.772  22.429  1.00  0.00    -0.454 OA
ATOM     26  O   UNL A   1      27.806  29.880  22.386  1.00  0.00    -0.454 OA
ATOM     27  C   UNL A   1      29.047  30.613  22.289  1.00  0.00     0.468 C 
ENDBRANCH  17  19
ENDBRANCH  12  17
ENDBRANCH   6   8
ENDBRANCH   5   6
ENDBRANCH   4   5
ENDBRANCH   3   4
ENDBRANCH   2   3
ENDBRANCH   1   2
BRANCH   1  28
ATOM     28  C   UNL A   1      33.793  32.901  28.019  1.00  0.00     0.188 C 
BRANCH  28  29
ATOM     29  O   UNL A   1      34.670  33.790  28.693  1.00  0.00    -0.376 OA
BRANCH  29  30
ATOM     30  C   UNL A   1      34.203  34.471  29.854  1.00  0.00     0.202 C 
BRANCH  30  31
ATOM     31  C   UNL A   1      34.412  33.889  31.263  1.00  0.00     0.261 C 
BRANCH  31  32
ATOM     32  O   UNL A   1      34.957  32.566  31.333  1.00  0.00    -0.460 OA
BRANCH  32  33
ATOM     33  C   UNL A   1      35.805  32.291  32.352  1.00  0.00     0.338 C 
ATOM     34  O   UNL A   1      35.543  32.310  33.542  1.00  0.00    -0.246 OA
BRANCH  33  35
ATOM     35  C   UNL A   1      37.050  31.728  31.755  1.00  0.00     0.060 A 
ATOM     36  C   UNL A   1      37.224  31.830  30.369  1.00  0.00     0.016 A 
ATOM     37  C   UNL A   1      38.095  31.233  32.548  1.00  0.00     0.016 A 
ATOM     38  C   UNL A   1      38.429  31.442  29.776  1.00  0.00     0.010 A 
ATOM     39  C   UNL A   1      39.296  30.828  31.953  1.00  0.00     0.010 A 
ATOM     40  C   UNL A   1      39.465  30.918  30.560  1.00  0.00    -0.014 A 
BRANCH  40  41
ATOM     41  C   UNL A   1      40.658  30.315  29.914  1.00  0.00     0.031 A 
ATOM     42  C   UNL A   1      41.861  31.186  29.677  1.00  0.00     0.074 A 
ATOM     43  C   UNL A   1      40.693  29.018  29.558  1.00  0.00     0.049 A 
ATOM     44  N   UNL A   1      42.984  30.908  29.066  1.00  0.00    -0.248 NA
ATOM     45  C   UNL A   1      41.785  32.556  30.209  1.00  0.00     0.031 C 
ATOM     46  C   UNL A   1      39.625  28.047  29.782  1.00  0.00     0.029 A 
ATOM     47  N   UNL A   1      41.674  28.298  28.919  1.00  0.00    -0.354 N 
ATOM     48  C   UNL A   1      43.744  32.068  29.134  1.00  0.00     0.074 A 
ATOM     49  C   UNL A   1      42.948  33.058  29.825  1.00  0.00     0.031 C 
ATOM     50  C   UNL A   1      40.004  26.859  29.275  1.00  0.00     0.029 A 
ATOM     51  C   UNL A   1      41.321  26.996  28.654  1.00  0.00     0.049 A 
ATOM     52  H   UNL A   1      42.550  28.678  28.675  1.00  0.00     0.167 HD
ATOM     53  C   UNL A   1      44.996  32.288  28.665  1.00  0.00     0.037 A 
ATOM     54  C   UNL A   1      41.971  26.039  27.963  1.00  0.00     0.037 A 
ATOM     55  C   UNL A   1      45.790  31.309  27.973  1.00  0.00     0.049 A 
ATOM     56  C   UNL A   1      43.319  26.341  27.358  1.00  0.00     0.074 A 
ATOM     57  C   UNL A   1      47.073  31.438  27.473  1.00  0.00     0.029 A 
ATOM     58  N   UNL A   1      45.372  30.021  27.675  1.00  0.00    -0.354 N 
ATOM     59  N   UNL A   1      44.036  27.437  27.434  1.00  0.00    -0.248 NA
ATOM     60  C   UNL A   1      43.946  25.273  26.562  1.00  0.00     0.031 C 
ATOM     61  C   UNL A   1      47.411  30.247  26.822  1.00  0.00     0.029 A 
ATOM     62  C   UNL A   1      46.360  29.357  26.966  1.00  0.00     0.049 A 
ATOM     63  H   UNL A   1      44.503  29.635  27.930  1.00  0.00     0.167 HD
ATOM     64  C   UNL A   1      45.201  27.183  26.718  1.00  0.00     0.074 A 
ATOM     65  C   UNL A   1      45.104  25.824  26.230  1.00  0.00     0.031 C 
ATOM     66  C   UNL A   1      46.254  28.004  26.484  1.00  0.00     0.037 A 
BRANCH  53  67
ATOM     67  C   UNL A   1      45.569  33.661  28.854  1.00  0.00     0.057 A 
ATOM     68  C   UNL A   1      45.401  34.674  27.901  1.00  0.00     0.134 A 
ATOM     69  C   UNL A   1      46.273  33.981  30.021  1.00  0.00     0.134 A 
ATOM     70  F   UNL A   1      44.752  34.427  26.753  1.00  0.00    -0.206 F 
ATOM     71  C   UNL A   1      45.929  35.951  28.095  1.00  0.00     0.040 A 
ATOM     72  C   UNL A   1      46.784  35.261  30.238  1.00  0.00     0.040 A 
ATOM     73  F   UNL A   1      46.468  33.057  30.975  1.00  0.00    -0.206 F 
ATOM     74  C   UNL A   1      46.617  36.249  29.270  1.00  0.00     0.006 A 
ENDBRANCH  53  67
BRANCH  54  75
ATOM     75  C   UNL A   1      41.343  24.708  27.756  1.00  0.00     0.057 A 
ATOM     76  C   UNL A   1      41.776  23.579  28.463  1.00  0.00     0.134 A 
ATOM     77  C   UNL A   1      40.326  24.523  26.811  1.00  0.00     0.134 A 
ATOM     78  F   UNL A   1      42.770  23.684  29.358  1.00  0.00    -0.206 F 
ATOM     79  C   UNL A   1      41.231  22.315  28.228  1.00  0.00     0.040 A 
ATOM     80  C   UNL A   1      39.753  23.270  26.585  1.00  0.00     0.040 A 
ATOM     81  F   UNL A   1      39.874  25.560  26.091  1.00  0.00    -0.206 F 
ATOM     82  C   UNL A   1      40.213  22.159  27.291  1.00  0.00     0.006 A 
ENDBRANCH  54  75
BRANCH  66  83
ATOM     83  C   UNL A   1      47.401  27.450  25.686  1.00  0.00     0.057 A 
ATOM     84  C   UNL A   1      48.465  26.771  26.294  1.00  0.00     0.134 A 
ATOM     85  C   UNL A   1      47.418  27.556  24.289  1.00  0.00     0.134 A 
ATOM     86  F   UNL A   1      48.516  26.644  27.628  1.00  0.00    -0.206 F 
ATOM     87  C   UNL A   1      49.515  26.238  25.544  1.00  0.00     0.040 A 
ATOM     88  C   UNL A   1      48.448  27.004  23.526  1.00  0.00     0.040 A 
ATOM     89  F   UNL A   1      46.424  28.184  23.642  1.00  0.00    -0.206 F 
ATOM     90  C   UNL A   1      49.504  26.348  24.155  1.00  0.00     0.006 A 
ENDBRANCH  66  83
ENDBRANCH  40  41
ENDBRANCH  33  35
ENDBRANCH  32  33
ENDBRANCH  31  32
ENDBRANCH  30  31
ENDBRANCH  29  30
ENDBRANCH  28  29
ENDBRANCH   1  28
TORSDOF 21
ENDMDL
