MODEL 1
REMARK VINA RESULT:     -12.1      0.000      0.000
REMARK SMILES O=C(CC[C@H]1CCC[N@H+](Cc2cccc(C3CC3)c2)C1)OCCOCCOCCOC(=O)c1ccc(-c2c3nc(c(-c4c(F)cccc4F)c4ccc([nH]4)c(-c4c(F)cccc4F)c4nc(c(-c5c(F)cccc5F)c5ccc2[nH]5)C=C4)C=C3)cc1
REMARK SMILES IDX 24 1 23 2 22 3 21 4 2 5 1 6 3 7 4 8 5 9 6 10 20 11 7 12 9 13
REMARK SMILES IDX 8 14 10 16 11 17 12 18 19 19 13 20 15 21 14 22 16 23 17 24
REMARK SMILES IDX 18 25 25 26 26 27 27 28 28 29 29 30 30 31 31 32 32 33 33 34
REMARK SMILES IDX 34 35 86 36 35 37 85 38 36 39 37 40 38 41 79 42 39 43 84 44
REMARK SMILES IDX 78 45 80 46 40 47 83 48 77 49 76 50 41 52 67 53 50 54 66 55
REMARK SMILES IDX 51 56 54 57 65 58 81 59 52 60 53 61 64 63 82 64 55 65 42 66
REMARK SMILES IDX 43 67 48 68 44 69 45 70 47 71 49 72 46 73 68 74 69 75 74 76
REMARK SMILES IDX 70 77 71 78 73 79 75 80 72 81 56 82 57 83 62 84 58 85 59 86
REMARK SMILES IDX 61 87 63 88 60 89
REMARK H PARENT 9 15 80 51 54 62
REMARK Flexibility Score: inf
ROOT
ATOM      1  O   UNL A   1      33.740  32.202  28.046  1.00  0.00    -0.376 OA
ENDROOT
BRANCH   1   2
ATOM      2  C   UNL A   1      34.878  31.377  27.969  1.00  0.00     0.202 C 
BRANCH   2   3
ATOM      3  C   UNL A   1      34.534  29.964  27.649  1.00  0.00     0.261 C 
BRANCH   3   4
ATOM      4  O   UNL A   1      34.288  29.763  26.231  1.00  0.00    -0.463 OA
BRANCH   4   5
ATOM      5  C   UNL A   1      33.053  29.504  25.742  1.00  0.00     0.305 C 
ATOM      6  O   UNL A   1      32.896  29.387  24.526  1.00  0.00    -0.252 OA
BRANCH   5   7
ATOM      7  C   UNL A   1      31.871  29.266  26.707  1.00  0.00     0.123 C 
BRANCH   7   8
ATOM      8  C   UNL A   1      31.443  27.903  27.283  1.00  0.00     0.021 C 
BRANCH   8   9
ATOM      9  C   UNL A   1      31.328  26.573  26.476  1.00  0.00     0.045 C 
ATOM     10  C   UNL A   1      30.221  26.646  25.430  1.00  0.00     0.015 C 
ATOM     11  C   UNL A   1      32.656  25.906  26.037  1.00  0.00     0.265 C 
ATOM     12  C   UNL A   1      30.306  25.651  24.288  1.00  0.00     0.062 C 
ATOM     13  N   UNL A   1      32.807  25.631  24.624  1.00  0.00    -0.331 N 
ATOM     14  C   UNL A   1      31.697  25.364  23.740  1.00  0.00     0.262 C 
ATOM     15  H   UNL A   1      32.729  26.632  24.443  1.00  0.00     0.348 HD
BRANCH  13  16
ATOM     16  C   UNL A   1      34.098  25.176  24.181  1.00  0.00     0.299 C 
BRANCH  16  17
ATOM     17  C   UNL A   1      34.687  23.947  24.894  1.00  0.00     0.006 A 
ATOM     18  C   UNL A   1      36.259  23.554  24.181  1.00  0.00     0.009 A 
ATOM     19  C   UNL A   1      33.795  22.570  25.712  1.00  0.00     0.013 A 
ATOM     20  C   UNL A   1      36.993  22.008  24.297  1.00  0.00     0.001 A 
ATOM     21  C   UNL A   1      34.610  20.797  25.614  1.00  0.00    -0.044 A 
ATOM     22  C   UNL A   1      36.247  20.666  25.000  1.00  0.00     0.004 A 
BRANCH  21  23
ATOM     23  C   UNL A   1      33.999  19.373  24.568  1.00  0.00     0.019 C 
ATOM     24  C   UNL A   1      32.779  18.385  25.037  1.00  0.00     0.009 C 
ATOM     25  C   UNL A   1      32.580  19.291  23.909  1.00  0.00     0.009 C 
ENDBRANCH  21  23
ENDBRANCH  16  17
ENDBRANCH  13  16
ENDBRANCH   8   9
ENDBRANCH   7   8
ENDBRANCH   5   7
ENDBRANCH   4   5
ENDBRANCH   3   4
ENDBRANCH   2   3
ENDBRANCH   1   2
BRANCH   1  26
ATOM     26  C   UNL A   1      33.958  33.562  28.327  1.00  0.00     0.188 C 
BRANCH  26  27
ATOM     27  C   UNL A   1      34.561  33.945  29.722  1.00  0.00     0.188 C 
BRANCH  27  28
ATOM     28  O   UNL A   1      33.653  34.259  30.805  1.00  0.00    -0.376 OA
BRANCH  28  29
ATOM     29  C   UNL A   1      33.971  35.097  32.208  1.00  0.00     0.202 C 
BRANCH  29  30
ATOM     30  C   UNL A   1      35.436  34.655  33.812  1.00  0.00     0.261 C 
BRANCH  30  31
ATOM     31  O   UNL A   1      36.197  32.901  33.752  1.00  0.00    -0.460 OA
BRANCH  31  32
ATOM     32  C   UNL A   1      36.370  31.910  32.584  1.00  0.00     0.338 C 
ATOM     33  O   UNL A   1      35.534  31.079  32.183  1.00  0.00    -0.246 OA
BRANCH  32  34
ATOM     34  C   UNL A   1      37.591  31.542  31.882  1.00  0.00     0.060 A 
ATOM     35  C   UNL A   1      37.585  31.533  30.461  1.00  0.00     0.016 A 
ATOM     36  C   UNL A   1      38.447  30.662  32.503  1.00  0.00     0.016 A 
ATOM     37  C   UNL A   1      38.550  30.841  29.748  1.00  0.00     0.010 A 
ATOM     38  C   UNL A   1      39.537  30.165  31.854  1.00  0.00     0.010 A 
ATOM     39  C   UNL A   1      39.587  30.268  30.473  1.00  0.00    -0.014 A 
BRANCH  39  40
ATOM     40  C   UNL A   1      40.815  29.828  29.840  1.00  0.00     0.031 A 
ATOM     41  C   UNL A   1      41.879  30.828  29.559  1.00  0.00     0.074 A 
ATOM     42  C   UNL A   1      40.780  28.576  29.359  1.00  0.00     0.049 A 
ATOM     43  N   UNL A   1      42.953  30.684  28.840  1.00  0.00    -0.248 NA
ATOM     44  C   UNL A   1      41.679  32.193  30.086  1.00  0.00     0.031 C 
ATOM     45  C   UNL A   1      39.664  27.630  29.526  1.00  0.00     0.029 A 
ATOM     46  N   UNL A   1      41.685  27.888  28.618  1.00  0.00    -0.354 N 
ATOM     47  C   UNL A   1      43.546  31.934  28.821  1.00  0.00     0.074 A 
ATOM     48  C   UNL A   1      42.667  32.852  29.502  1.00  0.00     0.031 C 
ATOM     49  C   UNL A   1      39.984  26.464  28.955  1.00  0.00     0.029 A 
ATOM     50  C   UNL A   1      41.286  26.608  28.333  1.00  0.00     0.049 A 
ATOM     51  H   UNL A   1      42.540  28.269  28.315  1.00  0.00     0.167 HD
ATOM     52  C   UNL A   1      44.751  32.250  28.304  1.00  0.00     0.037 A 
ATOM     53  C   UNL A   1      41.931  25.666  27.633  1.00  0.00     0.037 A 
ATOM     54  C   UNL A   1      45.571  31.272  27.645  1.00  0.00     0.049 A 
ATOM     55  C   UNL A   1      43.278  26.043  27.097  1.00  0.00     0.074 A 
ATOM     56  C   UNL A   1      46.842  31.414  27.129  1.00  0.00     0.029 A 
ATOM     57  N   UNL A   1      45.179  29.957  27.412  1.00  0.00    -0.354 N 
ATOM     58  N   UNL A   1      43.901  27.198  27.166  1.00  0.00    -0.248 NA
ATOM     59  C   UNL A   1      44.020  24.991  26.404  1.00  0.00     0.031 C 
ATOM     60  C   UNL A   1      47.186  30.206  26.516  1.00  0.00     0.029 A 
ATOM     61  C   UNL A   1      46.170  29.282  26.728  1.00  0.00     0.049 A 
ATOM     62  H   UNL A   1      44.320  29.565  27.694  1.00  0.00     0.167 HD
ATOM     63  C   UNL A   1      45.125  27.009  26.551  1.00  0.00     0.074 A 
ATOM     64  C   UNL A   1      45.157  25.616  26.138  1.00  0.00     0.031 C 
ATOM     65  C   UNL A   1      46.134  27.892  26.341  1.00  0.00     0.037 A 
BRANCH  52  66
ATOM     66  C   UNL A   1      45.219  33.668  28.441  1.00  0.00     0.057 A 
ATOM     67  C   UNL A   1      45.979  34.100  29.538  1.00  0.00     0.134 A 
ATOM     68  C   UNL A   1      44.905  34.619  27.464  1.00  0.00     0.134 A 
ATOM     69  F   UNL A   1      46.299  33.249  30.525  1.00  0.00    -0.206 F 
ATOM     70  C   UNL A   1      46.384  35.429  29.672  1.00  0.00     0.040 A 
ATOM     71  C   UNL A   1      45.335  35.942  27.568  1.00  0.00     0.040 A 
ATOM     72  F   UNL A   1      44.171  34.281  26.393  1.00  0.00    -0.206 F 
ATOM     73  C   UNL A   1      46.071  36.352  28.678  1.00  0.00     0.006 A 
ENDBRANCH  52  66
BRANCH  53  74
ATOM     74  C   UNL A   1      41.336  24.321  27.475  1.00  0.00     0.057 A 
ATOM     75  C   UNL A   1      41.797  23.236  28.228  1.00  0.00     0.134 A 
ATOM     76  C   UNL A   1      40.264  24.091  26.604  1.00  0.00     0.134 A 
ATOM     77  F   UNL A   1      42.807  23.397  29.096  1.00  0.00    -0.206 F 
ATOM     78  C   UNL A   1      41.245  21.963  28.088  1.00  0.00     0.040 A 
ATOM     79  C   UNL A   1      39.679  22.830  26.479  1.00  0.00     0.040 A 
ATOM     80  F   UNL A   1      39.745  25.098  25.884  1.00  0.00    -0.206 F 
ATOM     81  C   UNL A   1      40.182  21.757  27.213  1.00  0.00     0.006 A 
ENDBRANCH  53  74
BRANCH  65  82
ATOM     82  C   UNL A   1      47.355  27.349  25.667  1.00  0.00     0.057 A 
ATOM     83  C   UNL A   1      47.540  27.441  24.283  1.00  0.00     0.134 A 
ATOM     84  C   UNL A   1      48.373  26.761  26.427  1.00  0.00     0.134 A 
ATOM     85  F   UNL A   1      46.593  27.986  23.504  1.00  0.00    -0.206 F 
ATOM     86  C   UNL A   1      48.679  26.924  23.671  1.00  0.00     0.040 A 
ATOM     87  C   UNL A   1      49.538  26.285  25.831  1.00  0.00     0.040 A 
ATOM     88  F   UNL A   1      48.263  26.662  27.761  1.00  0.00    -0.206 F 
ATOM     89  C   UNL A   1      49.685  26.353  24.447  1.00  0.00     0.006 A 
ENDBRANCH  65  82
ENDBRANCH  39  40
ENDBRANCH  32  34
ENDBRANCH  31  32
ENDBRANCH  30  31
ENDBRANCH  29  30
ENDBRANCH  28  29
ENDBRANCH  27  28
ENDBRANCH  26  27
ENDBRANCH   1  26
TORSDOF 22
ENDMDL
MODEL 2
REMARK VINA RESULT:     -11.7      1.181      2.180
REMARK SMILES O=C(CC[C@H]1CCC[N@H+](Cc2cccc(C3CC3)c2)C1)OCCOCCOCCOC(=O)c1ccc(-c2c3nc(c(-c4c(F)cccc4F)c4ccc([nH]4)c(-c4c(F)cccc4F)c4nc(c(-c5c(F)cccc5F)c5ccc2[nH]5)C=C4)C=C3)cc1
REMARK SMILES IDX 24 1 23 2 22 3 21 4 2 5 1 6 3 7 4 8 5 9 6 10 20 11 7 12 9 13
REMARK SMILES IDX 8 14 10 16 11 17 12 18 19 19 13 20 15 21 14 22 16 23 17 24
REMARK SMILES IDX 18 25 25 26 26 27 27 28 28 29 29 30 30 31 31 32 32 33 33 34
REMARK SMILES IDX 34 35 86 36 35 37 85 38 36 39 37 40 38 41 79 42 39 43 84 44
REMARK SMILES IDX 78 45 80 46 40 47 83 48 77 49 76 50 41 52 67 53 50 54 66 55
REMARK SMILES IDX 51 56 54 57 65 58 81 59 52 60 53 61 64 63 82 64 55 65 42 66
REMARK SMILES IDX 43 67 48 68 44 69 45 70 47 71 49 72 46 73 68 74 69 75 74 76
REMARK SMILES IDX 70 77 71 78 73 79 75 80 72 81 56 82 57 83 62 84 58 85 59 86
REMARK SMILES IDX 61 87 63 88 60 89
REMARK H PARENT 9 15 80 51 54 62
REMARK Flexibility Score: inf
ROOT
ATOM      1  O   UNL A   1      32.417  28.422  25.522  1.00  0.00    -0.376 OA
ENDROOT
BRANCH   1   2
ATOM      2  C   UNL A   1      33.667  27.777  25.527  1.00  0.00     0.202 C 
BRANCH   2   3
ATOM      3  C   UNL A   1      33.608  26.429  26.156  1.00  0.00     0.261 C 
BRANCH   3   4
ATOM      4  O   UNL A   1      32.541  25.610  25.607  1.00  0.00    -0.463 OA
BRANCH   4   5
ATOM      5  C   UNL A   1      31.468  25.235  26.341  1.00  0.00     0.305 C 
ATOM      6  O   UNL A   1      31.621  24.455  27.282  1.00  0.00    -0.252 OA
BRANCH   5   7
ATOM      7  C   UNL A   1      30.081  25.852  26.060  1.00  0.00     0.123 C 
BRANCH   7   8
ATOM      8  C   UNL A   1      29.381  25.899  24.688  1.00  0.00     0.021 C 
BRANCH   8   9
ATOM      9  C   UNL A   1      30.097  26.041  23.309  1.00  0.00     0.045 C 
ATOM     10  C   UNL A   1      30.698  27.431  23.131  1.00  0.00     0.015 C 
ATOM     11  C   UNL A   1      30.964  24.843  22.845  1.00  0.00     0.265 C 
ATOM     12  C   UNL A   1      31.798  27.562  22.094  1.00  0.00     0.062 C 
ATOM     13  N   UNL A   1      32.342  25.133  22.511  1.00  0.00    -0.331 N 
ATOM     14  C   UNL A   1      32.790  26.410  22.007  1.00  0.00     0.262 C 
ATOM     15  H   UNL A   1      32.487  25.444  23.471  1.00  0.00     0.348 HD
BRANCH  13  16
ATOM     16  C   UNL A   1      33.201  24.009  22.249  1.00  0.00     0.299 C 
BRANCH  16  17
ATOM     17  C   UNL A   1      33.690  23.206  23.466  1.00  0.00     0.006 A 
ATOM     18  C   UNL A   1      35.455  23.082  23.417  1.00  0.00     0.009 A 
ATOM     19  C   UNL A   1      32.806  21.892  24.391  1.00  0.00     0.013 A 
ATOM     20  C   UNL A   1      36.345  21.872  24.245  1.00  0.00     0.001 A 
ATOM     21  C   UNL A   1      33.886  20.439  25.125  1.00  0.00    -0.044 A 
ATOM     22  C   UNL A   1      35.631  20.602  25.098  1.00  0.00     0.004 A 
BRANCH  21  23
ATOM     23  C   UNL A   1      33.942  18.687  24.475  1.00  0.00     0.019 C 
ATOM     24  C   UNL A   1      32.732  17.609  24.718  1.00  0.00     0.009 C 
ATOM     25  C   UNL A   1      32.989  18.110  23.372  1.00  0.00     0.009 C 
ENDBRANCH  21  23
ENDBRANCH  16  17
ENDBRANCH  13  16
ENDBRANCH   8   9
ENDBRANCH   7   8
ENDBRANCH   5   7
ENDBRANCH   4   5
ENDBRANCH   3   4
ENDBRANCH   2   3
ENDBRANCH   1   2
BRANCH   1  26
ATOM     26  C   UNL A   1      32.002  29.016  26.727  1.00  0.00     0.188 C 
BRANCH  26  27
ATOM     27  C   UNL A   1      31.823  30.572  26.765  1.00  0.00     0.188 C 
BRANCH  27  28
ATOM     28  O   UNL A   1      33.009  31.404  26.788  1.00  0.00    -0.376 OA
BRANCH  28  29
ATOM     29  C   UNL A   1      34.211  31.456  27.936  1.00  0.00     0.202 C 
BRANCH  29  30
ATOM     30  C   UNL A   1      34.486  32.863  29.628  1.00  0.00     0.261 C 
BRANCH  30  31
ATOM     31  O   UNL A   1      34.760  32.037  31.332  1.00  0.00    -0.460 OA
BRANCH  31  32
ATOM     32  C   UNL A   1      36.053  31.614  32.057  1.00  0.00     0.338 C 
ATOM     33  O   UNL A   1      36.368  31.879  33.232  1.00  0.00    -0.246 OA
BRANCH  32  34
ATOM     34  C   UNL A   1      37.272  31.062  31.484  1.00  0.00     0.060 A 
ATOM     35  C   UNL A   1      38.300  30.622  32.362  1.00  0.00     0.016 A 
ATOM     36  C   UNL A   1      37.668  31.525  30.251  1.00  0.00     0.016 A 
ATOM     37  C   UNL A   1      39.599  30.457  31.912  1.00  0.00     0.010 A 
ATOM     38  C   UNL A   1      38.866  31.161  29.714  1.00  0.00     0.010 A 
ATOM     39  C   UNL A   1      39.826  30.615  30.550  1.00  0.00    -0.014 A 
BRANCH  39  40
ATOM     40  C   UNL A   1      41.038  30.139  29.914  1.00  0.00     0.031 A 
ATOM     41  C   UNL A   1      42.127  31.109  29.620  1.00  0.00     0.074 A 
ATOM     42  C   UNL A   1      40.967  28.885  29.442  1.00  0.00     0.049 A 
ATOM     43  N   UNL A   1      43.192  30.931  28.894  1.00  0.00    -0.248 NA
ATOM     44  C   UNL A   1      41.966  32.482  30.138  1.00  0.00     0.031 C 
ATOM     45  C   UNL A   1      39.828  27.970  29.623  1.00  0.00     0.029 A 
ATOM     46  N   UNL A   1      41.850  28.168  28.700  1.00  0.00    -0.354 N 
ATOM     47  C   UNL A   1      43.817  32.165  28.863  1.00  0.00     0.074 A 
ATOM     48  C   UNL A   1      42.967  33.111  29.542  1.00  0.00     0.031 C 
ATOM     49  C   UNL A   1      40.113  26.792  29.059  1.00  0.00     0.029 A 
ATOM     50  C   UNL A   1      41.415  26.897  28.427  1.00  0.00     0.049 A 
ATOM     51  H   UNL A   1      42.713  28.525  28.390  1.00  0.00     0.167 HD
ATOM     52  C   UNL A   1      45.027  32.446  28.337  1.00  0.00     0.037 A 
ATOM     53  C   UNL A   1      42.031  25.934  27.730  1.00  0.00     0.037 A 
ATOM     54  C   UNL A   1      45.817  31.441  27.680  1.00  0.00     0.049 A 
ATOM     55  C   UNL A   1      43.383  26.271  27.184  1.00  0.00     0.074 A 
ATOM     56  C   UNL A   1      47.087  31.547  27.156  1.00  0.00     0.029 A 
ATOM     57  N   UNL A   1      45.389  30.135  27.459  1.00  0.00    -0.354 N 
ATOM     58  N   UNL A   1      44.037  27.410  27.241  1.00  0.00    -0.248 NA
ATOM     59  C   UNL A   1      44.094  25.195  26.494  1.00  0.00     0.031 C 
ATOM     60  C   UNL A   1      47.397  30.326  26.549  1.00  0.00     0.029 A 
ATOM     61  C   UNL A   1      46.358  29.431  26.774  1.00  0.00     0.049 A 
ATOM     62  H   UNL A   1      44.521  29.769  27.749  1.00  0.00     0.167 HD
ATOM     63  C   UNL A   1      45.252  27.184  26.620  1.00  0.00     0.074 A 
ATOM     64  C   UNL A   1      45.245  25.788  26.217  1.00  0.00     0.031 C 
ATOM     65  C   UNL A   1      46.283  28.039  26.398  1.00  0.00     0.037 A 
BRANCH  52  66
ATOM     66  C   UNL A   1      45.533  33.852  28.461  1.00  0.00     0.057 A 
ATOM     67  C   UNL A   1      46.295  34.276  29.560  1.00  0.00     0.134 A 
ATOM     68  C   UNL A   1      45.254  34.798  27.469  1.00  0.00     0.134 A 
ATOM     69  F   UNL A   1      46.583  33.429  30.560  1.00  0.00    -0.206 F 
ATOM     70  C   UNL A   1      46.735  35.595  29.681  1.00  0.00     0.040 A 
ATOM     71  C   UNL A   1      45.720  36.111  27.560  1.00  0.00     0.040 A 
ATOM     72  F   UNL A   1      44.521  34.468  26.395  1.00  0.00    -0.206 F 
ATOM     73  C   UNL A   1      46.457  36.514  28.673  1.00  0.00     0.006 A 
ENDBRANCH  52  66
BRANCH  53  74
ATOM     74  C   UNL A   1      41.400  24.603  27.586  1.00  0.00     0.057 A 
ATOM     75  C   UNL A   1      41.805  23.524  28.377  1.00  0.00     0.134 A 
ATOM     76  C   UNL A   1      40.347  24.385  26.688  1.00  0.00     0.134 A 
ATOM     77  F   UNL A   1      42.793  23.675  29.271  1.00  0.00    -0.206 F 
ATOM     78  C   UNL A   1      41.218  22.264  28.251  1.00  0.00     0.040 A 
ATOM     79  C   UNL A   1      39.728  23.139  26.575  1.00  0.00     0.040 A 
ATOM     80  F   UNL A   1      39.881  25.389  25.930  1.00  0.00    -0.206 F 
ATOM     81  C   UNL A   1      40.176  22.070  27.348  1.00  0.00     0.006 A 
ENDBRANCH  53  74
BRANCH  65  82
ATOM     82  C   UNL A   1      47.485  27.459  25.720  1.00  0.00     0.057 A 
ATOM     83  C   UNL A   1      47.641  27.495  24.330  1.00  0.00     0.134 A 
ATOM     84  C   UNL A   1      48.514  26.893  26.481  1.00  0.00     0.134 A 
ATOM     85  F   UNL A   1      46.683  28.018  23.549  1.00  0.00    -0.206 F 
ATOM     86  C   UNL A   1      48.763  26.945  23.715  1.00  0.00     0.040 A 
ATOM     87  C   UNL A   1      49.663  26.383  25.880  1.00  0.00     0.040 A 
ATOM     88  F   UNL A   1      48.431  26.847  27.820  1.00  0.00    -0.206 F 
ATOM     89  C   UNL A   1      49.781  26.396  24.492  1.00  0.00     0.006 A 
ENDBRANCH  65  82
ENDBRANCH  39  40
ENDBRANCH  32  34
ENDBRANCH  31  32
ENDBRANCH  30  31
ENDBRANCH  29  30
ENDBRANCH  28  29
ENDBRANCH  27  28
ENDBRANCH  26  27
ENDBRANCH   1  26
TORSDOF 22
ENDMDL
MODEL 3
REMARK VINA RESULT:     -11.4      3.883      7.814
REMARK SMILES O=C(CC[C@H]1CCC[N@H+](Cc2cccc(C3CC3)c2)C1)OCCOCCOCCOC(=O)c1ccc(-c2c3nc(c(-c4c(F)cccc4F)c4ccc([nH]4)c(-c4c(F)cccc4F)c4nc(c(-c5c(F)cccc5F)c5ccc2[nH]5)C=C4)C=C3)cc1
REMARK SMILES IDX 24 1 23 2 22 3 21 4 2 5 1 6 3 7 4 8 5 9 6 10 20 11 7 12 9 13
REMARK SMILES IDX 8 14 10 16 11 17 12 18 19 19 13 20 15 21 14 22 16 23 17 24
REMARK SMILES IDX 18 25 25 26 26 27 27 28 28 29 29 30 30 31 31 32 32 33 33 34
REMARK SMILES IDX 34 35 86 36 35 37 85 38 36 39 37 40 38 41 79 42 39 43 84 44
REMARK SMILES IDX 78 45 80 46 40 47 83 48 77 49 76 50 41 52 67 53 50 54 66 55
REMARK SMILES IDX 51 56 54 57 65 58 81 59 52 60 53 61 64 63 82 64 55 65 42 66
REMARK SMILES IDX 43 67 48 68 44 69 45 70 47 71 49 72 46 73 68 74 69 75 74 76
REMARK SMILES IDX 70 77 71 78 73 79 75 80 72 81 56 82 57 83 62 84 58 85 59 86
REMARK SMILES IDX 61 87 63 88 60 89
REMARK H PARENT 9 15 80 51 54 62
REMARK Flexibility Score: inf
ROOT
ATOM      1  O   UNL A   1      31.394  27.279  22.310  1.00  0.00    -0.376 OA
ENDROOT
BRANCH   1   2
ATOM      2  C   UNL A   1      32.615  27.976  22.368  1.00  0.00     0.202 C 
BRANCH   2   3
ATOM      3  C   UNL A   1      33.631  27.273  23.200  1.00  0.00     0.261 C 
BRANCH   3   4
ATOM      4  O   UNL A   1      34.163  28.119  24.254  1.00  0.00    -0.463 OA
BRANCH   4   5
ATOM      5  C   UNL A   1      33.405  28.540  25.293  1.00  0.00     0.305 C 
ATOM      6  O   UNL A   1      32.999  29.704  25.313  1.00  0.00    -0.252 OA
BRANCH   5   7
ATOM      7  C   UNL A   1      32.979  27.547  26.395  1.00  0.00     0.123 C 
BRANCH   7   8
ATOM      8  C   UNL A   1      31.703  26.683  26.380  1.00  0.00     0.021 C 
BRANCH   8   9
ATOM      9  C   UNL A   1      31.590  25.245  25.784  1.00  0.00     0.045 C 
ATOM     10  C   UNL A   1      30.515  25.171  24.703  1.00  0.00     0.015 C 
ATOM     11  C   UNL A   1      32.918  24.501  25.495  1.00  0.00     0.265 C 
ATOM     12  C   UNL A   1      30.617  24.010  23.731  1.00  0.00     0.062 C 
ATOM     13  N   UNL A   1      33.106  24.010  24.148  1.00  0.00    -0.331 N 
ATOM     14  C   UNL A   1      32.019  23.624  23.280  1.00  0.00     0.262 C 
ATOM     15  H   UNL A   1      33.051  24.972  23.813  1.00  0.00     0.348 HD
BRANCH  13  16
ATOM     16  C   UNL A   1      34.401  23.475  23.822  1.00  0.00     0.299 C 
BRANCH  16  17
ATOM     17  C   UNL A   1      34.850  22.218  24.586  1.00  0.00     0.006 A 
ATOM     18  C   UNL A   1      36.583  21.962  24.329  1.00  0.00     0.009 A 
ATOM     19  C   UNL A   1      33.861  20.734  25.013  1.00  0.00     0.013 A 
ATOM     20  C   UNL A   1      37.360  20.448  24.542  1.00  0.00     0.001 A 
ATOM     21  C   UNL A   1      34.793  19.016  25.029  1.00  0.00    -0.044 A 
ATOM     22  C   UNL A   1      36.541  19.016  24.904  1.00  0.00     0.004 A 
BRANCH  21  23
ATOM     23  C   UNL A   1      34.604  17.662  23.754  1.00  0.00     0.019 C 
ATOM     24  C   UNL A   1      33.671  16.338  23.996  1.00  0.00     0.009 C 
ATOM     25  C   UNL A   1      33.274  17.325  22.997  1.00  0.00     0.009 C 
ENDBRANCH  21  23
ENDBRANCH  16  17
ENDBRANCH  13  16
ENDBRANCH   8   9
ENDBRANCH   7   8
ENDBRANCH   5   7
ENDBRANCH   4   5
ENDBRANCH   3   4
ENDBRANCH   2   3
ENDBRANCH   1   2
BRANCH   1  26
ATOM     26  C   UNL A   1      30.223  28.031  22.514  1.00  0.00     0.188 C 
BRANCH  26  27
ATOM     27  C   UNL A   1      30.359  29.579  22.716  1.00  0.00     0.188 C 
BRANCH  27  28
ATOM     28  O   UNL A   1      29.706  30.187  23.857  1.00  0.00    -0.376 OA
BRANCH  28  29
ATOM     29  C   UNL A   1      30.093  31.610  24.629  1.00  0.00     0.202 C 
BRANCH  29  30
ATOM     30  C   UNL A   1      30.829  31.937  26.695  1.00  0.00     0.261 C 
BRANCH  30  31
ATOM     31  O   UNL A   1      32.464  32.923  26.824  1.00  0.00    -0.460 OA
BRANCH  31  32
ATOM     32  C   UNL A   1      33.162  33.574  28.034  1.00  0.00     0.338 C 
ATOM     33  O   UNL A   1      32.967  34.721  28.478  1.00  0.00    -0.246 OA
BRANCH  32  34
ATOM     34  C   UNL A   1      34.350  33.123  28.744  1.00  0.00     0.060 A 
ATOM     35  C   UNL A   1      35.534  33.904  28.659  1.00  0.00     0.016 A 
ATOM     36  C   UNL A   1      34.513  31.769  28.925  1.00  0.00     0.016 A 
ATOM     37  C   UNL A   1      36.770  33.361  28.968  1.00  0.00     0.010 A 
ATOM     38  C   UNL A   1      35.662  31.263  29.455  1.00  0.00     0.010 A 
ATOM     39  C   UNL A   1      36.788  32.071  29.484  1.00  0.00    -0.014 A 
BRANCH  39  40
ATOM     40  C   UNL A   1      37.950  31.530  30.159  1.00  0.00     0.031 A 
ATOM     41  C   UNL A   1      38.776  30.506  29.465  1.00  0.00     0.074 A 
ATOM     42  C   UNL A   1      38.042  31.850  31.459  1.00  0.00     0.049 A 
ATOM     43  N   UNL A   1      39.726  29.766  29.957  1.00  0.00    -0.248 NA
ATOM     44  C   UNL A   1      38.444  30.213  28.056  1.00  0.00     0.031 C 
ATOM     45  C   UNL A   1      37.139  32.766  32.177  1.00  0.00     0.029 A 
ATOM     46  N   UNL A   1      38.914  31.435  32.413  1.00  0.00    -0.354 N 
ATOM     47  C   UNL A   1      40.095  28.920  28.926  1.00  0.00     0.074 A 
ATOM     48  C   UNL A   1      39.201  29.153  27.819  1.00  0.00     0.031 C 
ATOM     49  C   UNL A   1      37.548  32.886  33.444  1.00  0.00     0.029 A 
ATOM     50  C   UNL A   1      38.689  32.011  33.636  1.00  0.00     0.049 A 
ATOM     51  H   UNL A   1      39.634  30.785  32.243  1.00  0.00     0.167 HD
ATOM     52  C   UNL A   1      41.131  28.055  28.920  1.00  0.00     0.037 A 
ATOM     53  C   UNL A   1      39.356  31.829  34.783  1.00  0.00     0.037 A 
ATOM     54  C   UNL A   1      41.980  27.886  30.066  1.00  0.00     0.049 A 
ATOM     55  C   UNL A   1      40.516  30.883  34.733  1.00  0.00     0.074 A 
ATOM     56  C   UNL A   1      43.108  27.105  30.198  1.00  0.00     0.029 A 
ATOM     57  N   UNL A   1      41.776  28.522  31.288  1.00  0.00    -0.354 N 
ATOM     58  N   UNL A   1      40.944  30.153  33.727  1.00  0.00    -0.248 NA
ATOM     59  C   UNL A   1      41.297  30.745  35.961  1.00  0.00     0.031 C 
ATOM     60  C   UNL A   1      43.541  27.209  31.524  1.00  0.00     0.029 A 
ATOM     61  C   UNL A   1      42.738  28.125  32.193  1.00  0.00     0.049 A 
ATOM     62  H   UNL A   1      41.051  29.161  31.477  1.00  0.00     0.167 HD
ATOM     63  C   UNL A   1      42.066  29.488  34.189  1.00  0.00     0.074 A 
ATOM     64  C   UNL A   1      42.257  29.925  35.561  1.00  0.00     0.031 C 
ATOM     65  C   UNL A   1      42.867  28.598  33.551  1.00  0.00     0.037 A 
BRANCH  52  66
ATOM     66  C   UNL A   1      41.375  27.269  27.668  1.00  0.00     0.057 A 
ATOM     67  C   UNL A   1      42.259  27.710  26.671  1.00  0.00     0.134 A 
ATOM     68  C   UNL A   1      40.719  26.052  27.451  1.00  0.00     0.134 A 
ATOM     69  F   UNL A   1      42.906  28.878  26.799  1.00  0.00    -0.206 F 
ATOM     70  C   UNL A   1      42.457  26.986  25.494  1.00  0.00     0.040 A 
ATOM     71  C   UNL A   1      40.937  25.300  26.296  1.00  0.00     0.040 A 
ATOM     72  F   UNL A   1      39.851  25.573  28.355  1.00  0.00    -0.206 F 
ATOM     73  C   UNL A   1      41.803  25.770  25.310  1.00  0.00     0.006 A 
ENDBRANCH  52  66
BRANCH  53  74
ATOM     74  C   UNL A   1      38.972  32.587  35.994  1.00  0.00     0.057 A 
ATOM     75  C   UNL A   1      38.168  32.010  36.981  1.00  0.00     0.134 A 
ATOM     76  C   UNL A   1      39.434  33.890  36.219  1.00  0.00     0.134 A 
ATOM     77  F   UNL A   1      37.712  30.756  36.833  1.00  0.00    -0.206 F 
ATOM     78  C   UNL A   1      37.799  32.714  38.127  1.00  0.00     0.040 A 
ATOM     79  C   UNL A   1      39.101  34.594  37.377  1.00  0.00     0.040 A 
ATOM     80  F   UNL A   1      40.244  34.487  35.332  1.00  0.00    -0.206 F 
ATOM     81  C   UNL A   1      38.267  34.009  38.328  1.00  0.00     0.006 A 
ENDBRANCH  53  74
BRANCH  65  82
ATOM     82  C   UNL A   1      44.034  28.082  34.336  1.00  0.00     0.057 A 
ATOM     83  C   UNL A   1      43.961  26.900  35.081  1.00  0.00     0.134 A 
ATOM     84  C   UNL A   1      45.255  28.766  34.308  1.00  0.00     0.134 A 
ATOM     85  F   UNL A   1      42.814  26.208  35.151  1.00  0.00    -0.206 F 
ATOM     86  C   UNL A   1      45.053  26.438  35.811  1.00  0.00     0.040 A 
ATOM     87  C   UNL A   1      46.368  28.287  34.994  1.00  0.00     0.040 A 
ATOM     88  F   UNL A   1      45.393  29.895  33.595  1.00  0.00    -0.206 F 
ATOM     89  C   UNL A   1      46.263  27.128  35.760  1.00  0.00     0.006 A 
ENDBRANCH  65  82
ENDBRANCH  39  40
ENDBRANCH  32  34
ENDBRANCH  31  32
ENDBRANCH  30  31
ENDBRANCH  29  30
ENDBRANCH  28  29
ENDBRANCH  27  28
ENDBRANCH  26  27
ENDBRANCH   1  26
TORSDOF 22
ENDMDL
