MODEL 1
REMARK VINA RESULT:     -11.4      0.000      0.000
REMARK SMILES CC(=O)Nc1cccc(NS(=O)(=O)c2cccc(C(=O)OCCOCCOCCOC(=O)c3ccc(-c4c5nc(c(-c6c(F)cccc6F)c6ccc([nH]6)c(-c6c(F)cccc6F)c6nc(c(-c7c(F)cccc7F)c7ccc4[nH]7)C=C6)C=C5)cc3)c2)c1
REMARK SMILES IDX 25 1 24 2 23 3 22 4 21 5 19 6 20 7 18 8 14 9 15 10 87 11
REMARK SMILES IDX 16 12 17 13 11 14 12 15 13 16 10 17 9 19 5 20 6 21 88 22
REMARK SMILES IDX 7 23 8 24 4 25 1 26 2 27 3 28 26 30 27 31 28 32 29 33 30 34
REMARK SMILES IDX 31 35 32 36 33 37 34 38 86 39 35 40 85 41 36 42 37 43 38 44
REMARK SMILES IDX 79 45 39 46 84 47 78 48 80 49 40 50 83 51 77 52 76 53 41 55
REMARK SMILES IDX 67 56 50 57 66 58 51 59 54 60 65 61 81 62 52 63 53 64 64 66
REMARK SMILES IDX 82 67 55 68 42 69 43 70 48 71 44 72 45 73 47 74 49 75 46 76
REMARK SMILES IDX 68 77 69 78 74 79 70 80 71 81 73 82 75 83 72 84 56 85 57 86
REMARK SMILES IDX 62 87 58 88 59 89 61 90 63 91 60 92
REMARK H PARENT 10 18 4 29 80 54 54 65
REMARK Flexibility Score: inf
ROOT
ATOM      1  C   UNL A   1      39.348  21.125  26.046  1.00  0.00     0.188 C 
ENDROOT
BRANCH   1   2
ATOM      2  O   UNL A   1      38.803  22.435  26.171  1.00  0.00    -0.376 OA
BRANCH   2   3
ATOM      3  C   UNL A   1      37.622  22.774  25.448  1.00  0.00     0.202 C 
BRANCH   3   4
ATOM      4  C   UNL A   1      36.855  21.662  24.717  1.00  0.00     0.261 C 
BRANCH   4   5
ATOM      5  O   UNL A   1      35.437  21.894  24.642  1.00  0.00    -0.460 OA
BRANCH   5   6
ATOM      6  C   UNL A   1      35.048  22.962  23.908  1.00  0.00     0.338 C 
ATOM      7  O   UNL A   1      35.168  23.123  22.703  1.00  0.00    -0.246 OA
BRANCH   6   8
ATOM      8  C   UNL A   1      34.198  23.833  24.749  1.00  0.00     0.061 A 
ATOM      9  C   UNL A   1      33.564  25.949  25.692  1.00  0.00     0.088 A 
ATOM     10  C   UNL A   1      32.612  25.317  26.506  1.00  0.00     0.022 A 
ATOM     11  C   UNL A   1      34.407  25.212  24.848  1.00  0.00     0.038 A 
ATOM     12  C   UNL A   1      32.413  23.944  26.396  1.00  0.00     0.002 A 
ATOM     13  C   UNL A   1      33.181  23.210  25.495  1.00  0.00     0.016 A 
BRANCH   9  14
ATOM     14  S   UNL A   1      33.578  27.720  25.628  1.00  0.00     0.261 S 
ATOM     15  O   UNL A   1      33.855  28.105  24.261  1.00  0.00    -0.201 OA
ATOM     16  O   UNL A   1      34.400  28.212  26.713  1.00  0.00    -0.201 OA
BRANCH  14  17
ATOM     17  N   UNL A   1      31.971  28.197  25.945  1.00  0.00    -0.280 N 
ATOM     18  H   UNL A   1      31.702  28.407  26.869  1.00  0.00     0.180 HD
BRANCH  17  19
ATOM     19  C   UNL A   1      31.003  28.298  24.884  1.00  0.00     0.051 A 
ATOM     20  C   UNL A   1      29.918  29.631  23.168  1.00  0.00     0.043 A 
ATOM     21  C   UNL A   1      29.241  28.501  22.705  1.00  0.00     0.026 A 
ATOM     22  C   UNL A   1      30.744  29.539  24.298  1.00  0.00     0.052 A 
ATOM     23  C   UNL A   1      29.534  27.259  23.248  1.00  0.00     0.004 A 
ATOM     24  C   UNL A   1      30.458  27.163  24.287  1.00  0.00     0.027 A 
BRANCH  20  25
ATOM     25  N   UNL A   1      29.753  30.808  22.425  1.00  0.00    -0.326 N 
ATOM     26  C   UNL A   1      27.650  31.596  23.500  1.00  0.00     0.114 C 
ATOM     27  C   UNL A   1      28.733  31.720  22.459  1.00  0.00     0.221 C 
ATOM     28  O   UNL A   1      28.758  32.677  21.683  1.00  0.00    -0.275 OA
ATOM     29  H   UNL A   1      30.477  31.009  21.789  1.00  0.00     0.169 HD
ENDBRANCH  20  25
ENDBRANCH  17  19
ENDBRANCH  14  17
ENDBRANCH   9  14
ENDBRANCH   6   8
ENDBRANCH   5   6
ENDBRANCH   4   5
ENDBRANCH   3   4
ENDBRANCH   2   3
ENDBRANCH   1   2
BRANCH   1  30
ATOM     30  C   UNL A   1      40.722  20.806  26.674  1.00  0.00     0.188 C 
BRANCH  30  31
ATOM     31  O   UNL A   1      41.611  20.184  25.779  1.00  0.00    -0.376 OA
BRANCH  31  32
ATOM     32  C   UNL A   1      43.001  20.373  25.964  1.00  0.00     0.202 C 
BRANCH  32  33
ATOM     33  C   UNL A   1      43.737  21.599  25.392  1.00  0.00     0.261 C 
BRANCH  33  34
ATOM     34  O   UNL A   1      42.970  22.785  25.139  1.00  0.00    -0.460 OA
BRANCH  34  35
ATOM     35  C   UNL A   1      43.644  23.953  25.048  1.00  0.00     0.338 C 
ATOM     36  O   UNL A   1      44.519  24.241  24.253  1.00  0.00    -0.246 OA
BRANCH  35  37
ATOM     37  C   UNL A   1      43.025  24.911  25.990  1.00  0.00     0.060 A 
ATOM     38  C   UNL A   1      43.512  26.224  26.045  1.00  0.00     0.016 A 
ATOM     39  C   UNL A   1      41.980  24.509  26.825  1.00  0.00     0.016 A 
ATOM     40  C   UNL A   1      42.970  27.132  26.958  1.00  0.00     0.010 A 
ATOM     41  C   UNL A   1      41.451  25.416  27.750  1.00  0.00     0.010 A 
ATOM     42  C   UNL A   1      41.961  26.722  27.841  1.00  0.00    -0.014 A 
BRANCH  42  43
ATOM     43  C   UNL A   1      41.551  27.600  28.966  1.00  0.00     0.031 A 
ATOM     44  C   UNL A   1      42.292  27.491  30.271  1.00  0.00     0.074 A 
ATOM     45  C   UNL A   1      40.540  28.476  28.840  1.00  0.00     0.049 A 
ATOM     46  N   UNL A   1      42.072  28.102  31.407  1.00  0.00    -0.248 NA
ATOM     47  C   UNL A   1      43.436  26.564  30.296  1.00  0.00     0.031 C 
ATOM     48  C   UNL A   1      39.762  28.702  27.624  1.00  0.00     0.029 A 
ATOM     49  N   UNL A   1      39.983  29.330  29.761  1.00  0.00    -0.354 N 
ATOM     50  C   UNL A   1      43.042  27.628  32.282  1.00  0.00     0.074 A 
ATOM     51  C   UNL A   1      43.834  26.661  31.555  1.00  0.00     0.031 C 
ATOM     52  C   UNL A   1      38.816  29.623  27.878  1.00  0.00     0.029 A 
ATOM     53  C   UNL A   1      38.900  30.026  29.281  1.00  0.00     0.049 A 
ATOM     54  H   UNL A   1      40.328  29.433  30.677  1.00  0.00     0.167 HD
ATOM     55  C   UNL A   1      43.256  27.972  33.574  1.00  0.00     0.037 A 
ATOM     56  C   UNL A   1      38.059  30.870  29.912  1.00  0.00     0.037 A 
ATOM     57  C   UNL A   1      42.465  28.928  34.303  1.00  0.00     0.049 A 
ATOM     58  C   UNL A   1      38.272  31.180  31.372  1.00  0.00     0.074 A 
ATOM     59  C   UNL A   1      42.618  29.359  35.609  1.00  0.00     0.029 A 
ATOM     60  N   UNL A   1      41.362  29.595  33.789  1.00  0.00    -0.354 N 
ATOM     61  N   UNL A   1      39.210  30.753  32.182  1.00  0.00    -0.248 NA
ATOM     62  C   UNL A   1      37.307  32.093  32.004  1.00  0.00     0.031 C 
ATOM     63  C   UNL A   1      41.577  30.245  35.903  1.00  0.00     0.029 A 
ATOM     64  C   UNL A   1      40.810  30.412  34.762  1.00  0.00     0.049 A 
ATOM     65  H   UNL A   1      41.023  29.500  32.870  1.00  0.00     0.167 HD
ATOM     66  C   UNL A   1      38.968  31.366  33.406  1.00  0.00     0.074 A 
ATOM     67  C   UNL A   1      37.800  32.204  33.230  1.00  0.00     0.031 C 
ATOM     68  C   UNL A   1      39.652  31.249  34.571  1.00  0.00     0.037 A 
BRANCH  55  69
ATOM     69  C   UNL A   1      44.380  27.285  34.293  1.00  0.00     0.057 A 
ATOM     70  C   UNL A   1      44.246  25.990  34.813  1.00  0.00     0.134 A 
ATOM     71  C   UNL A   1      45.621  27.917  34.445  1.00  0.00     0.134 A 
ATOM     72  F   UNL A   1      43.079  25.337  34.716  1.00  0.00    -0.206 F 
ATOM     73  C   UNL A   1      45.298  25.359  35.479  1.00  0.00     0.040 A 
ATOM     74  C   UNL A   1      46.688  27.285  35.084  1.00  0.00     0.040 A 
ATOM     75  F   UNL A   1      45.818  29.155  33.967  1.00  0.00    -0.206 F 
ATOM     76  C   UNL A   1      46.527  26.005  35.609  1.00  0.00     0.006 A 
ENDBRANCH  55  69
BRANCH  56  77
ATOM     77  C   UNL A   1      36.919  31.474  29.176  1.00  0.00     0.057 A 
ATOM     78  C   UNL A   1      35.760  30.739  28.902  1.00  0.00     0.134 A 
ATOM     79  C   UNL A   1      36.975  32.790  28.701  1.00  0.00     0.134 A 
ATOM     80  F   UNL A   1      35.658  29.465  29.307  1.00  0.00    -0.206 F 
ATOM     81  C   UNL A   1      34.704  31.283  28.169  1.00  0.00     0.040 A 
ATOM     82  C   UNL A   1      35.916  33.356  27.989  1.00  0.00     0.040 A 
ATOM     83  F   UNL A   1      38.059  33.547  28.926  1.00  0.00    -0.206 F 
ATOM     84  C   UNL A   1      34.779  32.598  27.714  1.00  0.00     0.006 A 
ENDBRANCH  56  77
BRANCH  68  85
ATOM     85  C   UNL A   1      39.186  32.074  35.736  1.00  0.00     0.057 A 
ATOM     86  C   UNL A   1      39.624  33.389  35.938  1.00  0.00     0.134 A 
ATOM     87  C   UNL A   1      38.249  31.560  36.641  1.00  0.00     0.134 A 
ATOM     88  F   UNL A   1      40.530  33.939  35.114  1.00  0.00    -0.206 F 
ATOM     89  C   UNL A   1      39.164  34.155  37.012  1.00  0.00     0.040 A 
ATOM     90  C   UNL A   1      37.760  32.325  37.702  1.00  0.00     0.040 A 
ATOM     91  F   UNL A   1      37.779  30.311  36.501  1.00  0.00    -0.206 F 
ATOM     92  C   UNL A   1      38.222  33.625  37.893  1.00  0.00     0.006 A 
ENDBRANCH  68  85
ENDBRANCH  42  43
ENDBRANCH  35  37
ENDBRANCH  34  35
ENDBRANCH  33  34
ENDBRANCH  32  33
ENDBRANCH  31  32
ENDBRANCH  30  31
ENDBRANCH   1  30
TORSDOF 21
ENDMDL
MODEL 2
REMARK VINA RESULT:     -10.9      3.733      5.605
REMARK SMILES CC(=O)Nc1cccc(NS(=O)(=O)c2cccc(C(=O)OCCOCCOCCOC(=O)c3ccc(-c4c5nc(c(-c6c(F)cccc6F)c6ccc([nH]6)c(-c6c(F)cccc6F)c6nc(c(-c7c(F)cccc7F)c7ccc4[nH]7)C=C6)C=C5)cc3)c2)c1
REMARK SMILES IDX 25 1 24 2 23 3 22 4 21 5 19 6 20 7 18 8 14 9 15 10 87 11
REMARK SMILES IDX 16 12 17 13 11 14 12 15 13 16 10 17 9 19 5 20 6 21 88 22
REMARK SMILES IDX 7 23 8 24 4 25 1 26 2 27 3 28 26 30 27 31 28 32 29 33 30 34
REMARK SMILES IDX 31 35 32 36 33 37 34 38 86 39 35 40 85 41 36 42 37 43 38 44
REMARK SMILES IDX 79 45 39 46 84 47 78 48 80 49 40 50 83 51 77 52 76 53 41 55
REMARK SMILES IDX 67 56 50 57 66 58 51 59 54 60 65 61 81 62 52 63 53 64 64 66
REMARK SMILES IDX 82 67 55 68 42 69 43 70 48 71 44 72 45 73 47 74 49 75 46 76
REMARK SMILES IDX 68 77 69 78 74 79 70 80 71 81 73 82 75 83 72 84 56 85 57 86
REMARK SMILES IDX 62 87 58 88 59 89 61 90 63 91 60 92
REMARK H PARENT 10 18 4 29 80 54 54 65
REMARK Flexibility Score: inf
ROOT
ATOM      1  C   UNL A   1      38.181  23.624  26.113  1.00  0.00     0.188 C 
ENDROOT
BRANCH   1   2
ATOM      2  O   UNL A   1      36.947  23.788  25.422  1.00  0.00    -0.376 OA
BRANCH   2   3
ATOM      3  C   UNL A   1      35.792  23.083  25.873  1.00  0.00     0.202 C 
BRANCH   3   4
ATOM      4  C   UNL A   1      35.216  21.963  24.993  1.00  0.00     0.261 C 
BRANCH   4   5
ATOM      5  O   UNL A   1      33.920  22.266  24.450  1.00  0.00    -0.460 OA
BRANCH   5   6
ATOM      6  C   UNL A   1      33.882  23.241  23.512  1.00  0.00     0.338 C 
ATOM      7  O   UNL A   1      34.147  23.143  22.324  1.00  0.00    -0.246 OA
BRANCH   6   8
ATOM      8  C   UNL A   1      33.208  24.426  24.084  1.00  0.00     0.061 A 
ATOM      9  C   UNL A   1      32.836  26.789  24.297  1.00  0.00     0.088 A 
ATOM     10  C   UNL A   1      31.968  26.570  25.377  1.00  0.00     0.022 A 
ATOM     11  C   UNL A   1      33.510  25.728  23.676  1.00  0.00     0.038 A 
ATOM     12  C   UNL A   1      31.675  25.269  25.773  1.00  0.00     0.002 A 
ATOM     13  C   UNL A   1      32.267  24.199  25.105  1.00  0.00     0.016 A 
BRANCH   9  14
ATOM     14  S   UNL A   1      32.947  28.424  23.621  1.00  0.00     0.261 S 
ATOM     15  O   UNL A   1      34.281  28.586  23.086  1.00  0.00    -0.201 OA
ATOM     16  O   UNL A   1      32.426  29.360  24.596  1.00  0.00    -0.201 OA
BRANCH  14  17
ATOM     17  N   UNL A   1      31.887  28.435  22.284  1.00  0.00    -0.280 N 
ATOM     18  H   UNL A   1      32.223  28.169  21.398  1.00  0.00     0.180 HD
BRANCH  17  19
ATOM     19  C   UNL A   1      30.509  28.826  22.432  1.00  0.00     0.051 A 
ATOM     20  C   UNL A   1      28.695  30.335  21.856  1.00  0.00     0.043 A 
ATOM     21  C   UNL A   1      27.794  29.536  22.562  1.00  0.00     0.026 A 
ATOM     22  C   UNL A   1      30.061  30.014  21.851  1.00  0.00     0.052 A 
ATOM     23  C   UNL A   1      28.223  28.331  23.096  1.00  0.00     0.004 A 
ATOM     24  C   UNL A   1      29.560  27.959  22.969  1.00  0.00     0.027 A 
BRANCH  20  25
ATOM     25  N   UNL A   1      28.152  31.414  21.145  1.00  0.00    -0.326 N 
ATOM     26  C   UNL A   1      28.627  33.196  22.818  1.00  0.00     0.114 C 
ATOM     27  C   UNL A   1      28.019  32.723  21.523  1.00  0.00     0.221 C 
ATOM     28  O   UNL A   1      27.466  33.514  20.757  1.00  0.00    -0.275 OA
ATOM     29  H   UNL A   1      27.821  31.201  20.244  1.00  0.00     0.169 HD
ENDBRANCH  20  25
ENDBRANCH  17  19
ENDBRANCH  14  17
ENDBRANCH   9  14
ENDBRANCH   6   8
ENDBRANCH   5   6
ENDBRANCH   4   5
ENDBRANCH   3   4
ENDBRANCH   2   3
ENDBRANCH   1   2
BRANCH   1  30
ATOM     30  C   UNL A   1      38.742  22.205  26.348  1.00  0.00     0.188 C 
BRANCH  30  31
ATOM     31  O   UNL A   1      38.807  21.431  25.175  1.00  0.00    -0.376 OA
BRANCH  31  32
ATOM     32  C   UNL A   1      38.725  20.023  25.286  1.00  0.00     0.202 C 
BRANCH  32  33
ATOM     33  C   UNL A   1      39.778  19.206  26.059  1.00  0.00     0.261 C 
BRANCH  33  34
ATOM     34  O   UNL A   1      41.110  19.158  25.529  1.00  0.00    -0.460 OA
BRANCH  34  35
ATOM     35  C   UNL A   1      42.128  19.394  26.386  1.00  0.00     0.338 C 
ATOM     36  O   UNL A   1      42.972  18.605  26.768  1.00  0.00    -0.246 OA
BRANCH  35  37
ATOM     37  C   UNL A   1      42.154  20.845  26.674  1.00  0.00     0.060 A 
ATOM     38  C   UNL A   1      42.286  21.749  25.611  1.00  0.00     0.016 A 
ATOM     39  C   UNL A   1      42.064  21.308  27.988  1.00  0.00     0.016 A 
ATOM     40  C   UNL A   1      42.356  23.120  25.865  1.00  0.00     0.010 A 
ATOM     41  C   UNL A   1      42.152  22.682  28.242  1.00  0.00     0.010 A 
ATOM     42  C   UNL A   1      42.326  23.592  27.186  1.00  0.00    -0.014 A 
BRANCH  42  43
ATOM     43  C   UNL A   1      42.640  25.013  27.478  1.00  0.00     0.031 A 
ATOM     44  C   UNL A   1      44.039  25.507  27.230  1.00  0.00     0.074 A 
ATOM     45  C   UNL A   1      41.707  25.854  27.958  1.00  0.00     0.049 A 
ATOM     46  N   UNL A   1      44.563  26.682  27.472  1.00  0.00    -0.248 NA
ATOM     47  C   UNL A   1      44.974  24.542  26.629  1.00  0.00     0.031 C 
ATOM     48  C   UNL A   1      40.310  25.512  28.213  1.00  0.00     0.029 A 
ATOM     49  N   UNL A   1      41.806  27.171  28.334  1.00  0.00    -0.354 N 
ATOM     50  C   UNL A   1      45.888  26.594  27.062  1.00  0.00     0.074 A 
ATOM     51  C   UNL A   1      46.095  25.246  26.581  1.00  0.00     0.031 C 
ATOM     52  C   UNL A   1      39.684  26.588  28.719  1.00  0.00     0.029 A 
ATOM     53  C   UNL A   1      40.643  27.683  28.855  1.00  0.00     0.049 A 
ATOM     54  H   UNL A   1      42.632  27.699  28.237  1.00  0.00     0.167 HD
ATOM     55  C   UNL A   1      46.844  27.553  27.080  1.00  0.00     0.037 A 
ATOM     56  C   UNL A   1      40.392  28.889  29.404  1.00  0.00     0.037 A 
ATOM     57  C   UNL A   1      46.643  28.893  27.565  1.00  0.00     0.049 A 
ATOM     58  C   UNL A   1      41.493  29.915  29.482  1.00  0.00     0.074 A 
ATOM     59  C   UNL A   1      47.545  29.941  27.603  1.00  0.00     0.029 A 
ATOM     60  N   UNL A   1      45.457  29.366  28.107  1.00  0.00    -0.354 N 
ATOM     61  N   UNL A   1      42.733  29.835  29.062  1.00  0.00    -0.248 NA
ATOM     62  C   UNL A   1      41.158  31.202  30.111  1.00  0.00     0.031 C 
ATOM     63  C   UNL A   1      46.922  31.033  28.217  1.00  0.00     0.029 A 
ATOM     64  C   UNL A   1      45.614  30.682  28.508  1.00  0.00     0.049 A 
ATOM     65  H   UNL A   1      44.627  28.843  28.194  1.00  0.00     0.167 HD
ATOM     66  C   UNL A   1      43.314  31.065  29.346  1.00  0.00     0.074 A 
ATOM     67  C   UNL A   1      42.288  31.879  29.965  1.00  0.00     0.031 C 
ATOM     68  C   UNL A   1      44.583  31.485  29.114  1.00  0.00     0.037 A 
BRANCH  55  69
ATOM     69  C   UNL A   1      48.208  27.174  26.583  1.00  0.00     0.057 A 
ATOM     70  C   UNL A   1      48.565  27.289  25.232  1.00  0.00     0.134 A 
ATOM     71  C   UNL A   1      49.187  26.711  27.472  1.00  0.00     0.134 A 
ATOM     72  F   UNL A   1      47.669  27.711  24.327  1.00  0.00    -0.206 F 
ATOM     73  C   UNL A   1      49.837  26.935  24.780  1.00  0.00     0.040 A 
ATOM     74  C   UNL A   1      50.471  26.380  27.036  1.00  0.00     0.040 A 
ATOM     75  F   UNL A   1      48.913  26.581  28.778  1.00  0.00    -0.206 F 
ATOM     76  C   UNL A   1      50.797  26.485  25.686  1.00  0.00     0.006 A 
ENDBRANCH  55  69
BRANCH  56  77
ATOM     77  C   UNL A   1      39.043  29.195  29.945  1.00  0.00     0.057 A 
ATOM     78  C   UNL A   1      38.074  29.832  29.161  1.00  0.00     0.134 A 
ATOM     79  C   UNL A   1      38.700  28.885  31.266  1.00  0.00     0.134 A 
ATOM     80  F   UNL A   1      38.351  30.178  27.895  1.00  0.00    -0.206 F 
ATOM     81  C   UNL A   1      36.820  30.167  29.675  1.00  0.00     0.040 A 
ATOM     82  C   UNL A   1      37.441  29.190  31.786  1.00  0.00     0.040 A 
ATOM     83  F   UNL A   1      39.584  28.278  32.071  1.00  0.00    -0.206 F 
ATOM     84  C   UNL A   1      36.500  29.841  30.992  1.00  0.00     0.006 A 
ENDBRANCH  56  77
BRANCH  68  85
ATOM     85  C   UNL A   1      44.925  32.899  29.488  1.00  0.00     0.057 A 
ATOM     86  C   UNL A   1      44.704  33.973  28.616  1.00  0.00     0.134 A 
ATOM     87  C   UNL A   1      45.439  33.193  30.757  1.00  0.00     0.134 A 
ATOM     88  F   UNL A   1      44.225  33.760  27.381  1.00  0.00    -0.206 F 
ATOM     89  C   UNL A   1      45.004  35.286  28.986  1.00  0.00     0.040 A 
ATOM     90  C   UNL A   1      45.717  34.505  31.148  1.00  0.00     0.040 A 
ATOM     91  F   UNL A   1      45.665  32.214  31.646  1.00  0.00    -0.206 F 
ATOM     92  C   UNL A   1      45.505  35.555  30.259  1.00  0.00     0.006 A 
ENDBRANCH  68  85
ENDBRANCH  42  43
ENDBRANCH  35  37
ENDBRANCH  34  35
ENDBRANCH  33  34
ENDBRANCH  32  33
ENDBRANCH  31  32
ENDBRANCH  30  31
ENDBRANCH   1  30
TORSDOF 21
ENDMDL
MODEL 3
REMARK VINA RESULT:     -10.2      4.059      5.341
REMARK SMILES CC(=O)Nc1cccc(NS(=O)(=O)c2cccc(C(=O)OCCOCCOCCOC(=O)c3ccc(-c4c5nc(c(-c6c(F)cccc6F)c6ccc([nH]6)c(-c6c(F)cccc6F)c6nc(c(-c7c(F)cccc7F)c7ccc4[nH]7)C=C6)C=C5)cc3)c2)c1
REMARK SMILES IDX 25 1 24 2 23 3 22 4 21 5 19 6 20 7 18 8 14 9 15 10 87 11
REMARK SMILES IDX 16 12 17 13 11 14 12 15 13 16 10 17 9 19 5 20 6 21 88 22
REMARK SMILES IDX 7 23 8 24 4 25 1 26 2 27 3 28 26 30 27 31 28 32 29 33 30 34
REMARK SMILES IDX 31 35 32 36 33 37 34 38 86 39 35 40 85 41 36 42 37 43 38 44
REMARK SMILES IDX 79 45 39 46 84 47 78 48 80 49 40 50 83 51 77 52 76 53 41 55
REMARK SMILES IDX 67 56 50 57 66 58 51 59 54 60 65 61 81 62 52 63 53 64 64 66
REMARK SMILES IDX 82 67 55 68 42 69 43 70 48 71 44 72 45 73 47 74 49 75 46 76
REMARK SMILES IDX 68 77 69 78 74 79 70 80 71 81 73 82 75 83 72 84 56 85 57 86
REMARK SMILES IDX 62 87 58 88 59 89 61 90 63 91 60 92
REMARK H PARENT 10 18 4 29 80 54 54 65
REMARK Flexibility Score: inf
ROOT
ATOM      1  C   UNL A   1      38.361  22.747  26.166  1.00  0.00     0.188 C 
ENDROOT
BRANCH   1   2
ATOM      2  O   UNL A   1      37.910  22.740  24.816  1.00  0.00    -0.376 OA
BRANCH   2   3
ATOM      3  C   UNL A   1      36.633  22.185  24.506  1.00  0.00     0.202 C 
BRANCH   3   4
ATOM      4  C   UNL A   1      36.136  20.974  25.310  1.00  0.00     0.261 C 
BRANCH   4   5
ATOM      5  O   UNL A   1      34.828  21.157  25.877  1.00  0.00    -0.460 OA
BRANCH   5   6
ATOM      6  C   UNL A   1      33.800  20.603  25.192  1.00  0.00     0.338 C 
ATOM      7  O   UNL A   1      33.501  19.421  25.123  1.00  0.00    -0.246 OA
BRANCH   6   8
ATOM      8  C   UNL A   1      32.903  21.683  24.725  1.00  0.00     0.061 A 
ATOM      9  C   UNL A   1      31.269  23.411  25.061  1.00  0.00     0.088 A 
ATOM     10  C   UNL A   1      31.138  23.576  23.674  1.00  0.00     0.022 A 
ATOM     11  C   UNL A   1      32.107  22.425  25.602  1.00  0.00     0.038 A 
ATOM     12  C   UNL A   1      31.937  22.830  22.812  1.00  0.00     0.002 A 
ATOM     13  C   UNL A   1      32.841  21.910  23.338  1.00  0.00     0.016 A 
BRANCH   9  14
ATOM     14  S   UNL A   1      30.474  24.580  26.129  1.00  0.00     0.261 S 
ATOM     15  O   UNL A   1      30.018  23.862  27.299  1.00  0.00    -0.201 OA
ATOM     16  O   UNL A   1      29.550  25.368  25.341  1.00  0.00    -0.201 OA
BRANCH  14  17
ATOM     17  N   UNL A   1      31.714  25.625  26.660  1.00  0.00    -0.280 N 
ATOM     18  H   UNL A   1      32.141  25.467  27.533  1.00  0.00     0.180 HD
BRANCH  17  19
ATOM     19  C   UNL A   1      32.147  26.735  25.851  1.00  0.00     0.051 A 
ATOM     20  C   UNL A   1      32.071  29.112  25.355  1.00  0.00     0.043 A 
ATOM     21  C   UNL A   1      33.080  28.955  24.404  1.00  0.00     0.026 A 
ATOM     22  C   UNL A   1      31.561  27.990  26.026  1.00  0.00     0.052 A 
ATOM     23  C   UNL A   1      33.700  27.724  24.262  1.00  0.00     0.004 A 
ATOM     24  C   UNL A   1      33.271  26.645  25.032  1.00  0.00     0.027 A 
BRANCH  20  25
ATOM     25  N   UNL A   1      31.650  30.424  25.614  1.00  0.00    -0.326 N 
ATOM     26  C   UNL A   1      33.246  30.935  27.456  1.00  0.00     0.114 C 
ATOM     27  C   UNL A   1      32.075  31.297  26.579  1.00  0.00     0.221 C 
ATOM     28  O   UNL A   1      31.538  32.402  26.665  1.00  0.00    -0.275 OA
ATOM     29  H   UNL A   1      30.951  30.768  25.013  1.00  0.00     0.169 HD
ENDBRANCH  20  25
ENDBRANCH  17  19
ENDBRANCH  14  17
ENDBRANCH   9  14
ENDBRANCH   6   8
ENDBRANCH   5   6
ENDBRANCH   4   5
ENDBRANCH   3   4
ENDBRANCH   2   3
ENDBRANCH   1   2
BRANCH   1  30
ATOM     30  C   UNL A   1      39.776  22.230  26.502  1.00  0.00     0.188 C 
BRANCH  30  31
ATOM     31  O   UNL A   1      40.131  21.075  25.781  1.00  0.00    -0.376 OA
BRANCH  31  32
ATOM     32  C   UNL A   1      40.568  19.936  26.497  1.00  0.00     0.202 C 
BRANCH  32  33
ATOM     33  C   UNL A   1      41.741  19.067  26.005  1.00  0.00     0.261 C 
BRANCH  33  34
ATOM     34  O   UNL A   1      42.609  19.617  25.003  1.00  0.00    -0.460 OA
BRANCH  34  35
ATOM     35  C   UNL A   1      43.815  20.072  25.409  1.00  0.00     0.338 C 
ATOM     36  O   UNL A   1      44.893  19.521  25.287  1.00  0.00    -0.246 OA
BRANCH  35  37
ATOM     37  C   UNL A   1      43.638  21.458  25.897  1.00  0.00     0.060 A 
ATOM     38  C   UNL A   1      43.591  22.507  24.969  1.00  0.00     0.016 A 
ATOM     39  C   UNL A   1      43.535  21.719  27.265  1.00  0.00     0.016 A 
ATOM     40  C   UNL A   1      43.468  23.826  25.412  1.00  0.00     0.010 A 
ATOM     41  C   UNL A   1      43.429  23.043  27.707  1.00  0.00     0.010 A 
ATOM     42  C   UNL A   1      43.423  24.104  26.786  1.00  0.00    -0.014 A 
BRANCH  42  43
ATOM     43  C   UNL A   1      43.536  25.503  27.269  1.00  0.00     0.031 A 
ATOM     44  C   UNL A   1      44.907  26.094  27.451  1.00  0.00     0.074 A 
ATOM     45  C   UNL A   1      42.446  26.240  27.545  1.00  0.00     0.049 A 
ATOM     46  N   UNL A   1      45.254  27.264  27.922  1.00  0.00    -0.248 NA
ATOM     47  C   UNL A   1      46.041  25.245  27.049  1.00  0.00     0.031 C 
ATOM     48  C   UNL A   1      41.062  25.800  27.382  1.00  0.00     0.029 A 
ATOM     49  N   UNL A   1      42.338  27.517  28.040  1.00  0.00    -0.354 N 
ATOM     50  C   UNL A   1      46.643  27.290  27.881  1.00  0.00     0.074 A 
ATOM     51  C   UNL A   1      47.075  26.009  27.365  1.00  0.00     0.031 C 
ATOM     52  C   UNL A   1      40.242  26.785  27.786  1.00  0.00     0.029 A 
ATOM     53  C   UNL A   1      41.042  27.910  28.267  1.00  0.00     0.049 A 
ATOM     54  H   UNL A   1      43.115  28.095  28.215  1.00  0.00     0.167 HD
ATOM     55  C   UNL A   1      47.482  28.292  28.236  1.00  0.00     0.037 A 
ATOM     56  C   UNL A   1      40.560  29.040  28.825  1.00  0.00     0.037 A 
ATOM     57  C   UNL A   1      47.054  29.563  28.757  1.00  0.00     0.049 A 
ATOM     58  C   UNL A   1      41.516  30.111  29.282  1.00  0.00     0.074 A 
ATOM     59  C   UNL A   1      47.829  30.649  29.125  1.00  0.00     0.029 A 
ATOM     60  N   UNL A   1      45.734  29.915  28.994  1.00  0.00    -0.354 N 
ATOM     61  N   UNL A   1      42.825  30.140  29.210  1.00  0.00    -0.248 NA
ATOM     62  C   UNL A   1      40.926  31.308  29.900  1.00  0.00     0.031 C 
ATOM     63  C   UNL A   1      46.982  31.639  29.635  1.00  0.00     0.029 A 
ATOM     64  C   UNL A   1      45.675  31.192  29.530  1.00  0.00     0.049 A 
ATOM     65  H   UNL A   1      44.954  29.343  28.810  1.00  0.00     0.167 HD
ATOM     66  C   UNL A   1      43.212  31.364  29.741  1.00  0.00     0.074 A 
ATOM     67  C   UNL A   1      41.998  32.056  30.123  1.00  0.00     0.031 C 
ATOM     68  C   UNL A   1      44.460  31.873  29.897  1.00  0.00     0.037 A 
BRANCH  55  69
ATOM     69  C   UNL A   1      48.954  28.038  28.099  1.00  0.00     0.057 A 
ATOM     70  C   UNL A   1      49.757  27.710  29.200  1.00  0.00     0.134 A 
ATOM     71  C   UNL A   1      49.574  28.099  26.843  1.00  0.00     0.134 A 
ATOM     72  F   UNL A   1      49.229  27.651  30.431  1.00  0.00    -0.206 F 
ATOM     73  C   UNL A   1      51.126  27.475  29.060  1.00  0.00     0.040 A 
ATOM     74  C   UNL A   1      50.936  27.839  26.688  1.00  0.00     0.040 A 
ATOM     75  F   UNL A   1      48.862  28.405  25.748  1.00  0.00    -0.206 F 
ATOM     76  C   UNL A   1      51.717  27.532  27.800  1.00  0.00     0.006 A 
ENDBRANCH  55  69
BRANCH  56  77
ATOM     77  C   UNL A   1      39.096  29.217  29.002  1.00  0.00     0.057 A 
ATOM     78  C   UNL A   1      38.481  28.984  30.237  1.00  0.00     0.134 A 
ATOM     79  C   UNL A   1      38.273  29.592  27.934  1.00  0.00     0.134 A 
ATOM     80  F   UNL A   1      39.212  28.595  31.293  1.00  0.00    -0.206 F 
ATOM     81  C   UNL A   1      37.099  29.100  30.401  1.00  0.00     0.040 A 
ATOM     82  C   UNL A   1      36.893  29.739  28.089  1.00  0.00     0.040 A 
ATOM     83  F   UNL A   1      38.799  29.827  26.723  1.00  0.00    -0.206 F 
ATOM     84  C   UNL A   1      36.302  29.484  29.325  1.00  0.00     0.006 A 
ENDBRANCH  56  77
BRANCH  68  85
ATOM     85  C   UNL A   1      44.578  33.259  30.464  1.00  0.00     0.057 A 
ATOM     86  C   UNL A   1      44.527  34.401  29.656  1.00  0.00     0.134 A 
ATOM     87  C   UNL A   1      44.698  33.452  31.847  1.00  0.00     0.134 A 
ATOM     88  F   UNL A   1      44.425  34.286  28.322  1.00  0.00    -0.206 F 
ATOM     89  C   UNL A   1      44.614  35.684  30.199  1.00  0.00     0.040 A 
ATOM     90  C   UNL A   1      44.757  34.730  32.405  1.00  0.00     0.040 A 
ATOM     91  F   UNL A   1      44.743  32.402  32.681  1.00  0.00    -0.206 F 
ATOM     92  C   UNL A   1      44.721  35.851  31.579  1.00  0.00     0.006 A 
ENDBRANCH  68  85
ENDBRANCH  42  43
ENDBRANCH  35  37
ENDBRANCH  34  35
ENDBRANCH  33  34
ENDBRANCH  32  33
ENDBRANCH  31  32
ENDBRANCH  30  31
ENDBRANCH   1  30
TORSDOF 21
ENDMDL
