MODEL 1
REMARK VINA RESULT:     -12.5      0.000      0.000
REMARK SMILES O=C(OCCOCCOCCOC(=O)c1ccc(-c2c3nc(c(-c4c(F)cccc4F)c4ccc([nH]4)c(-c4c(F)cccc4F)c4nc(c(-c5c(F)cccc5F)c5ccc2[nH]5)C=C4)C=C3)cc1)C1=Cc2ccc(Cl)c(Cl)c2O[C@@H]1C(F)(F)F
REMARK SMILES IDX 8 1 7 2 6 3 5 4 4 5 3 6 2 7 1 8 69 9 70 10 80 11 71 12 79 13
REMARK SMILES IDX 72 14 78 15 73 16 76 17 74 18 77 19 75 20 81 21 82 22 83 23
REMARK SMILES IDX 84 24 9 25 10 26 11 27 12 28 13 29 14 30 15 31 16 32 68 33
REMARK SMILES IDX 17 34 67 35 18 36 19 37 20 38 61 39 21 40 66 41 60 42 62 43
REMARK SMILES IDX 22 44 65 45 59 46 58 47 23 49 49 50 32 51 48 52 33 53 36 54
REMARK SMILES IDX 47 55 63 56 34 57 35 58 46 60 64 61 37 62 24 63 25 64 30 65
REMARK SMILES IDX 26 66 27 67 29 68 31 69 28 70 50 71 51 72 56 73 52 74 53 75
REMARK SMILES IDX 55 76 57 77 54 78 38 79 39 80 44 81 40 82 41 83 43 84 45 85
REMARK SMILES IDX 42 86
REMARK H PARENT 62 48 36 59
REMARK Flexibility Score: inf
ROOT
ATOM      1  C   UNL A   1      33.051  35.547  29.948  1.00  0.00     0.188 C 
ENDROOT
BRANCH   1   2
ATOM      2  C   UNL A   1      33.770  35.032  28.689  1.00  0.00     0.188 C 
BRANCH   2   3
ATOM      3  O   UNL A   1      33.364  33.803  27.976  1.00  0.00    -0.376 OA
BRANCH   3   4
ATOM      4  C   UNL A   1      33.915  32.214  28.205  1.00  0.00     0.202 C 
BRANCH   4   5
ATOM      5  C   UNL A   1      33.456  30.513  26.937  1.00  0.00     0.261 C 
BRANCH   5   6
ATOM      6  O   UNL A   1      33.628  29.043  27.302  1.00  0.00    -0.460 OA
BRANCH   6   7
ATOM      7  C   UNL A   1      32.491  28.352  27.143  1.00  0.00     0.338 C 
ATOM      8  O   UNL A   1      31.717  27.984  27.992  1.00  0.00    -0.246 OA
BRANCH   7   9
ATOM      9  C   UNL A   1      32.821  27.780  25.847  1.00  0.00     0.087 C 
ATOM     10  C   UNL A   1      33.949  26.853  25.813  1.00  0.00     0.027 C 
ATOM     11  C   UNL A   1      30.997  27.305  25.485  1.00  0.00     0.316 C 
ATOM     12  C   UNL A   1      33.777  25.062  25.732  1.00  0.00     0.019 A 
ATOM     13  O   UNL A   1      30.752  25.375  25.570  1.00  0.00    -0.474 OA
ATOM     14  C   UNL A   1      34.901  24.285  25.760  1.00  0.00     0.013 A 
ATOM     15  C   UNL A   1      32.224  24.283  25.679  1.00  0.00     0.148 A 
ATOM     16  C   UNL A   1      34.660  22.901  25.710  1.00  0.00     0.023 A 
ATOM     17  C   UNL A   1      32.085  22.918  25.691  1.00  0.00     0.102 A 
ATOM     18  C   UNL A   1      33.344  22.253  25.681  1.00  0.00     0.063 A 
ATOM     19  Cl  UNL A   1      30.590  22.111  25.814  1.00  0.00    -0.079 Cl
ATOM     20  Cl  UNL A   1      33.423  20.510  25.632  1.00  0.00    -0.083 Cl
BRANCH  11  21
ATOM     21  C   UNL A   1      30.849  28.397  24.223  1.00  0.00     0.430 C 
ATOM     22  F   UNL A   1      31.845  28.598  23.359  1.00  0.00    -0.167 F 
ATOM     23  F   UNL A   1      29.751  28.089  23.489  1.00  0.00    -0.167 F 
ATOM     24  F   UNL A   1      30.604  29.660  24.700  1.00  0.00    -0.167 F 
ENDBRANCH  11  21
ENDBRANCH   7   9
ENDBRANCH   6   7
ENDBRANCH   5   6
ENDBRANCH   4   5
ENDBRANCH   3   4
ENDBRANCH   2   3
ENDBRANCH   1   2
BRANCH   1  25
ATOM     25  O   UNL A   1      33.772  36.178  30.971  1.00  0.00    -0.376 OA
BRANCH  25  26
ATOM     26  C   UNL A   1      34.020  35.423  32.145  1.00  0.00     0.202 C 
BRANCH  26  27
ATOM     27  C   UNL A   1      35.454  34.947  32.396  1.00  0.00     0.261 C 
BRANCH  27  28
ATOM     28  O   UNL A   1      35.936  34.007  31.417  1.00  0.00    -0.460 OA
BRANCH  28  29
ATOM     29  C   UNL A   1      35.495  32.729  31.504  1.00  0.00     0.338 C 
ATOM     30  O   UNL A   1      34.373  32.339  31.774  1.00  0.00    -0.246 OA
BRANCH  29  31
ATOM     31  C   UNL A   1      36.596  31.831  31.108  1.00  0.00     0.060 A 
ATOM     32  C   UNL A   1      37.378  31.195  32.086  1.00  0.00     0.016 A 
ATOM     33  C   UNL A   1      36.856  31.642  29.753  1.00  0.00     0.016 A 
ATOM     34  C   UNL A   1      38.408  30.333  31.704  1.00  0.00     0.010 A 
ATOM     35  C   UNL A   1      37.917  30.826  29.373  1.00  0.00     0.010 A 
ATOM     36  C   UNL A   1      38.706  30.184  30.344  1.00  0.00    -0.014 A 
BRANCH  36  37
ATOM     37  C   UNL A   1      40.000  29.614  29.909  1.00  0.00     0.031 A 
ATOM     38  C   UNL A   1      41.144  30.571  29.757  1.00  0.00     0.074 A 
ATOM     39  C   UNL A   1      40.122  28.327  29.549  1.00  0.00     0.049 A 
ATOM     40  N   UNL A   1      42.312  30.393  29.202  1.00  0.00    -0.248 NA
ATOM     41  C   UNL A   1      40.919  31.928  30.281  1.00  0.00     0.031 C 
ATOM     42  C   UNL A   1      39.086  27.309  29.678  1.00  0.00     0.029 A 
ATOM     43  N   UNL A   1      41.174  27.675  28.956  1.00  0.00    -0.354 N 
ATOM     44  C   UNL A   1      42.951  31.624  29.287  1.00  0.00     0.074 A 
ATOM     45  C   UNL A   1      42.032  32.542  29.920  1.00  0.00     0.031 C 
ATOM     46  C   UNL A   1      39.541  26.162  29.143  1.00  0.00     0.029 A 
ATOM     47  C   UNL A   1      40.879  26.383  28.595  1.00  0.00     0.049 A 
ATOM     48  H   UNL A   1      42.054  28.091  28.805  1.00  0.00     0.167 HD
ATOM     49  C   UNL A   1      44.193  31.959  28.867  1.00  0.00     0.037 A 
ATOM     50  C   UNL A   1      41.594  25.504  27.866  1.00  0.00     0.037 A 
ATOM     51  C   UNL A   1      45.077  31.042  28.199  1.00  0.00     0.049 A 
ATOM     52  C   UNL A   1      42.948  25.909  27.340  1.00  0.00     0.074 A 
ATOM     53  C   UNL A   1      46.364  31.262  27.747  1.00  0.00     0.029 A 
ATOM     54  N   UNL A   1      44.747  29.737  27.860  1.00  0.00    -0.354 N 
ATOM     55  N   UNL A   1      43.569  27.059  27.455  1.00  0.00    -0.248 NA
ATOM     56  C   UNL A   1      43.701  24.897  26.586  1.00  0.00     0.031 C 
ATOM     57  C   UNL A   1      46.781  30.118  27.061  1.00  0.00     0.029 A 
ATOM     58  C   UNL A   1      45.793  29.151  27.170  1.00  0.00     0.049 A 
ATOM     59  H   UNL A   1      43.895  29.293  28.079  1.00  0.00     0.167 HD
ATOM     60  C   UNL A   1      44.798  26.899  26.823  1.00  0.00     0.074 A 
ATOM     61  C   UNL A   1      44.831  25.540  26.321  1.00  0.00     0.031 C 
ATOM     62  C   UNL A   1      45.811  27.791  26.683  1.00  0.00     0.037 A 
BRANCH  49  63
ATOM     63  C   UNL A   1      44.615  33.388  29.057  1.00  0.00     0.057 A 
ATOM     64  C   UNL A   1      45.258  33.831  30.222  1.00  0.00     0.134 A 
ATOM     65  C   UNL A   1      44.331  34.347  28.077  1.00  0.00     0.134 A 
ATOM     66  F   UNL A   1      45.547  32.970  31.210  1.00  0.00    -0.206 F 
ATOM     67  C   UNL A   1      45.550  35.181  30.428  1.00  0.00     0.040 A 
ATOM     68  C   UNL A   1      44.656  35.692  28.253  1.00  0.00     0.040 A 
ATOM     69  F   UNL A   1      43.721  33.997  26.934  1.00  0.00    -0.206 F 
ATOM     70  C   UNL A   1      45.252  36.115  29.439  1.00  0.00     0.006 A 
ENDBRANCH  49  63
BRANCH  50  71
ATOM     71  C   UNL A   1      41.027  24.160  27.580  1.00  0.00     0.057 A 
ATOM     72  C   UNL A   1      40.011  23.986  26.634  1.00  0.00     0.134 A 
ATOM     73  C   UNL A   1      41.510  23.014  28.224  1.00  0.00     0.134 A 
ATOM     74  F   UNL A   1      39.489  25.047  26.002  1.00  0.00    -0.206 F 
ATOM     75  C   UNL A   1      39.495  22.723  26.338  1.00  0.00     0.040 A 
ATOM     76  C   UNL A   1      41.022  21.741  27.918  1.00  0.00     0.040 A 
ATOM     77  F   UNL A   1      42.482  23.110  29.142  1.00  0.00    -0.206 F 
ATOM     78  C   UNL A   1      40.009  21.594  26.974  1.00  0.00     0.006 A 
ENDBRANCH  50  71
BRANCH  62  79
ATOM     79  C   UNL A   1      47.074  27.323  26.016  1.00  0.00     0.057 A 
ATOM     80  C   UNL A   1      47.305  27.481  24.645  1.00  0.00     0.134 A 
ATOM     81  C   UNL A   1      48.115  26.784  26.787  1.00  0.00     0.134 A 
ATOM     82  F   UNL A   1      46.351  27.983  23.846  1.00  0.00    -0.206 F 
ATOM     83  C   UNL A   1      48.519  27.108  24.062  1.00  0.00     0.040 A 
ATOM     84  C   UNL A   1      49.343  26.441  26.223  1.00  0.00     0.040 A 
ATOM     85  F   UNL A   1      47.967  26.617  28.110  1.00  0.00    -0.206 F 
ATOM     86  C   UNL A   1      49.547  26.599  24.854  1.00  0.00     0.006 A 
ENDBRANCH  62  79
ENDBRANCH  36  37
ENDBRANCH  29  31
ENDBRANCH  28  29
ENDBRANCH  27  28
ENDBRANCH  26  27
ENDBRANCH  25  26
ENDBRANCH   1  25
TORSDOF 18
ENDMDL
MODEL 2
REMARK VINA RESULT:     -12.3      1.176      2.070
REMARK SMILES O=C(OCCOCCOCCOC(=O)c1ccc(-c2c3nc(c(-c4c(F)cccc4F)c4ccc([nH]4)c(-c4c(F)cccc4F)c4nc(c(-c5c(F)cccc5F)c5ccc2[nH]5)C=C4)C=C3)cc1)C1=Cc2ccc(Cl)c(Cl)c2O[C@@H]1C(F)(F)F
REMARK SMILES IDX 8 1 7 2 6 3 5 4 4 5 3 6 2 7 1 8 69 9 70 10 80 11 71 12 79 13
REMARK SMILES IDX 72 14 78 15 73 16 76 17 74 18 77 19 75 20 81 21 82 22 83 23
REMARK SMILES IDX 84 24 9 25 10 26 11 27 12 28 13 29 14 30 15 31 16 32 68 33
REMARK SMILES IDX 17 34 67 35 18 36 19 37 20 38 61 39 21 40 66 41 60 42 62 43
REMARK SMILES IDX 22 44 65 45 59 46 58 47 23 49 49 50 32 51 48 52 33 53 36 54
REMARK SMILES IDX 47 55 63 56 34 57 35 58 46 60 64 61 37 62 24 63 25 64 30 65
REMARK SMILES IDX 26 66 27 67 29 68 31 69 28 70 50 71 51 72 56 73 52 74 53 75
REMARK SMILES IDX 55 76 57 77 54 78 38 79 39 80 44 81 40 82 41 83 43 84 45 85
REMARK SMILES IDX 42 86
REMARK H PARENT 62 48 36 59
REMARK Flexibility Score: inf
ROOT
ATOM      1  C   UNL A   1      34.646  33.776  27.787  1.00  0.00     0.188 C 
ENDROOT
BRANCH   1   2
ATOM      2  C   UNL A   1      33.533  32.743  28.037  1.00  0.00     0.188 C 
BRANCH   2   3
ATOM      3  O   UNL A   1      33.643  31.328  27.627  1.00  0.00    -0.376 OA
BRANCH   3   4
ATOM      4  C   UNL A   1      32.419  30.282  27.087  1.00  0.00     0.202 C 
BRANCH   4   5
ATOM      5  C   UNL A   1      32.692  28.572  25.778  1.00  0.00     0.261 C 
BRANCH   5   6
ATOM      6  O   UNL A   1      33.614  27.385  26.025  1.00  0.00    -0.460 OA
BRANCH   6   7
ATOM      7  C   UNL A   1      32.991  26.216  25.814  1.00  0.00     0.338 C 
ATOM      8  O   UNL A   1      32.236  25.629  26.549  1.00  0.00    -0.246 OA
BRANCH   7   9
ATOM      9  C   UNL A   1      33.908  25.718  24.800  1.00  0.00     0.087 C 
ATOM     10  C   UNL A   1      34.967  24.826  25.263  1.00  0.00     0.027 C 
ATOM     11  C   UNL A   1      32.480  25.210  23.622  1.00  0.00     0.316 C 
ATOM     12  C   UNL A   1      34.938  23.037  25.057  1.00  0.00     0.019 A 
ATOM     13  O   UNL A   1      32.316  23.272  23.526  1.00  0.00    -0.474 OA
ATOM     14  C   UNL A   1      35.958  22.291  25.579  1.00  0.00     0.013 A 
ATOM     15  C   UNL A   1      33.623  22.218  24.269  1.00  0.00     0.148 A 
ATOM     16  C   UNL A   1      35.833  20.905  25.381  1.00  0.00     0.023 A 
ATOM     17  C   UNL A   1      33.559  20.850  24.174  1.00  0.00     0.102 A 
ATOM     18  C   UNL A   1      34.711  20.223  24.727  1.00  0.00     0.063 A 
ATOM     19  Cl  UNL A   1      32.216  19.997  23.569  1.00  0.00    -0.079 Cl
ATOM     20  Cl  UNL A   1      34.886  18.488  24.667  1.00  0.00    -0.083 Cl
BRANCH  11  21
ATOM     21  C   UNL A   1      32.878  26.357  22.468  1.00  0.00     0.430 C 
ATOM     22  F   UNL A   1      33.501  27.489  22.801  1.00  0.00    -0.167 F 
ATOM     23  F   UNL A   1      33.619  25.775  21.493  1.00  0.00    -0.167 F 
ATOM     24  F   UNL A   1      31.753  26.810  21.826  1.00  0.00    -0.167 F 
ENDBRANCH  11  21
ENDBRANCH   7   9
ENDBRANCH   6   7
ENDBRANCH   5   6
ENDBRANCH   4   5
ENDBRANCH   3   4
ENDBRANCH   2   3
ENDBRANCH   1   2
BRANCH   1  25
ATOM     25  O   UNL A   1      34.729  34.935  28.571  1.00  0.00    -0.376 OA
BRANCH  25  26
ATOM     26  C   UNL A   1      33.879  35.011  29.703  1.00  0.00     0.202 C 
BRANCH  26  27
ATOM     27  C   UNL A   1      34.516  34.836  31.085  1.00  0.00     0.261 C 
BRANCH  27  28
ATOM     28  O   UNL A   1      35.613  33.901  31.107  1.00  0.00    -0.460 OA
BRANCH  28  29
ATOM     29  C   UNL A   1      35.359  32.647  31.555  1.00  0.00     0.338 C 
ATOM     30  O   UNL A   1      34.363  32.243  32.126  1.00  0.00    -0.246 OA
BRANCH  29  31
ATOM     31  C   UNL A   1      36.473  31.774  31.141  1.00  0.00     0.060 A 
ATOM     32  C   UNL A   1      37.193  31.042  32.100  1.00  0.00     0.016 A 
ATOM     33  C   UNL A   1      36.809  31.703  29.791  1.00  0.00     0.016 A 
ATOM     34  C   UNL A   1      38.236  30.205  31.700  1.00  0.00     0.010 A 
ATOM     35  C   UNL A   1      37.882  30.911  29.398  1.00  0.00     0.010 A 
ATOM     36  C   UNL A   1      38.609  30.174  30.351  1.00  0.00    -0.014 A 
BRANCH  36  37
ATOM     37  C   UNL A   1      39.921  29.628  29.939  1.00  0.00     0.031 A 
ATOM     38  C   UNL A   1      41.053  30.604  29.820  1.00  0.00     0.074 A 
ATOM     39  C   UNL A   1      40.071  28.346  29.571  1.00  0.00     0.049 A 
ATOM     40  N   UNL A   1      42.236  30.449  29.289  1.00  0.00    -0.248 NA
ATOM     41  C   UNL A   1      40.796  31.953  30.350  1.00  0.00     0.031 C 
ATOM     42  C   UNL A   1      39.049  27.311  29.668  1.00  0.00     0.029 A 
ATOM     43  N   UNL A   1      41.146  27.716  28.996  1.00  0.00    -0.354 N 
ATOM     44  C   UNL A   1      42.853  31.689  29.398  1.00  0.00     0.074 A 
ATOM     45  C   UNL A   1      41.907  32.587  30.018  1.00  0.00     0.031 C 
ATOM     46  C   UNL A   1      39.532  26.176  29.134  1.00  0.00     0.029 A 
ATOM     47  C   UNL A   1      40.879  26.423  28.617  1.00  0.00     0.049 A 
ATOM     48  H   UNL A   1      42.022  28.147  28.867  1.00  0.00     0.167 HD
ATOM     49  C   UNL A   1      44.098  32.046  29.007  1.00  0.00     0.037 A 
ATOM     50  C   UNL A   1      41.623  25.561  27.896  1.00  0.00     0.037 A 
ATOM     51  C   UNL A   1      45.010  31.150  28.351  1.00  0.00     0.049 A 
ATOM     52  C   UNL A   1      42.982  25.992  27.403  1.00  0.00     0.074 A 
ATOM     53  C   UNL A   1      46.304  31.393  27.929  1.00  0.00     0.029 A 
ATOM     54  N   UNL A   1      44.709  29.842  27.994  1.00  0.00    -0.354 N 
ATOM     55  N   UNL A   1      43.582  27.150  27.541  1.00  0.00    -0.248 NA
ATOM     56  C   UNL A   1      43.766  24.998  26.657  1.00  0.00     0.031 C 
ATOM     57  C   UNL A   1      46.754  30.262  27.242  1.00  0.00     0.029 A 
ATOM     58  C   UNL A   1      45.778  29.279  27.322  1.00  0.00     0.049 A 
ATOM     59  H   UNL A   1      43.859  29.384  28.191  1.00  0.00     0.167 HD
ATOM     60  C   UNL A   1      44.826  27.015  26.935  1.00  0.00     0.074 A 
ATOM     61  C   UNL A   1      44.892  25.661  26.422  1.00  0.00     0.031 C 
ATOM     62  C   UNL A   1      45.828  27.924  26.824  1.00  0.00     0.037 A 
BRANCH  49  63
ATOM     63  C   UNL A   1      44.493  33.480  29.219  1.00  0.00     0.057 A 
ATOM     64  C   UNL A   1      44.211  34.483  28.279  1.00  0.00     0.134 A 
ATOM     65  C   UNL A   1      45.209  33.856  30.362  1.00  0.00     0.134 A 
ATOM     66  F   UNL A   1      43.543  34.191  27.153  1.00  0.00    -0.206 F 
ATOM     67  C   UNL A   1      44.675  35.790  28.442  1.00  0.00     0.040 A 
ATOM     68  C   UNL A   1      45.641  35.168  30.556  1.00  0.00     0.040 A 
ATOM     69  F   UNL A   1      45.512  32.953  31.307  1.00  0.00    -0.206 F 
ATOM     70  C   UNL A   1      45.390  36.135  29.586  1.00  0.00     0.006 A 
ENDBRANCH  49  63
BRANCH  50  71
ATOM     71  C   UNL A   1      41.083  24.211  27.587  1.00  0.00     0.057 A 
ATOM     72  C   UNL A   1      41.560  23.070  28.241  1.00  0.00     0.134 A 
ATOM     73  C   UNL A   1      40.055  24.034  26.652  1.00  0.00     0.134 A 
ATOM     74  F   UNL A   1      42.561  23.170  29.128  1.00  0.00    -0.206 F 
ATOM     75  C   UNL A   1      41.037  21.803  27.978  1.00  0.00     0.040 A 
ATOM     76  C   UNL A   1      39.503  22.777  26.399  1.00  0.00     0.040 A 
ATOM     77  F   UNL A   1      39.553  25.086  25.989  1.00  0.00    -0.206 F 
ATOM     78  C   UNL A   1      39.997  21.656  27.062  1.00  0.00     0.006 A 
ENDBRANCH  50  71
BRANCH  62  79
ATOM     79  C   UNL A   1      47.113  27.481  26.180  1.00  0.00     0.057 A 
ATOM     80  C   UNL A   1      47.377  27.669  24.819  1.00  0.00     0.134 A 
ATOM     81  C   UNL A   1      48.138  26.937  26.967  1.00  0.00     0.134 A 
ATOM     82  F   UNL A   1      46.438  28.178  24.007  1.00  0.00    -0.206 F 
ATOM     83  C   UNL A   1      48.609  27.319  24.260  1.00  0.00     0.040 A 
ATOM     84  C   UNL A   1      49.384  26.617  26.428  1.00  0.00     0.040 A 
ATOM     85  F   UNL A   1      47.959  26.742  28.283  1.00  0.00    -0.206 F 
ATOM     86  C   UNL A   1      49.621  26.804  25.069  1.00  0.00     0.006 A 
ENDBRANCH  62  79
ENDBRANCH  36  37
ENDBRANCH  29  31
ENDBRANCH  28  29
ENDBRANCH  27  28
ENDBRANCH  26  27
ENDBRANCH  25  26
ENDBRANCH   1  25
TORSDOF 18
ENDMDL
MODEL 3
REMARK VINA RESULT:     -12.2      3.946      7.892
REMARK SMILES O=C(OCCOCCOCCOC(=O)c1ccc(-c2c3nc(c(-c4c(F)cccc4F)c4ccc([nH]4)c(-c4c(F)cccc4F)c4nc(c(-c5c(F)cccc5F)c5ccc2[nH]5)C=C4)C=C3)cc1)C1=Cc2ccc(Cl)c(Cl)c2O[C@@H]1C(F)(F)F
REMARK SMILES IDX 8 1 7 2 6 3 5 4 4 5 3 6 2 7 1 8 69 9 70 10 80 11 71 12 79 13
REMARK SMILES IDX 72 14 78 15 73 16 76 17 74 18 77 19 75 20 81 21 82 22 83 23
REMARK SMILES IDX 84 24 9 25 10 26 11 27 12 28 13 29 14 30 15 31 16 32 68 33
REMARK SMILES IDX 17 34 67 35 18 36 19 37 20 38 61 39 21 40 66 41 60 42 62 43
REMARK SMILES IDX 22 44 65 45 59 46 58 47 23 49 49 50 32 51 48 52 33 53 36 54
REMARK SMILES IDX 47 55 63 56 34 57 35 58 46 60 64 61 37 62 24 63 25 64 30 65
REMARK SMILES IDX 26 66 27 67 29 68 31 69 28 70 50 71 51 72 56 73 52 74 53 75
REMARK SMILES IDX 55 76 57 77 54 78 38 79 39 80 44 81 40 82 41 83 43 84 45 85
REMARK SMILES IDX 42 86
REMARK H PARENT 62 48 36 59
REMARK Flexibility Score: inf
ROOT
ATOM      1  C   UNL A   1      32.225  27.780  23.740  1.00  0.00     0.188 C 
ENDROOT
BRANCH   1   2
ATOM      2  C   UNL A   1      30.943  27.587  22.912  1.00  0.00     0.188 C 
BRANCH   2   3
ATOM      3  O   UNL A   1      29.999  26.473  23.138  1.00  0.00    -0.376 OA
BRANCH   3   4
ATOM      4  C   UNL A   1      29.369  25.898  24.605  1.00  0.00     0.202 C 
BRANCH   4   5
ATOM      5  C   UNL A   1      30.467  24.788  26.114  1.00  0.00     0.261 C 
BRANCH   5   6
ATOM      6  O   UNL A   1      31.959  24.894  26.404  1.00  0.00    -0.460 OA
BRANCH   6   7
ATOM      7  C   UNL A   1      32.565  23.700  26.349  1.00  0.00     0.338 C 
ATOM      8  O   UNL A   1      32.601  22.842  27.197  1.00  0.00    -0.246 OA
BRANCH   7   9
ATOM      9  C   UNL A   1      33.517  24.042  25.304  1.00  0.00     0.087 C 
ATOM     10  C   UNL A   1      34.819  24.533  25.746  1.00  0.00     0.027 C 
ATOM     11  C   UNL A   1      33.226  22.392  24.368  1.00  0.00     0.316 C 
ATOM     12  C   UNL A   1      36.320  23.537  25.760  1.00  0.00     0.019 A 
ATOM     13  O   UNL A   1      34.775  21.222  24.523  1.00  0.00    -0.474 OA
ATOM     14  C   UNL A   1      37.475  24.083  26.246  1.00  0.00     0.013 A 
ATOM     15  C   UNL A   1      36.335  21.881  25.232  1.00  0.00     0.148 A 
ATOM     16  C   UNL A   1      38.584  23.219  26.231  1.00  0.00     0.023 A 
ATOM     17  C   UNL A   1      37.458  21.095  25.309  1.00  0.00     0.102 A 
ATOM     18  C   UNL A   1      38.583  21.818  25.797  1.00  0.00     0.063 A 
ATOM     19  Cl  UNL A   1      37.480  19.427  24.968  1.00  0.00    -0.079 Cl
ATOM     20  Cl  UNL A   1      40.142  21.044  25.925  1.00  0.00    -0.083 Cl
BRANCH  11  21
ATOM     21  C   UNL A   1      32.518  23.141  23.047  1.00  0.00     0.430 C 
ATOM     22  F   UNL A   1      32.913  24.348  22.640  1.00  0.00    -0.167 F 
ATOM     23  F   UNL A   1      32.595  22.319  21.970  1.00  0.00    -0.167 F 
ATOM     24  F   UNL A   1      31.173  23.318  23.253  1.00  0.00    -0.167 F 
ENDBRANCH  11  21
ENDBRANCH   7   9
ENDBRANCH   6   7
ENDBRANCH   5   6
ENDBRANCH   4   5
ENDBRANCH   3   4
ENDBRANCH   2   3
ENDBRANCH   1   2
BRANCH   1  25
ATOM     25  O   UNL A   1      32.441  28.970  24.450  1.00  0.00    -0.376 OA
BRANCH  25  26
ATOM     26  C   UNL A   1      31.420  29.381  25.344  1.00  0.00     0.202 C 
BRANCH  26  27
ATOM     27  C   UNL A   1      31.746  30.513  26.324  1.00  0.00     0.261 C 
BRANCH  27  28
ATOM     28  O   UNL A   1      33.135  30.898  26.329  1.00  0.00    -0.460 OA
BRANCH  28  29
ATOM     29  C   UNL A   1      33.530  31.807  27.254  1.00  0.00     0.338 C 
ATOM     30  O   UNL A   1      32.898  32.748  27.699  1.00  0.00    -0.246 OA
BRANCH  29  31
ATOM     31  C   UNL A   1      34.864  31.415  27.747  1.00  0.00     0.060 A 
ATOM     32  C   UNL A   1      35.166  30.062  27.972  1.00  0.00     0.016 A 
ATOM     33  C   UNL A   1      35.806  32.408  28.002  1.00  0.00     0.016 A 
ATOM     34  C   UNL A   1      36.437  29.697  28.423  1.00  0.00     0.010 A 
ATOM     35  C   UNL A   1      37.054  32.049  28.502  1.00  0.00     0.010 A 
ATOM     36  C   UNL A   1      37.367  30.697  28.730  1.00  0.00    -0.014 A 
BRANCH  36  37
ATOM     37  C   UNL A   1      38.553  30.399  29.563  1.00  0.00     0.031 A 
ATOM     38  C   UNL A   1      39.521  29.389  29.025  1.00  0.00     0.074 A 
ATOM     39  C   UNL A   1      38.702  30.912  30.794  1.00  0.00     0.049 A 
ATOM     40  N   UNL A   1      40.517  28.789  29.619  1.00  0.00    -0.248 NA
ATOM     41  C   UNL A   1      39.309  28.978  27.628  1.00  0.00     0.031 C 
ATOM     42  C   UNL A   1      37.837  31.917  31.403  1.00  0.00     0.029 A 
ATOM     43  N   UNL A   1      39.623  30.614  31.767  1.00  0.00    -0.354 N 
ATOM     44  C   UNL A   1      41.035  27.912  28.674  1.00  0.00     0.074 A 
ATOM     45  C   UNL A   1      40.227  28.037  27.484  1.00  0.00     0.031 C 
ATOM     46  C   UNL A   1      38.246  32.128  32.667  1.00  0.00     0.029 A 
ATOM     47  C   UNL A   1      39.370  31.239  32.963  1.00  0.00     0.049 A 
ATOM     48  H   UNL A   1      40.389  30.013  31.622  1.00  0.00     0.167 HD
ATOM     49  C   UNL A   1      42.087  27.070  28.795  1.00  0.00     0.037 A 
ATOM     50  C   UNL A   1      39.953  31.071  34.167  1.00  0.00     0.037 A 
ATOM     51  C   UNL A   1      42.852  26.926  30.004  1.00  0.00     0.049 A 
ATOM     52  C   UNL A   1      41.080  30.079  34.310  1.00  0.00     0.074 A 
ATOM     53  C   UNL A   1      43.952  26.123  30.237  1.00  0.00     0.029 A 
ATOM     54  N   UNL A   1      42.574  27.585  31.194  1.00  0.00    -0.354 N 
ATOM     55  N   UNL A   1      41.596  29.278  33.407  1.00  0.00    -0.248 NA
ATOM     56  C   UNL A   1      41.706  29.967  35.635  1.00  0.00     0.031 C 
ATOM     57  C   UNL A   1      44.286  26.230  31.590  1.00  0.00     0.029 A 
ATOM     58  C   UNL A   1      43.457  27.176  32.177  1.00  0.00     0.049 A 
ATOM     59  H   UNL A   1      41.855  28.246  31.320  1.00  0.00     0.167 HD
ATOM     60  C   UNL A   1      42.629  28.596  34.041  1.00  0.00     0.074 A 
ATOM     61  C   UNL A   1      42.662  29.074  35.408  1.00  0.00     0.031 C 
ATOM     62  C   UNL A   1      43.480  27.669  33.534  1.00  0.00     0.037 A 
BRANCH  49  63
ATOM     63  C   UNL A   1      42.404  26.201  27.611  1.00  0.00     0.057 A 
ATOM     64  C   UNL A   1      41.845  24.925  27.446  1.00  0.00     0.134 A 
ATOM     65  C   UNL A   1      43.319  26.631  26.642  1.00  0.00     0.134 A 
ATOM     66  F   UNL A   1      40.974  24.442  28.345  1.00  0.00    -0.206 F 
ATOM     67  C   UNL A   1      42.229  24.089  26.396  1.00  0.00     0.040 A 
ATOM     68  C   UNL A   1      43.677  25.821  25.564  1.00  0.00     0.040 A 
ATOM     69  F   UNL A   1      43.891  27.841  26.731  1.00  0.00    -0.206 F 
ATOM     70  C   UNL A   1      43.146  24.539  25.449  1.00  0.00     0.006 A 
ENDBRANCH  49  63
BRANCH  50  71
ATOM     71  C   UNL A   1      39.464  31.854  35.332  1.00  0.00     0.057 A 
ATOM     72  C   UNL A   1      38.430  31.378  36.145  1.00  0.00     0.134 A 
ATOM     73  C   UNL A   1      40.040  33.083  35.677  1.00  0.00     0.134 A 
ATOM     74  F   UNL A   1      37.820  30.220  35.852  1.00  0.00    -0.206 F 
ATOM     75  C   UNL A   1      37.986  32.093  37.258  1.00  0.00     0.040 A 
ATOM     76  C   UNL A   1      39.625  33.796  36.804  1.00  0.00     0.040 A 
ATOM     77  F   UNL A   1      41.035  33.597  34.939  1.00  0.00    -0.206 F 
ATOM     78  C   UNL A   1      38.592  33.302  37.597  1.00  0.00     0.006 A 
ENDBRANCH  50  71
BRANCH  62  79
ATOM     79  C   UNL A   1      44.567  27.146  34.431  1.00  0.00     0.057 A 
ATOM     80  C   UNL A   1      45.793  27.801  34.590  1.00  0.00     0.134 A 
ATOM     81  C   UNL A   1      44.337  26.007  35.218  1.00  0.00     0.134 A 
ATOM     82  F   UNL A   1      46.082  28.891  33.864  1.00  0.00    -0.206 F 
ATOM     83  C   UNL A   1      46.757  27.337  35.489  1.00  0.00     0.040 A 
ATOM     84  C   UNL A   1      45.277  25.555  36.144  1.00  0.00     0.040 A 
ATOM     85  F   UNL A   1      43.178  25.337  35.127  1.00  0.00    -0.206 F 
ATOM     86  C   UNL A   1      46.494  26.218  36.279  1.00  0.00     0.006 A 
ENDBRANCH  62  79
ENDBRANCH  36  37
ENDBRANCH  29  31
ENDBRANCH  28  29
ENDBRANCH  27  28
ENDBRANCH  26  27
ENDBRANCH  25  26
ENDBRANCH   1  25
TORSDOF 18
ENDMDL
