MODEL 1
REMARK VINA RESULT:     -10.7      0.000      0.000
REMARK SMILES O=C(OCCOCCOCCOC(=O)[C@H]1[NH2+]CC[C@H]1c1cccc(Oc2ccccc2)c1)c1ccc(-c2c3nc(c(-c4c(F)cccc4F)c4ccc([nH]4)c(-c4c(F)cccc4F)c4nc(c(-c5c(F)cccc5F)c5ccc2[nH]5)C=C4)C=C3)cc1
REMARK SMILES IDX 8 1 7 2 6 3 5 4 4 5 3 6 2 7 1 8 33 9 34 10 86 11 35 12 85 13
REMARK SMILES IDX 36 14 37 15 38 16 79 17 39 18 84 19 78 20 80 21 40 22 83 23
REMARK SMILES IDX 77 24 76 25 41 27 67 28 50 29 66 30 51 31 54 32 65 33 81 34
REMARK SMILES IDX 52 35 53 36 64 38 82 39 55 40 42 41 43 42 48 43 44 44 45 45
REMARK SMILES IDX 47 46 49 47 46 48 68 49 69 50 74 51 70 52 71 53 73 54 75 55
REMARK SMILES IDX 72 56 56 57 57 58 62 59 58 60 59 61 61 62 63 63 60 64 9 65
REMARK SMILES IDX 10 66 11 67 12 68 13 69 14 70 15 71 16 72 19 73 17 74 18 77
REMARK SMILES IDX 20 78 21 79 32 80 22 81 24 82 23 83 25 84 26 85 27 86 31 87
REMARK SMILES IDX 28 88 30 89 29 90
REMARK H PARENT 80 26 54 37 16 75 16 76
REMARK Flexibility Score: inf
ROOT
ATOM      1  C   UNL A   1      34.953  32.513  28.067  1.00  0.00     0.188 C 
ENDROOT
BRANCH   1   2
ATOM      2  C   UNL A   1      34.658  33.805  28.824  1.00  0.00     0.188 C 
BRANCH   2   3
ATOM      3  O   UNL A   1      34.031  33.496  30.052  1.00  0.00    -0.376 OA
BRANCH   3   4
ATOM      4  C   UNL A   1      34.908  33.483  31.170  1.00  0.00     0.202 C 
BRANCH   4   5
ATOM      5  C   UNL A   1      35.272  32.093  31.672  1.00  0.00     0.261 C 
BRANCH   5   6
ATOM      6  O   UNL A   1      35.631  32.114  33.067  1.00  0.00    -0.460 OA
BRANCH   6   7
ATOM      7  C   UNL A   1      37.073  32.169  33.475  1.00  0.00     0.338 C 
ATOM      8  O   UNL A   1      36.931  32.297  34.726  1.00  0.00    -0.246 OA
BRANCH   7   9
ATOM      9  C   UNL A   1      38.768  31.927  32.186  1.00  0.00     0.060 A 
ATOM     10  C   UNL A   1      40.085  31.195  32.433  1.00  0.00     0.016 A 
ATOM     11  C   UNL A   1      38.937  32.279  30.724  1.00  0.00     0.016 A 
ATOM     12  C   UNL A   1      40.927  30.552  31.551  1.00  0.00     0.010 A 
ATOM     13  C   UNL A   1      39.766  31.664  29.791  1.00  0.00     0.010 A 
ATOM     14  C   UNL A   1      40.701  30.754  30.229  1.00  0.00    -0.014 A 
BRANCH  14  15
ATOM     15  C   UNL A   1      41.727  30.338  29.317  1.00  0.00     0.031 A 
ATOM     16  C   UNL A   1      41.544  28.948  28.840  1.00  0.00     0.074 A 
ATOM     17  C   UNL A   1      42.742  31.187  29.140  1.00  0.00     0.049 A 
ATOM     18  N   UNL A   1      42.408  28.160  28.293  1.00  0.00    -0.248 NA
ATOM     19  C   UNL A   1      40.220  28.327  29.088  1.00  0.00     0.031 C 
ATOM     20  C   UNL A   1      42.795  32.567  29.635  1.00  0.00     0.029 A 
ATOM     21  N   UNL A   1      43.958  30.982  28.583  1.00  0.00    -0.354 N 
ATOM     22  C   UNL A   1      41.744  26.953  28.149  1.00  0.00     0.074 A 
ATOM     23  C   UNL A   1      40.442  27.074  28.746  1.00  0.00     0.031 C 
ATOM     24  C   UNL A   1      44.036  33.045  29.470  1.00  0.00     0.029 A 
ATOM     25  C   UNL A   1      44.839  31.995  28.866  1.00  0.00     0.049 A 
ATOM     26  H   UNL A   1      44.185  30.195  28.038  1.00  0.00     0.167 HD
ATOM     27  C   UNL A   1      42.224  25.856  27.538  1.00  0.00     0.037 A 
ATOM     28  C   UNL A   1      46.166  32.000  28.676  1.00  0.00     0.037 A 
ATOM     29  C   UNL A   1      43.568  25.865  27.031  1.00  0.00     0.049 A 
ATOM     30  C   UNL A   1      46.702  30.771  28.000  1.00  0.00     0.074 A 
ATOM     31  C   UNL A   1      44.262  24.895  26.348  1.00  0.00     0.029 A 
ATOM     32  N   UNL A   1      44.432  26.957  27.186  1.00  0.00    -0.354 N 
ATOM     33  N   UNL A   1      46.085  29.624  27.790  1.00  0.00    -0.248 NA
ATOM     34  C   UNL A   1      48.056  30.840  27.466  1.00  0.00     0.031 C 
ATOM     35  C   UNL A   1      45.555  25.391  26.125  1.00  0.00     0.029 A 
ATOM     36  C   UNL A   1      45.654  26.693  26.614  1.00  0.00     0.049 A 
ATOM     37  H   UNL A   1      44.197  27.797  27.641  1.00  0.00     0.167 HD
ATOM     38  C   UNL A   1      46.946  28.848  27.038  1.00  0.00     0.074 A 
ATOM     39  C   UNL A   1      48.145  29.662  26.860  1.00  0.00     0.031 C 
ATOM     40  C   UNL A   1      46.778  27.604  26.515  1.00  0.00     0.037 A 
BRANCH  27  41
ATOM     41  C   UNL A   1      41.309  24.668  27.478  1.00  0.00     0.057 A 
ATOM     42  C   UNL A   1      41.546  23.504  28.235  1.00  0.00     0.134 A 
ATOM     43  C   UNL A   1      40.270  24.612  26.544  1.00  0.00     0.134 A 
ATOM     44  F   UNL A   1      42.553  23.462  29.122  1.00  0.00    -0.206 F 
ATOM     45  C   UNL A   1      40.832  22.322  28.019  1.00  0.00     0.040 A 
ATOM     46  C   UNL A   1      39.523  23.446  26.347  1.00  0.00     0.040 A 
ATOM     47  F   UNL A   1      39.995  25.670  25.766  1.00  0.00    -0.206 F 
ATOM     48  C   UNL A   1      39.815  22.291  27.071  1.00  0.00     0.006 A 
ENDBRANCH  27  41
BRANCH  28  49
ATOM     49  C   UNL A   1      46.944  33.210  29.028  1.00  0.00     0.057 A 
ATOM     50  C   UNL A   1      47.581  33.312  30.268  1.00  0.00     0.134 A 
ATOM     51  C   UNL A   1      47.232  34.203  28.079  1.00  0.00     0.134 A 
ATOM     52  F   UNL A   1      47.375  32.377  31.207  1.00  0.00    -0.206 F 
ATOM     53  C   UNL A   1      48.468  34.353  30.559  1.00  0.00     0.040 A 
ATOM     54  C   UNL A   1      48.125  35.245  28.352  1.00  0.00     0.040 A 
ATOM     55  F   UNL A   1      46.698  34.141  26.850  1.00  0.00    -0.206 F 
ATOM     56  C   UNL A   1      48.747  35.321  29.596  1.00  0.00     0.006 A 
ENDBRANCH  28  49
BRANCH  40  57
ATOM     57  C   UNL A   1      47.908  27.103  25.685  1.00  0.00     0.057 A 
ATOM     58  C   UNL A   1      47.968  27.354  24.312  1.00  0.00     0.134 A 
ATOM     59  C   UNL A   1      48.995  26.472  26.301  1.00  0.00     0.134 A 
ATOM     60  F   UNL A   1      46.942  27.949  23.683  1.00  0.00    -0.206 F 
ATOM     61  C   UNL A   1      49.083  26.986  23.569  1.00  0.00     0.040 A 
ATOM     62  C   UNL A   1      50.129  26.130  25.573  1.00  0.00     0.040 A 
ATOM     63  F   UNL A   1      48.985  26.227  27.620  1.00  0.00    -0.206 F 
ATOM     64  C   UNL A   1      50.172  26.387  24.203  1.00  0.00     0.006 A 
ENDBRANCH  40  57
ENDBRANCH  14  15
ENDBRANCH   7   9
ENDBRANCH   6   7
ENDBRANCH   5   6
ENDBRANCH   4   5
ENDBRANCH   3   4
ENDBRANCH   2   3
ENDBRANCH   1   2
BRANCH   1  65
ATOM     65  O   UNL A   1      34.098  31.397  28.314  1.00  0.00    -0.376 OA
BRANCH  65  66
ATOM     66  C   UNL A   1      33.378  30.805  27.233  1.00  0.00     0.202 C 
BRANCH  66  67
ATOM     67  C   UNL A   1      33.094  29.293  27.226  1.00  0.00     0.261 C 
BRANCH  67  68
ATOM     68  O   UNL A   1      32.220  28.817  26.189  1.00  0.00    -0.459 OA
BRANCH  68  69
ATOM     69  C   UNL A   1      31.570  27.667  26.484  1.00  0.00     0.365 C 
ATOM     70  O   UNL A   1      31.274  27.327  27.628  1.00  0.00    -0.245 OA
BRANCH  69  71
ATOM     71  C   UNL A   1      31.278  26.774  25.286  1.00  0.00     0.301 C 
ATOM     72  N   UNL A   1      31.855  27.305  24.020  1.00  0.00    -0.334 N 
ATOM     73  C   UNL A   1      31.506  25.266  25.183  1.00  0.00     0.095 C 
ATOM     74  C   UNL A   1      31.413  26.355  22.994  1.00  0.00     0.262 C 
ATOM     75  H   UNL A   1      32.873  27.334  24.071  1.00  0.00     0.347 HD
ATOM     76  H   UNL A   1      31.551  28.259  23.825  1.00  0.00     0.347 HD
ATOM     77  C   UNL A   1      31.016  25.078  23.728  1.00  0.00     0.076 C 
BRANCH  73  78
ATOM     78  C   UNL A   1      32.846  24.548  25.492  1.00  0.00    -0.034 A 
ATOM     79  C   UNL A   1      34.403  25.111  24.714  1.00  0.00     0.004 A 
ATOM     80  C   UNL A   1      32.689  22.805  26.000  1.00  0.00     0.051 A 
ATOM     81  C   UNL A   1      35.738  23.890  24.358  1.00  0.00     0.004 A 
ATOM     82  C   UNL A   1      33.973  21.566  25.559  1.00  0.00     0.127 A 
ATOM     83  C   UNL A   1      35.481  22.121  24.687  1.00  0.00     0.047 A 
BRANCH  82  84
ATOM     84  O   UNL A   1      33.839  20.203  25.793  1.00  0.00    -0.457 OA
BRANCH  84  85
ATOM     85  C   UNL A   1      33.532  19.427  24.700  1.00  0.00     0.127 A 
ATOM     86  C   UNL A   1      34.249  18.245  24.514  1.00  0.00     0.047 A 
ATOM     87  C   UNL A   1      32.545  19.790  23.779  1.00  0.00     0.047 A 
ATOM     88  C   UNL A   1      33.866  17.352  23.511  1.00  0.00     0.004 A 
ATOM     89  C   UNL A   1      32.157  18.894  22.782  1.00  0.00     0.004 A 
ATOM     90  C   UNL A   1      32.800  17.663  22.666  1.00  0.00     0.000 A 
ENDBRANCH  84  85
ENDBRANCH  82  84
ENDBRANCH  73  78
ENDBRANCH  69  71
ENDBRANCH  68  69
ENDBRANCH  67  68
ENDBRANCH  66  67
ENDBRANCH  65  66
ENDBRANCH   1  65
TORSDOF 20
ENDMDL
MODEL 2
REMARK VINA RESULT:     -10.0      5.699     12.654
REMARK SMILES O=C(OCCOCCOCCOC(=O)[C@H]1[NH2+]CC[C@H]1c1cccc(Oc2ccccc2)c1)c1ccc(-c2c3nc(c(-c4c(F)cccc4F)c4ccc([nH]4)c(-c4c(F)cccc4F)c4nc(c(-c5c(F)cccc5F)c5ccc2[nH]5)C=C4)C=C3)cc1
REMARK SMILES IDX 8 1 7 2 6 3 5 4 4 5 3 6 2 7 1 8 33 9 34 10 86 11 35 12 85 13
REMARK SMILES IDX 36 14 37 15 38 16 79 17 39 18 84 19 78 20 80 21 40 22 83 23
REMARK SMILES IDX 77 24 76 25 41 27 67 28 50 29 66 30 51 31 54 32 65 33 81 34
REMARK SMILES IDX 52 35 53 36 64 38 82 39 55 40 42 41 43 42 48 43 44 44 45 45
REMARK SMILES IDX 47 46 49 47 46 48 68 49 69 50 74 51 70 52 71 53 73 54 75 55
REMARK SMILES IDX 72 56 56 57 57 58 62 59 58 60 59 61 61 62 63 63 60 64 9 65
REMARK SMILES IDX 10 66 11 67 12 68 13 69 14 70 15 71 16 72 19 73 17 74 18 77
REMARK SMILES IDX 20 78 21 79 32 80 22 81 24 82 23 83 25 84 26 85 27 86 31 87
REMARK SMILES IDX 28 88 30 89 29 90
REMARK H PARENT 80 26 54 37 16 75 16 76
REMARK Flexibility Score: inf
ROOT
ATOM      1  C   UNL A   1      44.115  23.070  24.256  1.00  0.00     0.188 C 
ENDROOT
BRANCH   1   2
ATOM      2  C   UNL A   1      44.098  22.116  25.447  1.00  0.00     0.188 C 
BRANCH   2   3
ATOM      3  O   UNL A   1      43.267  21.011  25.152  1.00  0.00    -0.376 OA
BRANCH   3   4
ATOM      4  C   UNL A   1      42.382  20.649  26.203  1.00  0.00     0.202 C 
BRANCH   4   5
ATOM      5  C   UNL A   1      41.052  21.389  26.194  1.00  0.00     0.261 C 
BRANCH   5   6
ATOM      6  O   UNL A   1      41.154  22.664  26.855  1.00  0.00    -0.460 OA
BRANCH   6   7
ATOM      7  C   UNL A   1      39.990  23.609  26.859  1.00  0.00     0.338 C 
ATOM      8  O   UNL A   1      39.144  22.899  26.240  1.00  0.00    -0.246 OA
BRANCH   7   9
ATOM      9  C   UNL A   1      39.909  25.522  27.822  1.00  0.00     0.060 A 
ATOM     10  C   UNL A   1      39.070  25.980  29.012  1.00  0.00     0.016 A 
ATOM     11  C   UNL A   1      40.780  26.744  27.633  1.00  0.00     0.016 A 
ATOM     12  C   UNL A   1      39.335  26.927  29.979  1.00  0.00     0.010 A 
ATOM     13  C   UNL A   1      41.084  27.726  28.571  1.00  0.00     0.010 A 
ATOM     14  C   UNL A   1      40.393  27.746  29.761  1.00  0.00    -0.014 A 
BRANCH  14  15
ATOM     15  C   UNL A   1      40.507  28.907  30.596  1.00  0.00     0.031 A 
ATOM     16  C   UNL A   1      41.432  28.708  31.734  1.00  0.00     0.074 A 
ATOM     17  C   UNL A   1      39.685  29.921  30.315  1.00  0.00     0.049 A 
ATOM     18  N   UNL A   1      41.529  29.388  32.827  1.00  0.00    -0.248 NA
ATOM     19  C   UNL A   1      42.324  27.525  31.671  1.00  0.00     0.031 C 
ATOM     20  C   UNL A   1      38.834  30.023  29.124  1.00  0.00     0.029 A 
ATOM     21  N   UNL A   1      39.361  31.005  31.056  1.00  0.00    -0.354 N 
ATOM     22  C   UNL A   1      42.470  28.711  33.585  1.00  0.00     0.074 A 
ATOM     23  C   UNL A   1      42.850  27.518  32.879  1.00  0.00     0.031 C 
ATOM     24  C   UNL A   1      37.988  31.052  29.278  1.00  0.00     0.029 A 
ATOM     25  C   UNL A   1      38.253  31.655  30.574  1.00  0.00     0.049 A 
ATOM     26  H   UNL A   1      39.863  31.295  31.852  1.00  0.00     0.167 HD
ATOM     27  C   UNL A   1      42.962  29.107  34.772  1.00  0.00     0.037 A 
ATOM     28  C   UNL A   1      37.532  32.606  31.185  1.00  0.00     0.037 A 
ATOM     29  C   UNL A   1      42.447  30.299  35.383  1.00  0.00     0.049 A 
ATOM     30  C   UNL A   1      38.079  33.041  32.514  1.00  0.00     0.074 A 
ATOM     31  C   UNL A   1      42.807  30.918  36.556  1.00  0.00     0.029 A 
ATOM     32  N   UNL A   1      41.410  31.056  34.821  1.00  0.00    -0.354 N 
ATOM     33  N   UNL A   1      39.015  32.459  33.239  1.00  0.00    -0.248 NA
ATOM     34  C   UNL A   1      37.556  34.280  33.078  1.00  0.00     0.031 C 
ATOM     35  C   UNL A   1      41.962  32.025  36.717  1.00  0.00     0.029 A 
ATOM     36  C   UNL A   1      41.113  32.136  35.617  1.00  0.00     0.049 A 
ATOM     37  H   UNL A   1      40.957  30.843  33.974  1.00  0.00     0.167 HD
ATOM     38  C   UNL A   1      39.249  33.290  34.317  1.00  0.00     0.074 A 
ATOM     39  C   UNL A   1      38.322  34.407  34.154  1.00  0.00     0.031 C 
ATOM     40  C   UNL A   1      40.146  33.180  35.334  1.00  0.00     0.037 A 
BRANCH  27  41
ATOM     41  C   UNL A   1      43.999  28.220  35.396  1.00  0.00     0.057 A 
ATOM     42  C   UNL A   1      43.673  27.265  36.378  1.00  0.00     0.134 A 
ATOM     43  C   UNL A   1      45.359  28.420  35.138  1.00  0.00     0.134 A 
ATOM     44  F   UNL A   1      42.392  27.046  36.715  1.00  0.00    -0.206 F 
ATOM     45  C   UNL A   1      44.653  26.598  37.119  1.00  0.00     0.040 A 
ATOM     46  C   UNL A   1      46.349  27.728  35.845  1.00  0.00     0.040 A 
ATOM     47  F   UNL A   1      45.755  29.328  34.234  1.00  0.00    -0.206 F 
ATOM     48  C   UNL A   1      45.998  26.830  36.851  1.00  0.00     0.006 A 
ENDBRANCH  27  41
BRANCH  28  49
ATOM     49  C   UNL A   1      36.374  33.203  30.481  1.00  0.00     0.057 A 
ATOM     50  C   UNL A   1      35.085  33.094  31.011  1.00  0.00     0.134 A 
ATOM     51  C   UNL A   1      36.541  34.054  29.377  1.00  0.00     0.134 A 
ATOM     52  F   UNL A   1      34.864  32.324  32.086  1.00  0.00    -0.206 F 
ATOM     53  C   UNL A   1      34.003  33.797  30.471  1.00  0.00     0.040 A 
ATOM     54  C   UNL A   1      35.471  34.772  28.834  1.00  0.00     0.040 A 
ATOM     55  F   UNL A   1      37.760  34.248  28.850  1.00  0.00    -0.206 F 
ATOM     56  C   UNL A   1      34.197  34.645  29.382  1.00  0.00     0.006 A 
ENDBRANCH  28  49
BRANCH  40  57
ATOM     57  C   UNL A   1      40.166  34.319  36.293  1.00  0.00     0.057 A 
ATOM     58  C   UNL A   1      40.922  35.466  36.043  1.00  0.00     0.134 A 
ATOM     59  C   UNL A   1      39.322  34.300  37.410  1.00  0.00     0.134 A 
ATOM     60  F   UNL A   1      41.750  35.519  34.988  1.00  0.00    -0.206 F 
ATOM     61  C   UNL A   1      40.842  36.569  36.883  1.00  0.00     0.040 A 
ATOM     62  C   UNL A   1      39.210  35.410  38.238  1.00  0.00     0.040 A 
ATOM     63  F   UNL A   1      38.566  33.224  37.677  1.00  0.00    -0.206 F 
ATOM     64  C   UNL A   1      39.973  36.547  37.975  1.00  0.00     0.006 A 
ENDBRANCH  40  57
ENDBRANCH  14  15
ENDBRANCH   7   9
ENDBRANCH   6   7
ENDBRANCH   5   6
ENDBRANCH   4   5
ENDBRANCH   3   4
ENDBRANCH   2   3
ENDBRANCH   1   2
BRANCH   1  65
ATOM     65  O   UNL A   1      44.704  24.355  24.453  1.00  0.00    -0.376 OA
BRANCH  65  66
ATOM     66  C   UNL A   1      44.217  25.205  25.491  1.00  0.00     0.202 C 
BRANCH  66  67
ATOM     67  C   UNL A   1      44.388  26.731  25.387  1.00  0.00     0.261 C 
BRANCH  67  68
ATOM     68  O   UNL A   1      45.628  27.264  25.882  1.00  0.00    -0.459 OA
BRANCH  68  69
ATOM     69  C   UNL A   1      46.614  27.348  24.959  1.00  0.00     0.365 C 
ATOM     70  O   UNL A   1      46.419  27.638  23.780  1.00  0.00    -0.245 OA
BRANCH  69  71
ATOM     71  C   UNL A   1      48.001  26.988  25.472  1.00  0.00     0.301 C 
ATOM     72  N   UNL A   1      48.673  28.126  26.156  1.00  0.00    -0.334 N 
ATOM     73  C   UNL A   1      48.385  25.777  26.323  1.00  0.00     0.095 C 
ATOM     74  C   UNL A   1      49.999  27.607  26.508  1.00  0.00     0.262 C 
ATOM     75  H   UNL A   1      48.159  28.400  26.992  1.00  0.00     0.347 HD
ATOM     76  H   UNL A   1      48.726  28.958  25.567  1.00  0.00     0.347 HD
ATOM     77  C   UNL A   1      49.894  26.085  26.460  1.00  0.00     0.076 C 
BRANCH  73  78
ATOM     78  C   UNL A   1      47.703  25.378  27.657  1.00  0.00    -0.034 A 
ATOM     79  C   UNL A   1      46.512  23.991  27.714  1.00  0.00     0.004 A 
ATOM     80  C   UNL A   1      47.560  26.719  28.883  1.00  0.00     0.051 A 
ATOM     81  C   UNL A   1      45.129  24.026  28.932  1.00  0.00     0.004 A 
ATOM     82  C   UNL A   1      46.128  26.810  30.031  1.00  0.00     0.127 A 
ATOM     83  C   UNL A   1      44.885  25.469  30.009  1.00  0.00     0.047 A 
BRANCH  82  84
ATOM     84  O   UNL A   1      45.892  27.881  30.885  1.00  0.00    -0.457 OA
BRANCH  84  85
ATOM     85  C   UNL A   1      45.191  28.937  30.353  1.00  0.00     0.127 A 
ATOM     86  C   UNL A   1      44.705  28.810  29.052  1.00  0.00     0.047 A 
ATOM     87  C   UNL A   1      44.966  30.119  31.064  1.00  0.00     0.047 A 
ATOM     88  C   UNL A   1      43.857  29.789  28.530  1.00  0.00     0.004 A 
ATOM     89  C   UNL A   1      44.112  31.094  30.546  1.00  0.00     0.004 A 
ATOM     90  C   UNL A   1      43.536  30.915  29.290  1.00  0.00     0.000 A 
ENDBRANCH  84  85
ENDBRANCH  82  84
ENDBRANCH  73  78
ENDBRANCH  69  71
ENDBRANCH  68  69
ENDBRANCH  67  68
ENDBRANCH  66  67
ENDBRANCH  65  66
ENDBRANCH   1  65
TORSDOF 20
ENDMDL
MODEL 3
REMARK VINA RESULT:      -9.9      5.632     12.109
REMARK SMILES O=C(OCCOCCOCCOC(=O)[C@H]1[NH2+]CC[C@H]1c1cccc(Oc2ccccc2)c1)c1ccc(-c2c3nc(c(-c4c(F)cccc4F)c4ccc([nH]4)c(-c4c(F)cccc4F)c4nc(c(-c5c(F)cccc5F)c5ccc2[nH]5)C=C4)C=C3)cc1
REMARK SMILES IDX 8 1 7 2 6 3 5 4 4 5 3 6 2 7 1 8 33 9 34 10 86 11 35 12 85 13
REMARK SMILES IDX 36 14 37 15 38 16 79 17 39 18 84 19 78 20 80 21 40 22 83 23
REMARK SMILES IDX 77 24 76 25 41 27 67 28 50 29 66 30 51 31 54 32 65 33 81 34
REMARK SMILES IDX 52 35 53 36 64 38 82 39 55 40 42 41 43 42 48 43 44 44 45 45
REMARK SMILES IDX 47 46 49 47 46 48 68 49 69 50 74 51 70 52 71 53 73 54 75 55
REMARK SMILES IDX 72 56 56 57 57 58 62 59 58 60 59 61 61 62 63 63 60 64 9 65
REMARK SMILES IDX 10 66 11 67 12 68 13 69 14 70 15 71 16 72 19 73 17 74 18 77
REMARK SMILES IDX 20 78 21 79 32 80 22 81 24 82 23 83 25 84 26 85 27 86 31 87
REMARK SMILES IDX 28 88 30 89 29 90
REMARK H PARENT 80 26 54 37 16 75 16 76
REMARK Flexibility Score: inf
ROOT
ATOM      1  C   UNL A   1      46.199  23.476  25.230  1.00  0.00     0.188 C 
ENDROOT
BRANCH   1   2
ATOM      2  C   UNL A   1      46.194  22.200  24.393  1.00  0.00     0.188 C 
BRANCH   2   3
ATOM      3  O   UNL A   1      46.248  21.077  25.249  1.00  0.00    -0.376 OA
BRANCH   3   4
ATOM      4  C   UNL A   1      45.944  19.843  24.614  1.00  0.00     0.202 C 
BRANCH   4   5
ATOM      5  C   UNL A   1      44.821  19.053  25.270  1.00  0.00     0.261 C 
BRANCH   5   6
ATOM      6  O   UNL A   1      43.531  19.462  24.777  1.00  0.00    -0.460 OA
BRANCH   6   7
ATOM      7  C   UNL A   1      42.466  19.911  25.731  1.00  0.00     0.338 C 
ATOM      8  O   UNL A   1      41.775  18.852  25.786  1.00  0.00    -0.246 OA
BRANCH   7   9
ATOM      9  C   UNL A   1      42.378  21.799  26.743  1.00  0.00     0.060 A 
ATOM     10  C   UNL A   1      42.185  22.103  28.226  1.00  0.00     0.016 A 
ATOM     11  C   UNL A   1      42.659  23.193  26.227  1.00  0.00     0.016 A 
ATOM     12  C   UNL A   1      42.643  23.158  28.987  1.00  0.00     0.010 A 
ATOM     13  C   UNL A   1      43.124  24.289  26.946  1.00  0.00     0.010 A 
ATOM     14  C   UNL A   1      43.170  24.213  28.319  1.00  0.00    -0.014 A 
BRANCH  14  15
ATOM     15  C   UNL A   1      43.379  25.422  29.062  1.00  0.00     0.031 A 
ATOM     16  C   UNL A   1      42.184  26.296  29.087  1.00  0.00     0.074 A 
ATOM     17  C   UNL A   1      44.622  25.644  29.496  1.00  0.00     0.049 A 
ATOM     18  N   UNL A   1      42.107  27.554  29.367  1.00  0.00    -0.248 NA
ATOM     19  C   UNL A   1      40.903  25.687  28.655  1.00  0.00     0.031 C 
ATOM     20  C   UNL A   1      45.725  24.677  29.450  1.00  0.00     0.029 A 
ATOM     21  N   UNL A   1      45.188  26.779  29.966  1.00  0.00    -0.354 N 
ATOM     22  C   UNL A   1      40.785  27.890  29.129  1.00  0.00     0.074 A 
ATOM     23  C   UNL A   1      40.111  26.738  28.593  1.00  0.00     0.031 C 
ATOM     24  C   UNL A   1      46.870  25.303  29.759  1.00  0.00     0.029 A 
ATOM     25  C   UNL A   1      46.557  26.700  30.013  1.00  0.00     0.049 A 
ATOM     26  H   UNL A   1      44.675  27.572  30.243  1.00  0.00     0.167 HD
ATOM     27  C   UNL A   1      40.216  29.083  29.373  1.00  0.00     0.037 A 
ATOM     28  C   UNL A   1      47.427  27.702  30.199  1.00  0.00     0.037 A 
ATOM     29  C   UNL A   1      41.029  30.161  29.862  1.00  0.00     0.049 A 
ATOM     30  C   UNL A   1      46.792  29.036  30.464  1.00  0.00     0.074 A 
ATOM     31  C   UNL A   1      40.680  31.443  30.215  1.00  0.00     0.029 A 
ATOM     32  N   UNL A   1      42.412  30.045  30.055  1.00  0.00    -0.354 N 
ATOM     33  N   UNL A   1      45.527  29.380  30.308  1.00  0.00    -0.248 NA
ATOM     34  C   UNL A   1      47.646  30.089  30.999  1.00  0.00     0.031 C 
ATOM     35  C   UNL A   1      41.858  32.107  30.584  1.00  0.00     0.029 A 
ATOM     36  C   UNL A   1      42.937  31.226  30.522  1.00  0.00     0.049 A 
ATOM     37  H   UNL A   1      42.935  29.230  29.880  1.00  0.00     0.167 HD
ATOM     38  C   UNL A   1      45.410  30.670  30.787  1.00  0.00     0.074 A 
ATOM     39  C   UNL A   1      46.755  31.050  31.212  1.00  0.00     0.031 C 
ATOM     40  C   UNL A   1      44.316  31.470  30.900  1.00  0.00     0.037 A 
BRANCH  27  41
ATOM     41  C   UNL A   1      38.754  29.205  29.061  1.00  0.00     0.057 A 
ATOM     42  C   UNL A   1      38.290  29.516  27.768  1.00  0.00     0.134 A 
ATOM     43  C   UNL A   1      37.799  29.171  30.082  1.00  0.00     0.134 A 
ATOM     44  F   UNL A   1      39.149  29.612  26.741  1.00  0.00    -0.206 F 
ATOM     45  C   UNL A   1      36.955  29.850  27.519  1.00  0.00     0.040 A 
ATOM     46  C   UNL A   1      36.453  29.463  29.837  1.00  0.00     0.040 A 
ATOM     47  F   UNL A   1      38.162  28.906  31.345  1.00  0.00    -0.206 F 
ATOM     48  C   UNL A   1      36.031  29.823  28.559  1.00  0.00     0.006 A 
ENDBRANCH  27  41
BRANCH  28  49
ATOM     49  C   UNL A   1      48.878  27.404  30.241  1.00  0.00     0.057 A 
ATOM     50  C   UNL A   1      49.549  27.304  31.464  1.00  0.00     0.134 A 
ATOM     51  C   UNL A   1      49.586  27.025  29.091  1.00  0.00     0.134 A 
ATOM     52  F   UNL A   1      48.917  27.619  32.604  1.00  0.00    -0.206 F 
ATOM     53  C   UNL A   1      50.868  26.848  31.546  1.00  0.00     0.040 A 
ATOM     54  C   UNL A   1      50.902  26.556  29.159  1.00  0.00     0.040 A 
ATOM     55  F   UNL A   1      48.989  27.045  27.890  1.00  0.00    -0.206 F 
ATOM     56  C   UNL A   1      51.546  26.465  30.391  1.00  0.00     0.006 A 
ENDBRANCH  28  49
BRANCH  40  57
ATOM     57  C   UNL A   1      44.557  32.794  31.539  1.00  0.00     0.057 A 
ATOM     58  C   UNL A   1      44.427  32.969  32.919  1.00  0.00     0.134 A 
ATOM     59  C   UNL A   1      45.039  33.859  30.769  1.00  0.00     0.134 A 
ATOM     60  F   UNL A   1      43.959  31.974  33.690  1.00  0.00    -0.206 F 
ATOM     61  C   UNL A   1      44.767  34.174  33.519  1.00  0.00     0.040 A 
ATOM     62  C   UNL A   1      45.414  35.057  31.364  1.00  0.00     0.040 A 
ATOM     63  F   UNL A   1      45.194  33.727  29.443  1.00  0.00    -0.206 F 
ATOM     64  C   UNL A   1      45.277  35.216  32.743  1.00  0.00     0.006 A 
ENDBRANCH  40  57
ENDBRANCH  14  15
ENDBRANCH   7   9
ENDBRANCH   6   7
ENDBRANCH   5   6
ENDBRANCH   4   5
ENDBRANCH   3   4
ENDBRANCH   2   3
ENDBRANCH   1   2
BRANCH   1  65
ATOM     65  O   UNL A   1      46.287  24.719  24.533  1.00  0.00    -0.376 OA
BRANCH  65  66
ATOM     66  C   UNL A   1      47.000  25.809  25.117  1.00  0.00     0.202 C 
BRANCH  66  67
ATOM     67  C   UNL A   1      46.860  27.227  24.536  1.00  0.00     0.261 C 
BRANCH  67  68
ATOM     68  O   UNL A   1      45.655  27.934  24.873  1.00  0.00    -0.459 OA
BRANCH  68  69
ATOM     69  C   UNL A   1      45.627  28.432  26.131  1.00  0.00     0.365 C 
ATOM     70  O   UNL A   1      45.794  27.746  27.138  1.00  0.00    -0.245 OA
BRANCH  69  71
ATOM     71  C   UNL A   1      45.304  29.916  26.222  1.00  0.00     0.301 C 
ATOM     72  N   UNL A   1      44.321  30.225  27.297  1.00  0.00    -0.334 N 
ATOM     73  C   UNL A   1      46.299  31.075  26.298  1.00  0.00     0.095 C 
ATOM     74  C   UNL A   1      44.095  31.670  27.178  1.00  0.00     0.262 C 
ATOM     75  H   UNL A   1      44.704  29.995  28.213  1.00  0.00     0.347 HD
ATOM     76  H   UNL A   1      43.459  29.687  27.203  1.00  0.00     0.347 HD
ATOM     77  C   UNL A   1      45.273  32.229  26.386  1.00  0.00     0.076 C 
BRANCH  73  78
ATOM     78  C   UNL A   1      47.456  31.184  27.324  1.00  0.00    -0.034 A 
ATOM     79  C   UNL A   1      47.881  32.795  28.078  1.00  0.00     0.004 A 
ATOM     80  C   UNL A   1      48.751  29.911  27.167  1.00  0.00     0.051 A 
ATOM     81  C   UNL A   1      49.625  33.144  28.563  1.00  0.00     0.004 A 
ATOM     82  C   UNL A   1      50.507  30.287  27.556  1.00  0.00     0.127 A 
ATOM     83  C   UNL A   1      50.938  31.938  28.212  1.00  0.00     0.047 A 
BRANCH  82  84
ATOM     84  O   UNL A   1      51.554  29.404  27.321  1.00  0.00    -0.457 OA
BRANCH  84  85
ATOM     85  C   UNL A   1      51.741  29.020  26.013  1.00  0.00     0.127 A 
ATOM     86  C   UNL A   1      51.515  27.684  25.685  1.00  0.00     0.047 A 
ATOM     87  C   UNL A   1      52.155  29.916  25.023  1.00  0.00     0.047 A 
ATOM     88  C   UNL A   1      51.539  27.285  24.347  1.00  0.00     0.004 A 
ATOM     89  C   UNL A   1      52.170  29.520  23.686  1.00  0.00     0.004 A 
ATOM     90  C   UNL A   1      51.835  28.210  23.345  1.00  0.00     0.000 A 
ENDBRANCH  84  85
ENDBRANCH  82  84
ENDBRANCH  73  78
ENDBRANCH  69  71
ENDBRANCH  68  69
ENDBRANCH  67  68
ENDBRANCH  66  67
ENDBRANCH  65  66
ENDBRANCH   1  65
TORSDOF 20
ENDMDL
