MODEL 1
REMARK VINA RESULT:     -11.0      0.000      0.000
REMARK SMILES COc1cc(Cl)ccc1NC(=O)COc1ccccc1C(=O)OCCOCCOCCOC(=O)c1ccc(-c2c3nc(c(-c4c(F)cccc4F)c4ccc([nH]4)c(-c4c(F)cccc4F)c4nc(c(-c5c(F)cccc5F)c5ccc2[nH]5)C=C4)C=C3)cc1
REMARK SMILES IDX 26 1 25 2 24 3 23 4 21 5 22 6 20 7 15 8 16 9 17 10 19 11
REMARK SMILES IDX 18 12 14 13 13 14 11 15 10 16 12 18 9 19 3 20 4 21 5 22 8 23
REMARK SMILES IDX 6 24 7 25 2 26 1 27 27 28 28 29 29 30 30 31 31 32 32 33
REMARK SMILES IDX 33 34 34 35 35 36 36 37 88 38 37 39 87 40 38 41 39 42 40 43
REMARK SMILES IDX 81 44 41 45 86 46 80 47 82 48 42 49 85 50 79 51 78 52 43 54
REMARK SMILES IDX 69 55 52 56 68 57 53 58 56 59 67 60 83 61 54 62 55 63 66 65
REMARK SMILES IDX 84 66 57 67 44 68 45 69 50 70 46 71 47 72 49 73 51 74 48 75
REMARK SMILES IDX 70 76 71 77 76 78 72 79 73 80 75 81 77 82 74 83 58 84 59 85
REMARK SMILES IDX 64 86 60 87 61 88 63 89 65 90 62 91
REMARK H PARENT 10 17 82 53 56 64
REMARK Flexibility Score: inf
ROOT
ATOM      1  O   UNL A   1      39.563  22.235  26.222  1.00  0.00    -0.376 OA
ENDROOT
BRANCH   1   2
ATOM      2  C   UNL A   1      38.432  21.668  25.561  1.00  0.00     0.202 C 
BRANCH   2   3
ATOM      3  C   UNL A   1      37.150  22.499  25.556  1.00  0.00     0.261 C 
BRANCH   3   4
ATOM      4  O   UNL A   1      36.177  21.973  24.639  1.00  0.00    -0.460 OA
BRANCH   4   5
ATOM      5  C   UNL A   1      35.915  22.750  23.571  1.00  0.00     0.342 C 
ATOM      6  O   UNL A   1      36.704  23.105  22.710  1.00  0.00    -0.246 OA
BRANCH   5   7
ATOM      7  C   UNL A   1      34.459  22.941  23.446  1.00  0.00     0.102 A 
ATOM      8  C   UNL A   1      33.791  24.047  22.906  1.00  0.00     0.134 A 
ATOM      9  C   UNL A   1      32.396  23.938  22.732  1.00  0.00     0.047 A 
ATOM     10  C   UNL A   1      31.679  22.798  23.106  1.00  0.00     0.004 A 
ATOM     11  C   UNL A   1      33.725  21.803  23.856  1.00  0.00     0.019 A 
ATOM     12  C   UNL A   1      32.344  21.734  23.694  1.00  0.00     0.001 A 
BRANCH   8  13
ATOM     13  O   UNL A   1      34.220  25.260  22.460  1.00  0.00    -0.483 OA
BRANCH  13  14
ATOM     14  C   UNL A   1      33.400  26.393  22.295  1.00  0.00     0.329 C 
BRANCH  14  15
ATOM     15  C   UNL A   1      33.431  27.485  23.373  1.00  0.00     0.262 C 
ATOM     16  N   UNL A   1      33.209  27.224  24.695  1.00  0.00    -0.320 N 
ATOM     17  H   UNL A   1      33.679  27.848  25.293  1.00  0.00     0.170 HD
ATOM     18  O   UNL A   1      33.673  28.653  23.040  1.00  0.00    -0.271 OA
BRANCH  16  19
ATOM     19  C   UNL A   1      32.454  26.258  25.391  1.00  0.00     0.084 A 
ATOM     20  C   UNL A   1      31.039  26.331  25.299  1.00  0.00     0.143 A 
ATOM     21  C   UNL A   1      30.240  25.330  25.862  1.00  0.00     0.069 A 
ATOM     22  C   UNL A   1      30.837  24.238  26.480  1.00  0.00     0.044 A 
ATOM     23  C   UNL A   1      33.029  25.163  26.039  1.00  0.00     0.031 A 
ATOM     24  Cl  UNL A   1      29.851  22.972  27.100  1.00  0.00    -0.084 Cl
ATOM     25  C   UNL A   1      32.223  24.152  26.573  1.00  0.00     0.023 A 
BRANCH  20  26
ATOM     26  O   UNL A   1      30.526  27.413  24.625  1.00  0.00    -0.495 OA
ATOM     27  C   UNL A   1      29.683  27.144  23.505  1.00  0.00     0.278 C 
ENDBRANCH  20  26
ENDBRANCH  16  19
ENDBRANCH  14  15
ENDBRANCH  13  14
ENDBRANCH   8  13
ENDBRANCH   5   7
ENDBRANCH   4   5
ENDBRANCH   3   4
ENDBRANCH   2   3
ENDBRANCH   1   2
BRANCH   1  28
ATOM     28  C   UNL A   1      40.282  21.447  27.171  1.00  0.00     0.188 C 
BRANCH  28  29
ATOM     29  C   UNL A   1      40.957  20.138  26.715  1.00  0.00     0.188 C 
BRANCH  29  30
ATOM     30  O   UNL A   1      42.358  20.133  26.861  1.00  0.00    -0.376 OA
BRANCH  30  31
ATOM     31  C   UNL A   1      43.238  20.240  25.766  1.00  0.00     0.202 C 
BRANCH  31  32
ATOM     32  C   UNL A   1      43.817  21.561  25.252  1.00  0.00     0.261 C 
BRANCH  32  33
ATOM     33  O   UNL A   1      43.122  22.754  25.595  1.00  0.00    -0.460 OA
BRANCH  33  34
ATOM     34  C   UNL A   1      43.712  23.924  25.297  1.00  0.00     0.338 C 
ATOM     35  O   UNL A   1      44.567  24.155  24.451  1.00  0.00    -0.246 OA
BRANCH  34  36
ATOM     36  C   UNL A   1      43.097  24.941  26.144  1.00  0.00     0.060 A 
ATOM     37  C   UNL A   1      43.473  26.284  26.016  1.00  0.00     0.016 A 
ATOM     38  C   UNL A   1      42.155  24.531  27.091  1.00  0.00     0.016 A 
ATOM     39  C   UNL A   1      42.930  27.226  26.884  1.00  0.00     0.010 A 
ATOM     40  C   UNL A   1      41.622  25.470  27.960  1.00  0.00     0.010 A 
ATOM     41  C   UNL A   1      42.040  26.808  27.882  1.00  0.00    -0.014 A 
BRANCH  41  42
ATOM     42  C   UNL A   1      41.660  27.714  28.979  1.00  0.00     0.031 A 
ATOM     43  C   UNL A   1      42.408  27.599  30.274  1.00  0.00     0.074 A 
ATOM     44  C   UNL A   1      40.622  28.550  28.828  1.00  0.00     0.049 A 
ATOM     45  N   UNL A   1      42.165  28.161  31.427  1.00  0.00    -0.248 NA
ATOM     46  C   UNL A   1      43.581  26.708  30.272  1.00  0.00     0.031 C 
ATOM     47  C   UNL A   1      39.848  28.720  27.598  1.00  0.00     0.029 A 
ATOM     48  N   UNL A   1      40.024  29.389  29.727  1.00  0.00    -0.354 N 
ATOM     49  C   UNL A   1      43.141  27.680  32.289  1.00  0.00     0.074 A 
ATOM     50  C   UNL A   1      43.968  26.763  31.536  1.00  0.00     0.031 C 
ATOM     51  C   UNL A   1      38.857  29.598  27.828  1.00  0.00     0.029 A 
ATOM     52  C   UNL A   1      38.913  30.019  29.224  1.00  0.00     0.049 A 
ATOM     53  H   UNL A   1      40.356  29.526  30.643  1.00  0.00     0.167 HD
ATOM     54  C   UNL A   1      43.325  27.982  33.596  1.00  0.00     0.037 A 
ATOM     55  C   UNL A   1      38.031  30.823  29.845  1.00  0.00     0.037 A 
ATOM     56  C   UNL A   1      42.476  28.888  34.323  1.00  0.00     0.049 A 
ATOM     57  C   UNL A   1      38.250  31.136  31.300  1.00  0.00     0.074 A 
ATOM     58  C   UNL A   1      42.552  29.276  35.647  1.00  0.00     0.029 A 
ATOM     59  N   UNL A   1      41.383  29.545  33.772  1.00  0.00    -0.354 N 
ATOM     60  N   UNL A   1      39.182  30.690  32.110  1.00  0.00    -0.248 NA
ATOM     61  C   UNL A   1      37.303  32.068  31.924  1.00  0.00     0.031 C 
ATOM     62  C   UNL A   1      41.487  30.148  35.904  1.00  0.00     0.029 A 
ATOM     63  C   UNL A   1      40.774  30.336  34.729  1.00  0.00     0.049 A 
ATOM     64  H   UNL A   1      41.086  29.460  32.837  1.00  0.00     0.167 HD
ATOM     65  C   UNL A   1      38.953  31.307  33.332  1.00  0.00     0.074 A 
ATOM     66  C   UNL A   1      37.799  32.168  33.149  1.00  0.00     0.031 C 
ATOM     67  C   UNL A   1      39.629  31.181  34.501  1.00  0.00     0.037 A 
BRANCH  54  68
ATOM     68  C   UNL A   1      44.460  27.305  34.305  1.00  0.00     0.057 A 
ATOM     69  C   UNL A   1      44.323  26.034  34.880  1.00  0.00     0.134 A 
ATOM     70  C   UNL A   1      45.706  27.935  34.428  1.00  0.00     0.134 A 
ATOM     71  F   UNL A   1      43.150  25.385  34.819  1.00  0.00    -0.206 F 
ATOM     72  C   UNL A   1      45.373  25.425  35.571  1.00  0.00     0.040 A 
ATOM     73  C   UNL A   1      46.771  27.326  35.095  1.00  0.00     0.040 A 
ATOM     74  F   UNL A   1      45.908  29.155  33.907  1.00  0.00    -0.206 F 
ATOM     75  C   UNL A   1      46.604  26.069  35.675  1.00  0.00     0.006 A 
ENDBRANCH  54  68
BRANCH  55  76
ATOM     76  C   UNL A   1      36.887  31.390  29.091  1.00  0.00     0.057 A 
ATOM     77  C   UNL A   1      35.756  30.617  28.808  1.00  0.00     0.134 A 
ATOM     78  C   UNL A   1      36.884  32.721  28.656  1.00  0.00     0.134 A 
ATOM     79  F   UNL A   1      35.705  29.331  29.187  1.00  0.00    -0.206 F 
ATOM     80  C   UNL A   1      34.667  31.141  28.107  1.00  0.00     0.040 A 
ATOM     81  C   UNL A   1      35.794  33.265  27.975  1.00  0.00     0.040 A 
ATOM     82  F   UNL A   1      37.934  33.517  28.904  1.00  0.00    -0.206 F 
ATOM     83  C   UNL A   1      34.683  32.472  27.694  1.00  0.00     0.006 A 
ENDBRANCH  55  76
BRANCH  67  84
ATOM     84  C   UNL A   1      39.155  32.027  35.643  1.00  0.00     0.057 A 
ATOM     85  C   UNL A   1      39.564  33.357  35.798  1.00  0.00     0.134 A 
ATOM     86  C   UNL A   1      38.267  31.504  36.590  1.00  0.00     0.134 A 
ATOM     87  F   UNL A   1      40.424  33.910  34.929  1.00  0.00    -0.206 F 
ATOM     88  C   UNL A   1      39.129  34.128  36.876  1.00  0.00     0.040 A 
ATOM     89  C   UNL A   1      37.805  32.273  37.657  1.00  0.00     0.040 A 
ATOM     90  F   UNL A   1      37.832  30.238  36.490  1.00  0.00    -0.206 F 
ATOM     91  C   UNL A   1      38.244  33.587  37.807  1.00  0.00     0.006 A 
ENDBRANCH  67  84
ENDBRANCH  41  42
ENDBRANCH  34  36
ENDBRANCH  33  34
ENDBRANCH  32  33
ENDBRANCH  31  32
ENDBRANCH  30  31
ENDBRANCH  29  30
ENDBRANCH  28  29
ENDBRANCH   1  28
TORSDOF 22
ENDMDL
MODEL 2
REMARK VINA RESULT:     -10.8      1.183      2.180
REMARK SMILES COc1cc(Cl)ccc1NC(=O)COc1ccccc1C(=O)OCCOCCOCCOC(=O)c1ccc(-c2c3nc(c(-c4c(F)cccc4F)c4ccc([nH]4)c(-c4c(F)cccc4F)c4nc(c(-c5c(F)cccc5F)c5ccc2[nH]5)C=C4)C=C3)cc1
REMARK SMILES IDX 26 1 25 2 24 3 23 4 21 5 22 6 20 7 15 8 16 9 17 10 19 11
REMARK SMILES IDX 18 12 14 13 13 14 11 15 10 16 12 18 9 19 3 20 4 21 5 22 8 23
REMARK SMILES IDX 6 24 7 25 2 26 1 27 27 28 28 29 29 30 30 31 31 32 32 33
REMARK SMILES IDX 33 34 34 35 35 36 36 37 88 38 37 39 87 40 38 41 39 42 40 43
REMARK SMILES IDX 81 44 41 45 86 46 80 47 82 48 42 49 85 50 79 51 78 52 43 54
REMARK SMILES IDX 69 55 52 56 68 57 53 58 56 59 67 60 83 61 54 62 55 63 66 65
REMARK SMILES IDX 84 66 57 67 44 68 45 69 50 70 46 71 47 72 49 73 51 74 48 75
REMARK SMILES IDX 70 76 71 77 76 78 72 79 73 80 75 81 77 82 74 83 58 84 59 85
REMARK SMILES IDX 64 86 60 87 61 88 63 89 65 90 62 91
REMARK H PARENT 10 17 82 53 56 64
REMARK Flexibility Score: inf
ROOT
ATOM      1  O   UNL A   1      38.307  22.103  25.087  1.00  0.00    -0.376 OA
ENDROOT
BRANCH   1   2
ATOM      2  C   UNL A   1      37.384  21.077  24.719  1.00  0.00     0.202 C 
BRANCH   2   3
ATOM      3  C   UNL A   1      36.012  21.115  25.390  1.00  0.00     0.261 C 
BRANCH   3   4
ATOM      4  O   UNL A   1      35.107  21.994  24.702  1.00  0.00    -0.460 OA
BRANCH   4   5
ATOM      5  C   UNL A   1      34.853  23.160  25.325  1.00  0.00     0.342 C 
ATOM      6  O   UNL A   1      35.658  24.035  25.601  1.00  0.00    -0.246 OA
BRANCH   5   7
ATOM      7  C   UNL A   1      33.396  23.353  25.437  1.00  0.00     0.102 A 
ATOM      8  C   UNL A   1      32.478  23.507  24.391  1.00  0.00     0.134 A 
ATOM      9  C   UNL A   1      31.109  23.505  24.728  1.00  0.00     0.047 A 
ATOM     10  C   UNL A   1      30.659  23.390  26.046  1.00  0.00     0.004 A 
ATOM     11  C   UNL A   1      32.939  23.272  26.773  1.00  0.00     0.019 A 
ATOM     12  C   UNL A   1      31.580  23.297  27.078  1.00  0.00     0.001 A 
BRANCH   8  13
ATOM     13  O   UNL A   1      32.623  23.637  23.043  1.00  0.00    -0.483 OA
BRANCH  13  14
ATOM     14  C   UNL A   1      32.082  24.684  22.273  1.00  0.00     0.329 C 
BRANCH  14  15
ATOM     15  C   UNL A   1      33.009  25.824  21.829  1.00  0.00     0.262 C 
ATOM     16  N   UNL A   1      33.561  26.710  22.709  1.00  0.00    -0.320 N 
ATOM     17  H   UNL A   1      34.428  27.064  22.404  1.00  0.00     0.170 HD
ATOM     18  O   UNL A   1      33.277  25.949  20.627  1.00  0.00    -0.271 OA
BRANCH  16  19
ATOM     19  C   UNL A   1      33.164  27.231  23.957  1.00  0.00     0.084 A 
ATOM     20  C   UNL A   1      32.018  28.069  23.990  1.00  0.00     0.143 A 
ATOM     21  C   UNL A   1      31.501  28.513  25.212  1.00  0.00     0.069 A 
ATOM     22  C   UNL A   1      32.090  28.099  26.401  1.00  0.00     0.044 A 
ATOM     23  C   UNL A   1      33.752  26.849  25.164  1.00  0.00     0.031 A 
ATOM     24  Cl  UNL A   1      31.401  28.584  27.901  1.00  0.00    -0.084 Cl
ATOM     25  C   UNL A   1      33.210  27.274  26.382  1.00  0.00     0.023 A 
BRANCH  20  26
ATOM     26  O   UNL A   1      31.461  28.390  22.777  1.00  0.00    -0.495 OA
ATOM     27  C   UNL A   1      30.048  28.235  22.646  1.00  0.00     0.278 C 
ENDBRANCH  20  26
ENDBRANCH  16  19
ENDBRANCH  14  15
ENDBRANCH  13  14
ENDBRANCH   8  13
ENDBRANCH   5   7
ENDBRANCH   4   5
ENDBRANCH   3   4
ENDBRANCH   2   3
ENDBRANCH   1   2
BRANCH   1  28
ATOM     28  C   UNL A   1      39.139  21.913  26.230  1.00  0.00     0.188 C 
BRANCH  28  29
ATOM     29  C   UNL A   1      40.127  20.729  26.263  1.00  0.00     0.188 C 
BRANCH  29  30
ATOM     30  O   UNL A   1      41.197  20.898  27.164  1.00  0.00    -0.376 OA
BRANCH  30  31
ATOM     31  C   UNL A   1      42.544  20.748  26.784  1.00  0.00     0.202 C 
BRANCH  31  32
ATOM     32  C   UNL A   1      43.228  21.571  25.689  1.00  0.00     0.261 C 
BRANCH  32  33
ATOM     33  O   UNL A   1      42.606  22.793  25.310  1.00  0.00    -0.460 OA
BRANCH  33  34
ATOM     34  C   UNL A   1      43.390  23.877  25.190  1.00  0.00     0.338 C 
ATOM     35  O   UNL A   1      44.374  24.034  24.478  1.00  0.00    -0.246 OA
BRANCH  34  36
ATOM     36  C   UNL A   1      42.817  24.916  26.041  1.00  0.00     0.060 A 
ATOM     37  C   UNL A   1      43.309  26.226  25.980  1.00  0.00     0.016 A 
ATOM     38  C   UNL A   1      41.795  24.557  26.924  1.00  0.00     0.016 A 
ATOM     39  C   UNL A   1      42.801  27.182  26.853  1.00  0.00     0.010 A 
ATOM     40  C   UNL A   1      41.297  25.509  27.798  1.00  0.00     0.010 A 
ATOM     41  C   UNL A   1      41.827  26.809  27.790  1.00  0.00    -0.014 A 
BRANCH  41  42
ATOM     42  C   UNL A   1      41.466  27.709  28.898  1.00  0.00     0.031 A 
ATOM     43  C   UNL A   1      42.232  27.582  30.182  1.00  0.00     0.074 A 
ATOM     44  C   UNL A   1      40.429  28.549  28.767  1.00  0.00     0.049 A 
ATOM     45  N   UNL A   1      42.007  28.137  31.341  1.00  0.00    -0.248 NA
ATOM     46  C   UNL A   1      43.402  26.688  30.157  1.00  0.00     0.031 C 
ATOM     47  C   UNL A   1      39.638  28.730  27.550  1.00  0.00     0.029 A 
ATOM     48  N   UNL A   1      39.846  29.383  29.680  1.00  0.00    -0.354 N 
ATOM     49  C   UNL A   1      42.994  27.648  32.187  1.00  0.00     0.074 A 
ATOM     50  C   UNL A   1      43.807  26.733  31.416  1.00  0.00     0.031 C 
ATOM     51  C   UNL A   1      38.653  29.609  27.800  1.00  0.00     0.029 A 
ATOM     52  C   UNL A   1      38.731  30.020  29.198  1.00  0.00     0.049 A 
ATOM     53  H   UNL A   1      40.192  29.513  30.592  1.00  0.00     0.167 HD
ATOM     54  C   UNL A   1      43.197  27.940  33.492  1.00  0.00     0.037 A 
ATOM     55  C   UNL A   1      37.860  30.823  29.837  1.00  0.00     0.037 A 
ATOM     56  C   UNL A   1      42.362  28.843  34.238  1.00  0.00     0.049 A 
ATOM     57  C   UNL A   1      38.100  31.125  31.291  1.00  0.00     0.074 A 
ATOM     58  C   UNL A   1      42.457  29.222  35.563  1.00  0.00     0.029 A 
ATOM     59  N   UNL A   1      41.263  29.507  33.707  1.00  0.00    -0.354 N 
ATOM     60  N   UNL A   1      39.042  30.671  32.084  1.00  0.00    -0.248 NA
ATOM     61  C   UNL A   1      37.165  32.055  31.934  1.00  0.00     0.031 C 
ATOM     62  C   UNL A   1      41.399  30.096  35.842  1.00  0.00     0.029 A 
ATOM     63  C   UNL A   1      40.670  30.293  34.678  1.00  0.00     0.049 A 
ATOM     64  H   UNL A   1      40.952  29.430  32.776  1.00  0.00     0.167 HD
ATOM     65  C   UNL A   1      38.833  31.281  33.314  1.00  0.00     0.074 A 
ATOM     66  C   UNL A   1      37.679  32.146  33.153  1.00  0.00     0.031 C 
ATOM     67  C   UNL A   1      39.525  31.144  34.472  1.00  0.00     0.037 A 
BRANCH  54  68
ATOM     68  C   UNL A   1      44.340  27.255  34.181  1.00  0.00     0.057 A 
ATOM     69  C   UNL A   1      45.614  27.836  34.261  1.00  0.00     0.134 A 
ATOM     70  C   UNL A   1      44.173  25.992  34.765  1.00  0.00     0.134 A 
ATOM     71  F   UNL A   1      45.850  29.033  33.702  1.00  0.00    -0.206 F 
ATOM     72  C   UNL A   1      46.683  27.176  34.871  1.00  0.00     0.040 A 
ATOM     73  C   UNL A   1      45.228  25.334  35.401  1.00  0.00     0.040 A 
ATOM     74  F   UNL A   1      42.982  25.375  34.723  1.00  0.00    -0.206 F 
ATOM     75  C   UNL A   1      46.490  25.924  35.449  1.00  0.00     0.006 A 
ENDBRANCH  54  68
BRANCH  55  76
ATOM     76  C   UNL A   1      36.707  31.399  29.103  1.00  0.00     0.057 A 
ATOM     77  C   UNL A   1      36.705  32.740  28.702  1.00  0.00     0.134 A 
ATOM     78  C   UNL A   1      35.592  30.623  28.763  1.00  0.00     0.134 A 
ATOM     79  F   UNL A   1      37.738  33.538  29.010  1.00  0.00    -0.206 F 
ATOM     80  C   UNL A   1      35.630  33.293  28.002  1.00  0.00     0.040 A 
ATOM     81  C   UNL A   1      34.522  31.156  28.044  1.00  0.00     0.040 A 
ATOM     82  F   UNL A   1      35.538  29.329  29.111  1.00  0.00    -0.206 F 
ATOM     83  C   UNL A   1      34.537  32.497  27.667  1.00  0.00     0.006 A 
ENDBRANCH  55  76
BRANCH  67  84
ATOM     84  C   UNL A   1      39.070  31.983  35.627  1.00  0.00     0.057 A 
ATOM     85  C   UNL A   1      38.228  31.476  36.624  1.00  0.00     0.134 A 
ATOM     86  C   UNL A   1      39.494  33.312  35.746  1.00  0.00     0.134 A 
ATOM     87  F   UNL A   1      37.778  30.214  36.557  1.00  0.00    -0.206 F 
ATOM     88  C   UNL A   1      37.797  32.274  37.684  1.00  0.00     0.040 A 
ATOM     89  C   UNL A   1      39.092  34.111  36.815  1.00  0.00     0.040 A 
ATOM     90  F   UNL A   1      40.310  33.851  34.827  1.00  0.00    -0.206 F 
ATOM     91  C   UNL A   1      38.233  33.594  37.783  1.00  0.00     0.006 A 
ENDBRANCH  67  84
ENDBRANCH  41  42
ENDBRANCH  34  36
ENDBRANCH  33  34
ENDBRANCH  32  33
ENDBRANCH  31  32
ENDBRANCH  30  31
ENDBRANCH  29  30
ENDBRANCH  28  29
ENDBRANCH   1  28
TORSDOF 22
ENDMDL
MODEL 3
REMARK VINA RESULT:      -9.6      1.294      2.063
REMARK SMILES COc1cc(Cl)ccc1NC(=O)COc1ccccc1C(=O)OCCOCCOCCOC(=O)c1ccc(-c2c3nc(c(-c4c(F)cccc4F)c4ccc([nH]4)c(-c4c(F)cccc4F)c4nc(c(-c5c(F)cccc5F)c5ccc2[nH]5)C=C4)C=C3)cc1
REMARK SMILES IDX 26 1 25 2 24 3 23 4 21 5 22 6 20 7 15 8 16 9 17 10 19 11
REMARK SMILES IDX 18 12 14 13 13 14 11 15 10 16 12 18 9 19 3 20 4 21 5 22 8 23
REMARK SMILES IDX 6 24 7 25 2 26 1 27 27 28 28 29 29 30 30 31 31 32 32 33
REMARK SMILES IDX 33 34 34 35 35 36 36 37 88 38 37 39 87 40 38 41 39 42 40 43
REMARK SMILES IDX 81 44 41 45 86 46 80 47 82 48 42 49 85 50 79 51 78 52 43 54
REMARK SMILES IDX 69 55 52 56 68 57 53 58 56 59 67 60 83 61 54 62 55 63 66 65
REMARK SMILES IDX 84 66 57 67 44 68 45 69 50 70 46 71 47 72 49 73 51 74 48 75
REMARK SMILES IDX 70 76 71 77 76 78 72 79 73 80 75 81 77 82 74 83 58 84 59 85
REMARK SMILES IDX 64 86 60 87 61 88 63 89 65 90 62 91
REMARK H PARENT 10 17 82 53 56 64
REMARK Flexibility Score: inf
ROOT
ATOM      1  O   UNL A   1      37.385  21.695  24.761  1.00  0.00    -0.376 OA
ENDROOT
BRANCH   1   2
ATOM      2  C   UNL A   1      36.195  20.986  25.105  1.00  0.00     0.202 C 
BRANCH   2   3
ATOM      3  C   UNL A   1      35.022  21.820  25.619  1.00  0.00     0.261 C 
BRANCH   3   4
ATOM      4  O   UNL A   1      34.887  23.053  24.893  1.00  0.00    -0.460 OA
BRANCH   4   5
ATOM      5  C   UNL A   1      34.214  24.027  25.534  1.00  0.00     0.342 C 
ATOM      6  O   UNL A   1      33.977  24.091  26.729  1.00  0.00    -0.246 OA
BRANCH   5   7
ATOM      7  C   UNL A   1      33.985  25.156  24.614  1.00  0.00     0.102 A 
ATOM      8  C   UNL A   1      33.944  26.517  24.935  1.00  0.00     0.134 A 
ATOM      9  C   UNL A   1      33.882  27.432  23.864  1.00  0.00     0.047 A 
ATOM     10  C   UNL A   1      33.826  27.024  22.529  1.00  0.00     0.004 A 
ATOM     11  C   UNL A   1      33.893  24.745  23.263  1.00  0.00     0.019 A 
ATOM     12  C   UNL A   1      33.808  25.672  22.227  1.00  0.00     0.001 A 
BRANCH   8  13
ATOM     13  O   UNL A   1      33.984  27.191  26.118  1.00  0.00    -0.483 OA
BRANCH  13  14
ATOM     14  C   UNL A   1      33.659  28.552  26.280  1.00  0.00     0.329 C 
BRANCH  14  15
ATOM     15  C   UNL A   1      32.271  28.915  26.825  1.00  0.00     0.262 C 
ATOM     16  N   UNL A   1      31.222  28.041  26.814  1.00  0.00    -0.320 N 
ATOM     17  H   UNL A   1      30.584  28.198  27.547  1.00  0.00     0.170 HD
ATOM     18  O   UNL A   1      32.087  30.043  27.303  1.00  0.00    -0.271 OA
BRANCH  16  19
ATOM     19  C   UNL A   1      30.850  26.965  25.982  1.00  0.00     0.084 A 
ATOM     20  C   UNL A   1      30.560  27.249  24.622  1.00  0.00     0.143 A 
ATOM     21  C   UNL A   1      30.308  26.209  23.720  1.00  0.00     0.069 A 
ATOM     22  C   UNL A   1      30.383  24.891  24.150  1.00  0.00     0.044 A 
ATOM     23  C   UNL A   1      30.895  25.632  26.395  1.00  0.00     0.031 A 
ATOM     24  Cl  UNL A   1      30.151  23.615  23.018  1.00  0.00    -0.084 Cl
ATOM     25  C   UNL A   1      30.671  24.598  25.479  1.00  0.00     0.023 A 
BRANCH  20  26
ATOM     26  O   UNL A   1      30.557  28.575  24.262  1.00  0.00    -0.495 OA
ATOM     27  C   UNL A   1      30.605  28.871  22.866  1.00  0.00     0.278 C 
ENDBRANCH  20  26
ENDBRANCH  16  19
ENDBRANCH  14  15
ENDBRANCH  13  14
ENDBRANCH   8  13
ENDBRANCH   5   7
ENDBRANCH   4   5
ENDBRANCH   3   4
ENDBRANCH   2   3
ENDBRANCH   1   2
BRANCH   1  28
ATOM     28  C   UNL A   1      38.373  21.925  25.765  1.00  0.00     0.188 C 
BRANCH  28  29
ATOM     29  C   UNL A   1      39.504  20.896  25.967  1.00  0.00     0.188 C 
BRANCH  29  30
ATOM     30  O   UNL A   1      40.470  21.283  26.917  1.00  0.00    -0.376 OA
BRANCH  30  31
ATOM     31  C   UNL A   1      41.831  20.941  26.802  1.00  0.00     0.202 C 
BRANCH  31  32
ATOM     32  C   UNL A   1      42.792  21.559  25.785  1.00  0.00     0.261 C 
BRANCH  32  33
ATOM     33  O   UNL A   1      42.689  22.960  25.560  1.00  0.00    -0.460 OA
BRANCH  33  34
ATOM     34  C   UNL A   1      43.714  23.730  25.964  1.00  0.00     0.338 C 
ATOM     35  O   UNL A   1      44.905  23.618  25.701  1.00  0.00    -0.246 OA
BRANCH  34  36
ATOM     36  C   UNL A   1      43.146  24.816  26.758  1.00  0.00     0.060 A 
ATOM     37  C   UNL A   1      43.655  26.115  26.638  1.00  0.00     0.016 A 
ATOM     38  C   UNL A   1      42.110  24.513  27.646  1.00  0.00     0.016 A 
ATOM     39  C   UNL A   1      43.150  27.120  27.458  1.00  0.00     0.010 A 
ATOM     40  C   UNL A   1      41.616  25.513  28.467  1.00  0.00     0.010 A 
ATOM     41  C   UNL A   1      42.162  26.804  28.401  1.00  0.00    -0.014 A 
BRANCH  41  42
ATOM     42  C   UNL A   1      41.801  27.762  29.461  1.00  0.00     0.031 A 
ATOM     43  C   UNL A   1      42.543  27.680  30.762  1.00  0.00     0.074 A 
ATOM     44  C   UNL A   1      40.785  28.615  29.273  1.00  0.00     0.049 A 
ATOM     45  N   UNL A   1      42.311  28.292  31.891  1.00  0.00    -0.248 NA
ATOM     46  C   UNL A   1      43.695  26.761  30.799  1.00  0.00     0.031 C 
ATOM     47  C   UNL A   1      40.019  28.756  28.035  1.00  0.00     0.029 A 
ATOM     48  N   UNL A   1      40.204  29.503  30.136  1.00  0.00    -0.354 N 
ATOM     49  C   UNL A   1      43.273  27.822  32.775  1.00  0.00     0.074 A 
ATOM     50  C   UNL A   1      44.079  26.857  32.061  1.00  0.00     0.031 C 
ATOM     51  C   UNL A   1      39.048  29.666  28.227  1.00  0.00     0.029 A 
ATOM     52  C   UNL A   1      39.111  30.139  29.606  1.00  0.00     0.049 A 
ATOM     53  H   UNL A   1      40.537  29.668  31.048  1.00  0.00     0.167 HD
ATOM     54  C   UNL A   1      43.460  28.170  34.069  1.00  0.00     0.037 A 
ATOM     55  C   UNL A   1      38.247  30.988  30.192  1.00  0.00     0.037 A 
ATOM     56  C   UNL A   1      42.632  29.124  34.758  1.00  0.00     0.049 A 
ATOM     57  C   UNL A   1      38.469  31.352  31.634  1.00  0.00     0.074 A 
ATOM     58  C   UNL A   1      42.713  29.562  36.065  1.00  0.00     0.029 A 
ATOM     59  N   UNL A   1      41.556  29.785  34.177  1.00  0.00    -0.354 N 
ATOM     60  N   UNL A   1      39.387  30.917  32.464  1.00  0.00    -0.248 NA
ATOM     61  C   UNL A   1      37.543  32.330  32.217  1.00  0.00     0.031 C 
ATOM     62  C   UNL A   1      41.669  30.468  36.285  1.00  0.00     0.029 A 
ATOM     63  C   UNL A   1      40.964  30.627  35.101  1.00  0.00     0.049 A 
ATOM     64  H   UNL A   1      41.260  29.671  33.246  1.00  0.00     0.167 HD
ATOM     65  C   UNL A   1      39.170  31.586  33.661  1.00  0.00     0.074 A 
ATOM     66  C   UNL A   1      38.038  32.467  33.439  1.00  0.00     0.031 C 
ATOM     67  C   UNL A   1      39.840  31.490  34.836  1.00  0.00     0.037 A 
BRANCH  54  68
ATOM     68  C   UNL A   1      44.578  27.495  34.809  1.00  0.00     0.057 A 
ATOM     69  C   UNL A   1      44.389  26.287  35.494  1.00  0.00     0.134 A 
ATOM     70  C   UNL A   1      45.858  28.063  34.848  1.00  0.00     0.134 A 
ATOM     71  F   UNL A   1      43.182  25.701  35.517  1.00  0.00    -0.206 F 
ATOM     72  C   UNL A   1      45.424  25.682  36.211  1.00  0.00     0.040 A 
ATOM     73  C   UNL A   1      46.907  27.455  35.541  1.00  0.00     0.040 A 
ATOM     74  F   UNL A   1      46.109  29.221  34.218  1.00  0.00    -0.206 F 
ATOM     75  C   UNL A   1      46.689  26.264  36.232  1.00  0.00     0.006 A 
ENDBRANCH  54  68
BRANCH  55  76
ATOM     76  C   UNL A   1      37.118  31.553  29.412  1.00  0.00     0.057 A 
ATOM     77  C   UNL A   1      37.219  32.810  28.806  1.00  0.00     0.134 A 
ATOM     78  C   UNL A   1      35.924  30.844  29.232  1.00  0.00     0.134 A 
ATOM     79  F   UNL A   1      38.332  33.543  28.953  1.00  0.00    -0.206 F 
ATOM     80  C   UNL A   1      36.168  33.350  28.061  1.00  0.00     0.040 A 
ATOM     81  C   UNL A   1      34.875  31.361  28.471  1.00  0.00     0.040 A 
ATOM     82  F   UNL A   1      35.769  29.630  29.780  1.00  0.00    -0.206 F 
ATOM     83  C   UNL A   1      34.993  32.620  27.888  1.00  0.00     0.006 A 
ENDBRANCH  55  76
BRANCH  67  84
ATOM     84  C   UNL A   1      39.384  32.391  35.942  1.00  0.00     0.057 A 
ATOM     85  C   UNL A   1      39.923  33.670  36.125  1.00  0.00     0.134 A 
ATOM     86  C   UNL A   1      38.380  31.975  36.826  1.00  0.00     0.134 A 
ATOM     87  F   UNL A   1      40.896  34.119  35.318  1.00  0.00    -0.206 F 
ATOM     88  C   UNL A   1      39.502  34.492  37.171  1.00  0.00     0.040 A 
ATOM     89  C   UNL A   1      37.932  32.797  37.858  1.00  0.00     0.040 A 
ATOM     90  F   UNL A   1      37.818  30.763  36.695  1.00  0.00    -0.206 F 
ATOM     91  C   UNL A   1      38.501  34.057  38.038  1.00  0.00     0.006 A 
ENDBRANCH  67  84
ENDBRANCH  41  42
ENDBRANCH  34  36
ENDBRANCH  33  34
ENDBRANCH  32  33
ENDBRANCH  31  32
ENDBRANCH  30  31
ENDBRANCH  29  30
ENDBRANCH  28  29
ENDBRANCH   1  28
TORSDOF 22
ENDMDL
