MODEL 1
REMARK VINA RESULT:     -10.8      0.000      0.000
REMARK SMILES CC(C)c1nc(C(=O)OCCOCCOCCOC(=O)c2ccc(-c3c4nc(c(-c5c(F)cccc5F)c5ccc([nH]5)c(-c5c(F)cccc5F)c5nc(c(-c6c(F)cccc6F)c6ccc3[nH]6)C=C5)C=C4)cc2)nn1-c1ccccc1F
REMARK SMILES IDX 14 1 13 2 12 3 11 4 10 5 9 6 7 7 8 8 6 9 4 10 5 11 76 12
REMARK SMILES IDX 75 13 2 14 1 15 3 16 77 17 78 18 82 19 79 20 81 21 83 22
REMARK SMILES IDX 80 23 15 24 16 25 17 26 18 27 19 28 20 29 21 30 22 31 74 32
REMARK SMILES IDX 23 33 73 34 24 35 25 36 26 37 67 38 27 39 72 40 66 41 68 42
REMARK SMILES IDX 28 43 71 44 65 45 64 46 29 48 55 49 38 50 54 51 39 52 42 53
REMARK SMILES IDX 53 54 69 55 40 56 41 57 52 59 70 60 43 61 30 62 31 63 36 64
REMARK SMILES IDX 32 65 33 66 35 67 37 68 34 69 56 70 57 71 62 72 58 73 59 74
REMARK SMILES IDX 61 75 63 76 60 77 44 78 45 79 50 80 46 81 47 82 49 83 51 84
REMARK SMILES IDX 48 85
REMARK H PARENT 68 47 42 58
REMARK Flexibility Score: inf
ROOT
ATOM      1  C   UNL A   1      40.455  21.287  26.117  1.00  0.00     0.188 C 
ENDROOT
BRANCH   1   2
ATOM      2  C   UNL A   1      38.981  21.698  25.910  1.00  0.00     0.188 C 
BRANCH   2   3
ATOM      3  O   UNL A   1      38.436  22.827  26.581  1.00  0.00    -0.376 OA
BRANCH   3   4
ATOM      4  C   UNL A   1      37.758  23.836  25.841  1.00  0.00     0.202 C 
BRANCH   4   5
ATOM      5  C   UNL A   1      36.608  23.427  24.907  1.00  0.00     0.261 C 
BRANCH   5   6
ATOM      6  O   UNL A   1      35.361  24.096  25.156  1.00  0.00    -0.457 OA
BRANCH   6   7
ATOM      7  C   UNL A   1      34.661  24.500  24.047  1.00  0.00     0.378 C 
ATOM      8  O   UNL A   1      34.678  23.904  22.974  1.00  0.00    -0.242 OA
BRANCH   7   9
ATOM      9  C   UNL A   1      33.775  25.652  24.310  1.00  0.00     0.260 A 
ATOM     10  C   UNL A   1      33.051  27.425  25.257  1.00  0.00     0.136 A 
ATOM     11  N   UNL A   1      34.033  26.548  25.324  1.00  0.00    -0.205 NA
ATOM     12  N   UNL A   1      32.249  27.121  24.165  1.00  0.00    -0.214 N 
ATOM     13  N   UNL A   1      32.672  25.953  23.603  1.00  0.00    -0.138 NA
BRANCH  10  14
ATOM     14  C   UNL A   1      32.750  28.427  26.337  1.00  0.00     0.051 C 
ATOM     15  C   UNL A   1      31.636  27.890  27.243  1.00  0.00     0.016 C 
ATOM     16  C   UNL A   1      33.998  28.734  27.165  1.00  0.00     0.016 C 
ENDBRANCH  10  14
BRANCH  12  17
ATOM     17  C   UNL A   1      31.092  27.762  23.664  1.00  0.00     0.102 A 
ATOM     18  C   UNL A   1      31.233  28.956  22.939  1.00  0.00     0.031 A 
ATOM     19  C   UNL A   1      29.814  27.244  23.871  1.00  0.00     0.148 A 
ATOM     20  C   UNL A   1      30.112  29.565  22.367  1.00  0.00     0.002 A 
ATOM     21  C   UNL A   1      28.694  27.860  23.315  1.00  0.00     0.041 A 
ATOM     22  F   UNL A   1      29.613  26.184  24.665  1.00  0.00    -0.205 F 
ATOM     23  C   UNL A   1      28.844  29.013  22.547  1.00  0.00     0.003 A 
ENDBRANCH  12  17
ENDBRANCH   7   9
ENDBRANCH   6   7
ENDBRANCH   5   6
ENDBRANCH   4   5
ENDBRANCH   3   4
ENDBRANCH   2   3
ENDBRANCH   1   2
BRANCH   1  24
ATOM     24  O   UNL A   1      40.645  19.923  26.462  1.00  0.00    -0.376 OA
BRANCH  24  25
ATOM     25  C   UNL A   1      41.886  19.609  27.079  1.00  0.00     0.202 C 
BRANCH  25  26
ATOM     26  C   UNL A   1      42.854  18.822  26.195  1.00  0.00     0.261 C 
BRANCH  26  27
ATOM     27  O   UNL A   1      43.081  19.379  24.901  1.00  0.00    -0.460 OA
BRANCH  27  28
ATOM     28  C   UNL A   1      44.368  19.605  24.569  1.00  0.00     0.338 C 
ATOM     29  O   UNL A   1      45.200  18.768  24.268  1.00  0.00    -0.246 OA
BRANCH  28  30
ATOM     30  C   UNL A   1      44.651  21.045  24.718  1.00  0.00     0.060 A 
ATOM     31  C   UNL A   1      45.630  21.417  25.641  1.00  0.00     0.016 A 
ATOM     32  C   UNL A   1      43.816  22.003  24.121  1.00  0.00     0.016 A 
ATOM     33  C   UNL A   1      45.648  22.722  26.103  1.00  0.00     0.010 A 
ATOM     34  C   UNL A   1      43.832  23.306  24.586  1.00  0.00     0.010 A 
ATOM     35  C   UNL A   1      44.688  23.630  25.637  1.00  0.00    -0.014 A 
BRANCH  35  36
ATOM     36  C   UNL A   1      44.523  24.858  26.398  1.00  0.00     0.031 A 
ATOM     37  C   UNL A   1      45.636  25.831  26.391  1.00  0.00     0.074 A 
ATOM     38  C   UNL A   1      43.391  25.122  27.079  1.00  0.00     0.049 A 
ATOM     39  N   UNL A   1      46.337  26.247  27.396  1.00  0.00    -0.248 NA
ATOM     40  C   UNL A   1      46.026  26.404  25.098  1.00  0.00     0.031 C 
ATOM     41  C   UNL A   1      42.093  24.447  26.975  1.00  0.00     0.029 A 
ATOM     42  N   UNL A   1      43.153  26.131  27.963  1.00  0.00    -0.354 N 
ATOM     43  C   UNL A   1      47.159  27.250  26.897  1.00  0.00     0.074 A 
ATOM     44  C   UNL A   1      46.986  27.253  25.464  1.00  0.00     0.031 C 
ATOM     45  C   UNL A   1      41.160  25.188  27.614  1.00  0.00     0.029 A 
ATOM     46  C   UNL A   1      41.816  26.304  28.274  1.00  0.00     0.049 A 
ATOM     47  H   UNL A   1      43.869  26.687  28.347  1.00  0.00     0.167 HD
ATOM     48  C   UNL A   1      47.811  28.129  27.703  1.00  0.00     0.037 A 
ATOM     49  C   UNL A   1      41.277  27.333  28.968  1.00  0.00     0.037 A 
ATOM     50  C   UNL A   1      47.908  27.674  29.060  1.00  0.00     0.049 A 
ATOM     51  C   UNL A   1      42.351  27.977  29.758  1.00  0.00     0.074 A 
ATOM     52  C   UNL A   1      48.482  26.582  29.682  1.00  0.00     0.029 A 
ATOM     53  N   UNL A   1      47.109  28.261  30.009  1.00  0.00    -0.354 N 
ATOM     54  N   UNL A   1      42.927  27.448  30.802  1.00  0.00    -0.248 NA
ATOM     55  C   UNL A   1      43.049  29.111  29.171  1.00  0.00     0.031 C 
ATOM     56  C   UNL A   1      47.652  26.309  30.808  1.00  0.00     0.029 A 
ATOM     57  C   UNL A   1      46.621  27.250  30.794  1.00  0.00     0.049 A 
ATOM     58  H   UNL A   1      46.924  29.223  30.106  1.00  0.00     0.167 HD
ATOM     59  C   UNL A   1      44.233  27.916  30.763  1.00  0.00     0.074 A 
ATOM     60  C   UNL A   1      44.211  29.026  29.819  1.00  0.00     0.031 C 
ATOM     61  C   UNL A   1      45.263  27.190  31.285  1.00  0.00     0.037 A 
BRANCH  48  62
ATOM     62  C   UNL A   1      48.129  29.539  27.303  1.00  0.00     0.057 A 
ATOM     63  C   UNL A   1      49.453  30.005  27.337  1.00  0.00     0.134 A 
ATOM     64  C   UNL A   1      47.139  30.528  27.132  1.00  0.00     0.134 A 
ATOM     65  F   UNL A   1      50.474  29.160  27.545  1.00  0.00    -0.206 F 
ATOM     66  C   UNL A   1      49.767  31.364  27.227  1.00  0.00     0.040 A 
ATOM     67  C   UNL A   1      47.444  31.881  26.973  1.00  0.00     0.040 A 
ATOM     68  F   UNL A   1      45.833  30.234  27.204  1.00  0.00    -0.206 F 
ATOM     69  C   UNL A   1      48.762  32.307  27.041  1.00  0.00     0.006 A 
ENDBRANCH  48  62
BRANCH  49  70
ATOM     70  C   UNL A   1      39.942  27.940  28.789  1.00  0.00     0.057 A 
ATOM     71  C   UNL A   1      38.992  27.928  29.817  1.00  0.00     0.134 A 
ATOM     72  C   UNL A   1      39.653  28.766  27.688  1.00  0.00     0.134 A 
ATOM     73  F   UNL A   1      39.201  27.210  30.930  1.00  0.00    -0.206 F 
ATOM     74  C   UNL A   1      37.823  28.698  29.756  1.00  0.00     0.040 A 
ATOM     75  C   UNL A   1      38.485  29.529  27.608  1.00  0.00     0.040 A 
ATOM     76  F   UNL A   1      40.534  28.925  26.688  1.00  0.00    -0.206 F 
ATOM     77  C   UNL A   1      37.570  29.506  28.650  1.00  0.00     0.006 A 
ENDBRANCH  49  70
BRANCH  61  78
ATOM     78  C   UNL A   1      44.923  26.036  32.183  1.00  0.00     0.057 A 
ATOM     79  C   UNL A   1      44.695  26.173  33.559  1.00  0.00     0.134 A 
ATOM     80  C   UNL A   1      44.659  24.785  31.613  1.00  0.00     0.134 A 
ATOM     81  F   UNL A   1      44.825  27.361  34.166  1.00  0.00    -0.206 F 
ATOM     82  C   UNL A   1      44.264  25.099  34.342  1.00  0.00     0.040 A 
ATOM     83  C   UNL A   1      44.199  23.711  32.380  1.00  0.00     0.040 A 
ATOM     84  F   UNL A   1      44.795  24.600  30.290  1.00  0.00    -0.206 F 
ATOM     85  C   UNL A   1      44.008  23.863  33.751  1.00  0.00     0.006 A 
ENDBRANCH  61  78
ENDBRANCH  35  36
ENDBRANCH  28  30
ENDBRANCH  27  28
ENDBRANCH  26  27
ENDBRANCH  25  26
ENDBRANCH  24  25
ENDBRANCH   1  24
TORSDOF 19
ENDMDL
MODEL 2
REMARK VINA RESULT:     -10.6      1.089      2.325
REMARK SMILES CC(C)c1nc(C(=O)OCCOCCOCCOC(=O)c2ccc(-c3c4nc(c(-c5c(F)cccc5F)c5ccc([nH]5)c(-c5c(F)cccc5F)c5nc(c(-c6c(F)cccc6F)c6ccc3[nH]6)C=C5)C=C4)cc2)nn1-c1ccccc1F
REMARK SMILES IDX 14 1 13 2 12 3 11 4 10 5 9 6 7 7 8 8 6 9 4 10 5 11 76 12
REMARK SMILES IDX 75 13 2 14 1 15 3 16 77 17 78 18 82 19 79 20 81 21 83 22
REMARK SMILES IDX 80 23 15 24 16 25 17 26 18 27 19 28 20 29 21 30 22 31 74 32
REMARK SMILES IDX 23 33 73 34 24 35 25 36 26 37 67 38 27 39 72 40 66 41 68 42
REMARK SMILES IDX 28 43 71 44 65 45 64 46 29 48 55 49 38 50 54 51 39 52 42 53
REMARK SMILES IDX 53 54 69 55 40 56 41 57 52 59 70 60 43 61 30 62 31 63 36 64
REMARK SMILES IDX 32 65 33 66 35 67 37 68 34 69 56 70 57 71 62 72 58 73 59 74
REMARK SMILES IDX 61 75 63 76 60 77 44 78 45 79 50 80 46 81 47 82 49 83 51 84
REMARK SMILES IDX 48 85
REMARK H PARENT 68 47 42 58
REMARK Flexibility Score: inf
ROOT
ATOM      1  C   UNL A   1      40.935  21.175  26.099  1.00  0.00     0.188 C 
ENDROOT
BRANCH   1   2
ATOM      2  C   UNL A   1      39.467  21.644  26.186  1.00  0.00     0.188 C 
BRANCH   2   3
ATOM      3  O   UNL A   1      39.129  22.876  26.813  1.00  0.00    -0.376 OA
BRANCH   3   4
ATOM      4  C   UNL A   1      38.148  23.726  26.230  1.00  0.00     0.202 C 
BRANCH   4   5
ATOM      5  C   UNL A   1      37.154  23.132  25.219  1.00  0.00     0.261 C 
BRANCH   5   6
ATOM      6  O   UNL A   1      35.861  22.815  25.759  1.00  0.00    -0.457 OA
BRANCH   6   7
ATOM      7  C   UNL A   1      34.832  22.745  24.855  1.00  0.00     0.378 C 
ATOM      8  O   UNL A   1      34.453  21.701  24.331  1.00  0.00    -0.242 OA
BRANCH   7   9
ATOM      9  C   UNL A   1      34.130  24.032  24.675  1.00  0.00     0.260 A 
ATOM     10  C   UNL A   1      32.979  25.547  23.703  1.00  0.00     0.136 A 
ATOM     11  N   UNL A   1      33.481  24.344  23.501  1.00  0.00    -0.205 NA
ATOM     12  N   UNL A   1      33.245  25.932  25.011  1.00  0.00    -0.214 N 
ATOM     13  N   UNL A   1      34.035  24.996  25.607  1.00  0.00    -0.138 NA
BRANCH  10  14
ATOM     14  C   UNL A   1      32.429  26.418  22.608  1.00  0.00     0.051 C 
ATOM     15  C   UNL A   1      32.685  25.760  21.247  1.00  0.00     0.016 C 
ATOM     16  C   UNL A   1      30.932  26.662  22.800  1.00  0.00     0.016 C 
ENDBRANCH  10  14
BRANCH  12  17
ATOM     17  C   UNL A   1      32.908  27.115  25.710  1.00  0.00     0.102 A 
ATOM     18  C   UNL A   1      31.897  27.069  26.682  1.00  0.00     0.031 A 
ATOM     19  C   UNL A   1      33.550  28.327  25.460  1.00  0.00     0.148 A 
ATOM     20  C   UNL A   1      31.601  28.205  27.441  1.00  0.00     0.002 A 
ATOM     21  C   UNL A   1      33.245  29.465  26.204  1.00  0.00     0.041 A 
ATOM     22  F   UNL A   1      34.426  28.457  24.454  1.00  0.00    -0.205 F 
ATOM     23  C   UNL A   1      32.281  29.401  27.208  1.00  0.00     0.003 A 
ENDBRANCH  12  17
ENDBRANCH   7   9
ENDBRANCH   6   7
ENDBRANCH   5   6
ENDBRANCH   4   5
ENDBRANCH   3   4
ENDBRANCH   2   3
ENDBRANCH   1   2
BRANCH   1  24
ATOM     24  O   UNL A   1      41.098  19.780  25.891  1.00  0.00    -0.376 OA
BRANCH  24  25
ATOM     25  C   UNL A   1      42.158  19.168  26.612  1.00  0.00     0.202 C 
BRANCH  25  26
ATOM     26  C   UNL A   1      43.358  18.764  25.756  1.00  0.00     0.261 C 
BRANCH  26  27
ATOM     27  O   UNL A   1      43.539  19.532  24.567  1.00  0.00    -0.460 OA
BRANCH  27  28
ATOM     28  C   UNL A   1      44.814  19.809  24.228  1.00  0.00     0.338 C 
ATOM     29  O   UNL A   1      45.655  19.016  23.844  1.00  0.00    -0.246 OA
BRANCH  28  30
ATOM     30  C   UNL A   1      45.075  21.238  24.485  1.00  0.00     0.060 A 
ATOM     31  C   UNL A   1      45.997  21.556  25.484  1.00  0.00     0.016 A 
ATOM     32  C   UNL A   1      44.263  22.228  23.906  1.00  0.00     0.016 A 
ATOM     33  C   UNL A   1      45.977  22.828  26.030  1.00  0.00     0.010 A 
ATOM     34  C   UNL A   1      44.241  23.498  24.455  1.00  0.00     0.010 A 
ATOM     35  C   UNL A   1      45.035  23.758  25.570  1.00  0.00    -0.014 A 
BRANCH  35  36
ATOM     36  C   UNL A   1      44.815  24.933  26.399  1.00  0.00     0.031 A 
ATOM     37  C   UNL A   1      45.931  25.891  26.549  1.00  0.00     0.074 A 
ATOM     38  C   UNL A   1      43.633  25.162  27.003  1.00  0.00     0.049 A 
ATOM     39  N   UNL A   1      46.550  26.230  27.634  1.00  0.00    -0.248 NA
ATOM     40  C   UNL A   1      46.427  26.547  25.334  1.00  0.00     0.031 C 
ATOM     41  C   UNL A   1      42.344  24.510  26.749  1.00  0.00     0.029 A 
ATOM     42  N   UNL A   1      43.330  26.111  27.934  1.00  0.00    -0.354 N 
ATOM     43  C   UNL A   1      47.415  27.255  27.272  1.00  0.00     0.074 A 
ATOM     44  C   UNL A   1      47.359  27.358  25.834  1.00  0.00     0.031 C 
ATOM     45  C   UNL A   1      41.367  25.215  27.361  1.00  0.00     0.029 A 
ATOM     46  C   UNL A   1      41.974  26.276  28.148  1.00  0.00     0.049 A 
ATOM     47  H   UNL A   1      44.016  26.631  28.411  1.00  0.00     0.167 HD
ATOM     48  C   UNL A   1      48.005  28.070  28.188  1.00  0.00     0.037 A 
ATOM     49  C   UNL A   1      41.386  27.261  28.866  1.00  0.00     0.037 A 
ATOM     50  C   UNL A   1      47.990  27.521  29.513  1.00  0.00     0.049 A 
ATOM     51  C   UNL A   1      42.396  27.837  29.783  1.00  0.00     0.074 A 
ATOM     52  C   UNL A   1      48.505  26.383  30.102  1.00  0.00     0.029 A 
ATOM     53  N   UNL A   1      47.120  28.050  30.433  1.00  0.00    -0.354 N 
ATOM     54  N   UNL A   1      42.883  27.232  30.830  1.00  0.00    -0.248 NA
ATOM     55  C   UNL A   1      43.145  29.001  29.334  1.00  0.00     0.031 C 
ATOM     56  C   UNL A   1      47.585  26.043  31.135  1.00  0.00     0.029 A 
ATOM     57  C   UNL A   1      46.564  26.993  31.105  1.00  0.00     0.049 A 
ATOM     58  H   UNL A   1      46.933  29.005  30.581  1.00  0.00     0.167 HD
ATOM     59  C   UNL A   1      44.190  27.687  30.928  1.00  0.00     0.074 A 
ATOM     60  C   UNL A   1      44.251  28.859  30.065  1.00  0.00     0.031 C 
ATOM     61  C   UNL A   1      45.171  26.915  31.479  1.00  0.00     0.037 A 
BRANCH  48  62
ATOM     62  C   UNL A   1      48.362  29.500  27.913  1.00  0.00     0.057 A 
ATOM     63  C   UNL A   1      47.363  30.431  27.585  1.00  0.00     0.134 A 
ATOM     64  C   UNL A   1      49.688  29.932  27.710  1.00  0.00     0.134 A 
ATOM     65  F   UNL A   1      46.064  30.111  27.692  1.00  0.00    -0.206 F 
ATOM     66  C   UNL A   1      47.664  31.698  27.073  1.00  0.00     0.040 A 
ATOM     67  C   UNL A   1      50.002  31.211  27.244  1.00  0.00     0.040 A 
ATOM     68  F   UNL A   1      50.730  29.103  27.867  1.00  0.00    -0.206 F 
ATOM     69  C   UNL A   1      48.987  32.093  26.904  1.00  0.00     0.006 A 
ENDBRANCH  48  62
BRANCH  49  70
ATOM     70  C   UNL A   1      40.073  27.894  28.624  1.00  0.00     0.057 A 
ATOM     71  C   UNL A   1      39.072  27.895  29.602  1.00  0.00     0.134 A 
ATOM     72  C   UNL A   1      39.855  28.729  27.513  1.00  0.00     0.134 A 
ATOM     73  F   UNL A   1      39.212  27.169  30.721  1.00  0.00    -0.206 F 
ATOM     74  C   UNL A   1      37.923  28.687  29.486  1.00  0.00     0.040 A 
ATOM     75  C   UNL A   1      38.707  29.515  27.379  1.00  0.00     0.040 A 
ATOM     76  F   UNL A   1      40.789  28.876  26.560  1.00  0.00    -0.206 F 
ATOM     77  C   UNL A   1      37.740  29.504  28.373  1.00  0.00     0.006 A 
ENDBRANCH  49  70
BRANCH  61  78
ATOM     78  C   UNL A   1      44.754  25.706  32.265  1.00  0.00     0.057 A 
ATOM     79  C   UNL A   1      44.505  24.456  31.680  1.00  0.00     0.134 A 
ATOM     80  C   UNL A   1      44.763  25.766  33.663  1.00  0.00     0.134 A 
ATOM     81  F   UNL A   1      44.578  24.287  30.353  1.00  0.00    -0.206 F 
ATOM     82  C   UNL A   1      44.236  23.325  32.455  1.00  0.00     0.040 A 
ATOM     83  C   UNL A   1      44.524  24.635  34.449  1.00  0.00     0.040 A 
ATOM     84  F   UNL A   1      45.056  26.916  34.290  1.00  0.00    -0.206 F 
ATOM     85  C   UNL A   1      44.251  23.411  33.845  1.00  0.00     0.006 A 
ENDBRANCH  61  78
ENDBRANCH  35  36
ENDBRANCH  28  30
ENDBRANCH  27  28
ENDBRANCH  26  27
ENDBRANCH  25  26
ENDBRANCH  24  25
ENDBRANCH   1  24
TORSDOF 19
ENDMDL
MODEL 3
REMARK VINA RESULT:     -10.4      3.595      8.779
REMARK SMILES CC(C)c1nc(C(=O)OCCOCCOCCOC(=O)c2ccc(-c3c4nc(c(-c5c(F)cccc5F)c5ccc([nH]5)c(-c5c(F)cccc5F)c5nc(c(-c6c(F)cccc6F)c6ccc3[nH]6)C=C5)C=C4)cc2)nn1-c1ccccc1F
REMARK SMILES IDX 14 1 13 2 12 3 11 4 10 5 9 6 7 7 8 8 6 9 4 10 5 11 76 12
REMARK SMILES IDX 75 13 2 14 1 15 3 16 77 17 78 18 82 19 79 20 81 21 83 22
REMARK SMILES IDX 80 23 15 24 16 25 17 26 18 27 19 28 20 29 21 30 22 31 74 32
REMARK SMILES IDX 23 33 73 34 24 35 25 36 26 37 67 38 27 39 72 40 66 41 68 42
REMARK SMILES IDX 28 43 71 44 65 45 64 46 29 48 55 49 38 50 54 51 39 52 42 53
REMARK SMILES IDX 53 54 69 55 40 56 41 57 52 59 70 60 43 61 30 62 31 63 36 64
REMARK SMILES IDX 32 65 33 66 35 67 37 68 34 69 56 70 57 71 62 72 58 73 59 74
REMARK SMILES IDX 61 75 63 76 60 77 44 78 45 79 50 80 46 81 47 82 49 83 51 84
REMARK SMILES IDX 48 85
REMARK H PARENT 68 47 42 58
REMARK Flexibility Score: inf
ROOT
ATOM      1  C   UNL A   1      32.327  28.723  25.423  1.00  0.00     0.188 C 
ENDROOT
BRANCH   1   2
ATOM      2  C   UNL A   1      31.249  28.449  24.353  1.00  0.00     0.188 C 
BRANCH   2   3
ATOM      3  O   UNL A   1      30.616  27.177  24.261  1.00  0.00    -0.376 OA
BRANCH   3   4
ATOM      4  C   UNL A   1      31.052  26.104  25.086  1.00  0.00     0.202 C 
BRANCH   4   5
ATOM      5  C   UNL A   1      30.889  24.662  24.578  1.00  0.00     0.261 C 
BRANCH   5   6
ATOM      6  O   UNL A   1      30.450  23.719  25.568  1.00  0.00    -0.457 OA
BRANCH   6   7
ATOM      7  C   UNL A   1      31.417  23.237  26.414  1.00  0.00     0.378 C 
ATOM      8  O   UNL A   1      31.407  23.406  27.630  1.00  0.00    -0.242 OA
BRANCH   7   9
ATOM      9  C   UNL A   1      32.405  22.376  25.733  1.00  0.00     0.260 A 
ATOM     10  C   UNL A   1      34.282  21.776  24.908  1.00  0.00     0.136 A 
ATOM     11  N   UNL A   1      33.704  22.785  25.530  1.00  0.00    -0.205 NA
ATOM     12  N   UNL A   1      33.374  20.730  24.805  1.00  0.00    -0.214 N 
ATOM     13  N   UNL A   1      32.159  21.138  25.271  1.00  0.00    -0.138 NA
BRANCH  10  14
ATOM     14  C   UNL A   1      35.620  21.868  24.230  1.00  0.00     0.051 C 
ATOM     15  C   UNL A   1      35.777  23.249  23.582  1.00  0.00     0.016 C 
ATOM     16  C   UNL A   1      36.758  21.622  25.222  1.00  0.00     0.016 C 
ENDBRANCH  10  14
BRANCH  12  17
ATOM     17  C   UNL A   1      33.513  19.441  24.241  1.00  0.00     0.102 A 
ATOM     18  C   UNL A   1      34.528  18.595  24.715  1.00  0.00     0.031 A 
ATOM     19  C   UNL A   1      32.673  18.985  23.226  1.00  0.00     0.148 A 
ATOM     20  C   UNL A   1      34.635  17.288  24.228  1.00  0.00     0.002 A 
ATOM     21  C   UNL A   1      32.789  17.689  22.728  1.00  0.00     0.041 A 
ATOM     22  F   UNL A   1      31.777  19.797  22.647  1.00  0.00    -0.205 F 
ATOM     23  C   UNL A   1      33.761  16.832  23.242  1.00  0.00     0.003 A 
ENDBRANCH  12  17
ENDBRANCH   7   9
ENDBRANCH   6   7
ENDBRANCH   5   6
ENDBRANCH   4   5
ENDBRANCH   3   4
ENDBRANCH   2   3
ENDBRANCH   1   2
BRANCH   1  24
ATOM     24  O   UNL A   1      32.624  30.096  25.624  1.00  0.00    -0.376 OA
BRANCH  24  25
ATOM     25  C   UNL A   1      32.265  30.627  26.892  1.00  0.00     0.202 C 
BRANCH  25  26
ATOM     26  C   UNL A   1      33.282  31.603  27.484  1.00  0.00     0.261 C 
BRANCH  26  27
ATOM     27  O   UNL A   1      34.638  31.161  27.445  1.00  0.00    -0.460 OA
BRANCH  27  28
ATOM     28  C   UNL A   1      35.558  32.026  27.915  1.00  0.00     0.338 C 
ATOM     29  O   UNL A   1      35.663  33.205  27.628  1.00  0.00    -0.246 OA
BRANCH  28  30
ATOM     30  C   UNL A   1      36.502  31.293  28.781  1.00  0.00     0.060 A 
ATOM     31  C   UNL A   1      37.698  31.929  29.116  1.00  0.00     0.016 A 
ATOM     32  C   UNL A   1      36.300  29.932  29.066  1.00  0.00     0.016 A 
ATOM     33  C   UNL A   1      38.757  31.162  29.567  1.00  0.00     0.010 A 
ATOM     34  C   UNL A   1      37.361  29.166  29.513  1.00  0.00     0.010 A 
ATOM     35  C   UNL A   1      38.604  29.773  29.673  1.00  0.00    -0.014 A 
BRANCH  35  36
ATOM     36  C   UNL A   1      39.821  28.987  29.802  1.00  0.00     0.031 A 
ATOM     37  C   UNL A   1      40.441  28.887  31.140  1.00  0.00     0.074 A 
ATOM     38  C   UNL A   1      40.368  28.352  28.748  1.00  0.00     0.049 A 
ATOM     39  N   UNL A   1      41.616  29.288  31.506  1.00  0.00    -0.248 NA
ATOM     40  C   UNL A   1      39.647  28.271  32.210  1.00  0.00     0.031 C 
ATOM     41  C   UNL A   1      39.765  28.086  27.438  1.00  0.00     0.029 A 
ATOM     42  N   UNL A   1      41.578  27.729  28.672  1.00  0.00    -0.354 N 
ATOM     43  C   UNL A   1      41.779  28.844  32.813  1.00  0.00     0.074 A 
ATOM     44  C   UNL A   1      40.510  28.294  33.225  1.00  0.00     0.031 C 
ATOM     45  C   UNL A   1      40.531  27.191  26.775  1.00  0.00     0.029 A 
ATOM     46  C   UNL A   1      41.729  26.929  27.553  1.00  0.00     0.049 A 
ATOM     47  H   UNL A   1      42.280  27.839  29.352  1.00  0.00     0.167 HD
ATOM     48  C   UNL A   1      42.992  28.805  33.425  1.00  0.00     0.037 A 
ATOM     49  C   UNL A   1      42.738  26.058  27.316  1.00  0.00     0.037 A 
ATOM     50  C   UNL A   1      43.970  29.631  32.777  1.00  0.00     0.049 A 
ATOM     51  C   UNL A   1      43.889  26.435  28.168  1.00  0.00     0.074 A 
ATOM     52  C   UNL A   1      44.080  30.981  32.508  1.00  0.00     0.029 A 
ATOM     53  N   UNL A   1      44.951  29.026  32.034  1.00  0.00    -0.354 N 
ATOM     54  N   UNL A   1      44.632  27.492  27.994  1.00  0.00    -0.248 NA
ATOM     55  C   UNL A   1      44.020  25.792  29.468  1.00  0.00     0.031 C 
ATOM     56  C   UNL A   1      44.804  31.064  31.284  1.00  0.00     0.029 A 
ATOM     57  C   UNL A   1      45.083  29.757  30.883  1.00  0.00     0.049 A 
ATOM     58  H   UNL A   1      45.463  28.221  32.281  1.00  0.00     0.167 HD
ATOM     59  C   UNL A   1      45.014  27.874  29.271  1.00  0.00     0.074 A 
ATOM     60  C   UNL A   1      44.716  26.726  30.117  1.00  0.00     0.031 C 
ATOM     61  C   UNL A   1      45.278  29.178  29.573  1.00  0.00     0.037 A 
BRANCH  48  62
ATOM     62  C   UNL A   1      43.358  27.794  34.471  1.00  0.00     0.057 A 
ATOM     63  C   UNL A   1      43.530  26.445  34.125  1.00  0.00     0.134 A 
ATOM     64  C   UNL A   1      43.294  28.066  35.853  1.00  0.00     0.134 A 
ATOM     65  F   UNL A   1      43.556  26.063  32.838  1.00  0.00    -0.206 F 
ATOM     66  C   UNL A   1      43.614  25.433  35.088  1.00  0.00     0.040 A 
ATOM     67  C   UNL A   1      43.425  27.071  36.824  1.00  0.00     0.040 A 
ATOM     68  F   UNL A   1      43.012  29.291  36.316  1.00  0.00    -0.206 F 
ATOM     69  C   UNL A   1      43.566  25.745  36.442  1.00  0.00     0.006 A 
ENDBRANCH  48  62
BRANCH  49  70
ATOM     70  C   UNL A   1      42.671  24.778  26.583  1.00  0.00     0.057 A 
ATOM     71  C   UNL A   1      43.388  24.577  25.398  1.00  0.00     0.134 A 
ATOM     72  C   UNL A   1      42.093  23.632  27.160  1.00  0.00     0.134 A 
ATOM     73  F   UNL A   1      44.016  25.600  24.800  1.00  0.00    -0.206 F 
ATOM     74  C   UNL A   1      43.529  23.308  24.822  1.00  0.00     0.040 A 
ATOM     75  C   UNL A   1      42.214  22.362  26.589  1.00  0.00     0.040 A 
ATOM     76  F   UNL A   1      41.461  23.692  28.342  1.00  0.00    -0.206 F 
ATOM     77  C   UNL A   1      42.944  22.195  25.421  1.00  0.00     0.006 A 
ENDBRANCH  49  70
BRANCH  61  78
ATOM     78  C   UNL A   1      45.462  30.138  28.434  1.00  0.00     0.057 A 
ATOM     79  C   UNL A   1      44.397  30.798  27.804  1.00  0.00     0.134 A 
ATOM     80  C   UNL A   1      46.756  30.530  28.076  1.00  0.00     0.134 A 
ATOM     81  F   UNL A   1      43.127  30.557  28.160  1.00  0.00    -0.206 F 
ATOM     82  C   UNL A   1      44.614  31.774  26.829  1.00  0.00     0.040 A 
ATOM     83  C   UNL A   1      46.986  31.526  27.124  1.00  0.00     0.040 A 
ATOM     84  F   UNL A   1      47.822  29.986  28.686  1.00  0.00    -0.206 F 
ATOM     85  C   UNL A   1      45.913  32.146  26.489  1.00  0.00     0.006 A 
ENDBRANCH  61  78
ENDBRANCH  35  36
ENDBRANCH  28  30
ENDBRANCH  27  28
ENDBRANCH  26  27
ENDBRANCH  25  26
ENDBRANCH  24  25
ENDBRANCH   1  24
TORSDOF 19
ENDMDL
