MODEL 1
REMARK VINA RESULT:     -12.3      0.000      0.000
REMARK SMILES Cc1ccccc1OCC[NH+]1CCC(CC(=O)OCCOCCOCCOC(=O)c2ccc(-c3c4nc(c(-c5c(F)cccc5F)c5ccc([nH]5)c(-c5c(F)cccc5F)c5nc(c(-c6c(F)cccc6F)c6ccc3[nH]6)C=C5)C=C4)cc2)CC1
REMARK SMILES IDX 21 1 20 2 19 3 18 4 16 5 17 6 15 7 14 8 11 9 12 10 85 11
REMARK SMILES IDX 13 13 84 14 10 15 9 16 8 17 7 18 1 19 2 20 3 21 4 22 6 23
REMARK SMILES IDX 5 24 22 25 23 26 24 27 25 28 26 29 27 30 28 31 29 32 30 33
REMARK SMILES IDX 31 34 83 35 32 36 82 37 33 38 34 39 35 40 76 41 36 42 81 43
REMARK SMILES IDX 75 44 77 45 37 46 80 47 74 48 73 49 38 51 64 52 47 53 63 54
REMARK SMILES IDX 48 55 51 56 62 57 78 58 49 59 50 60 61 62 79 63 52 64 39 65
REMARK SMILES IDX 40 66 45 67 41 68 42 69 44 70 46 71 43 72 65 73 66 74 71 75
REMARK SMILES IDX 67 76 68 77 70 78 72 79 69 80 53 81 54 82 59 83 55 84 56 85
REMARK SMILES IDX 58 86 60 87 57 88
REMARK H PARENT 11 12 77 50 51 61
REMARK Flexibility Score: inf
ROOT
ATOM      1  O   UNL A   1      32.811  31.636  27.293  1.00  0.00    -0.376 OA
ENDROOT
BRANCH   1   2
ATOM      2  C   UNL A   1      32.304  30.352  26.846  1.00  0.00     0.202 C 
BRANCH   2   3
ATOM      3  C   UNL A   1      31.886  29.793  25.252  1.00  0.00     0.261 C 
BRANCH   3   4
ATOM      4  O   UNL A   1      31.026  28.514  24.638  1.00  0.00    -0.463 OA
BRANCH   4   5
ATOM      5  C   UNL A   1      30.155  28.064  23.642  1.00  0.00     0.306 C 
ATOM      6  O   UNL A   1      29.485  28.640  22.774  1.00  0.00    -0.252 OA
BRANCH   5   7
ATOM      7  C   UNL A   1      29.707  26.687  23.576  1.00  0.00     0.126 C 
BRANCH   7   8
ATOM      8  C   UNL A   1      30.529  25.690  24.266  1.00  0.00     0.011 C 
ATOM      9  N   UNL A   1      31.996  22.281  25.154  1.00  0.00    -0.332 N 
ATOM     10  C   UNL A   1      31.079  23.229  26.463  1.00  0.00     0.262 C 
ATOM     11  C   UNL A   1      31.883  22.787  23.365  1.00  0.00     0.262 C 
ATOM     12  H   UNL A   1      32.862  22.755  25.411  1.00  0.00     0.348 HD
ATOM     13  C   UNL A   1      30.228  24.954  26.063  1.00  0.00     0.066 C 
ATOM     14  C   UNL A   1      31.035  24.455  22.838  1.00  0.00     0.066 C 
BRANCH   9  15
ATOM     15  C   UNL A   1      32.312  20.911  25.378  1.00  0.00     0.304 C 
BRANCH  15  16
ATOM     16  C   UNL A   1      33.707  20.948  25.906  1.00  0.00     0.290 C 
BRANCH  16  17
ATOM     17  O   UNL A   1      34.519  20.804  24.739  1.00  0.00    -0.487 OA
BRANCH  17  18
ATOM     18  C   UNL A   1      35.663  21.602  24.827  1.00  0.00     0.122 A 
ATOM     19  C   UNL A   1      34.530  24.700  24.787  1.00  0.00     0.048 C 
ATOM     20  C   UNL A   1      35.758  23.062  25.180  1.00  0.00    -0.009 A 
ATOM     21  C   UNL A   1      37.098  23.088  25.795  1.00  0.00     0.007 A 
ATOM     22  C   UNL A   1      38.187  22.166  25.725  1.00  0.00     0.001 A 
ATOM     23  C   UNL A   1      36.749  20.644  24.784  1.00  0.00     0.047 A 
ATOM     24  C   UNL A   1      38.032  20.950  25.147  1.00  0.00     0.004 A 
ENDBRANCH  17  18
ENDBRANCH  16  17
ENDBRANCH  15  16
ENDBRANCH   9  15
ENDBRANCH   7   8
ENDBRANCH   5   7
ENDBRANCH   4   5
ENDBRANCH   3   4
ENDBRANCH   2   3
ENDBRANCH   1   2
BRANCH   1  25
ATOM     25  C   UNL A   1      34.147  31.985  27.724  1.00  0.00     0.188 C 
BRANCH  25  26
ATOM     26  C   UNL A   1      34.551  33.287  28.428  1.00  0.00     0.188 C 
BRANCH  26  27
ATOM     27  O   UNL A   1      33.490  33.825  29.184  1.00  0.00    -0.376 OA
BRANCH  27  28
ATOM     28  C   UNL A   1      33.300  35.233  29.113  1.00  0.00     0.202 C 
BRANCH  28  29
ATOM     29  C   UNL A   1      32.837  35.952  30.417  1.00  0.00     0.261 C 
BRANCH  29  30
ATOM     30  O   UNL A   1      33.002  35.137  31.619  1.00  0.00    -0.460 OA
BRANCH  30  31
ATOM     31  C   UNL A   1      33.872  35.544  32.617  1.00  0.00     0.338 C 
ATOM     32  O   UNL A   1      33.949  36.686  33.032  1.00  0.00    -0.246 OA
BRANCH  31  33
ATOM     33  C   UNL A   1      34.786  34.415  33.024  1.00  0.00     0.060 A 
ATOM     34  C   UNL A   1      35.375  34.030  34.238  1.00  0.00     0.016 A 
ATOM     35  C   UNL A   1      35.258  33.726  31.975  1.00  0.00     0.016 A 
ATOM     36  C   UNL A   1      36.539  33.099  34.289  1.00  0.00     0.010 A 
ATOM     37  C   UNL A   1      36.468  33.067  32.075  1.00  0.00     0.010 A 
ATOM     38  C   UNL A   1      37.242  32.670  33.150  1.00  0.00    -0.014 A 
BRANCH  38  39
ATOM     39  C   UNL A   1      38.576  31.658  32.833  1.00  0.00     0.031 A 
ATOM     40  C   UNL A   1      38.782  30.161  31.980  1.00  0.00     0.074 A 
ATOM     41  C   UNL A   1      39.718  32.362  32.920  1.00  0.00     0.049 A 
ATOM     42  N   UNL A   1      39.728  29.987  31.079  1.00  0.00    -0.248 NA
ATOM     43  C   UNL A   1      37.943  28.889  31.906  1.00  0.00     0.031 C 
ATOM     44  C   UNL A   1      41.055  32.099  32.403  1.00  0.00     0.029 A 
ATOM     45  N   UNL A   1      39.931  33.426  33.795  1.00  0.00    -0.354 N 
ATOM     46  C   UNL A   1      39.482  28.854  30.287  1.00  0.00     0.074 A 
ATOM     47  C   UNL A   1      38.256  28.292  30.745  1.00  0.00     0.031 C 
ATOM     48  C   UNL A   1      41.942  32.605  33.278  1.00  0.00     0.029 A 
ATOM     49  C   UNL A   1      41.158  33.094  34.401  1.00  0.00     0.049 A 
ATOM     50  H   UNL A   1      39.365  34.217  33.951  1.00  0.00     0.167 HD
ATOM     51  C   UNL A   1      40.454  28.261  29.529  1.00  0.00     0.037 A 
ATOM     52  C   UNL A   1      41.074  32.522  35.637  1.00  0.00     0.037 A 
ATOM     53  C   UNL A   1      41.680  28.464  30.263  1.00  0.00     0.049 A 
ATOM     54  C   UNL A   1      41.546  31.076  35.572  1.00  0.00     0.074 A 
ATOM     55  C   UNL A   1      42.660  29.431  30.279  1.00  0.00     0.029 A 
ATOM     56  N   UNL A   1      41.728  27.819  31.489  1.00  0.00    -0.354 N 
ATOM     57  N   UNL A   1      41.492  30.303  34.511  1.00  0.00    -0.248 NA
ATOM     58  C   UNL A   1      42.285  30.462  36.666  1.00  0.00     0.031 C 
ATOM     59  C   UNL A   1      43.112  29.511  31.638  1.00  0.00     0.029 A 
ATOM     60  C   UNL A   1      42.451  28.555  32.403  1.00  0.00     0.049 A 
ATOM     61  H   UNL A   1      41.303  26.951  31.682  1.00  0.00     0.167 HD
ATOM     62  C   UNL A   1      42.213  29.159  34.737  1.00  0.00     0.074 A 
ATOM     63  C   UNL A   1      42.679  29.307  36.105  1.00  0.00     0.031 C 
ATOM     64  C   UNL A   1      42.434  28.170  33.815  1.00  0.00     0.037 A 
BRANCH  51  65
ATOM     65  C   UNL A   1      40.333  27.358  28.309  1.00  0.00     0.057 A 
ATOM     66  C   UNL A   1      39.683  26.106  28.401  1.00  0.00     0.134 A 
ATOM     67  C   UNL A   1      40.997  27.561  27.083  1.00  0.00     0.134 A 
ATOM     68  F   UNL A   1      39.010  25.757  29.507  1.00  0.00    -0.206 F 
ATOM     69  C   UNL A   1      39.718  25.133  27.382  1.00  0.00     0.040 A 
ATOM     70  C   UNL A   1      41.028  26.603  26.047  1.00  0.00     0.040 A 
ATOM     71  F   UNL A   1      41.674  28.690  26.844  1.00  0.00    -0.206 F 
ATOM     72  C   UNL A   1      40.400  25.375  26.201  1.00  0.00     0.006 A 
ENDBRANCH  51  65
BRANCH  52  73
ATOM     73  C   UNL A   1      39.963  33.160  36.444  1.00  0.00     0.057 A 
ATOM     74  C   UNL A   1      38.882  32.314  36.818  1.00  0.00     0.134 A 
ATOM     75  C   UNL A   1      40.082  34.338  37.184  1.00  0.00     0.134 A 
ATOM     76  F   UNL A   1      38.666  31.170  36.147  1.00  0.00    -0.206 F 
ATOM     77  C   UNL A   1      38.114  32.518  37.971  1.00  0.00     0.040 A 
ATOM     78  C   UNL A   1      39.237  34.604  38.285  1.00  0.00     0.040 A 
ATOM     79  F   UNL A   1      41.084  35.197  36.953  1.00  0.00    -0.206 F 
ATOM     80  C   UNL A   1      38.312  33.658  38.731  1.00  0.00     0.006 A 
ENDBRANCH  52  73
BRANCH  64  81
ATOM     81  C   UNL A   1      42.652  26.717  34.224  1.00  0.00     0.057 A 
ATOM     82  C   UNL A   1      43.809  25.988  33.892  1.00  0.00     0.134 A 
ATOM     83  C   UNL A   1      41.789  26.050  35.125  1.00  0.00     0.134 A 
ATOM     84  F   UNL A   1      44.807  26.527  33.179  1.00  0.00    -0.206 F 
ATOM     85  C   UNL A   1      44.040  24.679  34.329  1.00  0.00     0.040 A 
ATOM     86  C   UNL A   1      42.058  24.779  35.645  1.00  0.00     0.040 A 
ATOM     87  F   UNL A   1      40.662  26.615  35.582  1.00  0.00    -0.206 F 
ATOM     88  C   UNL A   1      43.170  24.073  35.221  1.00  0.00     0.006 A 
ENDBRANCH  64  81
ENDBRANCH  38  39
ENDBRANCH  31  33
ENDBRANCH  30  31
ENDBRANCH  29  30
ENDBRANCH  28  29
ENDBRANCH  27  28
ENDBRANCH  26  27
ENDBRANCH  25  26
ENDBRANCH   1  25
TORSDOF 22
ENDMDL
MODEL 2
REMARK VINA RESULT:     -11.8      1.503      2.498
REMARK SMILES Cc1ccccc1OCC[NH+]1CCC(CC(=O)OCCOCCOCCOC(=O)c2ccc(-c3c4nc(c(-c5c(F)cccc5F)c5ccc([nH]5)c(-c5c(F)cccc5F)c5nc(c(-c6c(F)cccc6F)c6ccc3[nH]6)C=C5)C=C4)cc2)CC1
REMARK SMILES IDX 21 1 20 2 19 3 18 4 16 5 17 6 15 7 14 8 11 9 12 10 85 11
REMARK SMILES IDX 13 13 84 14 10 15 9 16 8 17 7 18 1 19 2 20 3 21 4 22 6 23
REMARK SMILES IDX 5 24 22 25 23 26 24 27 25 28 26 29 27 30 28 31 29 32 30 33
REMARK SMILES IDX 31 34 83 35 32 36 82 37 33 38 34 39 35 40 76 41 36 42 81 43
REMARK SMILES IDX 75 44 77 45 37 46 80 47 74 48 73 49 38 51 64 52 47 53 63 54
REMARK SMILES IDX 48 55 51 56 62 57 78 58 49 59 50 60 61 62 79 63 52 64 39 65
REMARK SMILES IDX 40 66 45 67 41 68 42 69 44 70 46 71 43 72 65 73 66 74 71 75
REMARK SMILES IDX 67 76 68 77 70 78 72 79 69 80 53 81 54 82 59 83 55 84 56 85
REMARK SMILES IDX 58 86 60 87 57 88
REMARK H PARENT 11 12 77 50 51 61
REMARK Flexibility Score: inf
ROOT
ATOM      1  O   UNL A   1      35.811  33.330  29.117  1.00  0.00    -0.376 OA
ENDROOT
BRANCH   1   2
ATOM      2  C   UNL A   1      36.553  32.084  29.126  1.00  0.00     0.202 C 
BRANCH   2   3
ATOM      3  C   UNL A   1      36.172  30.535  28.429  1.00  0.00     0.261 C 
BRANCH   3   4
ATOM      4  O   UNL A   1      34.966  29.945  27.454  1.00  0.00    -0.463 OA
BRANCH   4   5
ATOM      5  C   UNL A   1      33.714  30.175  26.877  1.00  0.00     0.306 C 
ATOM      6  O   UNL A   1      32.714  30.809  27.240  1.00  0.00    -0.252 OA
BRANCH   5   7
ATOM      7  C   UNL A   1      33.272  29.470  25.690  1.00  0.00     0.126 C 
BRANCH   7   8
ATOM      8  C   UNL A   1      33.042  28.029  25.822  1.00  0.00     0.011 C 
ATOM      9  N   UNL A   1      32.175  24.454  24.811  1.00  0.00    -0.332 N 
ATOM     10  C   UNL A   1      31.148  25.288  26.117  1.00  0.00     0.262 C 
ATOM     11  C   UNL A   1      33.345  25.441  23.752  1.00  0.00     0.262 C 
ATOM     12  H   UNL A   1      32.825  24.127  25.526  1.00  0.00     0.348 HD
ATOM     13  C   UNL A   1      31.483  27.154  26.636  1.00  0.00     0.066 C 
ATOM     14  C   UNL A   1      33.733  27.307  24.143  1.00  0.00     0.066 C 
BRANCH   9  15
ATOM     15  C   UNL A   1      31.711  23.239  24.232  1.00  0.00     0.304 C 
BRANCH  15  16
ATOM     16  C   UNL A   1      32.407  22.179  25.018  1.00  0.00     0.290 C 
BRANCH  16  17
ATOM     17  O   UNL A   1      33.335  22.905  25.826  1.00  0.00    -0.487 OA
BRANCH  17  18
ATOM     18  C   UNL A   1      34.638  22.435  25.633  1.00  0.00     0.122 A 
ATOM     19  C   UNL A   1      34.264  19.313  24.637  1.00  0.00     0.048 C 
ATOM     20  C   UNL A   1      35.087  21.213  24.878  1.00  0.00    -0.009 A 
ATOM     21  C   UNL A   1      36.418  21.664  24.433  1.00  0.00     0.007 A 
ATOM     22  C   UNL A   1      37.257  22.727  24.890  1.00  0.00     0.001 A 
ATOM     23  C   UNL A   1      35.465  23.540  26.074  1.00  0.00     0.047 A 
ATOM     24  C   UNL A   1      36.798  23.641  25.779  1.00  0.00     0.004 A 
ENDBRANCH  17  18
ENDBRANCH  16  17
ENDBRANCH  15  16
ENDBRANCH   9  15
ENDBRANCH   7   8
ENDBRANCH   5   7
ENDBRANCH   4   5
ENDBRANCH   3   4
ENDBRANCH   2   3
ENDBRANCH   1   2
BRANCH   1  25
ATOM     25  C   UNL A   1      34.423  33.563  29.451  1.00  0.00     0.188 C 
BRANCH  25  26
ATOM     26  C   UNL A   1      33.511  34.619  28.812  1.00  0.00     0.188 C 
BRANCH  26  27
ATOM     27  O   UNL A   1      32.509  35.054  29.704  1.00  0.00    -0.376 OA
BRANCH  27  28
ATOM     28  C   UNL A   1      32.867  36.085  30.617  1.00  0.00     0.202 C 
BRANCH  28  29
ATOM     29  C   UNL A   1      32.576  35.826  32.127  1.00  0.00     0.261 C 
BRANCH  29  30
ATOM     30  O   UNL A   1      33.753  35.395  32.878  1.00  0.00    -0.460 OA
BRANCH  30  31
ATOM     31  C   UNL A   1      34.032  34.045  33.013  1.00  0.00     0.338 C 
ATOM     32  O   UNL A   1      33.191  33.192  33.232  1.00  0.00    -0.246 OA
BRANCH  31  33
ATOM     33  C   UNL A   1      35.521  33.799  32.975  1.00  0.00     0.060 A 
ATOM     34  C   UNL A   1      36.596  34.437  32.337  1.00  0.00     0.016 A 
ATOM     35  C   UNL A   1      35.868  32.636  33.544  1.00  0.00     0.016 A 
ATOM     36  C   UNL A   1      37.915  33.766  32.159  1.00  0.00     0.010 A 
ATOM     37  C   UNL A   1      37.022  31.993  33.142  1.00  0.00     0.010 A 
ATOM     38  C   UNL A   1      38.145  32.411  32.449  1.00  0.00    -0.014 A 
BRANCH  38  39
ATOM     39  C   UNL A   1      39.466  31.337  32.365  1.00  0.00     0.031 A 
ATOM     40  C   UNL A   1      39.719  29.785  31.634  1.00  0.00     0.074 A 
ATOM     41  C   UNL A   1      40.615  32.008  32.559  1.00  0.00     0.049 A 
ATOM     42  N   UNL A   1      40.764  29.525  30.874  1.00  0.00    -0.248 NA
ATOM     43  C   UNL A   1      38.846  28.539  31.525  1.00  0.00     0.031 C 
ATOM     44  C   UNL A   1      41.996  31.670  32.235  1.00  0.00     0.029 A 
ATOM     45  N   UNL A   1      40.759  33.117  33.392  1.00  0.00    -0.354 N 
ATOM     46  C   UNL A   1      40.576  28.353  30.123  1.00  0.00     0.074 A 
ATOM     47  C   UNL A   1      39.279  27.861  30.450  1.00  0.00     0.031 C 
ATOM     48  C   UNL A   1      42.784  32.200  33.188  1.00  0.00     0.029 A 
ATOM     49  C   UNL A   1      41.883  32.783  34.169  1.00  0.00     0.049 A 
ATOM     50  H   UNL A   1      40.210  33.933  33.428  1.00  0.00     0.167 HD
ATOM     51  C   UNL A   1      41.611  27.683  29.532  1.00  0.00     0.037 A 
ATOM     52  C   UNL A   1      41.620  32.292  35.415  1.00  0.00     0.037 A 
ATOM     53  C   UNL A   1      42.741  27.891  30.405  1.00  0.00     0.049 A 
ATOM     54  C   UNL A   1      42.038  30.830  35.495  1.00  0.00     0.074 A 
ATOM     55  C   UNL A   1      43.749  28.825  30.493  1.00  0.00     0.029 A 
ATOM     56  N   UNL A   1      42.607  27.322  31.662  1.00  0.00    -0.354 N 
ATOM     57  N   UNL A   1      42.088  29.994  34.481  1.00  0.00    -0.248 NA
ATOM     58  C   UNL A   1      42.607  30.261  36.708  1.00  0.00     0.031 C 
ATOM     59  C   UNL A   1      44.028  28.974  31.892  1.00  0.00     0.029 A 
ATOM     60  C   UNL A   1      43.236  28.089  32.619  1.00  0.00     0.049 A 
ATOM     61  H   UNL A   1      42.126  26.482  31.848  1.00  0.00     0.167 HD
ATOM     62  C   UNL A   1      42.728  28.844  34.864  1.00  0.00     0.074 A 
ATOM     63  C   UNL A   1      43.022  29.061  36.270  1.00  0.00     0.031 C 
ATOM     64  C   UNL A   1      43.025  27.793  34.037  1.00  0.00     0.037 A 
BRANCH  51  65
ATOM     65  C   UNL A   1      41.610  26.710  28.361  1.00  0.00     0.057 A 
ATOM     66  C   UNL A   1      40.779  26.934  27.239  1.00  0.00     0.134 A 
ATOM     67  C   UNL A   1      42.240  25.450  28.355  1.00  0.00     0.134 A 
ATOM     68  F   UNL A   1      40.104  28.084  27.098  1.00  0.00    -0.206 F 
ATOM     69  C   UNL A   1      40.567  25.980  26.224  1.00  0.00     0.040 A 
ATOM     70  C   UNL A   1      42.050  24.490  27.338  1.00  0.00     0.040 A 
ATOM     71  F   UNL A   1      43.047  25.077  29.355  1.00  0.00    -0.206 F 
ATOM     72  C   UNL A   1      41.196  24.747  26.274  1.00  0.00     0.006 A 
ENDBRANCH  51  65
BRANCH  52  73
ATOM     73  C   UNL A   1      40.443  33.014  36.034  1.00  0.00     0.057 A 
ATOM     74  C   UNL A   1      39.266  32.244  36.250  1.00  0.00     0.134 A 
ATOM     75  C   UNL A   1      40.522  34.200  36.766  1.00  0.00     0.134 A 
ATOM     76  F   UNL A   1      39.082  31.100  35.570  1.00  0.00    -0.206 F 
ATOM     77  C   UNL A   1      38.346  32.521  37.269  1.00  0.00     0.040 A 
ATOM     78  C   UNL A   1      39.538  34.542  37.722  1.00  0.00     0.040 A 
ATOM     79  F   UNL A   1      41.600  34.991  36.679  1.00  0.00    -0.206 F 
ATOM     80  C   UNL A   1      38.498  33.664  38.034  1.00  0.00     0.006 A 
ENDBRANCH  52  73
BRANCH  64  81
ATOM     81  C   UNL A   1      43.130  26.362  34.552  1.00  0.00     0.057 A 
ATOM     82  C   UNL A   1      42.034  25.645  35.067  1.00  0.00     0.134 A 
ATOM     83  C   UNL A   1      44.299  25.583  34.380  1.00  0.00     0.134 A 
ATOM     84  F   UNL A   1      40.809  26.182  35.148  1.00  0.00    -0.206 F 
ATOM     85  C   UNL A   1      42.117  24.309  35.472  1.00  0.00     0.040 A 
ATOM     86  C   UNL A   1      44.364  24.220  34.690  1.00  0.00     0.040 A 
ATOM     87  F   UNL A   1      45.425  26.092  33.859  1.00  0.00    -0.206 F 
ATOM     88  C   UNL A   1      43.280  23.584  35.271  1.00  0.00     0.006 A 
ENDBRANCH  64  81
ENDBRANCH  38  39
ENDBRANCH  31  33
ENDBRANCH  30  31
ENDBRANCH  29  30
ENDBRANCH  28  29
ENDBRANCH  27  28
ENDBRANCH  26  27
ENDBRANCH  25  26
ENDBRANCH   1  25
TORSDOF 22
ENDMDL
MODEL 3
REMARK VINA RESULT:     -11.7      1.307      2.264
REMARK SMILES Cc1ccccc1OCC[NH+]1CCC(CC(=O)OCCOCCOCCOC(=O)c2ccc(-c3c4nc(c(-c5c(F)cccc5F)c5ccc([nH]5)c(-c5c(F)cccc5F)c5nc(c(-c6c(F)cccc6F)c6ccc3[nH]6)C=C5)C=C4)cc2)CC1
REMARK SMILES IDX 21 1 20 2 19 3 18 4 16 5 17 6 15 7 14 8 11 9 12 10 85 11
REMARK SMILES IDX 13 13 84 14 10 15 9 16 8 17 7 18 1 19 2 20 3 21 4 22 6 23
REMARK SMILES IDX 5 24 22 25 23 26 24 27 25 28 26 29 27 30 28 31 29 32 30 33
REMARK SMILES IDX 31 34 83 35 32 36 82 37 33 38 34 39 35 40 76 41 36 42 81 43
REMARK SMILES IDX 75 44 77 45 37 46 80 47 74 48 73 49 38 51 64 52 47 53 63 54
REMARK SMILES IDX 48 55 51 56 62 57 78 58 49 59 50 60 61 62 79 63 52 64 39 65
REMARK SMILES IDX 40 66 45 67 41 68 42 69 44 70 46 71 43 72 65 73 66 74 71 75
REMARK SMILES IDX 67 76 68 77 70 78 72 79 69 80 53 81 54 82 59 83 55 84 56 85
REMARK SMILES IDX 58 86 60 87 57 88
REMARK H PARENT 11 12 77 50 51 61
REMARK Flexibility Score: inf
ROOT
ATOM      1  O   UNL A   1      32.451  30.669  26.972  1.00  0.00    -0.376 OA
ENDROOT
BRANCH   1   2
ATOM      2  C   UNL A   1      31.840  29.513  26.343  1.00  0.00     0.202 C 
BRANCH   2   3
ATOM      3  C   UNL A   1      31.908  28.952  24.697  1.00  0.00     0.261 C 
BRANCH   3   4
ATOM      4  O   UNL A   1      30.790  28.592  23.525  1.00  0.00    -0.463 OA
BRANCH   4   5
ATOM      5  C   UNL A   1      29.485  28.179  23.246  1.00  0.00     0.306 C 
ATOM      6  O   UNL A   1      28.481  28.763  22.816  1.00  0.00    -0.252 OA
BRANCH   5   7
ATOM      7  C   UNL A   1      28.993  26.871  23.632  1.00  0.00     0.126 C 
BRANCH   7   8
ATOM      8  C   UNL A   1      29.994  25.825  23.852  1.00  0.00     0.011 C 
ATOM      9  N   UNL A   1      32.996  24.033  25.380  1.00  0.00    -0.332 N 
ATOM     10  C   UNL A   1      33.023  24.436  23.566  1.00  0.00     0.262 C 
ATOM     11  C   UNL A   1      31.728  24.806  26.503  1.00  0.00     0.262 C 
ATOM     12  H   UNL A   1      32.530  23.147  25.181  1.00  0.00     0.348 HD
ATOM     13  C   UNL A   1      31.551  25.426  22.722  1.00  0.00     0.066 C 
ATOM     14  C   UNL A   1      30.242  25.839  25.791  1.00  0.00     0.066 C 
BRANCH   9  15
ATOM     15  C   UNL A   1      34.198  23.616  26.018  1.00  0.00     0.304 C 
BRANCH  15  16
ATOM     16  C   UNL A   1      33.972  22.167  26.295  1.00  0.00     0.290 C 
BRANCH  16  17
ATOM     17  O   UNL A   1      33.174  21.728  25.195  1.00  0.00    -0.487 OA
BRANCH  17  18
ATOM     18  C   UNL A   1      33.702  20.563  24.630  1.00  0.00     0.122 A 
ATOM     19  C   UNL A   1      36.966  20.854  25.002  1.00  0.00     0.048 C 
ATOM     20  C   UNL A   1      35.081  19.987  24.797  1.00  0.00    -0.009 A 
ATOM     21  C   UNL A   1      34.781  18.553  24.626  1.00  0.00     0.007 A 
ATOM     22  C   UNL A   1      33.653  17.886  24.056  1.00  0.00     0.001 A 
ATOM     23  C   UNL A   1      32.537  19.893  24.087  1.00  0.00     0.047 A 
ATOM     24  C   UNL A   1      32.537  18.576  23.714  1.00  0.00     0.004 A 
ENDBRANCH  17  18
ENDBRANCH  16  17
ENDBRANCH  15  16
ENDBRANCH   9  15
ENDBRANCH   7   8
ENDBRANCH   5   7
ENDBRANCH   4   5
ENDBRANCH   3   4
ENDBRANCH   2   3
ENDBRANCH   1   2
BRANCH   1  25
ATOM     25  C   UNL A   1      33.848  30.918  27.251  1.00  0.00     0.188 C 
BRANCH  25  26
ATOM     26  C   UNL A   1      34.394  31.886  28.309  1.00  0.00     0.188 C 
BRANCH  26  27
ATOM     27  O   UNL A   1      34.667  33.157  27.764  1.00  0.00    -0.376 OA
BRANCH  27  28
ATOM     28  C   UNL A   1      33.644  34.139  27.880  1.00  0.00     0.202 C 
BRANCH  28  29
ATOM     29  C   UNL A   1      33.262  34.598  29.321  1.00  0.00     0.261 C 
BRANCH  29  30
ATOM     30  O   UNL A   1      34.412  35.016  30.121  1.00  0.00    -0.460 OA
BRANCH  30  31
ATOM     31  C   UNL A   1      34.401  34.838  31.494  1.00  0.00     0.338 C 
ATOM     32  O   UNL A   1      33.903  35.622  32.281  1.00  0.00    -0.246 OA
BRANCH  31  33
ATOM     33  C   UNL A   1      35.194  33.613  31.882  1.00  0.00     0.060 A 
ATOM     34  C   UNL A   1      35.357  32.900  33.078  1.00  0.00     0.016 A 
ATOM     35  C   UNL A   1      36.039  33.218  30.919  1.00  0.00     0.016 A 
ATOM     36  C   UNL A   1      36.493  31.954  33.282  1.00  0.00     0.010 A 
ATOM     37  C   UNL A   1      37.182  32.520  31.254  1.00  0.00     0.010 A 
ATOM     38  C   UNL A   1      37.568  31.826  32.387  1.00  0.00    -0.014 A 
BRANCH  38  39
ATOM     39  C   UNL A   1      38.993  30.896  32.297  1.00  0.00     0.031 A 
ATOM     40  C   UNL A   1      39.405  29.381  31.558  1.00  0.00     0.074 A 
ATOM     41  C   UNL A   1      40.067  31.681  32.493  1.00  0.00     0.049 A 
ATOM     42  N   UNL A   1      40.470  29.234  30.796  1.00  0.00    -0.248 NA
ATOM     43  C   UNL A   1      38.665  28.052  31.443  1.00  0.00     0.031 C 
ATOM     44  C   UNL A   1      41.475  31.489  32.166  1.00  0.00     0.029 A 
ATOM     45  N   UNL A   1      40.096  32.795  33.331  1.00  0.00    -0.354 N 
ATOM     46  C   UNL A   1      40.403  28.053  30.039  1.00  0.00     0.074 A 
ATOM     47  C   UNL A   1      39.165  27.428  30.365  1.00  0.00     0.031 C 
ATOM     48  C   UNL A   1      42.205  32.093  33.121  1.00  0.00     0.029 A 
ATOM     49  C   UNL A   1      41.250  32.576  34.106  1.00  0.00     0.049 A 
ATOM     50  H   UNL A   1      39.466  33.550  33.372  1.00  0.00     0.167 HD
ATOM     51  C   UNL A   1      41.501  27.496  29.445  1.00  0.00     0.037 A 
ATOM     52  C   UNL A   1      41.041  32.054  35.349  1.00  0.00     0.037 A 
ATOM     53  C   UNL A   1      42.605  27.817  30.318  1.00  0.00     0.049 A 
ATOM     54  C   UNL A   1      41.609  30.643  35.421  1.00  0.00     0.074 A 
ATOM     55  C   UNL A   1      43.511  28.849  30.408  1.00  0.00     0.029 A 
ATOM     56  N   UNL A   1      42.532  27.231  31.572  1.00  0.00    -0.354 N 
ATOM     57  N   UNL A   1      41.743  29.822  34.404  1.00  0.00    -0.248 NA
ATOM     58  C   UNL A   1      42.235  30.130  36.632  1.00  0.00     0.031 C 
ATOM     59  C   UNL A   1      43.775  29.020  31.808  1.00  0.00     0.029 A 
ATOM     60  C   UNL A   1      43.080  28.054  32.531  1.00  0.00     0.049 A 
ATOM     61  H   UNL A   1      42.141  26.345  31.754  1.00  0.00     0.167 HD
ATOM     62  C   UNL A   1      42.500  28.742  34.781  1.00  0.00     0.074 A 
ATOM     63  C   UNL A   1      42.771  28.981  36.187  1.00  0.00     0.031 C 
ATOM     64  C   UNL A   1      42.902  27.731  33.948  1.00  0.00     0.037 A 
BRANCH  51  65
ATOM     65  C   UNL A   1      41.599  26.535  28.268  1.00  0.00     0.057 A 
ATOM     66  C   UNL A   1      40.976  26.837  27.036  1.00  0.00     0.134 A 
ATOM     67  C   UNL A   1      42.112  25.224  28.336  1.00  0.00     0.134 A 
ATOM     68  F   UNL A   1      40.432  28.043  26.815  1.00  0.00    -0.206 F 
ATOM     69  C   UNL A   1      40.843  25.911  25.983  1.00  0.00     0.040 A 
ATOM     70  C   UNL A   1      42.002  24.290  27.283  1.00  0.00     0.040 A 
ATOM     71  F   UNL A   1      42.719  24.776  29.441  1.00  0.00    -0.206 F 
ATOM     72  C   UNL A   1      41.349  24.627  26.105  1.00  0.00     0.006 A 
ENDBRANCH  51  65
BRANCH  52  73
ATOM     73  C   UNL A   1      39.796  32.647  35.973  1.00  0.00     0.057 A 
ATOM     74  C   UNL A   1      38.720  31.751  36.222  1.00  0.00     0.134 A 
ATOM     75  C   UNL A   1      39.747  33.849  36.681  1.00  0.00     0.134 A 
ATOM     76  F   UNL A   1      38.661  30.579  35.566  1.00  0.00    -0.206 F 
ATOM     77  C   UNL A   1      37.788  31.940  37.250  1.00  0.00     0.040 A 
ATOM     78  C   UNL A   1      38.742  34.094  37.645  1.00  0.00     0.040 A 
ATOM     79  F   UNL A   1      40.724  34.758  36.563  1.00  0.00    -0.206 F 
ATOM     80  C   UNL A   1      37.816  33.109  37.991  1.00  0.00     0.006 A 
ENDBRANCH  52  73
BRANCH  64  81
ATOM     81  C   UNL A   1      43.156  26.316  34.457  1.00  0.00     0.057 A 
ATOM     82  C   UNL A   1      42.156  25.516  35.038  1.00  0.00     0.134 A 
ATOM     83  C   UNL A   1      44.372  25.635  34.213  1.00  0.00     0.134 A 
ATOM     84  F   UNL A   1      40.899  25.951  35.194  1.00  0.00    -0.206 F 
ATOM     85  C   UNL A   1      42.373  24.192  35.438  1.00  0.00     0.040 A 
ATOM     86  C   UNL A   1      44.567  24.283  34.519  1.00  0.00     0.040 A 
ATOM     87  F   UNL A   1      45.418  26.232  33.624  1.00  0.00    -0.206 F 
ATOM     88  C   UNL A   1      43.577  23.564  35.166  1.00  0.00     0.006 A 
ENDBRANCH  64  81
ENDBRANCH  38  39
ENDBRANCH  31  33
ENDBRANCH  30  31
ENDBRANCH  29  30
ENDBRANCH  28  29
ENDBRANCH  27  28
ENDBRANCH  26  27
ENDBRANCH  25  26
ENDBRANCH   1  25
TORSDOF 22
ENDMDL
