MODEL 1
REMARK VINA RESULT:     -10.0      0.000      0.000
REMARK SMILES COc1ccc([C@@H]2CC(c3ccc(Cl)cc3)=NN2C2=[NH+]C(=O)[C@@H](CC(=O)OCCOCCOCCOC(=O)c3ccc(-c4c5nc(c(-c6c(F)cccc6F)c6ccc([nH]6)c(-c6c(F)cccc6F)c6nc(c(-c7c(F)cccc7F)c7ccc4[nH]7)C=C6)C=C5)cc3)S2)cc1OC
REMARK SMILES IDX 31 1 30 2 29 3 28 4 27 5 25 6 26 7 24 8 23 9 19 10 20 11
REMARK SMILES IDX 93 12 21 13 22 15 18 16 7 17 8 18 9 19 17 20 6 21 3 22 4 23
REMARK SMILES IDX 95 24 5 25 94 26 2 27 1 28 96 29 97 30 10 31 11 32 16 33
REMARK SMILES IDX 12 34 15 35 13 36 14 37 32 38 33 39 34 40 35 41 36 42 37 43
REMARK SMILES IDX 38 44 39 45 40 46 92 47 41 48 91 49 42 50 43 51 44 52 85 53
REMARK SMILES IDX 45 54 90 55 84 56 86 57 46 58 89 59 83 60 82 61 47 63 73 64
REMARK SMILES IDX 56 65 72 66 57 67 60 68 71 69 87 70 58 71 59 72 70 74 88 75
REMARK SMILES IDX 61 76 48 77 49 78 54 79 50 80 51 81 53 82 55 83 52 84 74 85
REMARK SMILES IDX 75 86 80 87 76 88 77 89 79 90 81 91 78 92 62 93 63 94 68 95
REMARK SMILES IDX 64 96 65 97 67 98 69 99 66 100
REMARK H PARENT 20 14 86 62 60 73
REMARK Flexibility Score: inf
ROOT
ATOM      1  C   UNL A   1      39.132  22.380  26.149  1.00  0.00     0.188 C 
ENDROOT
BRANCH   1   2
ATOM      2  O   UNL A   1      38.463  21.195  25.730  1.00  0.00    -0.376 OA
BRANCH   2   3
ATOM      3  C   UNL A   1      37.451  21.344  24.731  1.00  0.00     0.202 C 
BRANCH   3   4
ATOM      4  C   UNL A   1      36.289  22.280  25.088  1.00  0.00     0.261 C 
BRANCH   4   5
ATOM      5  O   UNL A   1      35.024  21.794  24.600  1.00  0.00    -0.463 OA
BRANCH   5   6
ATOM      6  C   UNL A   1      34.219  22.699  23.984  1.00  0.00     0.307 C 
ATOM      7  O   UNL A   1      34.396  23.148  22.858  1.00  0.00    -0.252 OA
BRANCH   6   8
ATOM      8  C   UNL A   1      32.975  23.015  24.783  1.00  0.00     0.150 C 
BRANCH   8   9
ATOM      9  C   UNL A   1      33.154  23.996  25.930  1.00  0.00     0.184 C 
ATOM     10  C   UNL A   1      32.703  26.487  26.159  1.00  0.00     0.340 C 
ATOM     11  N   UNL A   1      31.713  25.823  26.662  1.00  0.00    -0.202 N 
ATOM     12  S   UNL A   1      33.954  25.527  25.399  1.00  0.00    -0.020 SA
ATOM     13  C   UNL A   1      31.809  24.468  26.459  1.00  0.00     0.322 C 
ATOM     14  H   UNL A   1      30.966  26.248  27.142  1.00  0.00     0.316 HD
ATOM     15  O   UNL A   1      30.891  23.684  26.685  1.00  0.00    -0.246 OA
BRANCH  10  16
ATOM     16  N   UNL A   1      32.861  27.860  26.147  1.00  0.00    -0.120 N 
ATOM     17  C   UNL A   1      31.698  28.749  26.270  1.00  0.00     0.243 C 
ATOM     18  C   UNL A   1      32.242  29.979  26.989  1.00  0.00     0.118 C 
ATOM     19  C   UNL A   1      33.704  29.657  26.994  1.00  0.00     0.096 C 
ATOM     20  N   UNL A   1      34.023  28.484  26.546  1.00  0.00    -0.086 NA
BRANCH  17  21
ATOM     21  C   UNL A   1      31.038  29.074  24.944  1.00  0.00     0.003 A 
ATOM     22  C   UNL A   1      29.808  29.524  22.449  1.00  0.00     0.160 A 
ATOM     23  C   UNL A   1      29.727  30.483  23.469  1.00  0.00     0.051 A 
ATOM     24  C   UNL A   1      30.550  28.356  22.643  1.00  0.00     0.161 A 
ATOM     25  C   UNL A   1      30.338  30.262  24.708  1.00  0.00     0.012 A 
ATOM     26  C   UNL A   1      31.146  28.145  23.893  1.00  0.00     0.058 A 
BRANCH  22  27
ATOM     27  O   UNL A   1      29.212  29.810  21.251  1.00  0.00    -0.493 OA
ATOM     28  C   UNL A   1      28.647  31.123  21.258  1.00  0.00     0.278 C 
ENDBRANCH  22  27
BRANCH  24  29
ATOM     29  O   UNL A   1      30.816  27.346  21.763  1.00  0.00    -0.493 OA
ATOM     30  C   UNL A   1      31.519  26.205  22.227  1.00  0.00     0.278 C 
ENDBRANCH  24  29
ENDBRANCH  17  21
BRANCH  19  31
ATOM     31  C   UNL A   1      34.691  30.631  27.492  1.00  0.00     0.000 A 
ATOM     32  C   UNL A   1      35.972  30.189  27.838  1.00  0.00     0.011 A 
ATOM     33  C   UNL A   1      34.354  31.983  27.616  1.00  0.00     0.011 A 
ATOM     34  C   UNL A   1      36.925  31.107  28.288  1.00  0.00     0.021 A 
ATOM     35  C   UNL A   1      35.304  32.894  28.081  1.00  0.00     0.021 A 
ATOM     36  C   UNL A   1      36.587  32.455  28.408  1.00  0.00     0.041 A 
ATOM     37  Cl  UNL A   1      37.757  33.585  28.962  1.00  0.00    -0.084 Cl
ENDBRANCH  19  31
ENDBRANCH  10  16
ENDBRANCH   8   9
ENDBRANCH   6   8
ENDBRANCH   5   6
ENDBRANCH   4   5
ENDBRANCH   3   4
ENDBRANCH   2   3
ENDBRANCH   1   2
BRANCH   1  38
ATOM     38  C   UNL A   1      40.572  22.207  26.637  1.00  0.00     0.188 C 
BRANCH  38  39
ATOM     39  O   UNL A   1      41.490  23.200  26.197  1.00  0.00    -0.376 OA
BRANCH  39  40
ATOM     40  C   UNL A   1      41.671  24.316  27.078  1.00  0.00     0.202 C 
BRANCH  40  41
ATOM     41  C   UNL A   1      41.244  25.691  26.522  1.00  0.00     0.261 C 
BRANCH  41  42
ATOM     42  O   UNL A   1      42.303  26.671  26.444  1.00  0.00    -0.460 OA
BRANCH  42  43
ATOM     43  C   UNL A   1      43.342  26.531  27.306  1.00  0.00     0.338 C 
ATOM     44  O   UNL A   1      44.406  26.004  27.075  1.00  0.00    -0.246 OA
BRANCH  43  45
ATOM     45  C   UNL A   1      43.066  27.379  28.500  1.00  0.00     0.060 A 
ATOM     46  C   UNL A   1      42.543  26.754  29.641  1.00  0.00     0.016 A 
ATOM     47  C   UNL A   1      43.386  28.739  28.539  1.00  0.00     0.016 A 
ATOM     48  C   UNL A   1      42.317  27.489  30.810  1.00  0.00     0.010 A 
ATOM     49  C   UNL A   1      43.145  29.478  29.704  1.00  0.00     0.010 A 
ATOM     50  C   UNL A   1      42.587  28.863  30.838  1.00  0.00    -0.014 A 
BRANCH  50  51
ATOM     51  C   UNL A   1      42.130  29.689  31.986  1.00  0.00     0.031 A 
ATOM     52  C   UNL A   1      42.978  29.720  33.229  1.00  0.00     0.074 A 
ATOM     53  C   UNL A   1      40.993  30.407  31.940  1.00  0.00     0.049 A 
ATOM     54  N   UNL A   1      42.761  30.322  34.371  1.00  0.00    -0.248 NA
ATOM     55  C   UNL A   1      44.243  28.969  33.174  1.00  0.00     0.031 C 
ATOM     56  C   UNL A   1      40.093  30.501  30.793  1.00  0.00     0.029 A 
ATOM     57  N   UNL A   1      40.398  31.190  32.900  1.00  0.00    -0.354 N 
ATOM     58  C   UNL A   1      43.855  30.020  35.169  1.00  0.00     0.074 A 
ATOM     59  C   UNL A   1      44.723  29.160  34.392  1.00  0.00     0.031 C 
ATOM     60  C   UNL A   1      39.050  31.284  31.122  1.00  0.00     0.029 A 
ATOM     61  C   UNL A   1      39.193  31.722  32.510  1.00  0.00     0.049 A 
ATOM     62  H   UNL A   1      40.798  31.356  33.784  1.00  0.00     0.167 HD
ATOM     63  C   UNL A   1      44.122  30.426  36.433  1.00  0.00     0.037 A 
ATOM     64  C   UNL A   1      38.297  32.456  33.203  1.00  0.00     0.037 A 
ATOM     65  C   UNL A   1      43.268  31.280  37.214  1.00  0.00     0.049 A 
ATOM     66  C   UNL A   1      38.579  32.828  34.637  1.00  0.00     0.074 A 
ATOM     67  C   UNL A   1      43.475  31.766  38.494  1.00  0.00     0.029 A 
ATOM     68  N   UNL A   1      42.040  31.766  36.797  1.00  0.00    -0.354 N 
ATOM     69  N   UNL A   1      39.633  32.568  35.371  1.00  0.00    -0.248 NA
ATOM     70  C   UNL A   1      37.539  33.597  35.341  1.00  0.00     0.031 C 
ATOM     71  C   UNL A   1      42.348  32.502  38.871  1.00  0.00     0.029 A 
ATOM     72  C   UNL A   1      41.462  32.518  37.806  1.00  0.00     0.049 A 
ATOM     73  H   UNL A   1      41.637  31.602  35.913  1.00  0.00     0.167 HD
ATOM     74  C   UNL A   1      39.396  33.157  36.608  1.00  0.00     0.074 A 
ATOM     75  C   UNL A   1      38.104  33.804  36.522  1.00  0.00     0.031 C 
ATOM     76  C   UNL A   1      40.178  33.162  37.715  1.00  0.00     0.037 A 
BRANCH  63  77
ATOM     77  C   UNL A   1      45.387  29.927  37.065  1.00  0.00     0.057 A 
ATOM     78  C   UNL A   1      46.580  30.657  37.008  1.00  0.00     0.134 A 
ATOM     79  C   UNL A   1      45.398  28.719  37.773  1.00  0.00     0.134 A 
ATOM     80  F   UNL A   1      46.638  31.815  36.332  1.00  0.00    -0.206 F 
ATOM     81  C   UNL A   1      47.745  30.196  37.621  1.00  0.00     0.040 A 
ATOM     82  C   UNL A   1      46.550  28.259  38.410  1.00  0.00     0.040 A 
ATOM     83  F   UNL A   1      44.287  27.974  37.865  1.00  0.00    -0.206 F 
ATOM     84  C   UNL A   1      47.730  28.996  38.331  1.00  0.00     0.006 A 
ENDBRANCH  63  77
BRANCH  64  85
ATOM     85  C   UNL A   1      37.019  32.870  32.568  1.00  0.00     0.057 A 
ATOM     86  C   UNL A   1      36.797  34.194  32.169  1.00  0.00     0.134 A 
ATOM     87  C   UNL A   1      35.967  31.961  32.396  1.00  0.00     0.134 A 
ATOM     88  F   UNL A   1      37.753  35.118  32.340  1.00  0.00    -0.206 F 
ATOM     89  C   UNL A   1      35.571  34.603  31.640  1.00  0.00     0.040 A 
ATOM     90  C   UNL A   1      34.745  32.351  31.844  1.00  0.00     0.040 A 
ATOM     91  F   UNL A   1      36.111  30.680  32.766  1.00  0.00    -0.206 F 
ATOM     92  C   UNL A   1      34.542  33.678  31.472  1.00  0.00     0.006 A 
ENDBRANCH  64  85
BRANCH  76  93
ATOM     93  C   UNL A   1      39.676  33.908  38.918  1.00  0.00     0.057 A 
ATOM     94  C   UNL A   1      38.718  33.362  39.780  1.00  0.00     0.134 A 
ATOM     95  C   UNL A   1      40.194  35.169  39.245  1.00  0.00     0.134 A 
ATOM     96  F   UNL A   1      38.172  32.164  39.520  1.00  0.00    -0.206 F 
ATOM     97  C   UNL A   1      38.277  34.051  40.913  1.00  0.00     0.040 A 
ATOM     98  C   UNL A   1      39.781  35.855  40.388  1.00  0.00     0.040 A 
ATOM     99  F   UNL A   1      41.124  35.745  38.469  1.00  0.00    -0.206 F 
ATOM    100  C   UNL A   1      38.815  35.299  41.223  1.00  0.00     0.006 A 
ENDBRANCH  76  93
ENDBRANCH  50  51
ENDBRANCH  43  45
ENDBRANCH  42  43
ENDBRANCH  41  42
ENDBRANCH  40  41
ENDBRANCH  39  40
ENDBRANCH  38  39
ENDBRANCH   1  38
TORSDOF 23
ENDMDL
MODEL 2
REMARK VINA RESULT:      -9.9      4.284      5.722
REMARK SMILES COc1ccc([C@@H]2CC(c3ccc(Cl)cc3)=NN2C2=[NH+]C(=O)[C@@H](CC(=O)OCCOCCOCCOC(=O)c3ccc(-c4c5nc(c(-c6c(F)cccc6F)c6ccc([nH]6)c(-c6c(F)cccc6F)c6nc(c(-c7c(F)cccc7F)c7ccc4[nH]7)C=C6)C=C5)cc3)S2)cc1OC
REMARK SMILES IDX 31 1 30 2 29 3 28 4 27 5 25 6 26 7 24 8 23 9 19 10 20 11
REMARK SMILES IDX 93 12 21 13 22 15 18 16 7 17 8 18 9 19 17 20 6 21 3 22 4 23
REMARK SMILES IDX 95 24 5 25 94 26 2 27 1 28 96 29 97 30 10 31 11 32 16 33
REMARK SMILES IDX 12 34 15 35 13 36 14 37 32 38 33 39 34 40 35 41 36 42 37 43
REMARK SMILES IDX 38 44 39 45 40 46 92 47 41 48 91 49 42 50 43 51 44 52 85 53
REMARK SMILES IDX 45 54 90 55 84 56 86 57 46 58 89 59 83 60 82 61 47 63 73 64
REMARK SMILES IDX 56 65 72 66 57 67 60 68 71 69 87 70 58 71 59 72 70 74 88 75
REMARK SMILES IDX 61 76 48 77 49 78 54 79 50 80 51 81 53 82 55 83 52 84 74 85
REMARK SMILES IDX 75 86 80 87 76 88 77 89 79 90 81 91 78 92 62 93 63 94 68 95
REMARK SMILES IDX 64 96 65 97 67 98 69 99 66 100
REMARK H PARENT 20 14 86 62 60 73
REMARK Flexibility Score: inf
ROOT
ATOM      1  C   UNL A   1      38.895  22.256  26.122  1.00  0.00     0.188 C 
ENDROOT
BRANCH   1   2
ATOM      2  O   UNL A   1      38.278  21.064  25.648  1.00  0.00    -0.376 OA
BRANCH   2   3
ATOM      3  C   UNL A   1      37.298  21.211  24.616  1.00  0.00     0.202 C 
BRANCH   3   4
ATOM      4  C   UNL A   1      36.159  22.198  24.909  1.00  0.00     0.261 C 
BRANCH   4   5
ATOM      5  O   UNL A   1      34.861  21.618  24.686  1.00  0.00    -0.463 OA
BRANCH   5   6
ATOM      6  C   UNL A   1      33.957  22.381  24.018  1.00  0.00     0.307 C 
ATOM      7  O   UNL A   1      34.039  22.700  22.838  1.00  0.00    -0.252 OA
BRANCH   6   8
ATOM      8  C   UNL A   1      32.736  22.705  24.849  1.00  0.00     0.150 C 
BRANCH   8   9
ATOM      9  C   UNL A   1      32.954  23.676  25.998  1.00  0.00     0.184 C 
ATOM     10  C   UNL A   1      32.645  26.190  26.219  1.00  0.00     0.340 C 
ATOM     11  N   UNL A   1      31.611  25.585  26.706  1.00  0.00    -0.202 N 
ATOM     12  S   UNL A   1      33.850  25.157  25.480  1.00  0.00    -0.020 SA
ATOM     13  C   UNL A   1      31.631  24.226  26.506  1.00  0.00     0.322 C 
ATOM     14  H   UNL A   1      30.882  26.054  27.174  1.00  0.00     0.316 HD
ATOM     15  O   UNL A   1      30.665  23.497  26.717  1.00  0.00    -0.246 OA
BRANCH  10  16
ATOM     16  N   UNL A   1      32.883  27.551  26.209  1.00  0.00    -0.120 N 
ATOM     17  C   UNL A   1      31.773  28.506  26.308  1.00  0.00     0.243 C 
ATOM     18  C   UNL A   1      32.373  29.704  27.037  1.00  0.00     0.118 C 
ATOM     19  C   UNL A   1      33.814  29.297  27.071  1.00  0.00     0.096 C 
ATOM     20  N   UNL A   1      34.072  28.107  26.630  1.00  0.00    -0.086 NA
BRANCH  17  21
ATOM     21  C   UNL A   1      31.159  28.867  24.969  1.00  0.00     0.003 A 
ATOM     22  C   UNL A   1      29.993  29.382  22.455  1.00  0.00     0.160 A 
ATOM     23  C   UNL A   1      30.055  30.385  23.434  1.00  0.00     0.051 A 
ATOM     24  C   UNL A   1      30.562  28.130  22.699  1.00  0.00     0.161 A 
ATOM     25  C   UNL A   1      30.634  30.131  24.683  1.00  0.00     0.012 A 
ATOM     26  C   UNL A   1      31.128  27.889  23.958  1.00  0.00     0.058 A 
BRANCH  22  27
ATOM     27  O   UNL A   1      29.438  29.701  21.246  1.00  0.00    -0.493 OA
ATOM     28  C   UNL A   1      28.748  30.951  21.309  1.00  0.00     0.278 C 
ENDBRANCH  22  27
BRANCH  24  29
ATOM     29  O   UNL A   1      30.677  27.056  21.863  1.00  0.00    -0.493 OA
ATOM     30  C   UNL A   1      31.816  26.220  21.980  1.00  0.00     0.278 C 
ENDBRANCH  24  29
ENDBRANCH  17  21
BRANCH  19  31
ATOM     31  C   UNL A   1      34.846  30.213  27.587  1.00  0.00     0.000 A 
ATOM     32  C   UNL A   1      34.585  31.586  27.622  1.00  0.00     0.011 A 
ATOM     33  C   UNL A   1      36.073  29.717  28.040  1.00  0.00     0.011 A 
ATOM     34  C   UNL A   1      35.546  32.463  28.133  1.00  0.00     0.021 A 
ATOM     35  C   UNL A   1      37.037  30.597  28.535  1.00  0.00     0.021 A 
ATOM     36  C   UNL A   1      36.767  31.964  28.586  1.00  0.00     0.041 A 
ATOM     37  Cl  UNL A   1      37.951  33.042  29.214  1.00  0.00    -0.084 Cl
ENDBRANCH  19  31
ENDBRANCH  10  16
ENDBRANCH   8   9
ENDBRANCH   6   8
ENDBRANCH   5   6
ENDBRANCH   4   5
ENDBRANCH   3   4
ENDBRANCH   2   3
ENDBRANCH   1   2
BRANCH   1  38
ATOM     38  C   UNL A   1      40.198  22.076  26.905  1.00  0.00     0.188 C 
BRANCH  38  39
ATOM     39  O   UNL A   1      41.306  22.827  26.427  1.00  0.00    -0.376 OA
BRANCH  39  40
ATOM     40  C   UNL A   1      41.415  24.166  26.928  1.00  0.00     0.202 C 
BRANCH  40  41
ATOM     41  C   UNL A   1      40.654  25.249  26.134  1.00  0.00     0.261 C 
BRANCH  41  42
ATOM     42  O   UNL A   1      41.446  25.954  25.153  1.00  0.00    -0.460 OA
BRANCH  42  43
ATOM     43  C   UNL A   1      42.759  26.147  25.440  1.00  0.00     0.338 C 
ATOM     44  O   UNL A   1      43.694  25.517  25.003  1.00  0.00    -0.246 OA
BRANCH  43  45
ATOM     45  C   UNL A   1      42.884  27.442  26.167  1.00  0.00     0.060 A 
ATOM     46  C   UNL A   1      43.843  27.533  27.186  1.00  0.00     0.016 A 
ATOM     47  C   UNL A   1      42.141  28.572  25.811  1.00  0.00     0.016 A 
ATOM     48  C   UNL A   1      44.045  28.740  27.863  1.00  0.00     0.010 A 
ATOM     49  C   UNL A   1      42.331  29.776  26.500  1.00  0.00     0.010 A 
ATOM     50  C   UNL A   1      43.267  29.861  27.546  1.00  0.00    -0.014 A 
BRANCH  50  51
ATOM     51  C   UNL A   1      43.307  31.066  28.415  1.00  0.00     0.031 A 
ATOM     52  C   UNL A   1      44.373  32.097  28.160  1.00  0.00     0.074 A 
ATOM     53  C   UNL A   1      42.421  31.259  29.408  1.00  0.00     0.049 A 
ATOM     54  N   UNL A   1      44.641  33.199  28.815  1.00  0.00    -0.248 NA
ATOM     55  C   UNL A   1      45.258  31.850  27.009  1.00  0.00     0.031 C 
ATOM     56  C   UNL A   1      41.316  30.366  29.747  1.00  0.00     0.029 A 
ATOM     57  N   UNL A   1      42.324  32.279  30.326  1.00  0.00    -0.354 N 
ATOM     58  C   UNL A   1      45.723  33.773  28.160  1.00  0.00     0.074 A 
ATOM     59  C   UNL A   1      46.080  32.886  27.073  1.00  0.00     0.031 C 
ATOM     60  C   UNL A   1      40.661  30.869  30.809  1.00  0.00     0.029 A 
ATOM     61  C   UNL A   1      41.317  32.101  31.244  1.00  0.00     0.049 A 
ATOM     62  H   UNL A   1      42.919  33.063  30.325  1.00  0.00     0.167 HD
ATOM     63  C   UNL A   1      46.359  34.936  28.431  1.00  0.00     0.037 A 
ATOM     64  C   UNL A   1      40.982  32.836  32.325  1.00  0.00     0.037 A 
ATOM     65  C   UNL A   1      46.013  35.826  29.508  1.00  0.00     0.049 A 
ATOM     66  C   UNL A   1      41.758  34.086  32.654  1.00  0.00     0.074 A 
ATOM     67  C   UNL A   1      46.586  37.042  29.837  1.00  0.00     0.029 A 
ATOM     68  N   UNL A   1      45.012  35.591  30.436  1.00  0.00    -0.354 N 
ATOM     69  N   UNL A   1      42.756  34.638  32.008  1.00  0.00    -0.248 NA
ATOM     70  C   UNL A   1      41.359  34.816  33.870  1.00  0.00     0.031 C 
ATOM     71  C   UNL A   1      45.967  37.518  30.997  1.00  0.00     0.029 A 
ATOM     72  C   UNL A   1      44.974  36.623  31.359  1.00  0.00     0.049 A 
ATOM     73  H   UNL A   1      44.415  34.807  30.439  1.00  0.00     0.167 HD
ATOM     74  C   UNL A   1      43.087  35.786  32.721  1.00  0.00     0.074 A 
ATOM     75  C   UNL A   1      42.173  35.861  33.841  1.00  0.00     0.031 C 
ATOM     76  C   UNL A   1      44.060  36.695  32.470  1.00  0.00     0.037 A 
BRANCH  63  77
ATOM     77  C   UNL A   1      47.521  35.306  27.558  1.00  0.00     0.057 A 
ATOM     78  C   UNL A   1      48.812  34.822  27.802  1.00  0.00     0.134 A 
ATOM     79  C   UNL A   1      47.334  36.123  26.437  1.00  0.00     0.134 A 
ATOM     80  F   UNL A   1      49.059  34.047  28.869  1.00  0.00    -0.206 F 
ATOM     81  C   UNL A   1      49.881  35.152  26.968  1.00  0.00     0.040 A 
ATOM     82  C   UNL A   1      48.390  36.440  25.583  1.00  0.00     0.040 A 
ATOM     83  F   UNL A   1      46.120  36.616  26.148  1.00  0.00    -0.206 F 
ATOM     84  C   UNL A   1      49.669  35.957  25.850  1.00  0.00     0.006 A 
ENDBRANCH  63  77
BRANCH  64  85
ATOM     85  C   UNL A   1      39.872  32.398  33.211  1.00  0.00     0.057 A 
ATOM     86  C   UNL A   1      38.597  32.970  33.119  1.00  0.00     0.134 A 
ATOM     87  C   UNL A   1      40.076  31.436  34.207  1.00  0.00     0.134 A 
ATOM     88  F   UNL A   1      38.348  33.922  32.209  1.00  0.00    -0.206 F 
ATOM     89  C   UNL A   1      37.571  32.615  33.999  1.00  0.00     0.040 A 
ATOM     90  C   UNL A   1      39.052  31.053  35.076  1.00  0.00     0.040 A 
ATOM     91  F   UNL A   1      41.276  30.857  34.354  1.00  0.00    -0.206 F 
ATOM     92  C   UNL A   1      37.797  31.650  34.978  1.00  0.00     0.006 A 
ENDBRANCH  64  85
BRANCH  76  93
ATOM     93  C   UNL A   1      44.178  37.865  33.404  1.00  0.00     0.057 A 
ATOM     94  C   UNL A   1      44.849  37.768  34.630  1.00  0.00     0.134 A 
ATOM     95  C   UNL A   1      43.655  39.116  33.053  1.00  0.00     0.134 A 
ATOM     96  F   UNL A   1      45.364  36.597  35.033  1.00  0.00    -0.206 F 
ATOM     97  C   UNL A   1      44.978  38.869  35.481  1.00  0.00     0.040 A 
ATOM     98  C   UNL A   1      43.800  40.229  33.882  1.00  0.00     0.040 A 
ATOM     99  F   UNL A   1      43.011  39.283  31.888  1.00  0.00    -0.206 F 
ATOM    100  C   UNL A   1      44.458  40.106  35.104  1.00  0.00     0.006 A 
ENDBRANCH  76  93
ENDBRANCH  50  51
ENDBRANCH  43  45
ENDBRANCH  42  43
ENDBRANCH  41  42
ENDBRANCH  40  41
ENDBRANCH  39  40
ENDBRANCH  38  39
ENDBRANCH   1  38
TORSDOF 23
ENDMDL
MODEL 3
REMARK VINA RESULT:      -9.7      5.080     10.277
REMARK SMILES COc1ccc([C@@H]2CC(c3ccc(Cl)cc3)=NN2C2=[NH+]C(=O)[C@@H](CC(=O)OCCOCCOCCOC(=O)c3ccc(-c4c5nc(c(-c6c(F)cccc6F)c6ccc([nH]6)c(-c6c(F)cccc6F)c6nc(c(-c7c(F)cccc7F)c7ccc4[nH]7)C=C6)C=C5)cc3)S2)cc1OC
REMARK SMILES IDX 31 1 30 2 29 3 28 4 27 5 25 6 26 7 24 8 23 9 19 10 20 11
REMARK SMILES IDX 93 12 21 13 22 15 18 16 7 17 8 18 9 19 17 20 6 21 3 22 4 23
REMARK SMILES IDX 95 24 5 25 94 26 2 27 1 28 96 29 97 30 10 31 11 32 16 33
REMARK SMILES IDX 12 34 15 35 13 36 14 37 32 38 33 39 34 40 35 41 36 42 37 43
REMARK SMILES IDX 38 44 39 45 40 46 92 47 41 48 91 49 42 50 43 51 44 52 85 53
REMARK SMILES IDX 45 54 90 55 84 56 86 57 46 58 89 59 83 60 82 61 47 63 73 64
REMARK SMILES IDX 56 65 72 66 57 67 60 68 71 69 87 70 58 71 59 72 70 74 88 75
REMARK SMILES IDX 61 76 48 77 49 78 54 79 50 80 51 81 53 82 55 83 52 84 74 85
REMARK SMILES IDX 75 86 80 87 76 88 77 89 79 90 81 91 78 92 62 93 63 94 68 95
REMARK SMILES IDX 64 96 65 97 67 98 69 99 66 100
REMARK H PARENT 20 14 86 62 60 73
REMARK Flexibility Score: inf
ROOT
ATOM      1  C   UNL A   1      34.646  23.896  25.203  1.00  0.00     0.188 C 
ENDROOT
BRANCH   1   2
ATOM      2  O   UNL A   1      33.911  25.072  24.882  1.00  0.00    -0.376 OA
BRANCH   2   3
ATOM      3  C   UNL A   1      33.179  25.060  23.653  1.00  0.00     0.202 C 
BRANCH   3   4
ATOM      4  C   UNL A   1      32.322  26.301  23.371  1.00  0.00     0.261 C 
BRANCH   4   5
ATOM      5  O   UNL A   1      32.326  27.231  24.470  1.00  0.00    -0.463 OA
BRANCH   5   6
ATOM      6  C   UNL A   1      32.910  28.437  24.246  1.00  0.00     0.307 C 
ATOM      7  O   UNL A   1      33.723  28.673  23.360  1.00  0.00    -0.252 OA
BRANCH   6   8
ATOM      8  C   UNL A   1      32.354  29.529  25.132  1.00  0.00     0.150 C 
BRANCH   8   9
ATOM      9  C   UNL A   1      32.779  29.483  26.590  1.00  0.00     0.184 C 
ATOM     10  C   UNL A   1      34.881  30.241  27.803  1.00  0.00     0.340 C 
ATOM     11  N   UNL A   1      33.964  31.145  27.926  1.00  0.00    -0.202 N 
ATOM     12  S   UNL A   1      34.469  28.874  26.789  1.00  0.00    -0.020 SA
ATOM     13  C   UNL A   1      32.836  30.880  27.186  1.00  0.00     0.322 C 
ATOM     14  H   UNL A   1      34.065  31.943  28.494  1.00  0.00     0.316 HD
ATOM     15  O   UNL A   1      31.935  31.696  27.013  1.00  0.00    -0.246 OA
BRANCH  10  16
ATOM     16  N   UNL A   1      36.141  30.254  28.370  1.00  0.00    -0.120 N 
ATOM     17  C   UNL A   1      36.312  30.098  29.819  1.00  0.00     0.243 C 
ATOM     18  C   UNL A   1      37.656  29.391  29.965  1.00  0.00     0.118 C 
ATOM     19  C   UNL A   1      38.126  29.425  28.543  1.00  0.00     0.096 C 
ATOM     20  N   UNL A   1      37.277  29.884  27.680  1.00  0.00    -0.086 NA
BRANCH  17  21
ATOM     21  C   UNL A   1      36.239  31.405  30.585  1.00  0.00     0.003 A 
ATOM     22  C   UNL A   1      36.254  33.859  31.970  1.00  0.00     0.160 A 
ATOM     23  C   UNL A   1      35.048  33.294  31.531  1.00  0.00     0.051 A 
ATOM     24  C   UNL A   1      37.458  33.180  31.773  1.00  0.00     0.161 A 
ATOM     25  C   UNL A   1      35.038  32.075  30.843  1.00  0.00     0.012 A 
ATOM     26  C   UNL A   1      37.433  31.967  31.074  1.00  0.00     0.058 A 
BRANCH  22  27
ATOM     27  O   UNL A   1      36.195  35.040  32.660  1.00  0.00    -0.493 OA
ATOM     28  C   UNL A   1      34.841  35.433  32.893  1.00  0.00     0.278 C 
ENDBRANCH  22  27
BRANCH  24  29
ATOM     29  O   UNL A   1      38.717  33.515  32.187  1.00  0.00    -0.493 OA
ATOM     30  C   UNL A   1      39.361  32.692  33.145  1.00  0.00     0.278 C 
ENDBRANCH  24  29
ENDBRANCH  17  21
BRANCH  19  31
ATOM     31  C   UNL A   1      39.474  28.951  28.182  1.00  0.00     0.000 A 
ATOM     32  C   UNL A   1      40.282  28.377  29.167  1.00  0.00     0.011 A 
ATOM     33  C   UNL A   1      39.940  29.072  26.869  1.00  0.00     0.011 A 
ATOM     34  C   UNL A   1      41.553  27.900  28.832  1.00  0.00     0.021 A 
ATOM     35  C   UNL A   1      41.216  28.610  26.541  1.00  0.00     0.021 A 
ATOM     36  C   UNL A   1      42.014  28.020  27.521  1.00  0.00     0.041 A 
ATOM     37  Cl  UNL A   1      43.577  27.436  27.107  1.00  0.00    -0.084 Cl
ENDBRANCH  19  31
ENDBRANCH  10  16
ENDBRANCH   8   9
ENDBRANCH   6   8
ENDBRANCH   5   6
ENDBRANCH   4   5
ENDBRANCH   3   4
ENDBRANCH   2   3
ENDBRANCH   1   2
BRANCH   1  38
ATOM     38  C   UNL A   1      34.032  22.570  24.747  1.00  0.00     0.188 C 
BRANCH  38  39
ATOM     39  O   UNL A   1      34.908  21.451  24.770  1.00  0.00    -0.376 OA
BRANCH  39  40
ATOM     40  C   UNL A   1      36.088  21.599  25.571  1.00  0.00     0.202 C 
BRANCH  40  41
ATOM     41  C   UNL A   1      37.280  20.695  25.191  1.00  0.00     0.261 C 
BRANCH  41  42
ATOM     42  O   UNL A   1      38.580  21.303  25.352  1.00  0.00    -0.460 OA
BRANCH  42  43
ATOM     43  C   UNL A   1      39.584  20.507  25.805  1.00  0.00     0.338 C 
ATOM     44  O   UNL A   1      39.654  19.305  25.702  1.00  0.00    -0.246 OA
BRANCH  43  45
ATOM     45  C   UNL A   1      40.720  21.385  26.205  1.00  0.00     0.060 A 
ATOM     46  C   UNL A   1      41.995  20.808  26.292  1.00  0.00     0.016 A 
ATOM     47  C   UNL A   1      40.565  22.759  26.411  1.00  0.00     0.016 A 
ATOM     48  C   UNL A   1      43.108  21.594  26.607  1.00  0.00     0.010 A 
ATOM     49  C   UNL A   1      41.676  23.543  26.743  1.00  0.00     0.010 A 
ATOM     50  C   UNL A   1      42.950  22.962  26.866  1.00  0.00    -0.014 A 
BRANCH  50  51
ATOM     51  C   UNL A   1      44.078  23.749  27.431  1.00  0.00     0.031 A 
ATOM     52  C   UNL A   1      44.173  23.893  28.925  1.00  0.00     0.074 A 
ATOM     53  C   UNL A   1      45.009  24.323  26.647  1.00  0.00     0.049 A 
ATOM     54  N   UNL A   1      45.032  24.571  29.644  1.00  0.00    -0.248 NA
ATOM     55  C   UNL A   1      43.161  23.174  29.716  1.00  0.00     0.031 C 
ATOM     56  C   UNL A   1      45.064  24.238  25.190  1.00  0.00     0.029 A 
ATOM     57  N   UNL A   1      46.088  25.107  26.980  1.00  0.00    -0.354 N 
ATOM     58  C   UNL A   1      44.662  24.365  30.966  1.00  0.00     0.074 A 
ATOM     59  C   UNL A   1      43.487  23.520  30.951  1.00  0.00     0.031 C 
ATOM     60  C   UNL A   1      46.114  24.956  24.752  1.00  0.00     0.029 A 
ATOM     61  C   UNL A   1      46.786  25.576  25.894  1.00  0.00     0.049 A 
ATOM     62  H   UNL A   1      46.338  25.313  27.910  1.00  0.00     0.167 HD
ATOM     63  C   UNL A   1      45.250  24.828  32.094  1.00  0.00     0.037 A 
ATOM     64  C   UNL A   1      47.831  26.427  25.828  1.00  0.00     0.037 A 
ATOM     65  C   UNL A   1      46.419  25.667  32.122  1.00  0.00     0.049 A 
ATOM     66  C   UNL A   1      48.419  26.995  27.095  1.00  0.00     0.074 A 
ATOM     67  C   UNL A   1      47.099  26.158  33.222  1.00  0.00     0.029 A 
ATOM     68  N   UNL A   1      47.073  26.149  31.000  1.00  0.00    -0.354 N 
ATOM     69  N   UNL A   1      48.084  26.765  28.341  1.00  0.00    -0.248 NA
ATOM     70  C   UNL A   1      49.532  27.947  26.944  1.00  0.00     0.031 C 
ATOM     71  C   UNL A   1      48.134  26.981  32.766  1.00  0.00     0.029 A 
ATOM     72  C   UNL A   1      48.128  26.960  31.381  1.00  0.00     0.049 A 
ATOM     73  H   UNL A   1      46.825  25.944  30.068  1.00  0.00     0.167 HD
ATOM     74  C   UNL A   1      48.956  27.520  29.119  1.00  0.00     0.074 A 
ATOM     75  C   UNL A   1      49.846  28.204  28.206  1.00  0.00     0.031 C 
ATOM     76  C   UNL A   1      49.013  27.636  30.468  1.00  0.00     0.037 A 
BRANCH  63  77
ATOM     77  C   UNL A   1      44.620  24.455  33.403  1.00  0.00     0.057 A 
ATOM     78  C   UNL A   1      43.672  25.274  34.027  1.00  0.00     0.134 A 
ATOM     79  C   UNL A   1      44.938  23.240  34.023  1.00  0.00     0.134 A 
ATOM     80  F   UNL A   1      43.336  26.458  33.491  1.00  0.00    -0.206 F 
ATOM     81  C   UNL A   1      43.073  24.906  35.232  1.00  0.00     0.040 A 
ATOM     82  C   UNL A   1      44.328  22.850  35.214  1.00  0.00     0.040 A 
ATOM     83  F   UNL A   1      45.837  22.410  33.474  1.00  0.00    -0.206 F 
ATOM     84  C   UNL A   1      43.395  23.686  35.825  1.00  0.00     0.006 A 
ENDBRANCH  63  77
BRANCH  64  85
ATOM     85  C   UNL A   1      48.382  26.834  24.509  1.00  0.00     0.057 A 
ATOM     86  C   UNL A   1      49.660  26.435  24.098  1.00  0.00     0.134 A 
ATOM     87  C   UNL A   1      47.664  27.676  23.651  1.00  0.00     0.134 A 
ATOM     88  F   UNL A   1      50.412  25.658  24.891  1.00  0.00    -0.206 F 
ATOM     89  C   UNL A   1      50.212  26.876  22.893  1.00  0.00     0.040 A 
ATOM     90  C   UNL A   1      48.193  28.103  22.432  1.00  0.00     0.040 A 
ATOM     91  F   UNL A   1      46.438  28.101  23.990  1.00  0.00    -0.206 F 
ATOM     92  C   UNL A   1      49.475  27.708  22.053  1.00  0.00     0.006 A 
ENDBRANCH  64  85
BRANCH  76  93
ATOM     93  C   UNL A   1      50.086  28.513  31.047  1.00  0.00     0.057 A 
ATOM     94  C   UNL A   1      51.370  28.027  31.323  1.00  0.00     0.134 A 
ATOM     95  C   UNL A   1      49.847  29.873  31.285  1.00  0.00     0.134 A 
ATOM     96  F   UNL A   1      51.664  26.732  31.128  1.00  0.00    -0.206 F 
ATOM     97  C   UNL A   1      52.371  28.857  31.835  1.00  0.00     0.040 A 
ATOM     98  C   UNL A   1      50.846  30.717  31.772  1.00  0.00     0.040 A 
ATOM     99  F   UNL A   1      48.643  30.408  31.031  1.00  0.00    -0.206 F 
ATOM    100  C   UNL A   1      52.111  30.208  32.055  1.00  0.00     0.006 A 
ENDBRANCH  76  93
ENDBRANCH  50  51
ENDBRANCH  43  45
ENDBRANCH  42  43
ENDBRANCH  41  42
ENDBRANCH  40  41
ENDBRANCH  39  40
ENDBRANCH  38  39
ENDBRANCH   1  38
TORSDOF 23
ENDMDL
