MODEL 1
REMARK VINA RESULT:     -10.5      0.000      0.000
REMARK SMILES CC[C@@H](NC(=O)N1CCO[C@H](CC(=O)OCCOCCOCCOC(=O)c2ccc(-c3c4nc(c(-c5c(F)cccc5F)c5ccc([nH]5)c(-c5c(F)cccc5F)c5nc(c(-c6c(F)cccc6F)c6ccc3[nH]6)C=C5)C=C4)cc2)C1)c1cccs1
REMARK SMILES IDX 19 1 18 2 17 3 16 4 15 5 13 6 14 7 12 8 11 9 7 10 8 11 81 12
REMARK SMILES IDX 9 13 10 14 5 15 4 16 6 18 3 19 2 20 1 21 82 22 83 23 86 24
REMARK SMILES IDX 84 25 85 26 20 27 21 28 22 29 23 30 24 31 25 32 26 33 27 34
REMARK SMILES IDX 28 35 80 36 29 37 79 38 30 39 31 40 32 41 73 42 33 43 78 44
REMARK SMILES IDX 72 45 74 46 34 47 77 48 71 49 70 50 35 52 61 53 44 54 60 55
REMARK SMILES IDX 45 56 48 57 59 58 75 59 46 60 47 61 58 63 76 64 49 65 36 66
REMARK SMILES IDX 37 67 42 68 38 69 39 70 41 71 43 72 40 73 62 74 63 75 68 76
REMARK SMILES IDX 64 77 65 78 67 79 69 80 66 81 50 82 51 83 56 84 52 85 53 86
REMARK SMILES IDX 55 87 57 88 54 89
REMARK H PARENT 4 17 74 51 48 62
REMARK Flexibility Score: inf
ROOT
ATOM      1  C   UNL A   1      41.399  20.847  27.161  1.00  0.00     0.188 C 
ENDROOT
BRANCH   1   2
ATOM      2  O   UNL A   1      40.073  21.354  27.258  1.00  0.00    -0.376 OA
BRANCH   2   3
ATOM      3  C   UNL A   1      39.571  22.175  26.214  1.00  0.00     0.202 C 
BRANCH   3   4
ATOM      4  C   UNL A   1      38.115  21.978  25.770  1.00  0.00     0.261 C 
BRANCH   4   5
ATOM      5  O   UNL A   1      37.272  23.159  25.799  1.00  0.00    -0.463 OA
BRANCH   5   6
ATOM      6  C   UNL A   1      35.945  22.947  25.919  1.00  0.00     0.308 C 
ATOM      7  O   UNL A   1      35.480  21.942  26.457  1.00  0.00    -0.252 OA
BRANCH   6   8
ATOM      8  C   UNL A   1      34.986  23.976  25.346  1.00  0.00     0.156 C 
BRANCH   8   9
ATOM      9  C   UNL A   1      34.732  24.521  23.919  1.00  0.00     0.149 C 
ATOM     10  N   UNL A   1      32.342  24.092  23.908  1.00  0.00    -0.320 N 
ATOM     11  C   UNL A   1      32.445  23.246  22.730  1.00  0.00     0.150 C 
ATOM     12  C   UNL A   1      33.328  25.175  23.876  1.00  0.00     0.154 C 
ATOM     13  C   UNL A   1      33.861  22.679  22.626  1.00  0.00     0.182 C 
ATOM     14  O   UNL A   1      34.877  23.679  22.770  1.00  0.00    -0.374 OA
BRANCH  10  15
ATOM     15  C   UNL A   1      31.489  23.973  24.962  1.00  0.00     0.318 C 
ATOM     16  N   UNL A   1      31.222  25.025  25.774  1.00  0.00    -0.330 N 
ATOM     17  H   UNL A   1      31.640  24.984  26.665  1.00  0.00     0.166 HD
ATOM     18  O   UNL A   1      30.958  22.897  25.243  1.00  0.00    -0.249 OA
BRANCH  16  19
ATOM     19  C   UNL A   1      30.394  26.227  25.517  1.00  0.00     0.124 C 
BRANCH  19  20
ATOM     20  C   UNL A   1      29.772  26.278  24.101  1.00  0.00     0.027 C 
ATOM     21  C   UNL A   1      28.280  26.583  24.098  1.00  0.00     0.006 C 
ENDBRANCH  19  20
BRANCH  19  22
ATOM     22  C   UNL A   1      31.061  27.520  25.938  1.00  0.00     0.027 A 
ATOM     23  C   UNL A   1      31.514  27.919  27.185  1.00  0.00     0.017 A 
ATOM     24  S   UNL A   1      31.552  28.679  24.754  1.00  0.00    -0.147 S 
ATOM     25  C   UNL A   1      31.972  29.268  27.210  1.00  0.00     0.012 A 
ATOM     26  C   UNL A   1      31.968  29.825  25.954  1.00  0.00     0.065 A 
ENDBRANCH  19  22
ENDBRANCH  16  19
ENDBRANCH  10  15
ENDBRANCH   8   9
ENDBRANCH   6   8
ENDBRANCH   5   6
ENDBRANCH   4   5
ENDBRANCH   3   4
ENDBRANCH   2   3
ENDBRANCH   1   2
BRANCH   1  27
ATOM     27  C   UNL A   1      41.692  19.662  26.227  1.00  0.00     0.188 C 
BRANCH  27  28
ATOM     28  O   UNL A   1      42.709  19.895  25.274  1.00  0.00    -0.376 OA
BRANCH  28  29
ATOM     29  C   UNL A   1      43.781  20.715  25.693  1.00  0.00     0.202 C 
BRANCH  29  30
ATOM     30  C   UNL A   1      44.212  21.797  24.690  1.00  0.00     0.261 C 
BRANCH  30  31
ATOM     31  O   UNL A   1      43.501  23.049  24.768  1.00  0.00    -0.460 OA
BRANCH  31  32
ATOM     32  C   UNL A   1      44.228  24.161  25.018  1.00  0.00     0.338 C 
ATOM     33  O   UNL A   1      45.294  24.467  24.503  1.00  0.00    -0.246 OA
BRANCH  32  34
ATOM     34  C   UNL A   1      43.408  25.079  25.846  1.00  0.00     0.060 A 
ATOM     35  C   UNL A   1      43.762  26.435  25.917  1.00  0.00     0.016 A 
ATOM     36  C   UNL A   1      42.291  24.612  26.545  1.00  0.00     0.016 A 
ATOM     37  C   UNL A   1      43.045  27.310  26.737  1.00  0.00     0.010 A 
ATOM     38  C   UNL A   1      41.586  25.485  27.383  1.00  0.00     0.010 A 
ATOM     39  C   UNL A   1      41.992  26.825  27.524  1.00  0.00    -0.014 A 
BRANCH  39  40
ATOM     40  C   UNL A   1      41.513  27.633  28.678  1.00  0.00     0.031 A 
ATOM     41  C   UNL A   1      42.260  27.504  29.983  1.00  0.00     0.074 A 
ATOM     42  C   UNL A   1      40.486  28.496  28.578  1.00  0.00     0.049 A 
ATOM     43  N   UNL A   1      42.034  28.079  31.137  1.00  0.00    -0.248 NA
ATOM     44  C   UNL A   1      43.422  26.599  29.982  1.00  0.00     0.031 C 
ATOM     45  C   UNL A   1      39.707  28.756  27.370  1.00  0.00     0.029 A 
ATOM     46  N   UNL A   1      39.922  29.317  29.526  1.00  0.00    -0.354 N 
ATOM     47  C   UNL A   1      43.022  27.605  31.993  1.00  0.00     0.074 A 
ATOM     48  C   UNL A   1      43.819  26.662  31.243  1.00  0.00     0.031 C 
ATOM     49  C   UNL A   1      38.762  29.672  27.651  1.00  0.00     0.029 A 
ATOM     50  C   UNL A   1      38.849  30.040  29.064  1.00  0.00     0.049 A 
ATOM     51  H   UNL A   1      40.256  29.381  30.450  1.00  0.00     0.167 HD
ATOM     52  C   UNL A   1      43.260  27.937  33.283  1.00  0.00     0.037 A 
ATOM     53  C   UNL A   1      38.026  30.889  29.715  1.00  0.00     0.037 A 
ATOM     54  C   UNL A   1      42.471  28.872  34.038  1.00  0.00     0.049 A 
ATOM     55  C   UNL A   1      38.256  31.170  31.181  1.00  0.00     0.074 A 
ATOM     56  C   UNL A   1      42.632  29.274  35.352  1.00  0.00     0.029 A 
ATOM     57  N   UNL A   1      41.367  29.549  33.545  1.00  0.00    -0.354 N 
ATOM     58  N   UNL A   1      39.207  30.735  31.973  1.00  0.00    -0.248 NA
ATOM     59  C   UNL A   1      37.297  32.069  31.841  1.00  0.00     0.031 C 
ATOM     60  C   UNL A   1      41.595  30.155  35.670  1.00  0.00     0.029 A 
ATOM     61  C   UNL A   1      40.823  30.349  34.537  1.00  0.00     0.049 A 
ATOM     62  H   UNL A   1      41.020  29.473  32.627  1.00  0.00     0.167 HD
ATOM     63  C   UNL A   1      38.981  31.334  33.208  1.00  0.00     0.074 A 
ATOM     64  C   UNL A   1      37.816  32.180  33.055  1.00  0.00     0.031 C 
ATOM     65  C   UNL A   1      39.671  31.198  34.367  1.00  0.00     0.037 A 
BRANCH  52  66
ATOM     66  C   UNL A   1      44.419  27.269  33.966  1.00  0.00     0.057 A 
ATOM     67  C   UNL A   1      45.697  27.844  33.984  1.00  0.00     0.134 A 
ATOM     68  C   UNL A   1      44.248  26.055  34.641  1.00  0.00     0.134 A 
ATOM     69  F   UNL A   1      45.934  28.997  33.341  1.00  0.00    -0.206 F 
ATOM     70  C   UNL A   1      46.768  27.224  34.631  1.00  0.00     0.040 A 
ATOM     71  C   UNL A   1      45.303  25.440  35.317  1.00  0.00     0.040 A 
ATOM     72  F   UNL A   1      43.050  25.451  34.665  1.00  0.00    -0.206 F 
ATOM     73  C   UNL A   1      46.569  26.021  35.307  1.00  0.00     0.006 A 
ENDBRANCH  52  66
BRANCH  53  74
ATOM     74  C   UNL A   1      36.888  31.536  29.008  1.00  0.00     0.057 A 
ATOM     75  C   UNL A   1      36.938  32.882  28.626  1.00  0.00     0.134 A 
ATOM     76  C   UNL A   1      35.693  30.845  28.764  1.00  0.00     0.134 A 
ATOM     77  F   UNL A   1      38.043  33.608  28.858  1.00  0.00    -0.206 F 
ATOM     78  C   UNL A   1      35.837  33.528  28.062  1.00  0.00     0.040 A 
ATOM     79  C   UNL A   1      34.594  31.470  28.172  1.00  0.00     0.040 A 
ATOM     80  F   UNL A   1      35.573  29.556  29.110  1.00  0.00    -0.206 F 
ATOM     81  C   UNL A   1      34.659  32.819  27.831  1.00  0.00     0.006 A 
ENDBRANCH  53  74
BRANCH  65  82
ATOM     82  C   UNL A   1      39.217  32.014  35.545  1.00  0.00     0.057 A 
ATOM     83  C   UNL A   1      39.618  33.344  35.730  1.00  0.00     0.134 A 
ATOM     84  C   UNL A   1      38.344  31.468  36.496  1.00  0.00     0.134 A 
ATOM     85  F   UNL A   1      40.459  33.927  34.863  1.00  0.00    -0.206 F 
ATOM     86  C   UNL A   1      39.198  34.087  36.835  1.00  0.00     0.040 A 
ATOM     87  C   UNL A   1      37.890  32.211  37.586  1.00  0.00     0.040 A 
ATOM     88  F   UNL A   1      37.905  30.205  36.375  1.00  0.00    -0.206 F 
ATOM     89  C   UNL A   1      38.327  33.522  37.764  1.00  0.00     0.006 A 
ENDBRANCH  65  82
ENDBRANCH  39  40
ENDBRANCH  32  34
ENDBRANCH  31  32
ENDBRANCH  30  31
ENDBRANCH  29  30
ENDBRANCH  28  29
ENDBRANCH  27  28
ENDBRANCH   1  27
TORSDOF 22
ENDMDL
MODEL 2
REMARK VINA RESULT:     -10.4      1.845      3.250
REMARK SMILES CC[C@@H](NC(=O)N1CCO[C@H](CC(=O)OCCOCCOCCOC(=O)c2ccc(-c3c4nc(c(-c5c(F)cccc5F)c5ccc([nH]5)c(-c5c(F)cccc5F)c5nc(c(-c6c(F)cccc6F)c6ccc3[nH]6)C=C5)C=C4)cc2)C1)c1cccs1
REMARK SMILES IDX 19 1 18 2 17 3 16 4 15 5 13 6 14 7 12 8 11 9 7 10 8 11 81 12
REMARK SMILES IDX 9 13 10 14 5 15 4 16 6 18 3 19 2 20 1 21 82 22 83 23 86 24
REMARK SMILES IDX 84 25 85 26 20 27 21 28 22 29 23 30 24 31 25 32 26 33 27 34
REMARK SMILES IDX 28 35 80 36 29 37 79 38 30 39 31 40 32 41 73 42 33 43 78 44
REMARK SMILES IDX 72 45 74 46 34 47 77 48 71 49 70 50 35 52 61 53 44 54 60 55
REMARK SMILES IDX 45 56 48 57 59 58 75 59 46 60 47 61 58 63 76 64 49 65 36 66
REMARK SMILES IDX 37 67 42 68 38 69 39 70 41 71 43 72 40 73 62 74 63 75 68 76
REMARK SMILES IDX 64 77 65 78 67 79 69 80 66 81 50 82 51 83 56 84 52 85 53 86
REMARK SMILES IDX 55 87 57 88 54 89
REMARK H PARENT 4 17 74 51 48 62
REMARK Flexibility Score: inf
ROOT
ATOM      1  C   UNL A   1      44.709  18.487  25.695  1.00  0.00     0.188 C 
ENDROOT
BRANCH   1   2
ATOM      2  O   UNL A   1      43.341  18.133  25.868  1.00  0.00    -0.376 OA
BRANCH   2   3
ATOM      3  C   UNL A   1      42.481  19.027  26.560  1.00  0.00     0.202 C 
BRANCH   3   4
ATOM      4  C   UNL A   1      41.429  19.797  25.751  1.00  0.00     0.261 C 
BRANCH   4   5
ATOM      5  O   UNL A   1      40.137  19.976  26.387  1.00  0.00    -0.463 OA
BRANCH   5   6
ATOM      6  C   UNL A   1      39.674  21.240  26.463  1.00  0.00     0.308 C 
ATOM      7  O   UNL A   1      40.204  22.099  27.169  1.00  0.00    -0.252 OA
BRANCH   6   8
ATOM      8  C   UNL A   1      38.436  21.616  25.666  1.00  0.00     0.156 C 
BRANCH   8   9
ATOM      9  C   UNL A   1      37.500  22.848  25.667  1.00  0.00     0.149 C 
ATOM     10  N   UNL A   1      35.513  21.656  24.940  1.00  0.00    -0.320 N 
ATOM     11  C   UNL A   1      35.362  22.511  23.773  1.00  0.00     0.150 C 
ATOM     12  C   UNL A   1      36.075  22.394  26.074  1.00  0.00     0.154 C 
ATOM     13  C   UNL A   1      36.715  23.118  23.401  1.00  0.00     0.182 C 
ATOM     14  O   UNL A   1      37.396  23.699  24.519  1.00  0.00    -0.374 OA
BRANCH  10  15
ATOM     15  C   UNL A   1      35.216  20.334  25.063  1.00  0.00     0.318 C 
ATOM     16  N   UNL A   1      34.015  19.924  25.540  1.00  0.00    -0.330 N 
ATOM     17  H   UNL A   1      34.028  19.563  26.456  1.00  0.00     0.166 HD
ATOM     18  O   UNL A   1      36.038  19.459  24.785  1.00  0.00    -0.249 OA
BRANCH  16  19
ATOM     19  C   UNL A   1      32.685  19.942  24.885  1.00  0.00     0.124 C 
BRANCH  19  20
ATOM     20  C   UNL A   1      32.615  19.126  23.571  1.00  0.00     0.027 C 
ATOM     21  C   UNL A   1      32.846  17.633  23.765  1.00  0.00     0.006 C 
ENDBRANCH  19  20
BRANCH  19  22
ATOM     22  C   UNL A   1      32.085  21.327  24.776  1.00  0.00     0.027 A 
ATOM     23  C   UNL A   1      31.735  22.223  25.773  1.00  0.00     0.017 A 
ATOM     24  S   UNL A   1      31.928  22.097  23.236  1.00  0.00    -0.147 S 
ATOM     25  C   UNL A   1      31.074  23.384  25.278  1.00  0.00     0.012 A 
ATOM     26  C   UNL A   1      31.043  23.399  23.904  1.00  0.00     0.065 A 
ENDBRANCH  19  22
ENDBRANCH  16  19
ENDBRANCH  10  15
ENDBRANCH   8   9
ENDBRANCH   6   8
ENDBRANCH   5   6
ENDBRANCH   4   5
ENDBRANCH   3   4
ENDBRANCH   2   3
ENDBRANCH   1   2
BRANCH   1  27
ATOM     27  C   UNL A   1      45.208  18.937  24.313  1.00  0.00     0.188 C 
BRANCH  27  28
ATOM     28  O   UNL A   1      44.573  20.090  23.800  1.00  0.00    -0.376 OA
BRANCH  28  29
ATOM     29  C   UNL A   1      45.053  21.332  24.276  1.00  0.00     0.202 C 
BRANCH  29  30
ATOM     30  C   UNL A   1      44.107  22.085  25.223  1.00  0.00     0.261 C 
BRANCH  30  31
ATOM     31  O   UNL A   1      43.630  23.363  24.754  1.00  0.00    -0.460 OA
BRANCH  31  32
ATOM     32  C   UNL A   1      44.344  24.457  25.104  1.00  0.00     0.338 C 
ATOM     33  O   UNL A   1      45.431  24.793  24.656  1.00  0.00    -0.246 OA
BRANCH  32  34
ATOM     34  C   UNL A   1      43.486  25.323  25.951  1.00  0.00     0.060 A 
ATOM     35  C   UNL A   1      43.746  26.702  25.999  1.00  0.00     0.016 A 
ATOM     36  C   UNL A   1      42.428  24.786  26.688  1.00  0.00     0.016 A 
ATOM     37  C   UNL A   1      42.994  27.532  26.835  1.00  0.00     0.010 A 
ATOM     38  C   UNL A   1      41.688  25.615  27.541  1.00  0.00     0.010 A 
ATOM     39  C   UNL A   1      42.003  26.982  27.659  1.00  0.00    -0.014 A 
BRANCH  39  40
ATOM     40  C   UNL A   1      41.504  27.766  28.820  1.00  0.00     0.031 A 
ATOM     41  C   UNL A   1      42.254  27.643  30.124  1.00  0.00     0.074 A 
ATOM     42  C   UNL A   1      40.454  28.602  28.729  1.00  0.00     0.049 A 
ATOM     43  N   UNL A   1      42.014  28.201  31.283  1.00  0.00    -0.248 NA
ATOM     44  C   UNL A   1      43.440  26.769  30.113  1.00  0.00     0.031 C 
ATOM     45  C   UNL A   1      39.667  28.853  27.524  1.00  0.00     0.029 A 
ATOM     46  N   UNL A   1      39.869  29.399  29.685  1.00  0.00    -0.354 N 
ATOM     47  C   UNL A   1      43.015  27.745  32.134  1.00  0.00     0.074 A 
ATOM     48  C   UNL A   1      43.836  26.830  31.374  1.00  0.00     0.031 C 
ATOM     49  C   UNL A   1      38.698  29.741  27.815  1.00  0.00     0.029 A 
ATOM     50  C   UNL A   1      38.777  30.098  29.231  1.00  0.00     0.049 A 
ATOM     51  H   UNL A   1      40.202  29.462  30.609  1.00  0.00     0.167 HD
ATOM     52  C   UNL A   1      43.245  28.071  33.427  1.00  0.00     0.037 A 
ATOM     53  C   UNL A   1      37.933  30.918  29.890  1.00  0.00     0.037 A 
ATOM     54  C   UNL A   1      42.432  28.977  34.191  1.00  0.00     0.049 A 
ATOM     55  C   UNL A   1      38.156  31.191  31.359  1.00  0.00     0.074 A 
ATOM     56  C   UNL A   1      42.584  29.371  35.509  1.00  0.00     0.029 A 
ATOM     57  N   UNL A   1      41.310  29.630  33.706  1.00  0.00    -0.354 N 
ATOM     58  N   UNL A   1      39.119  30.773  32.146  1.00  0.00    -0.248 NA
ATOM     59  C   UNL A   1      37.174  32.057  32.028  1.00  0.00     0.031 C 
ATOM     60  C   UNL A   1      41.524  30.221  35.837  1.00  0.00     0.029 A 
ATOM     61  C   UNL A   1      40.746  30.405  34.706  1.00  0.00     0.049 A 
ATOM     62  H   UNL A   1      40.965  29.554  32.787  1.00  0.00     0.167 HD
ATOM     63  C   UNL A   1      38.878  31.354  33.387  1.00  0.00     0.074 A 
ATOM     64  C   UNL A   1      37.691  32.170  33.242  1.00  0.00     0.031 C 
ATOM     65  C   UNL A   1      39.572  31.225  34.545  1.00  0.00     0.037 A 
BRANCH  52  66
ATOM     66  C   UNL A   1      44.421  27.427  34.103  1.00  0.00     0.057 A 
ATOM     67  C   UNL A   1      45.684  28.035  34.127  1.00  0.00     0.134 A 
ATOM     68  C   UNL A   1      44.283  26.201  34.765  1.00  0.00     0.134 A 
ATOM     69  F   UNL A   1      45.889  29.201  33.496  1.00  0.00    -0.206 F 
ATOM     70  C   UNL A   1      46.771  27.437  34.767  1.00  0.00     0.040 A 
ATOM     71  C   UNL A   1      45.355  25.608  35.435  1.00  0.00     0.040 A 
ATOM     72  F   UNL A   1      43.102  25.565  34.783  1.00  0.00    -0.206 F 
ATOM     73  C   UNL A   1      46.605  26.223  35.431  1.00  0.00     0.006 A 
ENDBRANCH  52  66
BRANCH  53  74
ATOM     74  C   UNL A   1      36.777  31.541  29.190  1.00  0.00     0.057 A 
ATOM     75  C   UNL A   1      35.641  30.794  28.852  1.00  0.00     0.134 A 
ATOM     76  C   UNL A   1      36.810  32.879  28.774  1.00  0.00     0.134 A 
ATOM     77  F   UNL A   1      35.560  29.499  29.194  1.00  0.00    -0.206 F 
ATOM     78  C   UNL A   1      34.600  31.340  28.099  1.00  0.00     0.040 A 
ATOM     79  C   UNL A   1      35.762  33.447  28.048  1.00  0.00     0.040 A 
ATOM     80  F   UNL A   1      37.869  33.650  29.058  1.00  0.00    -0.206 F 
ATOM     81  C   UNL A   1      34.658  32.673  27.697  1.00  0.00     0.006 A 
ENDBRANCH  53  74
BRANCH  65  82
ATOM     82  C   UNL A   1      39.097  32.018  35.731  1.00  0.00     0.057 A 
ATOM     83  C   UNL A   1      38.258  31.467  36.708  1.00  0.00     0.134 A 
ATOM     84  C   UNL A   1      39.508  33.345  35.910  1.00  0.00     0.134 A 
ATOM     85  F   UNL A   1      37.820  30.203  36.594  1.00  0.00    -0.206 F 
ATOM     86  C   UNL A   1      37.815  32.217  37.799  1.00  0.00     0.040 A 
ATOM     87  C   UNL A   1      39.100  34.095  37.014  1.00  0.00     0.040 A 
ATOM     88  F   UNL A   1      40.325  33.934  35.023  1.00  0.00    -0.206 F 
ATOM     89  C   UNL A   1      38.240  33.535  37.957  1.00  0.00     0.006 A 
ENDBRANCH  65  82
ENDBRANCH  39  40
ENDBRANCH  32  34
ENDBRANCH  31  32
ENDBRANCH  30  31
ENDBRANCH  29  30
ENDBRANCH  28  29
ENDBRANCH  27  28
ENDBRANCH   1  27
TORSDOF 22
ENDMDL
MODEL 3
REMARK VINA RESULT:     -10.3      2.164      3.593
REMARK SMILES CC[C@@H](NC(=O)N1CCO[C@H](CC(=O)OCCOCCOCCOC(=O)c2ccc(-c3c4nc(c(-c5c(F)cccc5F)c5ccc([nH]5)c(-c5c(F)cccc5F)c5nc(c(-c6c(F)cccc6F)c6ccc3[nH]6)C=C5)C=C4)cc2)C1)c1cccs1
REMARK SMILES IDX 19 1 18 2 17 3 16 4 15 5 13 6 14 7 12 8 11 9 7 10 8 11 81 12
REMARK SMILES IDX 9 13 10 14 5 15 4 16 6 18 3 19 2 20 1 21 82 22 83 23 86 24
REMARK SMILES IDX 84 25 85 26 20 27 21 28 22 29 23 30 24 31 25 32 26 33 27 34
REMARK SMILES IDX 28 35 80 36 29 37 79 38 30 39 31 40 32 41 73 42 33 43 78 44
REMARK SMILES IDX 72 45 74 46 34 47 77 48 71 49 70 50 35 52 61 53 44 54 60 55
REMARK SMILES IDX 45 56 48 57 59 58 75 59 46 60 47 61 58 63 76 64 49 65 36 66
REMARK SMILES IDX 37 67 42 68 38 69 39 70 41 71 43 72 40 73 62 74 63 75 68 76
REMARK SMILES IDX 64 77 65 78 67 79 69 80 66 81 50 82 51 83 56 84 52 85 53 86
REMARK SMILES IDX 55 87 57 88 54 89
REMARK H PARENT 4 17 74 51 48 62
REMARK Flexibility Score: inf
ROOT
ATOM      1  C   UNL A   1      40.740  21.143  27.376  1.00  0.00     0.188 C 
ENDROOT
BRANCH   1   2
ATOM      2  O   UNL A   1      39.520  21.322  26.664  1.00  0.00    -0.376 OA
BRANCH   2   3
ATOM      3  C   UNL A   1      39.182  22.618  26.193  1.00  0.00     0.202 C 
BRANCH   3   4
ATOM      4  C   UNL A   1      37.747  22.862  25.705  1.00  0.00     0.261 C 
BRANCH   4   5
ATOM      5  O   UNL A   1      37.336  22.120  24.528  1.00  0.00    -0.463 OA
BRANCH   5   6
ATOM      6  C   UNL A   1      36.551  22.775  23.648  1.00  0.00     0.308 C 
ATOM      7  O   UNL A   1      36.973  23.205  22.574  1.00  0.00    -0.252 OA
BRANCH   6   8
ATOM      8  C   UNL A   1      35.094  23.015  24.006  1.00  0.00     0.156 C 
BRANCH   8   9
ATOM      9  C   UNL A   1      34.350  24.156  24.741  1.00  0.00     0.149 C 
ATOM     10  N   UNL A   1      33.137  22.717  26.276  1.00  0.00    -0.320 N 
ATOM     11  C   UNL A   1      31.852  23.220  25.818  1.00  0.00     0.150 C 
ATOM     12  C   UNL A   1      34.167  23.757  26.227  1.00  0.00     0.154 C 
ATOM     13  C   UNL A   1      31.992  23.772  24.399  1.00  0.00     0.182 C 
ATOM     14  O   UNL A   1      33.103  24.663  24.251  1.00  0.00    -0.374 OA
BRANCH  10  15
ATOM     15  C   UNL A   1      33.450  21.462  26.701  1.00  0.00     0.318 C 
ATOM     16  N   UNL A   1      32.928  20.365  26.100  1.00  0.00    -0.330 N 
ATOM     17  H   UNL A   1      32.230  19.897  26.613  1.00  0.00     0.166 HD
ATOM     18  O   UNL A   1      34.185  21.274  27.672  1.00  0.00    -0.249 OA
BRANCH  16  19
ATOM     19  C   UNL A   1      33.255  19.767  24.782  1.00  0.00     0.124 C 
BRANCH  19  20
ATOM     20  C   UNL A   1      32.212  20.061  23.677  1.00  0.00     0.027 C 
ATOM     21  C   UNL A   1      32.351  19.168  22.451  1.00  0.00     0.006 C 
ENDBRANCH  19  20
BRANCH  19  22
ATOM     22  C   UNL A   1      33.662  18.311  24.866  1.00  0.00     0.027 A 
ATOM     23  C   UNL A   1      34.882  17.714  24.589  1.00  0.00     0.017 A 
ATOM     24  S   UNL A   1      32.600  17.142  25.567  1.00  0.00    -0.147 S 
ATOM     25  C   UNL A   1      34.839  16.292  24.662  1.00  0.00     0.012 A 
ATOM     26  C   UNL A   1      33.619  15.846  25.110  1.00  0.00     0.065 A 
ENDBRANCH  19  22
ENDBRANCH  16  19
ENDBRANCH  10  15
ENDBRANCH   8   9
ENDBRANCH   6   8
ENDBRANCH   5   6
ENDBRANCH   4   5
ENDBRANCH   3   4
ENDBRANCH   2   3
ENDBRANCH   1   2
BRANCH   1  27
ATOM     27  C   UNL A   1      41.985  20.636  26.631  1.00  0.00     0.188 C 
BRANCH  27  28
ATOM     28  O   UNL A   1      43.038  21.573  26.531  1.00  0.00    -0.376 OA
BRANCH  28  29
ATOM     29  C   UNL A   1      44.054  21.273  25.596  1.00  0.00     0.202 C 
BRANCH  29  30
ATOM     30  C   UNL A   1      44.147  22.227  24.395  1.00  0.00     0.261 C 
BRANCH  30  31
ATOM     31  O   UNL A   1      43.529  23.519  24.567  1.00  0.00    -0.460 OA
BRANCH  31  32
ATOM     32  C   UNL A   1      44.306  24.521  25.039  1.00  0.00     0.338 C 
ATOM     33  O   UNL A   1      45.449  24.783  24.691  1.00  0.00    -0.246 OA
BRANCH  32  34
ATOM     34  C   UNL A   1      43.466  25.407  25.881  1.00  0.00     0.060 A 
ATOM     35  C   UNL A   1      43.799  26.767  25.984  1.00  0.00     0.016 A 
ATOM     36  C   UNL A   1      42.352  24.908  26.561  1.00  0.00     0.016 A 
ATOM     37  C   UNL A   1      43.063  27.612  26.819  1.00  0.00     0.010 A 
ATOM     38  C   UNL A   1      41.627  25.751  27.413  1.00  0.00     0.010 A 
ATOM     39  C   UNL A   1      42.012  27.094  27.587  1.00  0.00    -0.014 A 
BRANCH  39  40
ATOM     40  C   UNL A   1      41.512  27.868  28.755  1.00  0.00     0.031 A 
ATOM     41  C   UNL A   1      42.277  27.756  30.051  1.00  0.00     0.074 A 
ATOM     42  C   UNL A   1      40.449  28.688  28.675  1.00  0.00     0.049 A 
ATOM     43  N   UNL A   1      42.039  28.308  31.213  1.00  0.00    -0.248 NA
ATOM     44  C   UNL A   1      43.476  26.899  30.027  1.00  0.00     0.031 C 
ATOM     45  C   UNL A   1      39.646  28.929  27.478  1.00  0.00     0.029 A 
ATOM     46  N   UNL A   1      39.861  29.475  29.638  1.00  0.00    -0.354 N 
ATOM     47  C   UNL A   1      43.055  27.866  32.054  1.00  0.00     0.074 A 
ATOM     48  C   UNL A   1      43.883  26.965  31.284  1.00  0.00     0.031 C 
ATOM     49  C   UNL A   1      38.667  29.802  27.780  1.00  0.00     0.029 A 
ATOM     50  C   UNL A   1      38.754  30.158  29.195  1.00  0.00     0.049 A 
ATOM     51  H   UNL A   1      40.202  29.542  30.559  1.00  0.00     0.167 HD
ATOM     52  C   UNL A   1      43.294  28.194  33.345  1.00  0.00     0.037 A 
ATOM     53  C   UNL A   1      37.904  30.964  29.864  1.00  0.00     0.037 A 
ATOM     54  C   UNL A   1      42.475  29.087  34.118  1.00  0.00     0.049 A 
ATOM     55  C   UNL A   1      38.138  31.238  31.331  1.00  0.00     0.074 A 
ATOM     56  C   UNL A   1      42.633  29.481  35.435  1.00  0.00     0.029 A 
ATOM     57  N   UNL A   1      41.338  29.723  33.645  1.00  0.00    -0.354 N 
ATOM     58  N   UNL A   1      39.114  30.835  32.108  1.00  0.00    -0.248 NA
ATOM     59  C   UNL A   1      37.149  32.089  32.011  1.00  0.00     0.031 C 
ATOM     60  C   UNL A   1      41.564  30.314  35.774  1.00  0.00     0.029 A 
ATOM     61  C   UNL A   1      40.772  30.488  34.651  1.00  0.00     0.049 A 
ATOM     62  H   UNL A   1      40.985  29.642  32.729  1.00  0.00     0.167 HD
ATOM     63  C   UNL A   1      38.876  31.410  33.352  1.00  0.00     0.074 A 
ATOM     64  C   UNL A   1      37.676  32.208  33.220  1.00  0.00     0.031 C 
ATOM     65  C   UNL A   1      39.584  31.290  34.503  1.00  0.00     0.037 A 
BRANCH  52  66
ATOM     66  C   UNL A   1      44.486  27.567  34.008  1.00  0.00     0.057 A 
ATOM     67  C   UNL A   1      45.736  28.202  34.035  1.00  0.00     0.134 A 
ATOM     68  C   UNL A   1      44.377  26.330  34.656  1.00  0.00     0.134 A 
ATOM     69  F   UNL A   1      45.913  29.380  33.418  1.00  0.00    -0.206 F 
ATOM     70  C   UNL A   1      46.837  27.620  34.664  1.00  0.00     0.040 A 
ATOM     71  C   UNL A   1      45.464  25.752  35.314  1.00  0.00     0.040 A 
ATOM     72  F   UNL A   1      43.210  25.669  34.670  1.00  0.00    -0.206 F 
ATOM     73  C   UNL A   1      46.700  26.394  35.313  1.00  0.00     0.006 A 
ENDBRANCH  52  66
BRANCH  53  74
ATOM     74  C   UNL A   1      36.732  31.571  29.176  1.00  0.00     0.057 A 
ATOM     75  C   UNL A   1      35.607  30.805  28.842  1.00  0.00     0.134 A 
ATOM     76  C   UNL A   1      36.738  32.911  28.768  1.00  0.00     0.134 A 
ATOM     77  F   UNL A   1      35.552  29.507  29.177  1.00  0.00    -0.206 F 
ATOM     78  C   UNL A   1      34.551  31.336  28.100  1.00  0.00     0.040 A 
ATOM     79  C   UNL A   1      35.674  33.464  28.054  1.00  0.00     0.040 A 
ATOM     80  F   UNL A   1      37.785  33.699  29.049  1.00  0.00    -0.206 F 
ATOM     81  C   UNL A   1      34.582  32.673  27.706  1.00  0.00     0.006 A 
ENDBRANCH  53  74
BRANCH  65  82
ATOM     82  C   UNL A   1      39.109  32.074  35.695  1.00  0.00     0.057 A 
ATOM     83  C   UNL A   1      39.465  33.414  35.897  1.00  0.00     0.134 A 
ATOM     84  C   UNL A   1      38.260  31.484  36.642  1.00  0.00     0.134 A 
ATOM     85  F   UNL A   1      40.282  34.037  35.033  1.00  0.00    -0.206 F 
ATOM     86  C   UNL A   1      39.027  34.126  37.014  1.00  0.00     0.040 A 
ATOM     87  C   UNL A   1      37.788  32.197  37.745  1.00  0.00     0.040 A 
ATOM     88  F   UNL A   1      37.864  30.209  36.505  1.00  0.00    -0.206 F 
ATOM     89  C   UNL A   1      38.181  33.519  37.940  1.00  0.00     0.006 A 
ENDBRANCH  65  82
ENDBRANCH  39  40
ENDBRANCH  32  34
ENDBRANCH  31  32
ENDBRANCH  30  31
ENDBRANCH  29  30
ENDBRANCH  28  29
ENDBRANCH  27  28
ENDBRANCH   1  27
TORSDOF 22
ENDMDL
