MODEL 1
REMARK VINA RESULT:     -13.4      0.000      0.000
REMARK SMILES Cc1c(NC(=O)c2cccc(-c3cc4ccccc4oc3=O)c2)cccc1C(=O)OCCOCCOCCOC(=O)c1ccc(-c2c3nc(c(-c4c(F)cccc4F)c4ccc([nH]4)c(-c4c(F)cccc4F)c4nc(c(-c5c(F)cccc5F)c5ccc2[nH]5)C=C4)C=C3)cc1
REMARK SMILES IDX 34 1 33 2 32 3 31 4 30 5 28 6 29 7 27 8 1 9 2 10 3 11 24 12
REMARK SMILES IDX 26 13 25 14 4 15 5 16 6 18 7 19 8 20 23 21 9 22 11 23 10 24
REMARK SMILES IDX 12 25 13 26 21 27 14 28 20 29 22 30 15 31 19 32 16 33 18 34
REMARK SMILES IDX 17 35 35 36 36 37 37 38 38 39 39 40 40 41 41 42 42 43 43 44
REMARK SMILES IDX 95 45 44 46 94 47 45 48 46 49 47 50 88 51 48 52 93 53 87 54
REMARK SMILES IDX 89 55 49 56 92 57 86 58 85 59 50 61 76 62 59 63 75 64 60 65
REMARK SMILES IDX 63 66 74 67 90 68 61 69 62 70 73 72 91 73 64 74 51 75 52 76
REMARK SMILES IDX 57 77 53 78 54 79 56 80 58 81 55 82 77 83 78 84 83 85 79 86
REMARK SMILES IDX 80 87 82 88 84 89 81 90 65 91 66 92 71 93 67 94 68 95 70 96
REMARK SMILES IDX 72 97 69 98
REMARK H PARENT 4 17 89 60 63 71
REMARK Flexibility Score: inf
ROOT
ATOM      1  C   UNL A   1      41.622  20.932  26.857  1.00  0.00     0.188 C 
ENDROOT
BRANCH   1   2
ATOM      2  O   UNL A   1      40.321  21.565  26.933  1.00  0.00    -0.376 OA
BRANCH   2   3
ATOM      3  C   UNL A   1      40.084  22.959  27.231  1.00  0.00     0.202 C 
BRANCH   3   4
ATOM      4  C   UNL A   1      38.867  23.932  26.551  1.00  0.00     0.261 C 
BRANCH   4   5
ATOM      5  O   UNL A   1      37.181  23.667  26.121  1.00  0.00    -0.460 OA
BRANCH   5   6
ATOM      6  C   UNL A   1      36.407  23.063  25.055  1.00  0.00     0.338 C 
ATOM      7  O   UNL A   1      36.846  22.334  24.171  1.00  0.00    -0.246 OA
BRANCH   6   8
ATOM      8  C   UNL A   1      34.975  23.274  24.634  1.00  0.00     0.065 A 
ATOM      9  C   UNL A   1      34.006  23.443  26.922  1.00  0.00     0.047 C 
ATOM     10  C   UNL A   1      33.863  23.229  25.451  1.00  0.00    -0.013 A 
ATOM     11  C   UNL A   1      32.600  23.030  24.825  1.00  0.00     0.045 A 
ATOM     12  C   UNL A   1      32.439  23.002  23.426  1.00  0.00     0.026 A 
ATOM     13  C   UNL A   1      34.761  23.361  23.204  1.00  0.00     0.016 A 
ATOM     14  C   UNL A   1      33.522  23.215  22.604  1.00  0.00     0.003 A 
BRANCH  11  15
ATOM     15  N   UNL A   1      31.466  22.926  25.635  1.00  0.00    -0.322 N 
ATOM     16  C   UNL A   1      30.650  23.892  26.163  1.00  0.00     0.255 C 
ATOM     17  H   UNL A   1      31.212  22.003  25.865  1.00  0.00     0.170 HD
ATOM     18  O   UNL A   1      30.036  23.622  27.197  1.00  0.00    -0.269 OA
BRANCH  16  19
ATOM     19  C   UNL A   1      30.348  25.186  25.470  1.00  0.00     0.040 A 
ATOM     20  C   UNL A   1      29.034  25.364  25.021  1.00  0.00     0.014 A 
ATOM     21  C   UNL A   1      31.333  26.102  25.060  1.00  0.00     0.022 A 
ATOM     22  C   UNL A   1      28.706  26.420  24.171  1.00  0.00     0.001 A 
ATOM     23  C   UNL A   1      31.016  27.160  24.175  1.00  0.00    -0.010 A 
ATOM     24  C   UNL A   1      29.693  27.305  23.745  1.00  0.00     0.009 A 
BRANCH  23  25
ATOM     25  C   UNL A   1      32.005  28.058  23.521  1.00  0.00     0.068 A 
ATOM     26  C   UNL A   1      32.115  29.376  23.794  1.00  0.00     0.028 A 
ATOM     27  C   UNL A   1      33.369  27.475  23.300  1.00  0.00     0.344 A 
ATOM     28  C   UNL A   1      32.837  29.550  25.064  1.00  0.00     0.018 A 
ATOM     29  O   UNL A   1      34.249  27.693  24.364  1.00  0.00    -0.422 OA
ATOM     30  O   UNL A   1      33.658  26.819  22.309  1.00  0.00    -0.246 OA
ATOM     31  C   UNL A   1      32.450  30.484  26.006  1.00  0.00     0.012 A 
ATOM     32  C   UNL A   1      33.863  28.629  25.346  1.00  0.00     0.138 A 
ATOM     33  C   UNL A   1      33.047  30.427  27.255  1.00  0.00     0.001 A 
ATOM     34  C   UNL A   1      34.440  28.550  26.598  1.00  0.00     0.048 A 
ATOM     35  C   UNL A   1      33.996  29.438  27.564  1.00  0.00     0.004 A 
ENDBRANCH  23  25
ENDBRANCH  16  19
ENDBRANCH  11  15
ENDBRANCH   6   8
ENDBRANCH   5   6
ENDBRANCH   4   5
ENDBRANCH   3   4
ENDBRANCH   2   3
ENDBRANCH   1   2
BRANCH   1  36
ATOM     36  C   UNL A   1      41.985  19.577  27.485  1.00  0.00     0.188 C 
BRANCH  36  37
ATOM     37  O   UNL A   1      42.798  18.811  26.621  1.00  0.00    -0.376 OA
BRANCH  37  38
ATOM     38  C   UNL A   1      43.079  19.372  25.350  1.00  0.00     0.202 C 
BRANCH  38  39
ATOM     39  C   UNL A   1      44.506  19.093  24.844  1.00  0.00     0.261 C 
BRANCH  39  40
ATOM     40  O   UNL A   1      45.372  20.244  24.966  1.00  0.00    -0.460 OA
BRANCH  40  41
ATOM     41  C   UNL A   1      44.918  21.392  24.346  1.00  0.00     0.338 C 
ATOM     42  O   UNL A   1      44.538  21.459  23.218  1.00  0.00    -0.246 OA
BRANCH  41  43
ATOM     43  C   UNL A   1      45.066  22.550  25.280  1.00  0.00     0.060 A 
ATOM     44  C   UNL A   1      44.997  22.496  26.673  1.00  0.00     0.016 A 
ATOM     45  C   UNL A   1      45.121  23.782  24.724  1.00  0.00     0.016 A 
ATOM     46  C   UNL A   1      44.784  23.688  27.466  1.00  0.00     0.010 A 
ATOM     47  C   UNL A   1      44.805  24.881  25.515  1.00  0.00     0.010 A 
ATOM     48  C   UNL A   1      44.555  24.966  26.917  1.00  0.00    -0.014 A 
BRANCH  48  49
ATOM     49  C   UNL A   1      44.080  26.342  27.856  1.00  0.00     0.031 A 
ATOM     50  C   UNL A   1      42.652  27.353  27.957  1.00  0.00     0.074 A 
ATOM     51  C   UNL A   1      45.094  26.872  28.583  1.00  0.00     0.049 A 
ATOM     52  N   UNL A   1      42.639  28.601  28.406  1.00  0.00    -0.248 NA
ATOM     53  C   UNL A   1      41.198  27.120  27.562  1.00  0.00     0.031 C 
ATOM     54  C   UNL A   1      45.030  27.868  29.648  1.00  0.00     0.029 A 
ATOM     55  N   UNL A   1      46.473  26.742  28.340  1.00  0.00    -0.354 N 
ATOM     56  C   UNL A   1      41.300  29.031  28.483  1.00  0.00     0.074 A 
ATOM     57  C   UNL A   1      40.552  28.267  27.590  1.00  0.00     0.031 C 
ATOM     58  C   UNL A   1      46.221  28.484  29.725  1.00  0.00     0.029 A 
ATOM     59  C   UNL A   1      47.012  28.006  28.604  1.00  0.00     0.049 A 
ATOM     60  H   UNL A   1      46.955  25.935  28.048  1.00  0.00     0.167 HD
ATOM     61  C   UNL A   1      40.781  29.803  29.474  1.00  0.00     0.037 A 
ATOM     62  C   UNL A   1      47.559  28.775  27.623  1.00  0.00     0.037 A 
ATOM     63  C   UNL A   1      41.820  30.666  29.936  1.00  0.00     0.049 A 
ATOM     64  C   UNL A   1      46.995  30.175  27.593  1.00  0.00     0.074 A 
ATOM     65  C   UNL A   1      42.702  30.630  30.990  1.00  0.00     0.029 A 
ATOM     66  N   UNL A   1      42.342  31.522  28.983  1.00  0.00    -0.354 N 
ATOM     67  N   UNL A   1      45.845  30.516  28.111  1.00  0.00    -0.248 NA
ATOM     68  C   UNL A   1      47.699  31.307  27.005  1.00  0.00     0.031 C 
ATOM     69  C   UNL A   1      43.881  31.297  30.540  1.00  0.00     0.029 A 
ATOM     70  C   UNL A   1      43.661  31.792  29.259  1.00  0.00     0.049 A 
ATOM     71  H   UNL A   1      41.841  31.887  28.218  1.00  0.00     0.167 HD
ATOM     72  C   UNL A   1      45.628  31.851  27.901  1.00  0.00     0.074 A 
ATOM     73  C   UNL A   1      46.831  32.306  27.235  1.00  0.00     0.031 C 
ATOM     74  C   UNL A   1      44.466  32.475  28.254  1.00  0.00     0.037 A 
BRANCH  61  75
ATOM     75  C   UNL A   1      39.337  29.728  29.993  1.00  0.00     0.057 A 
ATOM     76  C   UNL A   1      39.048  29.084  31.206  1.00  0.00     0.134 A 
ATOM     77  C   UNL A   1      38.172  30.154  29.295  1.00  0.00     0.134 A 
ATOM     78  F   UNL A   1      40.027  28.556  31.954  1.00  0.00    -0.206 F 
ATOM     79  C   UNL A   1      37.736  28.921  31.700  1.00  0.00     0.040 A 
ATOM     80  C   UNL A   1      36.867  30.061  29.808  1.00  0.00     0.040 A 
ATOM     81  F   UNL A   1      38.211  30.622  28.040  1.00  0.00    -0.206 F 
ATOM     82  C   UNL A   1      36.641  29.433  31.017  1.00  0.00     0.006 A 
ENDBRANCH  61  75
BRANCH  62  83
ATOM     83  C   UNL A   1      48.145  28.020  26.471  1.00  0.00     0.057 A 
ATOM     84  C   UNL A   1      49.437  27.467  26.612  1.00  0.00     0.134 A 
ATOM     85  C   UNL A   1      47.402  27.579  25.369  1.00  0.00     0.134 A 
ATOM     86  F   UNL A   1      50.214  27.829  27.646  1.00  0.00    -0.206 F 
ATOM     87  C   UNL A   1      49.928  26.467  25.766  1.00  0.00     0.040 A 
ATOM     88  C   UNL A   1      47.891  26.583  24.501  1.00  0.00     0.040 A 
ATOM     89  F   UNL A   1      46.154  28.023  25.161  1.00  0.00    -0.206 F 
ATOM     90  C   UNL A   1      49.146  26.008  24.712  1.00  0.00     0.006 A 
ENDBRANCH  62  83
BRANCH  74  91
ATOM     91  C   UNL A   1      43.975  33.771  27.638  1.00  0.00     0.057 A 
ATOM     92  C   UNL A   1      43.666  33.923  26.276  1.00  0.00     0.134 A 
ATOM     93  C   UNL A   1      43.615  34.872  28.448  1.00  0.00     0.134 A 
ATOM     94  F   UNL A   1      43.811  32.920  25.401  1.00  0.00    -0.206 F 
ATOM     95  C   UNL A   1      43.123  35.100  25.747  1.00  0.00     0.040 A 
ATOM     96  C   UNL A   1      42.998  36.022  27.942  1.00  0.00     0.040 A 
ATOM     97  F   UNL A   1      43.805  34.864  29.776  1.00  0.00    -0.206 F 
ATOM     98  C   UNL A   1      42.772  36.150  26.582  1.00  0.00     0.006 A 
ENDBRANCH  74  91
ENDBRANCH  48  49
ENDBRANCH  41  43
ENDBRANCH  40  41
ENDBRANCH  39  40
ENDBRANCH  38  39
ENDBRANCH  37  38
ENDBRANCH  36  37
ENDBRANCH   1  36
TORSDOF 20
ENDMDL
MODEL 2
REMARK VINA RESULT:     -12.7      4.251     10.304
REMARK SMILES Cc1c(NC(=O)c2cccc(-c3cc4ccccc4oc3=O)c2)cccc1C(=O)OCCOCCOCCOC(=O)c1ccc(-c2c3nc(c(-c4c(F)cccc4F)c4ccc([nH]4)c(-c4c(F)cccc4F)c4nc(c(-c5c(F)cccc5F)c5ccc2[nH]5)C=C4)C=C3)cc1
REMARK SMILES IDX 34 1 33 2 32 3 31 4 30 5 28 6 29 7 27 8 1 9 2 10 3 11 24 12
REMARK SMILES IDX 26 13 25 14 4 15 5 16 6 18 7 19 8 20 23 21 9 22 11 23 10 24
REMARK SMILES IDX 12 25 13 26 21 27 14 28 20 29 22 30 15 31 19 32 16 33 18 34
REMARK SMILES IDX 17 35 35 36 36 37 37 38 38 39 39 40 40 41 41 42 42 43 43 44
REMARK SMILES IDX 95 45 44 46 94 47 45 48 46 49 47 50 88 51 48 52 93 53 87 54
REMARK SMILES IDX 89 55 49 56 92 57 86 58 85 59 50 61 76 62 59 63 75 64 60 65
REMARK SMILES IDX 63 66 74 67 90 68 61 69 62 70 73 72 91 73 64 74 51 75 52 76
REMARK SMILES IDX 57 77 53 78 54 79 56 80 58 81 55 82 77 83 78 84 83 85 79 86
REMARK SMILES IDX 80 87 82 88 84 89 81 90 65 91 66 92 71 93 67 94 68 95 70 96
REMARK SMILES IDX 72 97 69 98
REMARK H PARENT 4 17 89 60 63 71
REMARK Flexibility Score: inf
ROOT
ATOM      1  C   UNL A   1      33.927  35.953  28.601  1.00  0.00     0.188 C 
ENDROOT
BRANCH   1   2
ATOM      2  O   UNL A   1      34.078  34.697  27.895  1.00  0.00    -0.376 OA
BRANCH   2   3
ATOM      3  C   UNL A   1      34.232  33.401  28.514  1.00  0.00     0.202 C 
BRANCH   3   4
ATOM      4  C   UNL A   1      33.791  31.909  27.829  1.00  0.00     0.261 C 
BRANCH   4   5
ATOM      5  O   UNL A   1      34.679  30.467  27.352  1.00  0.00    -0.460 OA
BRANCH   5   6
ATOM      6  C   UNL A   1      34.444  29.218  26.656  1.00  0.00     0.338 C 
ATOM      7  O   UNL A   1      35.045  28.165  26.844  1.00  0.00    -0.246 OA
BRANCH   6   8
ATOM      8  C   UNL A   1      33.582  28.901  25.461  1.00  0.00     0.065 A 
ATOM      9  C   UNL A   1      31.387  28.984  26.636  1.00  0.00     0.047 C 
ATOM     10  C   UNL A   1      32.239  28.581  25.478  1.00  0.00    -0.013 A 
ATOM     11  C   UNL A   1      31.713  27.913  24.336  1.00  0.00     0.045 A 
ATOM     12  C   UNL A   1      32.469  27.685  23.170  1.00  0.00     0.026 A 
ATOM     13  C   UNL A   1      34.295  28.761  24.208  1.00  0.00     0.016 A 
ATOM     14  C   UNL A   1      33.760  28.154  23.085  1.00  0.00     0.003 A 
BRANCH  11  15
ATOM     15  N   UNL A   1      30.369  27.529  24.352  1.00  0.00    -0.322 N 
ATOM     16  C   UNL A   1      29.790  26.286  24.308  1.00  0.00     0.255 C 
ATOM     17  H   UNL A   1      29.731  28.277  24.402  1.00  0.00     0.170 HD
ATOM     18  O   UNL A   1      28.647  26.202  23.857  1.00  0.00    -0.269 OA
BRANCH  16  19
ATOM     19  C   UNL A   1      30.409  25.066  24.920  1.00  0.00     0.040 A 
ATOM     20  C   UNL A   1      30.748  25.149  26.276  1.00  0.00     0.014 A 
ATOM     21  C   UNL A   1      30.860  23.961  24.176  1.00  0.00     0.022 A 
ATOM     22  C   UNL A   1      31.530  24.164  26.878  1.00  0.00     0.001 A 
ATOM     23  C   UNL A   1      31.677  22.972  24.771  1.00  0.00    -0.010 A 
ATOM     24  C   UNL A   1      31.998  23.088  26.128  1.00  0.00     0.009 A 
BRANCH  23  25
ATOM     25  C   UNL A   1      32.372  21.878  24.040  1.00  0.00     0.068 A 
ATOM     26  C   UNL A   1      33.366  22.086  23.151  1.00  0.00     0.028 A 
ATOM     27  C   UNL A   1      32.662  20.642  24.840  1.00  0.00     0.344 A 
ATOM     28  C   UNL A   1      34.617  22.359  23.876  1.00  0.00     0.018 A 
ATOM     29  O   UNL A   1      33.905  20.667  25.477  1.00  0.00    -0.422 OA
ATOM     30  O   UNL A   1      31.857  19.730  24.966  1.00  0.00    -0.246 OA
ATOM     31  C   UNL A   1      35.501  23.340  23.468  1.00  0.00     0.012 A 
ATOM     32  C   UNL A   1      34.815  21.673  25.088  1.00  0.00     0.138 A 
ATOM     33  C   UNL A   1      36.535  23.675  24.328  1.00  0.00     0.001 A 
ATOM     34  C   UNL A   1      35.825  22.024  25.961  1.00  0.00     0.048 A 
ATOM     35  C   UNL A   1      36.666  23.059  25.584  1.00  0.00     0.004 A 
ENDBRANCH  23  25
ENDBRANCH  16  19
ENDBRANCH  11  15
ENDBRANCH   6   8
ENDBRANCH   5   6
ENDBRANCH   4   5
ENDBRANCH   3   4
ENDBRANCH   2   3
ENDBRANCH   1   2
BRANCH   1  36
ATOM     36  C   UNL A   1      32.912  36.222  29.723  1.00  0.00     0.188 C 
BRANCH  36  37
ATOM     37  O   UNL A   1      33.496  36.952  30.780  1.00  0.00    -0.376 OA
BRANCH  37  38
ATOM     38  C   UNL A   1      32.942  36.756  32.071  1.00  0.00     0.202 C 
BRANCH  38  39
ATOM     39  C   UNL A   1      32.754  35.277  32.454  1.00  0.00     0.261 C 
BRANCH  39  40
ATOM     40  O   UNL A   1      33.729  34.414  31.826  1.00  0.00    -0.460 OA
BRANCH  40  41
ATOM     41  C   UNL A   1      34.448  33.610  32.688  1.00  0.00     0.338 C 
ATOM     42  O   UNL A   1      34.247  33.507  33.859  1.00  0.00    -0.246 OA
BRANCH  41  43
ATOM     43  C   UNL A   1      35.571  32.964  31.942  1.00  0.00     0.060 A 
ATOM     44  C   UNL A   1      35.604  31.645  31.488  1.00  0.00     0.016 A 
ATOM     45  C   UNL A   1      36.718  33.672  31.830  1.00  0.00     0.016 A 
ATOM     46  C   UNL A   1      36.847  31.006  31.113  1.00  0.00     0.010 A 
ATOM     47  C   UNL A   1      37.899  32.985  31.568  1.00  0.00     0.010 A 
ATOM     48  C   UNL A   1      38.113  31.612  31.242  1.00  0.00    -0.014 A 
BRANCH  48  49
ATOM     49  C   UNL A   1      39.608  30.771  31.005  1.00  0.00     0.031 A 
ATOM     50  C   UNL A   1      40.082  29.239  30.299  1.00  0.00     0.074 A 
ATOM     51  C   UNL A   1      40.655  31.346  31.647  1.00  0.00     0.049 A 
ATOM     52  N   UNL A   1      41.191  28.578  30.600  1.00  0.00    -0.248 NA
ATOM     53  C   UNL A   1      39.406  28.321  29.287  1.00  0.00     0.031 C 
ATOM     54  C   UNL A   1      42.080  31.067  31.501  1.00  0.00     0.029 A 
ATOM     55  N   UNL A   1      40.603  32.203  32.760  1.00  0.00    -0.354 N 
ATOM     56  C   UNL A   1      41.305  27.479  29.726  1.00  0.00     0.074 A 
ATOM     57  C   UNL A   1      40.028  27.161  29.268  1.00  0.00     0.031 C 
ATOM     58  C   UNL A   1      42.703  31.436  32.632  1.00  0.00     0.029 A 
ATOM     59  C   UNL A   1      41.665  31.805  33.579  1.00  0.00     0.049 A 
ATOM     60  H   UNL A   1      39.958  32.928  32.927  1.00  0.00     0.167 HD
ATOM     61  C   UNL A   1      42.464  27.034  29.173  1.00  0.00     0.037 A 
ATOM     62  C   UNL A   1      41.461  31.244  34.803  1.00  0.00     0.037 A 
ATOM     63  C   UNL A   1      43.513  27.296  30.105  1.00  0.00     0.049 A 
ATOM     64  C   UNL A   1      42.206  29.944  34.983  1.00  0.00     0.074 A 
ATOM     65  C   UNL A   1      44.446  28.297  30.247  1.00  0.00     0.029 A 
ATOM     66  N   UNL A   1      43.380  26.673  31.334  1.00  0.00    -0.354 N 
ATOM     67  N   UNL A   1      42.636  29.200  33.999  1.00  0.00    -0.248 NA
ATOM     68  C   UNL A   1      42.553  29.398  36.289  1.00  0.00     0.031 C 
ATOM     69  C   UNL A   1      44.690  28.413  31.648  1.00  0.00     0.029 A 
ATOM     70  C   UNL A   1      43.966  27.434  32.317  1.00  0.00     0.049 A 
ATOM     71  H   UNL A   1      42.932  25.809  31.482  1.00  0.00     0.167 HD
ATOM     72  C   UNL A   1      43.256  28.089  34.505  1.00  0.00     0.074 A 
ATOM     73  C   UNL A   1      43.207  28.277  35.940  1.00  0.00     0.031 C 
ATOM     74  C   UNL A   1      43.730  27.083  33.713  1.00  0.00     0.037 A 
BRANCH  61  75
ATOM     75  C   UNL A   1      42.596  26.382  27.789  1.00  0.00     0.057 A 
ATOM     76  C   UNL A   1      43.109  25.082  27.658  1.00  0.00     0.134 A 
ATOM     77  C   UNL A   1      42.358  27.018  26.537  1.00  0.00     0.134 A 
ATOM     78  F   UNL A   1      43.456  24.370  28.739  1.00  0.00    -0.206 F 
ATOM     79  C   UNL A   1      43.319  24.457  26.410  1.00  0.00     0.040 A 
ATOM     80  C   UNL A   1      42.497  26.382  25.291  1.00  0.00     0.040 A 
ATOM     81  F   UNL A   1      42.045  28.316  26.433  1.00  0.00    -0.206 F 
ATOM     82  C   UNL A   1      42.989  25.094  25.222  1.00  0.00     0.006 A 
ENDBRANCH  61  75
BRANCH  62  83
ATOM     83  C   UNL A   1      40.198  31.656  35.492  1.00  0.00     0.057 A 
ATOM     84  C   UNL A   1      40.226  32.786  36.339  1.00  0.00     0.134 A 
ATOM     85  C   UNL A   1      38.928  31.179  35.143  1.00  0.00     0.134 A 
ATOM     86  F   UNL A   1      41.403  33.313  36.716  1.00  0.00    -0.206 F 
ATOM     87  C   UNL A   1      39.068  33.460  36.740  1.00  0.00     0.040 A 
ATOM     88  C   UNL A   1      37.753  31.841  35.552  1.00  0.00     0.040 A 
ATOM     89  F   UNL A   1      38.792  30.128  34.322  1.00  0.00    -0.206 F 
ATOM     90  C   UNL A   1      37.822  32.997  36.332  1.00  0.00     0.006 A 
ENDBRANCH  62  83
BRANCH  74  91
ATOM     91  C   UNL A   1      43.969  25.664  34.192  1.00  0.00     0.057 A 
ATOM     92  C   UNL A   1      42.964  24.837  34.721  1.00  0.00     0.134 A 
ATOM     93  C   UNL A   1      45.202  25.014  33.956  1.00  0.00     0.134 A 
ATOM     94  F   UNL A   1      41.703  25.261  34.868  1.00  0.00    -0.206 F 
ATOM     95  C   UNL A   1      43.187  23.499  35.067  1.00  0.00     0.040 A 
ATOM     96  C   UNL A   1      45.412  23.656  34.223  1.00  0.00     0.040 A 
ATOM     97  F   UNL A   1      46.248  25.656  33.414  1.00  0.00    -0.206 F 
ATOM     98  C   UNL A   1      44.409  22.898  34.804  1.00  0.00     0.006 A 
ENDBRANCH  74  91
ENDBRANCH  48  49
ENDBRANCH  41  43
ENDBRANCH  40  41
ENDBRANCH  39  40
ENDBRANCH  38  39
ENDBRANCH  37  38
ENDBRANCH  36  37
ENDBRANCH   1  36
TORSDOF 20
ENDMDL
MODEL 3
REMARK VINA RESULT:     -12.4      1.091      2.190
REMARK SMILES Cc1c(NC(=O)c2cccc(-c3cc4ccccc4oc3=O)c2)cccc1C(=O)OCCOCCOCCOC(=O)c1ccc(-c2c3nc(c(-c4c(F)cccc4F)c4ccc([nH]4)c(-c4c(F)cccc4F)c4nc(c(-c5c(F)cccc5F)c5ccc2[nH]5)C=C4)C=C3)cc1
REMARK SMILES IDX 34 1 33 2 32 3 31 4 30 5 28 6 29 7 27 8 1 9 2 10 3 11 24 12
REMARK SMILES IDX 26 13 25 14 4 15 5 16 6 18 7 19 8 20 23 21 9 22 11 23 10 24
REMARK SMILES IDX 12 25 13 26 21 27 14 28 20 29 22 30 15 31 19 32 16 33 18 34
REMARK SMILES IDX 17 35 35 36 36 37 37 38 38 39 39 40 40 41 41 42 42 43 43 44
REMARK SMILES IDX 95 45 44 46 94 47 45 48 46 49 47 50 88 51 48 52 93 53 87 54
REMARK SMILES IDX 89 55 49 56 92 57 86 58 85 59 50 61 76 62 59 63 75 64 60 65
REMARK SMILES IDX 63 66 74 67 90 68 61 69 62 70 73 72 91 73 64 74 51 75 52 76
REMARK SMILES IDX 57 77 53 78 54 79 56 80 58 81 55 82 77 83 78 84 83 85 79 86
REMARK SMILES IDX 80 87 82 88 84 89 81 90 65 91 66 92 71 93 67 94 68 95 70 96
REMARK SMILES IDX 72 97 69 98
REMARK H PARENT 4 17 89 60 63 71
REMARK Flexibility Score: inf
ROOT
ATOM      1  C   UNL A   1      41.530  21.334  26.176  1.00  0.00     0.188 C 
ENDROOT
BRANCH   1   2
ATOM      2  O   UNL A   1      40.103  21.575  26.229  1.00  0.00    -0.376 OA
BRANCH   2   3
ATOM      3  C   UNL A   1      39.470  22.733  26.817  1.00  0.00     0.202 C 
BRANCH   3   4
ATOM      4  C   UNL A   1      38.221  23.651  26.118  1.00  0.00     0.261 C 
BRANCH   4   5
ATOM      5  O   UNL A   1      37.552  23.778  24.496  1.00  0.00    -0.460 OA
BRANCH   5   6
ATOM      6  C   UNL A   1      36.559  23.123  23.668  1.00  0.00     0.338 C 
ATOM      7  O   UNL A   1      36.736  22.705  22.527  1.00  0.00    -0.246 OA
BRANCH   6   8
ATOM      8  C   UNL A   1      35.078  22.931  23.868  1.00  0.00     0.065 A 
ATOM      9  C   UNL A   1      35.087  23.058  26.356  1.00  0.00     0.047 C 
ATOM     10  C   UNL A   1      34.436  22.684  25.065  1.00  0.00    -0.013 A 
ATOM     11  C   UNL A   1      33.130  22.120  25.001  1.00  0.00     0.045 A 
ATOM     12  C   UNL A   1      32.442  21.926  23.788  1.00  0.00     0.026 A 
ATOM     13  C   UNL A   1      34.300  22.832  22.650  1.00  0.00     0.016 A 
ATOM     14  C   UNL A   1      33.012  22.328  22.602  1.00  0.00     0.003 A 
BRANCH  11  15
ATOM     15  N   UNL A   1      32.481  21.809  26.199  1.00  0.00    -0.322 N 
ATOM     16  C   UNL A   1      32.023  22.619  27.207  1.00  0.00     0.255 C 
ATOM     17  H   UNL A   1      32.329  20.848  26.345  1.00  0.00     0.170 HD
ATOM     18  O   UNL A   1      31.934  22.134  28.336  1.00  0.00    -0.269 OA
BRANCH  16  19
ATOM     19  C   UNL A   1      31.482  23.997  26.976  1.00  0.00     0.040 A 
ATOM     20  C   UNL A   1      30.098  24.105  26.797  1.00  0.00     0.014 A 
ATOM     21  C   UNL A   1      32.288  25.120  26.713  1.00  0.00     0.022 A 
ATOM     22  C   UNL A   1      29.526  25.297  26.352  1.00  0.00     0.001 A 
ATOM     23  C   UNL A   1      31.721  26.323  26.234  1.00  0.00    -0.010 A 
ATOM     24  C   UNL A   1      30.334  26.394  26.064  1.00  0.00     0.009 A 
BRANCH  23  25
ATOM     25  C   UNL A   1      32.488  27.496  25.734  1.00  0.00     0.068 A 
ATOM     26  C   UNL A   1      33.542  27.399  24.896  1.00  0.00     0.028 A 
ATOM     27  C   UNL A   1      31.673  28.704  25.380  1.00  0.00     0.344 A 
ATOM     28  C   UNL A   1      33.055  27.169  23.527  1.00  0.00     0.018 A 
ATOM     29  O   UNL A   1      31.255  28.726  24.047  1.00  0.00    -0.422 OA
ATOM     30  O   UNL A   1      31.357  29.556  26.200  1.00  0.00    -0.246 OA
ATOM     31  C   UNL A   1      33.665  26.269  22.674  1.00  0.00     0.012 A 
ATOM     32  C   UNL A   1      31.852  27.802  23.164  1.00  0.00     0.138 A 
ATOM     33  C   UNL A   1      33.012  25.957  21.492  1.00  0.00     0.001 A 
ATOM     34  C   UNL A   1      31.184  27.472  22.001  1.00  0.00     0.048 A 
ATOM     35  C   UNL A   1      31.760  26.514  21.182  1.00  0.00     0.004 A 
ENDBRANCH  23  25
ENDBRANCH  16  19
ENDBRANCH  11  15
ENDBRANCH   6   8
ENDBRANCH   5   6
ENDBRANCH   4   5
ENDBRANCH   3   4
ENDBRANCH   2   3
ENDBRANCH   1   2
BRANCH   1  36
ATOM     36  C   UNL A   1      42.323  20.488  27.184  1.00  0.00     0.188 C 
BRANCH  36  37
ATOM     37  O   UNL A   1      42.732  19.261  26.616  1.00  0.00    -0.376 OA
BRANCH  37  38
ATOM     38  C   UNL A   1      43.149  19.296  25.261  1.00  0.00     0.202 C 
BRANCH  38  39
ATOM     39  C   UNL A   1      44.656  19.049  25.063  1.00  0.00     0.261 C 
BRANCH  39  40
ATOM     40  O   UNL A   1      45.439  20.256  25.206  1.00  0.00    -0.460 OA
BRANCH  40  41
ATOM     41  C   UNL A   1      44.951  21.359  24.534  1.00  0.00     0.338 C 
ATOM     42  O   UNL A   1      44.520  21.350  23.422  1.00  0.00    -0.246 OA
BRANCH  41  43
ATOM     43  C   UNL A   1      45.134  22.577  25.381  1.00  0.00     0.060 A 
ATOM     44  C   UNL A   1      45.352  22.592  26.759  1.00  0.00     0.016 A 
ATOM     45  C   UNL A   1      44.919  23.774  24.789  1.00  0.00     0.016 A 
ATOM     46  C   UNL A   1      45.152  23.793  27.542  1.00  0.00     0.010 A 
ATOM     47  C   UNL A   1      44.630  24.870  25.594  1.00  0.00     0.010 A 
ATOM     48  C   UNL A   1      44.657  25.003  27.014  1.00  0.00    -0.014 A 
BRANCH  48  49
ATOM     49  C   UNL A   1      44.208  26.362  27.989  1.00  0.00     0.031 A 
ATOM     50  C   UNL A   1      42.759  27.327  28.196  1.00  0.00     0.074 A 
ATOM     51  C   UNL A   1      45.254  26.924  28.641  1.00  0.00     0.049 A 
ATOM     52  N   UNL A   1      42.739  28.574  28.647  1.00  0.00    -0.248 NA
ATOM     53  C   UNL A   1      41.289  27.048  27.906  1.00  0.00     0.031 C 
ATOM     54  C   UNL A   1      45.236  27.917  29.710  1.00  0.00     0.029 A 
ATOM     55  N   UNL A   1      46.615  26.838  28.299  1.00  0.00    -0.354 N 
ATOM     56  C   UNL A   1      41.396  28.961  28.822  1.00  0.00     0.074 A 
ATOM     57  C   UNL A   1      40.610  28.173  27.984  1.00  0.00     0.031 C 
ATOM     58  C   UNL A   1      46.409  28.572  29.702  1.00  0.00     0.029 A 
ATOM     59  C   UNL A   1      47.131  28.119  28.526  1.00  0.00     0.049 A 
ATOM     60  H   UNL A   1      47.100  26.047  27.970  1.00  0.00     0.167 HD
ATOM     61  C   UNL A   1      40.926  29.716  29.851  1.00  0.00     0.037 A 
ATOM     62  C   UNL A   1      47.581  28.905  27.509  1.00  0.00     0.037 A 
ATOM     63  C   UNL A   1      41.968  30.611  30.237  1.00  0.00     0.049 A 
ATOM     64  C   UNL A   1      46.972  30.286  27.524  1.00  0.00     0.074 A 
ATOM     65  C   UNL A   1      42.926  30.603  31.224  1.00  0.00     0.029 A 
ATOM     66  N   UNL A   1      42.392  31.484  29.251  1.00  0.00    -0.354 N 
ATOM     67  N   UNL A   1      45.852  30.590  28.125  1.00  0.00    -0.248 NA
ATOM     68  C   UNL A   1      47.596  31.440  26.889  1.00  0.00     0.031 C 
ATOM     69  C   UNL A   1      44.047  31.308  30.691  1.00  0.00     0.029 A 
ATOM     70  C   UNL A   1      43.718  31.796  29.432  1.00  0.00     0.049 A 
ATOM     71  H   UNL A   1      41.825  31.833  28.526  1.00  0.00     0.167 HD
ATOM     72  C   UNL A   1      45.579  31.918  27.934  1.00  0.00     0.074 A 
ATOM     73  C   UNL A   1      46.715  32.411  27.184  1.00  0.00     0.031 C 
ATOM     74  C   UNL A   1      44.426  32.504  28.372  1.00  0.00     0.037 A 
BRANCH  61  75
ATOM     75  C   UNL A   1      39.527  29.595  30.473  1.00  0.00     0.057 A 
ATOM     76  C   UNL A   1      38.499  30.471  30.091  1.00  0.00     0.134 A 
ATOM     77  C   UNL A   1      39.156  28.729  31.540  1.00  0.00     0.134 A 
ATOM     78  F   UNL A   1      38.705  31.402  29.149  1.00  0.00    -0.206 F 
ATOM     79  C   UNL A   1      37.215  30.457  30.676  1.00  0.00     0.040 A 
ATOM     80  C   UNL A   1      37.861  28.657  32.083  1.00  0.00     0.040 A 
ATOM     81  F   UNL A   1      40.037  27.947  32.177  1.00  0.00    -0.206 F 
ATOM     82  C   UNL A   1      36.881  29.532  31.656  1.00  0.00     0.006 A 
ENDBRANCH  61  75
BRANCH  62  83
ATOM     83  C   UNL A   1      48.106  28.170  26.316  1.00  0.00     0.057 A 
ATOM     84  C   UNL A   1      49.397  27.602  26.385  1.00  0.00     0.134 A 
ATOM     85  C   UNL A   1      47.308  27.759  25.240  1.00  0.00     0.134 A 
ATOM     86  F   UNL A   1      50.224  27.934  27.390  1.00  0.00    -0.206 F 
ATOM     87  C   UNL A   1      49.838  26.615  25.497  1.00  0.00     0.040 A 
ATOM     88  C   UNL A   1      47.746  26.778  24.330  1.00  0.00     0.040 A 
ATOM     89  F   UNL A   1      46.057  28.220  25.100  1.00  0.00    -0.206 F 
ATOM     90  C   UNL A   1      49.003  26.186  24.471  1.00  0.00     0.006 A 
ENDBRANCH  62  83
BRANCH  74  91
ATOM     91  C   UNL A   1      43.851  33.785  27.797  1.00  0.00     0.057 A 
ATOM     92  C   UNL A   1      43.697  34.973  28.530  1.00  0.00     0.134 A 
ATOM     93  C   UNL A   1      43.606  33.914  26.410  1.00  0.00     0.134 A 
ATOM     94  F   UNL A   1      44.028  35.053  29.825  1.00  0.00    -0.206 F 
ATOM     95  C   UNL A   1      43.255  36.169  27.953  1.00  0.00     0.040 A 
ATOM     96  C   UNL A   1      43.242  35.125  25.810  1.00  0.00     0.040 A 
ATOM     97  F   UNL A   1      43.752  32.881  25.567  1.00  0.00    -0.206 F 
ATOM     98  C   UNL A   1      43.041  36.254  26.586  1.00  0.00     0.006 A 
ENDBRANCH  74  91
ENDBRANCH  48  49
ENDBRANCH  41  43
ENDBRANCH  40  41
ENDBRANCH  39  40
ENDBRANCH  38  39
ENDBRANCH  37  38
ENDBRANCH  36  37
ENDBRANCH   1  36
TORSDOF 20
ENDMDL
