MODEL 1
REMARK VINA RESULT:     -10.9      0.000      0.000
REMARK SMILES CCc1cc(OC(F)(F)F)cc2c1O[C@@H](C(F)(F)F)C(C(=O)OCCOCCOCCOC(=O)c1ccc(-c3c4nc(c(-c5c(F)cccc5F)c5ccc([nH]5)c(-c5c(F)cccc5F)c5nc(c(-c6c(F)cccc6F)c6ccc3[nH]6)C=C5)C=C4)cc1)=C2
REMARK SMILES IDX 27 1 26 2 25 3 24 4 23 5 21 6 22 7 20 8 3 9 4 10 13 11 5 12
REMARK SMILES IDX 12 13 14 14 11 15 89 16 15 17 2 18 1 19 6 20 7 21 8 22 9 23
REMARK SMILES IDX 10 24 16 25 17 26 18 27 19 28 28 29 29 30 30 31 31 32 32 33
REMARK SMILES IDX 33 34 34 35 35 36 36 37 88 38 37 39 87 40 38 41 39 42 40 43
REMARK SMILES IDX 81 44 41 45 86 46 80 47 82 48 42 49 85 50 79 51 78 52 43 54
REMARK SMILES IDX 69 55 52 56 68 57 53 58 56 59 67 60 83 61 54 62 55 63 66 65
REMARK SMILES IDX 84 66 57 67 44 68 45 69 50 70 46 71 47 72 49 73 51 74 48 75
REMARK SMILES IDX 70 76 71 77 76 78 72 79 73 80 75 81 77 82 74 83 58 84 59 85
REMARK SMILES IDX 64 86 60 87 61 88 63 89 65 90 62 91
REMARK H PARENT 82 53 56 64
REMARK Flexibility Score: inf
ROOT
ATOM      1  C   UNL A   1      34.105  20.559  25.431  1.00  0.00     0.188 C 
ENDROOT
BRANCH   1   2
ATOM      2  O   UNL A   1      32.969  21.244  24.960  1.00  0.00    -0.376 OA
BRANCH   2   3
ATOM      3  C   UNL A   1      32.370  20.885  23.731  1.00  0.00     0.202 C 
BRANCH   3   4
ATOM      4  C   UNL A   1      32.059  21.883  22.601  1.00  0.00     0.261 C 
BRANCH   4   5
ATOM      5  O   UNL A   1      31.901  23.257  22.964  1.00  0.00    -0.460 OA
BRANCH   5   6
ATOM      6  C   UNL A   1      32.744  24.147  22.383  1.00  0.00     0.338 C 
ATOM      7  O   UNL A   1      33.515  23.923  21.479  1.00  0.00    -0.246 OA
BRANCH   6   8
ATOM      8  C   UNL A   1      32.503  25.492  22.948  1.00  0.00     0.087 C 
ATOM      9  C   UNL A   1      31.490  28.933  25.099  1.00  0.00    -0.002 A 
ATOM     10  C   UNL A   1      30.673  29.901  24.487  1.00  0.00     0.054 A 
ATOM     11  C   UNL A   1      31.812  27.776  24.374  1.00  0.00     0.131 A 
ATOM     12  C   UNL A   1      30.156  29.702  23.204  1.00  0.00     0.130 A 
ATOM     13  C   UNL A   1      31.301  27.563  23.084  1.00  0.00     0.021 A 
ATOM     14  O   UNL A   1      32.587  26.827  24.993  1.00  0.00    -0.475 OA
ATOM     15  C   UNL A   1      30.486  28.537  22.501  1.00  0.00     0.058 A 
ATOM     16  C   UNL A   1      31.549  26.280  22.425  1.00  0.00     0.027 C 
ATOM     17  C   UNL A   1      33.353  25.987  24.093  1.00  0.00     0.316 C 
BRANCH   9  18
ATOM     18  C   UNL A   1      32.010  29.162  26.501  1.00  0.00     0.036 C 
ATOM     19  C   UNL A   1      33.108  30.218  26.566  1.00  0.00     0.009 C 
ENDBRANCH   9  18
BRANCH  12  20
ATOM     20  O   UNL A   1      29.327  30.560  22.537  1.00  0.00    -0.406 OA
BRANCH  20  21
ATOM     21  C   UNL A   1      27.948  30.524  22.872  1.00  0.00     0.573 C 
ATOM     22  F   UNL A   1      27.592  29.317  23.365  1.00  0.00    -0.132 F 
ATOM     23  F   UNL A   1      27.643  31.485  23.770  1.00  0.00    -0.132 F 
ATOM     24  F   UNL A   1      27.223  30.749  21.754  1.00  0.00    -0.132 F 
ENDBRANCH  20  21
ENDBRANCH  12  20
BRANCH  17  25
ATOM     25  C   UNL A   1      34.122  24.957  24.934  1.00  0.00     0.430 C 
ATOM     26  F   UNL A   1      34.896  24.165  24.155  1.00  0.00    -0.167 F 
ATOM     27  F   UNL A   1      34.979  25.589  25.779  1.00  0.00    -0.167 F 
ATOM     28  F   UNL A   1      33.322  24.179  25.688  1.00  0.00    -0.167 F 
ENDBRANCH  17  25
ENDBRANCH   6   8
ENDBRANCH   5   6
ENDBRANCH   4   5
ENDBRANCH   3   4
ENDBRANCH   2   3
ENDBRANCH   1   2
BRANCH   1  29
ATOM     29  C   UNL A   1      35.161  21.478  26.082  1.00  0.00     0.188 C 
BRANCH  29  30
ATOM     30  O   UNL A   1      36.517  21.417  25.660  1.00  0.00    -0.376 OA
BRANCH  30  31
ATOM     31  C   UNL A   1      36.955  20.319  24.868  1.00  0.00     0.202 C 
BRANCH  31  32
ATOM     32  C   UNL A   1      38.423  19.876  24.949  1.00  0.00     0.261 C 
BRANCH  32  33
ATOM     33  O   UNL A   1      39.145  20.377  26.085  1.00  0.00    -0.460 OA
BRANCH  33  34
ATOM     34  C   UNL A   1      40.462  20.058  26.119  1.00  0.00     0.338 C 
ATOM     35  O   UNL A   1      40.992  19.049  25.685  1.00  0.00    -0.246 OA
BRANCH  34  36
ATOM     36  C   UNL A   1      41.246  21.203  26.619  1.00  0.00     0.060 A 
ATOM     37  C   UNL A   1      41.211  21.469  27.994  1.00  0.00     0.016 A 
ATOM     38  C   UNL A   1      41.929  22.054  25.749  1.00  0.00     0.016 A 
ATOM     39  C   UNL A   1      41.831  22.608  28.502  1.00  0.00     0.010 A 
ATOM     40  C   UNL A   1      42.533  23.210  26.257  1.00  0.00     0.010 A 
ATOM     41  C   UNL A   1      42.458  23.509  27.630  1.00  0.00    -0.014 A 
BRANCH  41  42
ATOM     42  C   UNL A   1      42.871  24.840  28.136  1.00  0.00     0.031 A 
ATOM     43  C   UNL A   1      41.818  25.893  28.350  1.00  0.00     0.074 A 
ATOM     44  C   UNL A   1      44.154  25.101  28.439  1.00  0.00     0.049 A 
ATOM     45  N   UNL A   1      41.947  27.124  28.777  1.00  0.00    -0.248 NA
ATOM     46  C   UNL A   1      40.432  25.503  28.044  1.00  0.00     0.031 C 
ATOM     47  C   UNL A   1      45.263  24.157  28.317  1.00  0.00     0.029 A 
ATOM     48  N   UNL A   1      44.738  26.251  28.910  1.00  0.00    -0.354 N 
ATOM     49  C   UNL A   1      40.662  27.653  28.792  1.00  0.00     0.074 A 
ATOM     50  C   UNL A   1      39.772  26.622  28.303  1.00  0.00     0.031 C 
ATOM     51  C   UNL A   1      46.399  24.770  28.692  1.00  0.00     0.029 A 
ATOM     52  C   UNL A   1      46.101  26.154  29.056  1.00  0.00     0.049 A 
ATOM     53  H   UNL A   1      44.230  27.066  29.122  1.00  0.00     0.167 HD
ATOM     54  C   UNL A   1      40.259  28.884  29.186  1.00  0.00     0.037 A 
ATOM     55  C   UNL A   1      47.002  27.085  29.423  1.00  0.00     0.037 A 
ATOM     56  C   UNL A   1      41.140  29.915  29.665  1.00  0.00     0.049 A 
ATOM     57  C   UNL A   1      46.537  28.472  29.784  1.00  0.00     0.074 A 
ATOM     58  C   UNL A   1      40.822  31.189  30.099  1.00  0.00     0.029 A 
ATOM     59  N   UNL A   1      42.518  29.791  29.763  1.00  0.00    -0.354 N 
ATOM     60  N   UNL A   1      45.318  28.953  29.823  1.00  0.00    -0.248 NA
ATOM     61  C   UNL A   1      47.576  29.443  30.157  1.00  0.00     0.031 C 
ATOM     62  C   UNL A   1      42.011  31.853  30.418  1.00  0.00     0.029 A 
ATOM     63  C   UNL A   1      43.066  30.975  30.228  1.00  0.00     0.049 A 
ATOM     64  H   UNL A   1      43.030  28.981  29.537  1.00  0.00     0.167 HD
ATOM     65  C   UNL A   1      45.441  30.270  30.251  1.00  0.00     0.074 A 
ATOM     66  C   UNL A   1      46.852  30.510  30.469  1.00  0.00     0.031 C 
ATOM     67  C   UNL A   1      44.472  31.198  30.449  1.00  0.00     0.037 A 
BRANCH  54  68
ATOM     68  C   UNL A   1      38.793  29.189  29.090  1.00  0.00     0.057 A 
ATOM     69  C   UNL A   1      37.944  29.089  30.199  1.00  0.00     0.134 A 
ATOM     70  C   UNL A   1      38.230  29.613  27.879  1.00  0.00     0.134 A 
ATOM     71  F   UNL A   1      38.418  28.674  31.383  1.00  0.00    -0.206 F 
ATOM     72  C   UNL A   1      36.582  29.381  30.103  1.00  0.00     0.040 A 
ATOM     73  C   UNL A   1      36.876  29.930  27.777  1.00  0.00     0.040 A 
ATOM     74  F   UNL A   1      38.990  29.732  26.779  1.00  0.00    -0.206 F 
ATOM     75  C   UNL A   1      36.046  29.808  28.890  1.00  0.00     0.006 A 
ENDBRANCH  54  68
BRANCH  55  76
ATOM     76  C   UNL A   1      48.446  26.746  29.463  1.00  0.00     0.057 A 
ATOM     77  C   UNL A   1      49.036  26.206  30.610  1.00  0.00     0.134 A 
ATOM     78  C   UNL A   1      49.278  26.986  28.361  1.00  0.00     0.134 A 
ATOM     79  F   UNL A   1      48.297  25.981  31.707  1.00  0.00    -0.206 F 
ATOM     80  C   UNL A   1      50.403  25.932  30.670  1.00  0.00     0.040 A 
ATOM     81  C   UNL A   1      50.642  26.694  28.399  1.00  0.00     0.040 A 
ATOM     82  F   UNL A   1      48.774  27.507  27.233  1.00  0.00    -0.206 F 
ATOM     83  C   UNL A   1      51.210  26.172  29.559  1.00  0.00     0.006 A 
ENDBRANCH  55  76
BRANCH  67  84
ATOM     84  C   UNL A   1      44.898  32.543  30.960  1.00  0.00     0.057 A 
ATOM     85  C   UNL A   1      45.192  33.605  30.095  1.00  0.00     0.134 A 
ATOM     86  C   UNL A   1      44.977  32.790  32.337  1.00  0.00     0.134 A 
ATOM     87  F   UNL A   1      45.145  33.432  28.766  1.00  0.00    -0.206 F 
ATOM     88  C   UNL A   1      45.573  34.857  30.581  1.00  0.00     0.040 A 
ATOM     89  C   UNL A   1      45.332  34.044  32.835  1.00  0.00     0.040 A 
ATOM     90  F   UNL A   1      44.699  31.818  33.220  1.00  0.00    -0.206 F 
ATOM     91  C   UNL A   1      45.637  35.081  31.956  1.00  0.00     0.006 A 
ENDBRANCH  67  84
ENDBRANCH  41  42
ENDBRANCH  34  36
ENDBRANCH  33  34
ENDBRANCH  32  33
ENDBRANCH  31  32
ENDBRANCH  30  31
ENDBRANCH  29  30
ENDBRANCH   1  29
TORSDOF 21
ENDMDL
MODEL 2
REMARK VINA RESULT:     -10.9      4.071      9.019
REMARK SMILES CCc1cc(OC(F)(F)F)cc2c1O[C@@H](C(F)(F)F)C(C(=O)OCCOCCOCCOC(=O)c1ccc(-c3c4nc(c(-c5c(F)cccc5F)c5ccc([nH]5)c(-c5c(F)cccc5F)c5nc(c(-c6c(F)cccc6F)c6ccc3[nH]6)C=C5)C=C4)cc1)=C2
REMARK SMILES IDX 27 1 26 2 25 3 24 4 23 5 21 6 22 7 20 8 3 9 4 10 13 11 5 12
REMARK SMILES IDX 12 13 14 14 11 15 89 16 15 17 2 18 1 19 6 20 7 21 8 22 9 23
REMARK SMILES IDX 10 24 16 25 17 26 18 27 19 28 28 29 29 30 30 31 31 32 32 33
REMARK SMILES IDX 33 34 34 35 35 36 36 37 88 38 37 39 87 40 38 41 39 42 40 43
REMARK SMILES IDX 81 44 41 45 86 46 80 47 82 48 42 49 85 50 79 51 78 52 43 54
REMARK SMILES IDX 69 55 52 56 68 57 53 58 56 59 67 60 83 61 54 62 55 63 66 65
REMARK SMILES IDX 84 66 57 67 44 68 45 69 50 70 46 71 47 72 49 73 51 74 48 75
REMARK SMILES IDX 70 76 71 77 76 78 72 79 73 80 75 81 77 82 74 83 58 84 59 85
REMARK SMILES IDX 64 86 60 87 61 88 63 89 65 90 62 91
REMARK H PARENT 82 53 56 64
REMARK Flexibility Score: inf
ROOT
ATOM      1  C   UNL A   1      31.044  29.331  24.465  1.00  0.00     0.188 C 
ENDROOT
BRANCH   1   2
ATOM      2  O   UNL A   1      31.028  28.313  23.493  1.00  0.00    -0.376 OA
BRANCH   2   3
ATOM      3  C   UNL A   1      29.849  27.576  23.242  1.00  0.00     0.202 C 
BRANCH   3   4
ATOM      4  C   UNL A   1      29.363  26.404  24.114  1.00  0.00     0.261 C 
BRANCH   4   5
ATOM      5  O   UNL A   1      30.242  25.284  24.256  1.00  0.00    -0.460 OA
BRANCH   5   6
ATOM      6  C   UNL A   1      30.513  24.874  25.520  1.00  0.00     0.338 C 
ATOM      7  O   UNL A   1      29.892  25.158  26.518  1.00  0.00    -0.246 OA
BRANCH   6   8
ATOM      8  C   UNL A   1      31.638  23.915  25.494  1.00  0.00     0.087 C 
ATOM      9  C   UNL A   1      34.954  21.479  24.746  1.00  0.00    -0.002 A 
ATOM     10  C   UNL A   1      34.789  20.082  24.760  1.00  0.00     0.054 A 
ATOM     11  C   UNL A   1      33.833  22.286  24.984  1.00  0.00     0.131 A 
ATOM     12  C   UNL A   1      33.531  19.507  24.963  1.00  0.00     0.130 A 
ATOM     13  C   UNL A   1      32.564  21.723  25.191  1.00  0.00     0.021 A 
ATOM     14  O   UNL A   1      34.003  23.648  24.939  1.00  0.00    -0.475 OA
ATOM     15  C   UNL A   1      32.424  20.332  25.193  1.00  0.00     0.058 A 
ATOM     16  C   UNL A   1      31.402  22.608  25.294  1.00  0.00     0.027 C 
ATOM     17  C   UNL A   1      33.047  24.405  25.724  1.00  0.00     0.316 C 
BRANCH   9  18
ATOM     18  C   UNL A   1      36.322  22.074  24.493  1.00  0.00     0.036 C 
ATOM     19  C   UNL A   1      37.446  21.292  25.163  1.00  0.00     0.009 C 
ENDBRANCH   9  18
BRANCH  12  20
ATOM     20  O   UNL A   1      33.257  18.168  24.959  1.00  0.00    -0.406 OA
BRANCH  20  21
ATOM     21  C   UNL A   1      33.499  17.458  23.754  1.00  0.00     0.573 C 
ATOM     22  F   UNL A   1      32.887  18.048  22.704  1.00  0.00    -0.132 F 
ATOM     23  F   UNL A   1      34.822  17.359  23.507  1.00  0.00    -0.132 F 
ATOM     24  F   UNL A   1      33.001  16.207  23.879  1.00  0.00    -0.132 F 
ENDBRANCH  20  21
ENDBRANCH  12  20
BRANCH  17  25
ATOM     25  C   UNL A   1      33.343  25.901  25.530  1.00  0.00     0.430 C 
ATOM     26  F   UNL A   1      33.222  26.261  24.230  1.00  0.00    -0.167 F 
ATOM     27  F   UNL A   1      32.431  26.649  26.205  1.00  0.00    -0.167 F 
ATOM     28  F   UNL A   1      34.562  26.265  25.972  1.00  0.00    -0.167 F 
ENDBRANCH  17  25
ENDBRANCH   6   8
ENDBRANCH   5   6
ENDBRANCH   4   5
ENDBRANCH   3   4
ENDBRANCH   2   3
ENDBRANCH   1   2
BRANCH   1  29
ATOM     29  C   UNL A   1      32.448  29.626  25.035  1.00  0.00     0.188 C 
BRANCH  29  30
ATOM     30  O   UNL A   1      32.601  30.526  26.125  1.00  0.00    -0.376 OA
BRANCH  30  31
ATOM     31  C   UNL A   1      31.483  31.286  26.568  1.00  0.00     0.202 C 
BRANCH  31  32
ATOM     32  C   UNL A   1      31.672  32.771  26.907  1.00  0.00     0.261 C 
BRANCH  32  33
ATOM     33  O   UNL A   1      33.039  33.189  27.049  1.00  0.00    -0.460 OA
BRANCH  33  34
ATOM     34  C   UNL A   1      33.275  34.051  28.069  1.00  0.00     0.338 C 
ATOM     35  O   UNL A   1      32.622  35.034  28.377  1.00  0.00    -0.246 OA
BRANCH  34  36
ATOM     36  C   UNL A   1      34.377  33.547  28.911  1.00  0.00     0.060 A 
ATOM     37  C   UNL A   1      35.671  34.012  28.643  1.00  0.00     0.016 A 
ATOM     38  C   UNL A   1      34.162  32.568  29.883  1.00  0.00     0.016 A 
ATOM     39  C   UNL A   1      36.762  33.476  29.324  1.00  0.00     0.010 A 
ATOM     40  C   UNL A   1      35.261  32.015  30.550  1.00  0.00     0.010 A 
ATOM     41  C   UNL A   1      36.567  32.443  30.250  1.00  0.00    -0.014 A 
BRANCH  41  42
ATOM     42  C   UNL A   1      37.741  31.696  30.762  1.00  0.00     0.031 A 
ATOM     43  C   UNL A   1      38.231  31.981  32.156  1.00  0.00     0.074 A 
ATOM     44  C   UNL A   1      38.343  30.752  30.018  1.00  0.00     0.049 A 
ATOM     45  N   UNL A   1      39.237  31.457  32.807  1.00  0.00    -0.248 NA
ATOM     46  C   UNL A   1      37.479  32.992  32.918  1.00  0.00     0.031 C 
ATOM     47  C   UNL A   1      37.942  30.351  28.671  1.00  0.00     0.029 A 
ATOM     48  N   UNL A   1      39.428  29.960  30.298  1.00  0.00    -0.354 N 
ATOM     49  C   UNL A   1      39.240  32.071  34.054  1.00  0.00     0.074 A 
ATOM     50  C   UNL A   1      38.155  33.029  34.057  1.00  0.00     0.031 C 
ATOM     51  C   UNL A   1      38.780  29.395  28.235  1.00  0.00     0.029 A 
ATOM     52  C   UNL A   1      39.788  29.134  29.261  1.00  0.00     0.049 A 
ATOM     53  H   UNL A   1      39.903  29.982  31.160  1.00  0.00     0.167 HD
ATOM     54  C   UNL A   1      40.066  31.852  35.104  1.00  0.00     0.037 A 
ATOM     55  C   UNL A   1      40.825  28.282  29.150  1.00  0.00     0.037 A 
ATOM     56  C   UNL A   1      41.151  30.908  35.102  1.00  0.00     0.049 A 
ATOM     57  C   UNL A   1      41.777  28.111  30.305  1.00  0.00     0.074 A 
ATOM     58  C   UNL A   1      42.034  30.606  36.124  1.00  0.00     0.029 A 
ATOM     59  N   UNL A   1      41.506  30.117  34.020  1.00  0.00    -0.354 N 
ATOM     60  N   UNL A   1      41.754  28.675  31.488  1.00  0.00    -0.248 NA
ATOM     61  C   UNL A   1      42.898  27.180  30.108  1.00  0.00     0.031 C 
ATOM     62  C   UNL A   1      42.953  29.666  35.646  1.00  0.00     0.029 A 
ATOM     63  C   UNL A   1      42.612  29.346  34.341  1.00  0.00     0.049 A 
ATOM     64  H   UNL A   1      41.042  30.106  33.151  1.00  0.00     0.167 HD
ATOM     65  C   UNL A   1      42.834  28.146  32.185  1.00  0.00     0.074 A 
ATOM     66  C   UNL A   1      43.488  27.209  31.295  1.00  0.00     0.031 C 
ATOM     67  C   UNL A   1      43.248  28.411  33.449  1.00  0.00     0.037 A 
BRANCH  54  68
ATOM     68  C   UNL A   1      39.839  32.672  36.339  1.00  0.00     0.057 A 
ATOM     69  C   UNL A   1      40.587  33.824  36.609  1.00  0.00     0.134 A 
ATOM     70  C   UNL A   1      38.842  32.317  37.257  1.00  0.00     0.134 A 
ATOM     71  F   UNL A   1      41.567  34.209  35.777  1.00  0.00    -0.206 F 
ATOM     72  C   UNL A   1      40.366  34.585  37.758  1.00  0.00     0.040 A 
ATOM     73  C   UNL A   1      38.596  33.082  38.397  1.00  0.00     0.040 A 
ATOM     74  F   UNL A   1      38.088  31.225  37.057  1.00  0.00    -0.206 F 
ATOM     75  C   UNL A   1      39.364  34.217  38.653  1.00  0.00     0.006 A 
ENDBRANCH  54  68
BRANCH  55  76
ATOM     76  C   UNL A   1      41.032  27.524  27.891  1.00  0.00     0.057 A 
ATOM     77  C   UNL A   1      40.502  26.241  27.718  1.00  0.00     0.134 A 
ATOM     78  C   UNL A   1      41.794  28.054  26.842  1.00  0.00     0.134 A 
ATOM     79  F   UNL A   1      39.788  25.669  28.699  1.00  0.00    -0.206 F 
ATOM     80  C   UNL A   1      40.736  25.504  26.557  1.00  0.00     0.040 A 
ATOM     81  C   UNL A   1      42.016  27.337  25.665  1.00  0.00     0.040 A 
ATOM     82  F   UNL A   1      42.334  29.277  26.948  1.00  0.00    -0.206 F 
ATOM     83  C   UNL A   1      41.492  26.054  25.523  1.00  0.00     0.006 A 
ENDBRANCH  55  76
BRANCH  67  84
ATOM     84  C   UNL A   1      44.437  27.652  33.959  1.00  0.00     0.057 A 
ATOM     85  C   UNL A   1      45.736  28.171  33.883  1.00  0.00     0.134 A 
ATOM     86  C   UNL A   1      44.276  26.401  34.571  1.00  0.00     0.134 A 
ATOM     87  F   UNL A   1      45.960  29.359  33.300  1.00  0.00    -0.206 F 
ATOM     88  C   UNL A   1      46.835  27.463  34.374  1.00  0.00     0.040 A 
ATOM     89  C   UNL A   1      45.363  25.696  35.088  1.00  0.00     0.040 A 
ATOM     90  F   UNL A   1      43.058  25.851  34.685  1.00  0.00    -0.206 F 
ATOM     91  C   UNL A   1      46.649  26.224  34.986  1.00  0.00     0.006 A 
ENDBRANCH  67  84
ENDBRANCH  41  42
ENDBRANCH  34  36
ENDBRANCH  33  34
ENDBRANCH  32  33
ENDBRANCH  31  32
ENDBRANCH  30  31
ENDBRANCH  29  30
ENDBRANCH   1  29
TORSDOF 21
ENDMDL
MODEL 3
REMARK VINA RESULT:     -10.9      2.422      8.147
REMARK SMILES CCc1cc(OC(F)(F)F)cc2c1O[C@@H](C(F)(F)F)C(C(=O)OCCOCCOCCOC(=O)c1ccc(-c3c4nc(c(-c5c(F)cccc5F)c5ccc([nH]5)c(-c5c(F)cccc5F)c5nc(c(-c6c(F)cccc6F)c6ccc3[nH]6)C=C5)C=C4)cc1)=C2
REMARK SMILES IDX 27 1 26 2 25 3 24 4 23 5 21 6 22 7 20 8 3 9 4 10 13 11 5 12
REMARK SMILES IDX 12 13 14 14 11 15 89 16 15 17 2 18 1 19 6 20 7 21 8 22 9 23
REMARK SMILES IDX 10 24 16 25 17 26 18 27 19 28 28 29 29 30 30 31 31 32 32 33
REMARK SMILES IDX 33 34 34 35 35 36 36 37 88 38 37 39 87 40 38 41 39 42 40 43
REMARK SMILES IDX 81 44 41 45 86 46 80 47 82 48 42 49 85 50 79 51 78 52 43 54
REMARK SMILES IDX 69 55 52 56 68 57 53 58 56 59 67 60 83 61 54 62 55 63 66 65
REMARK SMILES IDX 84 66 57 67 44 68 45 69 50 70 46 71 47 72 49 73 51 74 48 75
REMARK SMILES IDX 70 76 71 77 76 78 72 79 73 80 75 81 77 82 74 83 58 84 59 85
REMARK SMILES IDX 64 86 60 87 61 88 63 89 65 90 62 91
REMARK H PARENT 82 53 56 64
REMARK Flexibility Score: inf
ROOT
ATOM      1  C   UNL A   1      31.583  28.858  23.321  1.00  0.00     0.188 C 
ENDROOT
BRANCH   1   2
ATOM      2  O   UNL A   1      30.819  27.802  22.791  1.00  0.00    -0.376 OA
BRANCH   2   3
ATOM      3  C   UNL A   1      29.554  27.483  23.336  1.00  0.00     0.202 C 
BRANCH   3   4
ATOM      4  C   UNL A   1      29.213  26.130  23.986  1.00  0.00     0.261 C 
BRANCH   4   5
ATOM      5  O   UNL A   1      30.286  25.202  24.170  1.00  0.00    -0.460 OA
BRANCH   5   6
ATOM      6  C   UNL A   1      30.567  24.834  25.445  1.00  0.00     0.338 C 
ATOM      7  O   UNL A   1      29.958  25.155  26.439  1.00  0.00    -0.246 OA
BRANCH   6   8
ATOM      8  C   UNL A   1      31.689  23.869  25.441  1.00  0.00     0.087 C 
ATOM      9  C   UNL A   1      35.009  21.419  24.760  1.00  0.00    -0.002 A 
ATOM     10  C   UNL A   1      34.836  20.023  24.765  1.00  0.00     0.054 A 
ATOM     11  C   UNL A   1      33.886  22.232  24.975  1.00  0.00     0.131 A 
ATOM     12  C   UNL A   1      33.571  19.454  24.936  1.00  0.00     0.130 A 
ATOM     13  C   UNL A   1      32.610  21.674  25.150  1.00  0.00     0.021 A 
ATOM     14  O   UNL A   1      34.064  23.592  24.941  1.00  0.00    -0.475 OA
ATOM     15  C   UNL A   1      32.463  20.284  25.143  1.00  0.00     0.058 A 
ATOM     16  C   UNL A   1      31.450  22.564  25.230  1.00  0.00     0.027 C 
ATOM     17  C   UNL A   1      33.094  24.352  25.706  1.00  0.00     0.316 C 
BRANCH   9  18
ATOM     18  C   UNL A   1      36.385  22.008  24.542  1.00  0.00     0.036 C 
ATOM     19  C   UNL A   1      37.508  21.093  25.016  1.00  0.00     0.009 C 
ENDBRANCH   9  18
BRANCH  12  20
ATOM     20  O   UNL A   1      33.290  18.116  24.920  1.00  0.00    -0.406 OA
BRANCH  20  21
ATOM     21  C   UNL A   1      33.470  17.428  23.691  1.00  0.00     0.573 C 
ATOM     22  F   UNL A   1      34.779  17.316  23.377  1.00  0.00    -0.132 F 
ATOM     23  F   UNL A   1      32.911  16.200  23.737  1.00  0.00    -0.132 F 
ATOM     24  F   UNL A   1      32.863  18.129  22.708  1.00  0.00    -0.132 F 
ENDBRANCH  20  21
ENDBRANCH  12  20
BRANCH  17  25
ATOM     25  C   UNL A   1      33.402  25.846  25.526  1.00  0.00     0.430 C 
ATOM     26  F   UNL A   1      34.710  26.110  25.763  1.00  0.00    -0.167 F 
ATOM     27  F   UNL A   1      33.182  26.216  24.236  1.00  0.00    -0.167 F 
ATOM     28  F   UNL A   1      32.648  26.645  26.304  1.00  0.00    -0.167 F 
ENDBRANCH  17  25
ENDBRANCH   6   8
ENDBRANCH   5   6
ENDBRANCH   4   5
ENDBRANCH   3   4
ENDBRANCH   2   3
ENDBRANCH   1   2
BRANCH   1  29
ATOM     29  C   UNL A   1      30.980  29.484  24.596  1.00  0.00     0.188 C 
BRANCH  29  30
ATOM     30  O   UNL A   1      31.798  30.255  25.468  1.00  0.00    -0.376 OA
BRANCH  30  31
ATOM     31  C   UNL A   1      32.026  29.803  26.797  1.00  0.00     0.202 C 
BRANCH  31  32
ATOM     32  C   UNL A   1      33.466  29.710  27.320  1.00  0.00     0.261 C 
BRANCH  32  33
ATOM     33  O   UNL A   1      34.193  30.950  27.314  1.00  0.00    -0.460 OA
BRANCH  33  34
ATOM     34  C   UNL A   1      34.872  31.224  28.455  1.00  0.00     0.338 C 
ATOM     35  O   UNL A   1      34.496  31.897  29.400  1.00  0.00    -0.246 OA
BRANCH  34  36
ATOM     36  C   UNL A   1      36.121  30.441  28.499  1.00  0.00     0.060 A 
ATOM     37  C   UNL A   1      36.456  29.809  29.704  1.00  0.00     0.016 A 
ATOM     38  C   UNL A   1      36.995  30.401  27.412  1.00  0.00     0.016 A 
ATOM     39  C   UNL A   1      37.682  29.161  29.838  1.00  0.00     0.010 A 
ATOM     40  C   UNL A   1      38.236  29.769  27.554  1.00  0.00     0.010 A 
ATOM     41  C   UNL A   1      38.597  29.175  28.778  1.00  0.00    -0.014 A 
BRANCH  41  42
ATOM     42  C   UNL A   1      39.991  28.729  29.017  1.00  0.00     0.031 A 
ATOM     43  C   UNL A   1      40.939  29.659  29.725  1.00  0.00     0.074 A 
ATOM     44  C   UNL A   1      40.402  27.504  28.647  1.00  0.00     0.049 A 
ATOM     45  N   UNL A   1      42.198  29.485  30.035  1.00  0.00    -0.248 NA
ATOM     46  C   UNL A   1      40.389  30.960  30.141  1.00  0.00     0.031 C 
ATOM     47  C   UNL A   1      39.573  26.494  27.993  1.00  0.00     0.029 A 
ATOM     48  N   UNL A   1      41.631  26.905  28.771  1.00  0.00    -0.354 N 
ATOM     49  C   UNL A   1      42.591  30.650  30.683  1.00  0.00     0.074 A 
ATOM     50  C   UNL A   1      41.446  31.536  30.694  1.00  0.00     0.031 C 
ATOM     51  C   UNL A   1      40.322  25.402  27.760  1.00  0.00     0.029 A 
ATOM     52  C   UNL A   1      41.686  25.646  28.227  1.00  0.00     0.049 A 
ATOM     53  H   UNL A   1      42.399  27.338  29.208  1.00  0.00     0.167 HD
ATOM     54  C   UNL A   1      43.793  30.952  31.227  1.00  0.00     0.037 A 
ATOM     55  C   UNL A   1      42.725  24.798  28.103  1.00  0.00     0.037 A 
ATOM     56  C   UNL A   1      44.936  30.079  31.211  1.00  0.00     0.049 A 
ATOM     57  C   UNL A   1      44.074  25.188  28.650  1.00  0.00     0.074 A 
ATOM     58  C   UNL A   1      46.193  30.292  31.749  1.00  0.00     0.029 A 
ATOM     59  N   UNL A   1      44.962  28.826  30.617  1.00  0.00    -0.354 N 
ATOM     60  N   UNL A   1      44.427  26.278  29.285  1.00  0.00    -0.248 NA
ATOM     61  C   UNL A   1      45.168  24.223  28.463  1.00  0.00     0.031 C 
ATOM     62  C   UNL A   1      46.994  29.187  31.441  1.00  0.00     0.029 A 
ATOM     63  C   UNL A   1      46.222  28.265  30.754  1.00  0.00     0.049 A 
ATOM     64  H   UNL A   1      44.199  28.398  30.165  1.00  0.00     0.167 HD
ATOM     65  C   UNL A   1      45.771  26.119  29.600  1.00  0.00     0.074 A 
ATOM     66  C   UNL A   1      46.169  24.822  29.094  1.00  0.00     0.031 C 
ATOM     67  C   UNL A   1      46.602  26.969  30.252  1.00  0.00     0.037 A 
BRANCH  54  68
ATOM     68  C   UNL A   1      43.938  32.301  31.867  1.00  0.00     0.057 A 
ATOM     69  C   UNL A   1      44.361  33.421  31.141  1.00  0.00     0.134 A 
ATOM     70  C   UNL A   1      43.627  32.485  33.220  1.00  0.00     0.134 A 
ATOM     71  F   UNL A   1      44.690  33.307  29.846  1.00  0.00    -0.206 F 
ATOM     72  C   UNL A   1      44.489  34.674  31.743  1.00  0.00     0.040 A 
ATOM     73  C   UNL A   1      43.727  33.737  33.827  1.00  0.00     0.040 A 
ATOM     74  F   UNL A   1      43.213  31.453  33.971  1.00  0.00    -0.206 F 
ATOM     75  C   UNL A   1      44.165  34.836  33.089  1.00  0.00     0.006 A 
ENDBRANCH  54  68
BRANCH  55  76
ATOM     76  C   UNL A   1      42.541  23.491  27.424  1.00  0.00     0.057 A 
ATOM     77  C   UNL A   1      42.708  23.359  26.042  1.00  0.00     0.134 A 
ATOM     78  C   UNL A   1      42.163  22.348  28.140  1.00  0.00     0.134 A 
ATOM     79  F   UNL A   1      43.042  24.425  25.299  1.00  0.00    -0.206 F 
ATOM     80  C   UNL A   1      42.488  22.145  25.391  1.00  0.00     0.040 A 
ATOM     81  C   UNL A   1      41.963  21.121  27.506  1.00  0.00     0.040 A 
ATOM     82  F   UNL A   1      41.982  22.410  29.468  1.00  0.00    -0.206 F 
ATOM     83  C   UNL A   1      42.119  21.019  26.125  1.00  0.00     0.006 A 
ENDBRANCH  55  76
BRANCH  67  84
ATOM     84  C   UNL A   1      48.011  26.511  30.489  1.00  0.00     0.057 A 
ATOM     85  C   UNL A   1      48.401  25.902  31.689  1.00  0.00     0.134 A 
ATOM     86  C   UNL A   1      48.984  26.648  29.489  1.00  0.00     0.134 A 
ATOM     87  F   UNL A   1      47.521  25.751  32.690  1.00  0.00    -0.206 F 
ATOM     88  C   UNL A   1      49.711  25.466  31.894  1.00  0.00     0.040 A 
ATOM     89  C   UNL A   1      50.290  26.193  29.672  1.00  0.00     0.040 A 
ATOM     90  F   UNL A   1      48.675  27.214  28.312  1.00  0.00    -0.206 F 
ATOM     91  C   UNL A   1      50.658  25.605  30.881  1.00  0.00     0.006 A 
ENDBRANCH  67  84
ENDBRANCH  41  42
ENDBRANCH  34  36
ENDBRANCH  33  34
ENDBRANCH  32  33
ENDBRANCH  31  32
ENDBRANCH  30  31
ENDBRANCH  29  30
ENDBRANCH   1  29
TORSDOF 21
ENDMDL
