MODEL 1
REMARK VINA RESULT:     -12.2      0.000      0.000
REMARK SMILES Cc1c[nH]c(C(=O)N2CCC3(CC2)NC(=O)C[C@@H]3C(=O)OCCOCCOCCOC(=O)c2ccc(-c3c4nc(c(-c5c(F)cccc5F)c5ccc([nH]5)c(-c5c(F)cccc5F)c5nc(c(-c6c(F)cccc6F)c6ccc3[nH]6)C=C5)C=C4)cc2)c1
REMARK SMILES IDX 26 1 25 2 24 3 23 4 22 5 21 6 19 7 20 8 18 9 6 10 7 11 8 12
REMARK SMILES IDX 9 13 13 14 10 15 12 16 11 17 14 18 15 19 17 21 16 22 5 23
REMARK SMILES IDX 1 24 2 25 3 26 87 27 4 28 27 30 28 31 29 32 30 33 31 34
REMARK SMILES IDX 32 35 33 36 34 37 86 38 35 39 85 40 36 41 37 42 38 43 79 44
REMARK SMILES IDX 39 45 84 46 78 47 80 48 40 49 83 50 77 51 76 52 41 54 67 55
REMARK SMILES IDX 50 56 66 57 51 58 54 59 65 60 81 61 52 62 53 63 64 65 82 66
REMARK SMILES IDX 55 67 42 68 43 69 48 70 44 71 45 72 47 73 49 74 46 75 68 76
REMARK SMILES IDX 69 77 74 78 70 79 71 80 73 81 75 82 72 83 56 84 57 85 62 86
REMARK SMILES IDX 58 87 59 88 61 89 63 90 60 91
REMARK H PARENT 14 20 4 29 80 53 54 64
REMARK Flexibility Score: inf
ROOT
ATOM      1  C   UNL A   1      32.892  30.365  26.414  1.00  0.00     0.188 C 
ENDROOT
BRANCH   1   2
ATOM      2  C   UNL A   1      33.238  29.162  27.296  1.00  0.00     0.188 C 
BRANCH   2   3
ATOM      3  O   UNL A   1      32.145  28.361  27.724  1.00  0.00    -0.376 OA
BRANCH   3   4
ATOM      4  C   UNL A   1      31.436  27.675  26.701  1.00  0.00     0.202 C 
BRANCH   4   5
ATOM      5  C   UNL A   1      31.914  26.259  26.325  1.00  0.00     0.261 C 
BRANCH   5   6
ATOM      6  O   UNL A   1      33.254  26.129  25.789  1.00  0.00    -0.463 OA
BRANCH   6   7
ATOM      7  C   UNL A   1      33.395  26.565  24.520  1.00  0.00     0.311 C 
ATOM      8  O   UNL A   1      33.959  27.620  24.230  1.00  0.00    -0.252 OA
BRANCH   7   9
ATOM      9  C   UNL A   1      32.781  25.712  23.419  1.00  0.00     0.134 C 
ATOM     10  C   UNL A   1      33.589  21.110  26.101  1.00  0.00     0.270 C 
ATOM     11  O   UNL A   1      33.997  21.430  27.214  1.00  0.00    -0.267 OA
ATOM     12  N   UNL A   1      33.345  22.054  25.103  1.00  0.00    -0.337 N 
ATOM     13  C   UNL A   1      34.449  22.930  24.798  1.00  0.00     0.122 C 
ATOM     14  C   UNL A   1      32.058  22.719  25.095  1.00  0.00     0.122 C 
ATOM     15  C   UNL A   1      34.305  23.539  23.414  1.00  0.00     0.051 C 
ATOM     16  C   UNL A   1      31.787  23.309  23.720  1.00  0.00     0.051 C 
ATOM     17  C   UNL A   1      32.935  24.184  23.145  1.00  0.00     0.057 C 
ATOM     18  N   UNL A   1      32.754  24.163  21.683  1.00  0.00    -0.350 N 
ATOM     19  C   UNL A   1      32.969  25.361  21.060  1.00  0.00     0.221 C 
ATOM     20  H   UNL A   1      32.499  23.349  21.192  1.00  0.00     0.164 HD
ATOM     21  C   UNL A   1      33.262  26.377  22.106  1.00  0.00     0.117 C 
ATOM     22  O   UNL A   1      32.962  25.536  19.852  1.00  0.00    -0.275 OA
BRANCH  10  23
ATOM     23  C   UNL A   1      33.391  19.743  25.669  1.00  0.00     0.104 A 
ATOM     24  C   UNL A   1      33.357  16.838  23.346  1.00  0.00     0.046 C 
ATOM     25  C   UNL A   1      33.264  17.810  24.464  1.00  0.00    -0.033 A 
ATOM     26  C   UNL A   1      32.783  17.574  25.735  1.00  0.00     0.086 A 
ATOM     27  C   UNL A   1      33.645  19.182  24.428  1.00  0.00     0.036 A 
ATOM     28  N   UNL A   1      32.847  18.744  26.442  1.00  0.00    -0.357 N 
ATOM     29  H   UNL A   1      32.545  18.854  27.372  1.00  0.00     0.166 HD
ENDBRANCH  10  23
ENDBRANCH   7   9
ENDBRANCH   6   7
ENDBRANCH   5   6
ENDBRANCH   4   5
ENDBRANCH   3   4
ENDBRANCH   2   3
ENDBRANCH   1   2
BRANCH   1  30
ATOM     30  O   UNL A   1      31.708  31.017  26.845  1.00  0.00    -0.376 OA
BRANCH  30  31
ATOM     31  C   UNL A   1      31.677  32.444  26.901  1.00  0.00     0.202 C 
BRANCH  31  32
ATOM     32  C   UNL A   1      32.741  33.248  27.674  1.00  0.00     0.261 C 
BRANCH  32  33
ATOM     33  O   UNL A   1      32.442  34.628  27.905  1.00  0.00    -0.460 OA
BRANCH  33  34
ATOM     34  C   UNL A   1      33.055  35.208  28.965  1.00  0.00     0.338 C 
ATOM     35  O   UNL A   1      32.655  36.154  29.614  1.00  0.00    -0.246 OA
BRANCH  34  36
ATOM     36  C   UNL A   1      34.197  34.340  29.360  1.00  0.00     0.060 A 
ATOM     37  C   UNL A   1      33.955  33.339  30.308  1.00  0.00     0.016 A 
ATOM     38  C   UNL A   1      35.452  34.431  28.748  1.00  0.00     0.016 A 
ATOM     39  C   UNL A   1      34.963  32.442  30.665  1.00  0.00     0.010 A 
ATOM     40  C   UNL A   1      36.470  33.546  29.121  1.00  0.00     0.010 A 
ATOM     41  C   UNL A   1      36.239  32.563  30.101  1.00  0.00    -0.014 A 
BRANCH  41  42
ATOM     42  C   UNL A   1      37.380  31.803  30.673  1.00  0.00     0.031 A 
ATOM     43  C   UNL A   1      37.871  32.185  32.042  1.00  0.00     0.074 A 
ATOM     44  C   UNL A   1      37.959  30.780  30.018  1.00  0.00     0.049 A 
ATOM     45  N   UNL A   1      38.907  31.749  32.711  1.00  0.00    -0.248 NA
ATOM     46  C   UNL A   1      37.077  33.200  32.755  1.00  0.00     0.031 C 
ATOM     47  C   UNL A   1      37.535  30.250  28.724  1.00  0.00     0.029 A 
ATOM     48  N   UNL A   1      39.043  30.008  30.360  1.00  0.00    -0.354 N 
ATOM     49  C   UNL A   1      38.899  32.446  33.913  1.00  0.00     0.074 A 
ATOM     50  C   UNL A   1      37.768  33.349  33.873  1.00  0.00     0.031 C 
ATOM     51  C   UNL A   1      38.361  29.248  28.374  1.00  0.00     0.029 A 
ATOM     52  C   UNL A   1      39.398  29.097  29.394  1.00  0.00     0.049 A 
ATOM     53  H   UNL A   1      39.520  30.097  31.217  1.00  0.00     0.167 HD
ATOM     54  C   UNL A   1      39.754  32.343  34.958  1.00  0.00     0.037 A 
ATOM     55  C   UNL A   1      40.460  28.267  29.325  1.00  0.00     0.037 A 
ATOM     56  C   UNL A   1      40.880  31.447  34.997  1.00  0.00     0.049 A 
ATOM     57  C   UNL A   1      41.462  28.248  30.452  1.00  0.00     0.074 A 
ATOM     58  C   UNL A   1      41.805  31.271  36.011  1.00  0.00     0.029 A 
ATOM     59  N   UNL A   1      41.237  30.583  33.974  1.00  0.00    -0.354 N 
ATOM     60  N   UNL A   1      41.455  28.916  31.582  1.00  0.00    -0.248 NA
ATOM     61  C   UNL A   1      42.627  27.363  30.292  1.00  0.00     0.031 C 
ATOM     62  C   UNL A   1      42.759  30.346  35.575  1.00  0.00     0.029 A 
ATOM     63  C   UNL A   1      42.390  29.896  34.318  1.00  0.00     0.049 A 
ATOM     64  H   UNL A   1      40.745  30.473  33.128  1.00  0.00     0.167 HD
ATOM     65  C   UNL A   1      42.592  28.510  32.274  1.00  0.00     0.074 A 
ATOM     66  C   UNL A   1      43.257  27.528  31.445  1.00  0.00     0.031 C 
ATOM     67  C   UNL A   1      43.044  28.915  33.487  1.00  0.00     0.037 A 
BRANCH  54  68
ATOM     68  C   UNL A   1      39.530  33.261  36.125  1.00  0.00     0.057 A 
ATOM     69  C   UNL A   1      38.721  32.904  37.212  1.00  0.00     0.134 A 
ATOM     70  C   UNL A   1      40.153  34.515  36.168  1.00  0.00     0.134 A 
ATOM     71  F   UNL A   1      38.081  31.725  37.225  1.00  0.00    -0.206 F 
ATOM     72  C   UNL A   1      38.519  33.773  38.286  1.00  0.00     0.040 A 
ATOM     73  C   UNL A   1      39.982  35.379  37.250  1.00  0.00     0.040 A 
ATOM     74  F   UNL A   1      40.943  34.919  35.163  1.00  0.00    -0.206 F 
ATOM     75  C   UNL A   1      39.156  35.011  38.311  1.00  0.00     0.006 A 
ENDBRANCH  54  68
BRANCH  55  76
ATOM     76  C   UNL A   1      40.665  27.410  28.126  1.00  0.00     0.057 A 
ATOM     77  C   UNL A   1      41.386  27.867  27.016  1.00  0.00     0.134 A 
ATOM     78  C   UNL A   1      40.103  26.129  28.043  1.00  0.00     0.134 A 
ATOM     79  F   UNL A   1      41.918  29.097  27.017  1.00  0.00    -0.206 F 
ATOM     80  C   UNL A   1      41.526  27.090  25.864  1.00  0.00     0.040 A 
ATOM     81  C   UNL A   1      40.261  25.331  26.909  1.00  0.00     0.040 A 
ATOM     82  F   UNL A   1      39.392  25.633  29.066  1.00  0.00    -0.206 F 
ATOM     83  C   UNL A   1      40.968  25.815  25.810  1.00  0.00     0.006 A 
ENDBRANCH  55  76
BRANCH  67  84
ATOM     84  C   UNL A   1      44.298  28.274  34.012  1.00  0.00     0.057 A 
ATOM     85  C   UNL A   1      44.277  27.059  34.708  1.00  0.00     0.134 A 
ATOM     86  C   UNL A   1      45.549  28.860  33.777  1.00  0.00     0.134 A 
ATOM     87  F   UNL A   1      43.113  26.448  34.976  1.00  0.00    -0.206 F 
ATOM     88  C   UNL A   1      45.452  26.464  35.175  1.00  0.00     0.040 A 
ATOM     89  C   UNL A   1      46.732  28.259  34.211  1.00  0.00     0.040 A 
ATOM     90  F   UNL A   1      45.645  30.017  33.105  1.00  0.00    -0.206 F 
ATOM     91  C   UNL A   1      46.685  27.060  34.918  1.00  0.00     0.006 A 
ENDBRANCH  67  84
ENDBRANCH  41  42
ENDBRANCH  34  36
ENDBRANCH  33  34
ENDBRANCH  32  33
ENDBRANCH  31  32
ENDBRANCH  30  31
ENDBRANCH   1  30
TORSDOF 18
ENDMDL
MODEL 2
REMARK VINA RESULT:     -12.2      3.117      8.658
REMARK SMILES Cc1c[nH]c(C(=O)N2CCC3(CC2)NC(=O)C[C@@H]3C(=O)OCCOCCOCCOC(=O)c2ccc(-c3c4nc(c(-c5c(F)cccc5F)c5ccc([nH]5)c(-c5c(F)cccc5F)c5nc(c(-c6c(F)cccc6F)c6ccc3[nH]6)C=C5)C=C4)cc2)c1
REMARK SMILES IDX 26 1 25 2 24 3 23 4 22 5 21 6 19 7 20 8 18 9 6 10 7 11 8 12
REMARK SMILES IDX 9 13 13 14 10 15 12 16 11 17 14 18 15 19 17 21 16 22 5 23
REMARK SMILES IDX 1 24 2 25 3 26 87 27 4 28 27 30 28 31 29 32 30 33 31 34
REMARK SMILES IDX 32 35 33 36 34 37 86 38 35 39 85 40 36 41 37 42 38 43 79 44
REMARK SMILES IDX 39 45 84 46 78 47 80 48 40 49 83 50 77 51 76 52 41 54 67 55
REMARK SMILES IDX 50 56 66 57 51 58 54 59 65 60 81 61 52 62 53 63 64 65 82 66
REMARK SMILES IDX 55 67 42 68 43 69 48 70 44 71 45 72 47 73 49 74 46 75 68 76
REMARK SMILES IDX 69 77 74 78 70 79 71 80 73 81 75 82 72 83 56 84 57 85 62 86
REMARK SMILES IDX 58 87 59 88 61 89 63 90 60 91
REMARK H PARENT 14 20 4 29 80 53 54 64
REMARK Flexibility Score: inf
ROOT
ATOM      1  C   UNL A   1      41.019  19.884  26.661  1.00  0.00     0.188 C 
ENDROOT
BRANCH   1   2
ATOM      2  C   UNL A   1      40.226  21.194  26.656  1.00  0.00     0.188 C 
BRANCH   2   3
ATOM      3  O   UNL A   1      39.188  21.296  25.690  1.00  0.00    -0.376 OA
BRANCH   3   4
ATOM      4  C   UNL A   1      38.141  22.207  25.994  1.00  0.00     0.202 C 
BRANCH   4   5
ATOM      5  C   UNL A   1      37.392  22.858  24.815  1.00  0.00     0.261 C 
BRANCH   5   6
ATOM      6  O   UNL A   1      35.985  22.544  24.666  1.00  0.00    -0.463 OA
BRANCH   6   7
ATOM      7  C   UNL A   1      35.205  23.599  24.352  1.00  0.00     0.311 C 
ATOM      8  O   UNL A   1      35.295  24.691  24.914  1.00  0.00    -0.252 OA
BRANCH   7   9
ATOM      9  C   UNL A   1      34.146  23.389  23.280  1.00  0.00     0.134 C 
ATOM     10  C   UNL A   1      32.234  28.405  23.739  1.00  0.00     0.270 C 
ATOM     11  O   UNL A   1      32.996  28.992  24.501  1.00  0.00    -0.267 OA
ATOM     12  N   UNL A   1      32.381  27.049  23.447  1.00  0.00    -0.337 N 
ATOM     13  C   UNL A   1      32.426  26.172  24.591  1.00  0.00     0.122 C 
ATOM     14  C   UNL A   1      33.302  26.674  22.394  1.00  0.00     0.122 C 
ATOM     15  C   UNL A   1      32.064  24.746  24.210  1.00  0.00     0.051 C 
ATOM     16  C   UNL A   1      32.977  25.276  21.892  1.00  0.00     0.051 C 
ATOM     17  C   UNL A   1      32.841  24.197  23.001  1.00  0.00     0.057 C 
ATOM     18  N   UNL A   1      31.998  23.137  22.422  1.00  0.00    -0.350 N 
ATOM     19  C   UNL A   1      32.390  21.862  22.720  1.00  0.00     0.221 C 
ATOM     20  H   UNL A   1      31.211  23.332  21.863  1.00  0.00     0.164 HD
ATOM     21  C   UNL A   1      33.645  21.942  23.514  1.00  0.00     0.117 C 
ATOM     22  O   UNL A   1      31.779  20.850  22.417  1.00  0.00    -0.275 OA
BRANCH  10  23
ATOM     23  C   UNL A   1      31.071  29.010  23.125  1.00  0.00     0.104 A 
ATOM     24  C   UNL A   1      27.487  29.892  22.670  1.00  0.00     0.046 C 
ATOM     25  C   UNL A   1      28.956  29.687  22.608  1.00  0.00    -0.033 A 
ATOM     26  C   UNL A   1      29.817  30.131  21.626  1.00  0.00     0.086 A 
ATOM     27  C   UNL A   1      29.753  28.978  23.550  1.00  0.00     0.036 A 
ATOM     28  N   UNL A   1      31.079  29.703  21.937  1.00  0.00    -0.357 N 
ATOM     29  H   UNL A   1      31.879  29.867  21.388  1.00  0.00     0.166 HD
ENDBRANCH  10  23
ENDBRANCH   7   9
ENDBRANCH   6   7
ENDBRANCH   5   6
ENDBRANCH   4   5
ENDBRANCH   3   4
ENDBRANCH   2   3
ENDBRANCH   1   2
BRANCH   1  30
ATOM     30  O   UNL A   1      41.847  19.759  25.516  1.00  0.00    -0.376 OA
BRANCH  30  31
ATOM     31  C   UNL A   1      43.262  19.888  25.660  1.00  0.00     0.202 C 
BRANCH  31  32
ATOM     32  C   UNL A   1      43.985  21.225  25.397  1.00  0.00     0.261 C 
BRANCH  32  33
ATOM     33  O   UNL A   1      43.574  22.332  26.206  1.00  0.00    -0.460 OA
BRANCH  33  34
ATOM     34  C   UNL A   1      43.766  23.565  25.680  1.00  0.00     0.338 C 
ATOM     35  O   UNL A   1      44.168  23.832  24.566  1.00  0.00    -0.246 OA
BRANCH  34  36
ATOM     36  C   UNL A   1      43.170  24.556  26.617  1.00  0.00     0.060 A 
ATOM     37  C   UNL A   1      43.736  25.835  26.658  1.00  0.00     0.016 A 
ATOM     38  C   UNL A   1      42.021  24.278  27.367  1.00  0.00     0.016 A 
ATOM     39  C   UNL A   1      43.177  26.834  27.458  1.00  0.00     0.010 A 
ATOM     40  C   UNL A   1      41.472  25.272  28.186  1.00  0.00     0.010 A 
ATOM     41  C   UNL A   1      42.062  26.548  28.256  1.00  0.00    -0.014 A 
BRANCH  41  42
ATOM     42  C   UNL A   1      41.635  27.506  29.308  1.00  0.00     0.031 A 
ATOM     43  C   UNL A   1      42.381  27.502  30.614  1.00  0.00     0.074 A 
ATOM     44  C   UNL A   1      40.632  28.380  29.115  1.00  0.00     0.049 A 
ATOM     45  N   UNL A   1      42.138  28.162  31.718  1.00  0.00    -0.248 NA
ATOM     46  C   UNL A   1      43.567  26.632  30.681  1.00  0.00     0.031 C 
ATOM     47  C   UNL A   1      39.879  28.550  27.875  1.00  0.00     0.029 A 
ATOM     48  N   UNL A   1      40.070  29.291  29.977  1.00  0.00    -0.354 N 
ATOM     49  C   UNL A   1      43.129  27.777  32.612  1.00  0.00     0.074 A 
ATOM     50  C   UNL A   1      43.963  26.810  31.931  1.00  0.00     0.031 C 
ATOM     51  C   UNL A   1      38.942  29.497  28.062  1.00  0.00     0.029 A 
ATOM     52  C   UNL A   1      38.997  29.966  29.445  1.00  0.00     0.049 A 
ATOM     53  H   UNL A   1      40.405  29.447  30.891  1.00  0.00     0.167 HD
ATOM     54  C   UNL A   1      43.329  28.192  33.885  1.00  0.00     0.037 A 
ATOM     55  C   UNL A   1      38.138  30.831  30.022  1.00  0.00     0.037 A 
ATOM     56  C   UNL A   1      42.499  29.152  34.563  1.00  0.00     0.049 A 
ATOM     57  C   UNL A   1      38.314  31.196  31.475  1.00  0.00     0.074 A 
ATOM     58  C   UNL A   1      42.620  29.635  35.854  1.00  0.00     0.029 A 
ATOM     59  N   UNL A   1      41.389  29.768  34.007  1.00  0.00    -0.354 N 
ATOM     60  N   UNL A   1      39.246  30.821  32.319  1.00  0.00    -0.248 NA
ATOM     61  C   UNL A   1      37.311  32.100  32.060  1.00  0.00     0.031 C 
ATOM     62  C   UNL A   1      41.546  30.497  36.100  1.00  0.00     0.029 A 
ATOM     63  C   UNL A   1      40.795  30.601  34.941  1.00  0.00     0.049 A 
ATOM     64  H   UNL A   1      41.069  29.635  33.085  1.00  0.00     0.167 HD
ATOM     65  C   UNL A   1      38.959  31.465  33.519  1.00  0.00     0.074 A 
ATOM     66  C   UNL A   1      37.775  32.266  33.290  1.00  0.00     0.031 C 
ATOM     67  C   UNL A   1      39.617  31.399  34.703  1.00  0.00     0.037 A 
BRANCH  54  68
ATOM     68  C   UNL A   1      44.466  27.568  34.643  1.00  0.00     0.057 A 
ATOM     69  C   UNL A   1      44.315  26.381  35.372  1.00  0.00     0.134 A 
ATOM     70  C   UNL A   1      45.736  28.158  34.626  1.00  0.00     0.134 A 
ATOM     71  F   UNL A   1      43.121  25.774  35.445  1.00  0.00    -0.206 F 
ATOM     72  C   UNL A   1      45.381  25.818  36.077  1.00  0.00     0.040 A 
ATOM     73  C   UNL A   1      46.816  27.589  35.302  1.00  0.00     0.040 A 
ATOM     74  F   UNL A   1      45.951  29.294  33.946  1.00  0.00    -0.206 F 
ATOM     75  C   UNL A   1      46.638  26.419  36.036  1.00  0.00     0.006 A 
ENDBRANCH  54  68
BRANCH  55  76
ATOM     76  C   UNL A   1      36.998  31.387  29.243  1.00  0.00     0.057 A 
ATOM     77  C   UNL A   1      35.883  30.605  28.922  1.00  0.00     0.134 A 
ATOM     78  C   UNL A   1      37.020  32.702  28.761  1.00  0.00     0.134 A 
ATOM     79  F   UNL A   1      35.816  29.327  29.321  1.00  0.00    -0.206 F 
ATOM     80  C   UNL A   1      34.840  31.103  28.136  1.00  0.00     0.040 A 
ATOM     81  C   UNL A   1      35.971  33.222  28.001  1.00  0.00     0.040 A 
ATOM     82  F   UNL A   1      38.062  33.503  29.023  1.00  0.00    -0.206 F 
ATOM     83  C   UNL A   1      34.880  32.418  27.679  1.00  0.00     0.006 A 
ENDBRANCH  55  76
BRANCH  67  84
ATOM     84  C   UNL A   1      39.097  32.239  35.835  1.00  0.00     0.057 A 
ATOM     85  C   UNL A   1      38.222  31.728  36.800  1.00  0.00     0.134 A 
ATOM     86  C   UNL A   1      39.516  33.570  35.985  1.00  0.00     0.134 A 
ATOM     87  F   UNL A   1      37.773  30.466  36.712  1.00  0.00    -0.206 F 
ATOM     88  C   UNL A   1      37.759  32.515  37.858  1.00  0.00     0.040 A 
ATOM     89  C   UNL A   1      39.085  34.356  37.056  1.00  0.00     0.040 A 
ATOM     90  F   UNL A   1      40.364  34.121  35.105  1.00  0.00    -0.206 F 
ATOM     91  C   UNL A   1      38.199  33.831  37.993  1.00  0.00     0.006 A 
ENDBRANCH  67  84
ENDBRANCH  41  42
ENDBRANCH  34  36
ENDBRANCH  33  34
ENDBRANCH  32  33
ENDBRANCH  31  32
ENDBRANCH  30  31
ENDBRANCH   1  30
TORSDOF 18
ENDMDL
MODEL 3
REMARK VINA RESULT:     -12.1      0.686      5.911
REMARK SMILES Cc1c[nH]c(C(=O)N2CCC3(CC2)NC(=O)C[C@@H]3C(=O)OCCOCCOCCOC(=O)c2ccc(-c3c4nc(c(-c5c(F)cccc5F)c5ccc([nH]5)c(-c5c(F)cccc5F)c5nc(c(-c6c(F)cccc6F)c6ccc3[nH]6)C=C5)C=C4)cc2)c1
REMARK SMILES IDX 26 1 25 2 24 3 23 4 22 5 21 6 19 7 20 8 18 9 6 10 7 11 8 12
REMARK SMILES IDX 9 13 13 14 10 15 12 16 11 17 14 18 15 19 17 21 16 22 5 23
REMARK SMILES IDX 1 24 2 25 3 26 87 27 4 28 27 30 28 31 29 32 30 33 31 34
REMARK SMILES IDX 32 35 33 36 34 37 86 38 35 39 85 40 36 41 37 42 38 43 79 44
REMARK SMILES IDX 39 45 84 46 78 47 80 48 40 49 83 50 77 51 76 52 41 54 67 55
REMARK SMILES IDX 50 56 66 57 51 58 54 59 65 60 81 61 52 62 53 63 64 65 82 66
REMARK SMILES IDX 55 67 42 68 43 69 48 70 44 71 45 72 47 73 49 74 46 75 68 76
REMARK SMILES IDX 69 77 74 78 70 79 71 80 73 81 75 82 72 83 56 84 57 85 62 86
REMARK SMILES IDX 58 87 59 88 61 89 63 90 60 91
REMARK H PARENT 14 20 4 29 80 53 54 64
REMARK Flexibility Score: inf
ROOT
ATOM      1  C   UNL A   1      32.303  30.192  26.036  1.00  0.00     0.188 C 
ENDROOT
BRANCH   1   2
ATOM      2  C   UNL A   1      32.497  29.288  27.257  1.00  0.00     0.188 C 
BRANCH   2   3
ATOM      3  O   UNL A   1      31.554  28.236  27.416  1.00  0.00    -0.376 OA
BRANCH   3   4
ATOM      4  C   UNL A   1      31.395  27.368  26.302  1.00  0.00     0.202 C 
BRANCH   4   5
ATOM      5  C   UNL A   1      32.142  26.021  26.332  1.00  0.00     0.261 C 
BRANCH   5   6
ATOM      6  O   UNL A   1      33.441  25.965  25.693  1.00  0.00    -0.463 OA
BRANCH   6   7
ATOM      7  C   UNL A   1      33.463  26.433  24.427  1.00  0.00     0.311 C 
ATOM      8  O   UNL A   1      33.936  27.529  24.124  1.00  0.00    -0.252 OA
BRANCH   7   9
ATOM      9  C   UNL A   1      32.829  25.564  23.351  1.00  0.00     0.134 C 
ATOM     10  C   UNL A   1      33.769  20.995  26.049  1.00  0.00     0.270 C 
ATOM     11  O   UNL A   1      34.204  21.331  27.147  1.00  0.00    -0.267 OA
ATOM     12  N   UNL A   1      33.485  21.927  25.050  1.00  0.00    -0.337 N 
ATOM     13  C   UNL A   1      34.570  22.814  24.707  1.00  0.00     0.122 C 
ATOM     14  C   UNL A   1      32.191  22.577  25.072  1.00  0.00     0.122 C 
ATOM     15  C   UNL A   1      34.379  23.409  23.322  1.00  0.00     0.051 C 
ATOM     16  C   UNL A   1      31.874  23.152  23.701  1.00  0.00     0.051 C 
ATOM     17  C   UNL A   1      32.994  24.035  23.086  1.00  0.00     0.057 C 
ATOM     18  N   UNL A   1      32.773  23.999  21.630  1.00  0.00    -0.350 N 
ATOM     19  C   UNL A   1      32.956  25.194  20.991  1.00  0.00     0.221 C 
ATOM     20  H   UNL A   1      32.514  23.177  21.153  1.00  0.00     0.164 HD
ATOM     21  C   UNL A   1      33.265  26.222  22.020  1.00  0.00     0.117 C 
ATOM     22  O   UNL A   1      32.913  25.357  19.782  1.00  0.00    -0.275 OA
BRANCH  10  23
ATOM     23  C   UNL A   1      33.576  19.622  25.634  1.00  0.00     0.104 A 
ATOM     24  C   UNL A   1      33.975  16.567  23.550  1.00  0.00     0.046 C 
ATOM     25  C   UNL A   1      33.635  17.624  24.536  1.00  0.00    -0.033 A 
ATOM     26  C   UNL A   1      32.753  17.525  25.592  1.00  0.00     0.086 A 
ATOM     27  C   UNL A   1      34.150  18.951  24.567  1.00  0.00     0.036 A 
ATOM     28  N   UNL A   1      32.712  18.733  26.231  1.00  0.00    -0.357 N 
ATOM     29  H   UNL A   1      32.144  18.938  27.009  1.00  0.00     0.166 HD
ENDBRANCH  10  23
ENDBRANCH   7   9
ENDBRANCH   6   7
ENDBRANCH   5   6
ENDBRANCH   4   5
ENDBRANCH   3   4
ENDBRANCH   2   3
ENDBRANCH   1   2
BRANCH   1  30
ATOM     30  O   UNL A   1      31.268  31.142  26.237  1.00  0.00    -0.376 OA
BRANCH  30  31
ATOM     31  C   UNL A   1      31.608  32.477  26.614  1.00  0.00     0.202 C 
BRANCH  31  32
ATOM     32  C   UNL A   1      32.781  32.775  27.571  1.00  0.00     0.261 C 
BRANCH  32  33
ATOM     33  O   UNL A   1      33.049  34.157  27.825  1.00  0.00    -0.460 OA
BRANCH  33  34
ATOM     34  C   UNL A   1      33.283  34.498  29.115  1.00  0.00     0.338 C 
ATOM     35  O   UNL A   1      32.529  35.083  29.866  1.00  0.00    -0.246 OA
BRANCH  34  36
ATOM     36  C   UNL A   1      34.538  33.823  29.543  1.00  0.00     0.060 A 
ATOM     37  C   UNL A   1      34.427  32.744  30.428  1.00  0.00     0.016 A 
ATOM     38  C   UNL A   1      35.788  34.165  29.016  1.00  0.00     0.016 A 
ATOM     39  C   UNL A   1      35.558  32.019  30.808  1.00  0.00     0.010 A 
ATOM     40  C   UNL A   1      36.926  33.452  29.412  1.00  0.00     0.010 A 
ATOM     41  C   UNL A   1      36.821  32.392  30.331  1.00  0.00    -0.014 A 
BRANCH  41  42
ATOM     42  C   UNL A   1      38.046  31.812  30.939  1.00  0.00     0.031 A 
ATOM     43  C   UNL A   1      38.764  30.725  30.186  1.00  0.00     0.074 A 
ATOM     44  C   UNL A   1      38.537  32.247  32.113  1.00  0.00     0.049 A 
ATOM     45  N   UNL A   1      39.786  29.993  30.547  1.00  0.00    -0.248 NA
ATOM     46  C   UNL A   1      38.256  30.428  28.836  1.00  0.00     0.031 C 
ATOM     47  C   UNL A   1      37.992  33.344  32.908  1.00  0.00     0.029 A 
ATOM     48  N   UNL A   1      39.611  31.801  32.846  1.00  0.00    -0.354 N 
ATOM     49  C   UNL A   1      40.033  29.139  29.479  1.00  0.00     0.074 A 
ATOM     50  C   UNL A   1      39.041  29.429  28.466  1.00  0.00     0.031 C 
ATOM     51  C   UNL A   1      38.727  33.477  34.027  1.00  0.00     0.029 A 
ATOM     52  C   UNL A   1      39.763  32.445  34.050  1.00  0.00     0.049 A 
ATOM     53  H   UNL A   1      40.216  31.088  32.537  1.00  0.00     0.167 HD
ATOM     54  C   UNL A   1      41.000  28.200  29.352  1.00  0.00     0.037 A 
ATOM     55  C   UNL A   1      40.614  32.202  35.068  1.00  0.00     0.037 A 
ATOM     56  C   UNL A   1      41.984  27.910  30.360  1.00  0.00     0.049 A 
ATOM     57  C   UNL A   1      41.612  31.077  34.950  1.00  0.00     0.074 A 
ATOM     58  C   UNL A   1      43.004  26.975  30.324  1.00  0.00     0.029 A 
ATOM     59  N   UNL A   1      42.068  28.546  31.589  1.00  0.00    -0.354 N 
ATOM     60  N   UNL A   1      41.835  30.267  33.942  1.00  0.00    -0.248 NA
ATOM     61  C   UNL A   1      42.474  30.826  36.116  1.00  0.00     0.031 C 
ATOM     62  C   UNL A   1      43.665  27.002  31.557  1.00  0.00     0.029 A 
ATOM     63  C   UNL A   1      43.100  27.999  32.334  1.00  0.00     0.049 A 
ATOM     64  H   UNL A   1      41.481  29.278  31.889  1.00  0.00     0.167 HD
ATOM     65  C   UNL A   1      42.877  29.435  34.341  1.00  0.00     0.074 A 
ATOM     66  C   UNL A   1      43.253  29.849  35.676  1.00  0.00     0.031 C 
ATOM     67  C   UNL A   1      43.470  28.421  33.663  1.00  0.00     0.037 A 
BRANCH  54  68
ATOM     68  C   UNL A   1      41.005  27.383  28.092  1.00  0.00     0.057 A 
ATOM     69  C   UNL A   1      40.252  26.208  27.960  1.00  0.00     0.134 A 
ATOM     70  C   UNL A   1      41.763  27.791  26.987  1.00  0.00     0.134 A 
ATOM     71  F   UNL A   1      39.520  25.750  28.987  1.00  0.00    -0.206 F 
ATOM     72  C   UNL A   1      40.274  25.457  26.784  1.00  0.00     0.040 A 
ATOM     73  C   UNL A   1      41.768  27.065  25.796  1.00  0.00     0.040 A 
ATOM     74  F   UNL A   1      42.504  28.907  27.044  1.00  0.00    -0.206 F 
ATOM     75  C   UNL A   1      41.028  25.889  25.695  1.00  0.00     0.006 A 
ENDBRANCH  54  68
BRANCH  55  76
ATOM     76  C   UNL A   1      40.540  33.008  36.317  1.00  0.00     0.057 A 
ATOM     77  C   UNL A   1      41.416  34.073  36.552  1.00  0.00     0.134 A 
ATOM     78  C   UNL A   1      39.619  32.700  37.327  1.00  0.00     0.134 A 
ATOM     79  F   UNL A   1      42.345  34.397  35.641  1.00  0.00    -0.206 F 
ATOM     80  C   UNL A   1      41.392  34.792  37.750  1.00  0.00     0.040 A 
ATOM     81  C   UNL A   1      39.565  33.428  38.517  1.00  0.00     0.040 A 
ATOM     82  F   UNL A   1      38.757  31.685  37.173  1.00  0.00    -0.206 F 
ATOM     83  C   UNL A   1      40.460  34.473  38.734  1.00  0.00     0.006 A 
ENDBRANCH  55  76
BRANCH  67  84
ATOM     84  C   UNL A   1      44.610  27.708  34.334  1.00  0.00     0.057 A 
ATOM     85  C   UNL A   1      44.434  26.496  35.011  1.00  0.00     0.134 A 
ATOM     86  C   UNL A   1      45.912  28.223  34.262  1.00  0.00     0.134 A 
ATOM     87  F   UNL A   1      43.214  25.951  35.127  1.00  0.00    -0.206 F 
ATOM     88  C   UNL A   1      45.506  25.834  35.615  1.00  0.00     0.040 A 
ATOM     89  C   UNL A   1      46.996  27.555  34.835  1.00  0.00     0.040 A 
ATOM     90  F   UNL A   1      46.156  29.374  33.617  1.00  0.00    -0.206 F 
ATOM     91  C   UNL A   1      46.794  26.360  35.520  1.00  0.00     0.006 A 
ENDBRANCH  67  84
ENDBRANCH  41  42
ENDBRANCH  34  36
ENDBRANCH  33  34
ENDBRANCH  32  33
ENDBRANCH  31  32
ENDBRANCH  30  31
ENDBRANCH   1  30
TORSDOF 18
ENDMDL
