MODEL 1
REMARK VINA RESULT:     -10.9      0.000      0.000
REMARK SMILES Cc1ccc(C[C@H](C(=O)OCCOCCOCCOC(=O)c2ccc(-c3c4nc(c(-c5c(F)cccc5F)c5ccc([nH]5)c(-c5c(F)cccc5F)c5nc(c(-c6c(F)cccc6F)c6ccc3[nH]6)C=C5)C=C4)cc2)[C@@H]2CCCC[C@@H]2O)cc1
REMARK SMILES IDX 14 1 13 2 12 3 11 4 10 5 8 6 9 7 7 8 6 9 5 10 1 11 2 12 3 13
REMARK SMILES IDX 84 14 4 15 83 16 76 17 77 18 81 19 78 20 80 21 79 22 82 23
REMARK SMILES IDX 15 25 16 26 17 27 18 28 19 29 20 30 21 31 22 32 23 33 75 34
REMARK SMILES IDX 24 35 74 36 25 37 26 38 27 39 68 40 28 41 73 42 67 43 69 44
REMARK SMILES IDX 29 45 72 46 66 47 65 48 30 50 56 51 39 52 55 53 40 54 43 55
REMARK SMILES IDX 54 56 70 57 41 58 42 59 53 61 71 62 44 63 31 64 32 65 37 66
REMARK SMILES IDX 33 67 34 68 36 69 38 70 35 71 57 72 58 73 63 74 59 75 60 76
REMARK SMILES IDX 62 77 64 78 61 79 45 80 46 81 51 82 47 83 48 84 50 85 52 86
REMARK SMILES IDX 49 87
REMARK H PARENT 82 24 69 49 43 60
REMARK Flexibility Score: inf
ROOT
ATOM      1  C   UNL A   1      33.212  30.056  27.253  1.00  0.00     0.188 C 
ENDROOT
BRANCH   1   2
ATOM      2  O   UNL A   1      32.742  28.910  27.939  1.00  0.00    -0.376 OA
BRANCH   2   3
ATOM      3  C   UNL A   1      31.567  28.349  27.374  1.00  0.00     0.202 C 
BRANCH   3   4
ATOM      4  C   UNL A   1      31.510  27.063  26.524  1.00  0.00     0.261 C 
BRANCH   4   5
ATOM      5  O   UNL A   1      31.004  25.720  26.833  1.00  0.00    -0.463 OA
BRANCH   5   6
ATOM      6  C   UNL A   1      30.929  24.396  26.553  1.00  0.00     0.309 C 
ATOM      7  O   UNL A   1      30.352  23.566  27.245  1.00  0.00    -0.252 OA
BRANCH   6   8
ATOM      8  C   UNL A   1      32.138  23.878  25.507  1.00  0.00     0.109 C 
BRANCH   8   9
ATOM      9  C   UNL A   1      31.206  24.199  23.881  1.00  0.00     0.051 C 
BRANCH   9  10
ATOM     10  C   UNL A   1      30.610  25.502  23.394  1.00  0.00    -0.047 A 
ATOM     11  C   UNL A   1      29.561  29.611  22.916  1.00  0.00     0.044 C 
ATOM     12  C   UNL A   1      29.805  28.134  22.906  1.00  0.00    -0.051 A 
ATOM     13  C   UNL A   1      31.032  27.670  22.429  1.00  0.00     0.004 A 
ATOM     14  C   UNL A   1      28.917  27.238  23.515  1.00  0.00     0.004 A 
ATOM     15  C   UNL A   1      31.428  26.367  22.672  1.00  0.00     0.004 A 
ATOM     16  C   UNL A   1      29.318  25.921  23.761  1.00  0.00     0.004 A 
ENDBRANCH   9  10
ENDBRANCH   8   9
BRANCH   8  17
ATOM     17  C   UNL A   1      34.301  23.413  25.657  1.00  0.00     0.032 C 
ATOM     18  C   UNL A   1      35.631  23.959  24.486  1.00  0.00     0.007 C 
ATOM     19  C   UNL A   1      35.305  22.061  26.170  1.00  0.00     0.118 C 
ATOM     20  C   UNL A   1      36.168  22.963  23.457  1.00  0.00     0.001 C 
ATOM     21  C   UNL A   1      35.803  21.086  25.083  1.00  0.00     0.032 C 
ATOM     22  C   UNL A   1      36.771  21.745  24.110  1.00  0.00     0.003 C 
BRANCH  19  23
ATOM     23  O   UNL A   1      35.020  21.401  27.402  1.00  0.00    -0.393 OA
ATOM     24  H   UNL A   1      35.444  21.881  28.131  1.00  0.00     0.210 HD
ENDBRANCH  19  23
ENDBRANCH   8  17
ENDBRANCH   6   8
ENDBRANCH   5   6
ENDBRANCH   4   5
ENDBRANCH   3   4
ENDBRANCH   2   3
ENDBRANCH   1   2
BRANCH   1  25
ATOM     25  C   UNL A   1      34.728  29.906  27.096  1.00  0.00     0.188 C 
BRANCH  25  26
ATOM     26  O   UNL A   1      35.383  30.622  28.144  1.00  0.00    -0.376 OA
BRANCH  26  27
ATOM     27  C   UNL A   1      35.585  31.999  27.915  1.00  0.00     0.202 C 
BRANCH  27  28
ATOM     28  C   UNL A   1      35.896  32.723  29.233  1.00  0.00     0.261 C 
BRANCH  28  29
ATOM     29  O   UNL A   1      35.576  31.868  30.370  1.00  0.00    -0.460 OA
BRANCH  29  30
ATOM     30  C   UNL A   1      35.172  32.379  31.575  1.00  0.00     0.338 C 
ATOM     31  O   UNL A   1      34.031  32.588  31.930  1.00  0.00    -0.246 OA
BRANCH  30  32
ATOM     32  C   UNL A   1      36.411  32.875  32.258  1.00  0.00     0.060 A 
ATOM     33  C   UNL A   1      37.509  34.262  31.905  1.00  0.00     0.016 A 
ATOM     34  C   UNL A   1      36.974  31.668  33.411  1.00  0.00     0.016 A 
ATOM     35  C   UNL A   1      39.222  34.313  32.679  1.00  0.00     0.010 A 
ATOM     36  C   UNL A   1      38.577  31.681  34.058  1.00  0.00     0.010 A 
ATOM     37  C   UNL A   1      39.781  32.920  33.699  1.00  0.00    -0.014 A 
BRANCH  37  38
ATOM     38  C   UNL A   1      41.058  31.908  33.486  1.00  0.00     0.031 A 
ATOM     39  C   UNL A   1      40.841  31.133  32.263  1.00  0.00     0.074 A 
ATOM     40  C   UNL A   1      42.376  31.905  33.972  1.00  0.00     0.049 A 
ATOM     41  N   UNL A   1      40.698  29.846  32.247  1.00  0.00    -0.248 NA
ATOM     42  C   UNL A   1      40.543  31.806  30.991  1.00  0.00     0.031 C 
ATOM     43  C   UNL A   1      43.578  31.505  33.189  1.00  0.00     0.029 A 
ATOM     44  N   UNL A   1      43.026  32.382  35.127  1.00  0.00    -0.354 N 
ATOM     45  C   UNL A   1      40.620  29.572  30.902  1.00  0.00     0.074 A 
ATOM     46  C   UNL A   1      40.054  30.772  30.319  1.00  0.00     0.031 C 
ATOM     47  C   UNL A   1      44.720  31.669  33.894  1.00  0.00     0.029 A 
ATOM     48  C   UNL A   1      44.396  32.117  35.233  1.00  0.00     0.049 A 
ATOM     49  H   UNL A   1      42.540  32.878  35.825  1.00  0.00     0.167 HD
ATOM     50  C   UNL A   1      41.625  28.893  30.262  1.00  0.00     0.037 A 
ATOM     51  C   UNL A   1      44.970  31.668  36.393  1.00  0.00     0.037 A 
ATOM     52  C   UNL A   1      42.828  28.692  31.104  1.00  0.00     0.049 A 
ATOM     53  C   UNL A   1      44.833  30.163  36.367  1.00  0.00     0.074 A 
ATOM     54  C   UNL A   1      44.176  29.009  30.986  1.00  0.00     0.029 A 
ATOM     55  N   UNL A   1      42.696  28.313  32.440  1.00  0.00    -0.354 N 
ATOM     56  N   UNL A   1      44.695  29.529  35.238  1.00  0.00    -0.248 NA
ATOM     57  C   UNL A   1      44.745  29.259  37.509  1.00  0.00     0.031 C 
ATOM     58  C   UNL A   1      44.851  28.636  32.190  1.00  0.00     0.029 A 
ATOM     59  C   UNL A   1      43.915  28.115  33.062  1.00  0.00     0.049 A 
ATOM     60  H   UNL A   1      41.830  28.199  32.891  1.00  0.00     0.167 HD
ATOM     61  C   UNL A   1      44.305  28.250  35.448  1.00  0.00     0.074 A 
ATOM     62  C   UNL A   1      44.370  28.116  36.900  1.00  0.00     0.031 C 
ATOM     63  C   UNL A   1      43.951  27.472  34.379  1.00  0.00     0.037 A 
BRANCH  50  64
ATOM     64  C   UNL A   1      41.570  28.765  28.742  1.00  0.00     0.057 A 
ATOM     65  C   UNL A   1      40.696  27.881  28.096  1.00  0.00     0.134 A 
ATOM     66  C   UNL A   1      42.354  29.544  27.852  1.00  0.00     0.134 A 
ATOM     67  F   UNL A   1      39.783  27.175  28.769  1.00  0.00    -0.206 F 
ATOM     68  C   UNL A   1      40.682  27.702  26.706  1.00  0.00     0.040 A 
ATOM     69  C   UNL A   1      42.402  29.328  26.469  1.00  0.00     0.040 A 
ATOM     70  F   UNL A   1      43.087  30.584  28.283  1.00  0.00    -0.206 F 
ATOM     71  C   UNL A   1      41.558  28.401  25.888  1.00  0.00     0.006 A 
ENDBRANCH  50  64
BRANCH  51  72
ATOM     72  C   UNL A   1      44.785  32.573  37.564  1.00  0.00     0.057 A 
ATOM     73  C   UNL A   1      45.673  33.657  37.725  1.00  0.00     0.134 A 
ATOM     74  C   UNL A   1      43.602  32.635  38.295  1.00  0.00     0.134 A 
ATOM     75  F   UNL A   1      46.881  33.632  37.139  1.00  0.00    -0.206 F 
ATOM     76  C   UNL A   1      45.309  34.830  38.397  1.00  0.00     0.040 A 
ATOM     77  C   UNL A   1      43.237  33.797  38.986  1.00  0.00     0.040 A 
ATOM     78  F   UNL A   1      42.708  31.639  38.233  1.00  0.00    -0.206 F 
ATOM     79  C   UNL A   1      44.048  34.929  38.961  1.00  0.00     0.006 A 
ENDBRANCH  51  72
BRANCH  63  80
ATOM     80  C   UNL A   1      43.577  26.020  34.469  1.00  0.00     0.057 A 
ATOM     81  C   UNL A   1      44.277  25.011  33.804  1.00  0.00     0.134 A 
ATOM     82  C   UNL A   1      42.423  25.583  35.159  1.00  0.00     0.134 A 
ATOM     83  F   UNL A   1      45.228  25.292  32.904  1.00  0.00    -0.206 F 
ATOM     84  C   UNL A   1      43.973  23.658  33.976  1.00  0.00     0.040 A 
ATOM     85  C   UNL A   1      42.082  24.244  35.301  1.00  0.00     0.040 A 
ATOM     86  F   UNL A   1      41.539  26.416  35.717  1.00  0.00    -0.206 F 
ATOM     87  C   UNL A   1      42.885  23.271  34.745  1.00  0.00     0.006 A 
ENDBRANCH  63  80
ENDBRANCH  37  38
ENDBRANCH  30  32
ENDBRANCH  29  30
ENDBRANCH  28  29
ENDBRANCH  27  28
ENDBRANCH  26  27
ENDBRANCH  25  26
ENDBRANCH   1  25
TORSDOF 21
ENDMDL
MODEL 2
REMARK VINA RESULT:     -10.7      9.816     14.248
REMARK SMILES Cc1ccc(C[C@H](C(=O)OCCOCCOCCOC(=O)c2ccc(-c3c4nc(c(-c5c(F)cccc5F)c5ccc([nH]5)c(-c5c(F)cccc5F)c5nc(c(-c6c(F)cccc6F)c6ccc3[nH]6)C=C5)C=C4)cc2)[C@@H]2CCCC[C@@H]2O)cc1
REMARK SMILES IDX 14 1 13 2 12 3 11 4 10 5 8 6 9 7 7 8 6 9 5 10 1 11 2 12 3 13
REMARK SMILES IDX 84 14 4 15 83 16 76 17 77 18 81 19 78 20 80 21 79 22 82 23
REMARK SMILES IDX 15 25 16 26 17 27 18 28 19 29 20 30 21 31 22 32 23 33 75 34
REMARK SMILES IDX 24 35 74 36 25 37 26 38 27 39 68 40 28 41 73 42 67 43 69 44
REMARK SMILES IDX 29 45 72 46 66 47 65 48 30 50 56 51 39 52 55 53 40 54 43 55
REMARK SMILES IDX 54 56 70 57 41 58 42 59 53 61 71 62 44 63 31 64 32 65 37 66
REMARK SMILES IDX 33 67 34 68 36 69 38 70 35 71 57 72 58 73 63 74 59 75 60 76
REMARK SMILES IDX 62 77 64 78 61 79 45 80 46 81 51 82 47 83 48 84 50 85 52 86
REMARK SMILES IDX 49 87
REMARK H PARENT 82 24 69 49 43 60
REMARK Flexibility Score: inf
ROOT
ATOM      1  C   UNL A   1      42.324  41.341  25.917  1.00  0.00     0.188 C 
ENDROOT
BRANCH   1   2
ATOM      2  O   UNL A   1      42.797  41.550  24.599  1.00  0.00    -0.376 OA
BRANCH   2   3
ATOM      3  C   UNL A   1      41.820  42.090  23.722  1.00  0.00     0.202 C 
BRANCH   3   4
ATOM      4  C   UNL A   1      41.909  42.102  22.182  1.00  0.00     0.261 C 
BRANCH   4   5
ATOM      5  O   UNL A   1      41.398  43.057  21.190  1.00  0.00    -0.463 OA
BRANCH   5   6
ATOM      6  C   UNL A   1      41.461  43.627  19.963  1.00  0.00     0.309 C 
ATOM      7  O   UNL A   1      40.559  43.608  19.135  1.00  0.00    -0.252 OA
BRANCH   6   8
ATOM      8  C   UNL A   1      43.038  43.876  19.436  1.00  0.00     0.109 C 
BRANCH   8   9
ATOM      9  C   UNL A   1      42.614  44.574  17.719  1.00  0.00     0.051 C 
BRANCH   9  10
ATOM     10  C   UNL A   1      42.986  45.926  17.150  1.00  0.00    -0.047 A 
ATOM     11  C   UNL A   1      44.138  50.009  16.685  1.00  0.00     0.044 C 
ATOM     12  C   UNL A   1      43.733  48.568  16.628  1.00  0.00    -0.051 A 
ATOM     13  C   UNL A   1      44.702  47.599  16.897  1.00  0.00     0.004 A 
ATOM     14  C   UNL A   1      42.394  48.185  16.487  1.00  0.00     0.004 A 
ATOM     15  C   UNL A   1      44.329  46.292  17.156  1.00  0.00     0.004 A 
ATOM     16  C   UNL A   1      42.017  46.864  16.748  1.00  0.00     0.004 A 
ENDBRANCH   9  10
ENDBRANCH   8   9
BRANCH   8  17
ATOM     17  C   UNL A   1      45.051  43.931  20.365  1.00  0.00     0.032 C 
ATOM     18  C   UNL A   1      46.398  42.674  20.155  1.00  0.00     0.007 C 
ATOM     19  C   UNL A   1      45.762  44.441  21.893  1.00  0.00     0.118 C 
ATOM     20  C   UNL A   1      46.643  41.656  21.270  1.00  0.00     0.001 C 
ATOM     21  C   UNL A   1      45.970  43.366  22.980  1.00  0.00     0.032 C 
ATOM     22  C   UNL A   1      47.000  42.321  22.574  1.00  0.00     0.003 C 
BRANCH  19  23
ATOM     23  O   UNL A   1      45.411  45.709  22.443  1.00  0.00    -0.393 OA
ATOM     24  H   UNL A   1      46.094  46.360  22.216  1.00  0.00     0.210 HD
ENDBRANCH  19  23
ENDBRANCH   8  17
ENDBRANCH   6   8
ENDBRANCH   5   6
ENDBRANCH   4   5
ENDBRANCH   3   4
ENDBRANCH   2   3
ENDBRANCH   1   2
BRANCH   1  25
ATOM     25  C   UNL A   1      43.029  40.096  26.464  1.00  0.00     0.188 C 
BRANCH  25  26
ATOM     26  O   UNL A   1      43.216  40.241  27.873  1.00  0.00    -0.376 OA
BRANCH  26  27
ATOM     27  C   UNL A   1      42.880  39.118  28.657  1.00  0.00     0.202 C 
BRANCH  27  28
ATOM     28  C   UNL A   1      42.283  38.009  27.779  1.00  0.00     0.261 C 
BRANCH  28  29
ATOM     29  O   UNL A   1      42.996  36.755  27.991  1.00  0.00    -0.460 OA
BRANCH  29  30
ATOM     30  C   UNL A   1      42.339  35.573  28.209  1.00  0.00     0.338 C 
ATOM     31  O   UNL A   1      41.302  35.419  28.820  1.00  0.00    -0.246 OA
BRANCH  30  32
ATOM     32  C   UNL A   1      43.277  34.485  27.779  1.00  0.00     0.060 A 
ATOM     33  C   UNL A   1      43.539  33.680  26.186  1.00  0.00     0.016 A 
ATOM     34  C   UNL A   1      43.997  33.729  29.198  1.00  0.00     0.016 A 
ATOM     35  C   UNL A   1      44.458  32.041  26.112  1.00  0.00     0.010 A 
ATOM     36  C   UNL A   1      44.772  32.185  29.133  1.00  0.00     0.010 A 
ATOM     37  C   UNL A   1      44.990  31.247  27.655  1.00  0.00    -0.014 A 
BRANCH  37  38
ATOM     38  C   UNL A   1      44.576  29.784  28.280  1.00  0.00     0.031 A 
ATOM     39  C   UNL A   1      45.789  28.975  28.415  1.00  0.00     0.074 A 
ATOM     40  C   UNL A   1      43.466  29.327  29.010  1.00  0.00     0.049 A 
ATOM     41  N   UNL A   1      45.988  27.872  27.765  1.00  0.00    -0.248 NA
ATOM     42  C   UNL A   1      46.961  29.491  29.134  1.00  0.00     0.031 C 
ATOM     43  C   UNL A   1      43.521  28.353  30.134  1.00  0.00     0.029 A 
ATOM     44  N   UNL A   1      42.107  29.684  29.105  1.00  0.00    -0.354 N 
ATOM     45  C   UNL A   1      47.186  27.436  28.281  1.00  0.00     0.074 A 
ATOM     46  C   UNL A   1      47.876  28.649  28.673  1.00  0.00     0.031 C 
ATOM     47  C   UNL A   1      42.305  28.154  30.692  1.00  0.00     0.029 A 
ATOM     48  C   UNL A   1      41.311  28.908  29.956  1.00  0.00     0.049 A 
ATOM     49  H   UNL A   1      41.735  30.441  28.597  1.00  0.00     0.167 HD
ATOM     50  C   UNL A   1      47.249  26.313  29.066  1.00  0.00     0.037 A 
ATOM     51  C   UNL A   1      40.067  28.462  29.595  1.00  0.00     0.037 A 
ATOM     52  C   UNL A   1      45.917  25.783  29.442  1.00  0.00     0.049 A 
ATOM     53  C   UNL A   1      40.291  27.160  28.861  1.00  0.00     0.074 A 
ATOM     54  C   UNL A   1      45.272  25.504  30.640  1.00  0.00     0.029 A 
ATOM     55  N   UNL A   1      44.894  25.716  28.496  1.00  0.00    -0.354 N 
ATOM     56  N   UNL A   1      41.370  26.460  29.067  1.00  0.00    -0.248 NA
ATOM     57  C   UNL A   1      39.453  26.569  27.823  1.00  0.00     0.031 C 
ATOM     58  C   UNL A   1      43.930  25.092  30.365  1.00  0.00     0.029 A 
ATOM     59  C   UNL A   1      43.738  25.146  28.998  1.00  0.00     0.049 A 
ATOM     60  H   UNL A   1      44.985  26.038  27.571  1.00  0.00     0.167 HD
ATOM     61  C   UNL A   1      41.510  25.502  28.121  1.00  0.00     0.074 A 
ATOM     62  C   UNL A   1      40.264  25.593  27.367  1.00  0.00     0.031 C 
ATOM     63  C   UNL A   1      42.665  24.769  28.073  1.00  0.00     0.037 A 
BRANCH  50  64
ATOM     64  C   UNL A   1      48.570  25.971  29.750  1.00  0.00     0.057 A 
ATOM     65  C   UNL A   1      48.829  26.300  31.086  1.00  0.00     0.134 A 
ATOM     66  C   UNL A   1      49.626  25.261  29.122  1.00  0.00     0.134 A 
ATOM     67  F   UNL A   1      47.894  26.840  31.874  1.00  0.00    -0.206 F 
ATOM     68  C   UNL A   1      50.061  26.054  31.707  1.00  0.00     0.040 A 
ATOM     69  C   UNL A   1      50.886  25.071  29.705  1.00  0.00     0.040 A 
ATOM     70  F   UNL A   1      49.472  24.684  27.919  1.00  0.00    -0.206 F 
ATOM     71  C   UNL A   1      51.107  25.468  31.009  1.00  0.00     0.006 A 
ENDBRANCH  50  64
BRANCH  51  72
ATOM     72  C   UNL A   1      39.102  29.543  29.243  1.00  0.00     0.057 A 
ATOM     73  C   UNL A   1      38.805  29.764  27.882  1.00  0.00     0.134 A 
ATOM     74  C   UNL A   1      38.216  30.098  30.162  1.00  0.00     0.134 A 
ATOM     75  F   UNL A   1      39.659  29.354  26.930  1.00  0.00    -0.206 F 
ATOM     76  C   UNL A   1      37.587  30.312  27.460  1.00  0.00     0.040 A 
ATOM     77  C   UNL A   1      37.004  30.666  29.750  1.00  0.00     0.040 A 
ATOM     78  F   UNL A   1      38.428  29.968  31.479  1.00  0.00    -0.206 F 
ATOM     79  C   UNL A   1      36.647  30.690  28.403  1.00  0.00     0.006 A 
ENDBRANCH  51  72
BRANCH  63  80
ATOM     80  C   UNL A   1      42.913  23.629  27.128  1.00  0.00     0.057 A 
ATOM     81  C   UNL A   1      43.526  23.790  25.884  1.00  0.00     0.134 A 
ATOM     82  C   UNL A   1      42.451  22.319  27.394  1.00  0.00     0.134 A 
ATOM     83  F   UNL A   1      43.781  25.004  25.378  1.00  0.00    -0.206 F 
ATOM     84  C   UNL A   1      43.835  22.704  25.060  1.00  0.00     0.040 A 
ATOM     85  C   UNL A   1      42.709  21.237  26.563  1.00  0.00     0.040 A 
ATOM     86  F   UNL A   1      41.700  22.005  28.454  1.00  0.00    -0.206 F 
ATOM     87  C   UNL A   1      43.445  21.419  25.411  1.00  0.00     0.006 A 
ENDBRANCH  63  80
ENDBRANCH  37  38
ENDBRANCH  30  32
ENDBRANCH  29  30
ENDBRANCH  28  29
ENDBRANCH  27  28
ENDBRANCH  26  27
ENDBRANCH  25  26
ENDBRANCH   1  25
TORSDOF 21
ENDMDL
MODEL 3
REMARK VINA RESULT:     -10.7      5.497      9.442
REMARK SMILES Cc1ccc(C[C@H](C(=O)OCCOCCOCCOC(=O)c2ccc(-c3c4nc(c(-c5c(F)cccc5F)c5ccc([nH]5)c(-c5c(F)cccc5F)c5nc(c(-c6c(F)cccc6F)c6ccc3[nH]6)C=C5)C=C4)cc2)[C@@H]2CCCC[C@@H]2O)cc1
REMARK SMILES IDX 14 1 13 2 12 3 11 4 10 5 8 6 9 7 7 8 6 9 5 10 1 11 2 12 3 13
REMARK SMILES IDX 84 14 4 15 83 16 76 17 77 18 81 19 78 20 80 21 79 22 82 23
REMARK SMILES IDX 15 25 16 26 17 27 18 28 19 29 20 30 21 31 22 32 23 33 75 34
REMARK SMILES IDX 24 35 74 36 25 37 26 38 27 39 68 40 28 41 73 42 67 43 69 44
REMARK SMILES IDX 29 45 72 46 66 47 65 48 30 50 56 51 39 52 55 53 40 54 43 55
REMARK SMILES IDX 54 56 70 57 41 58 42 59 53 61 71 62 44 63 31 64 32 65 37 66
REMARK SMILES IDX 33 67 34 68 36 69 38 70 35 71 57 72 58 73 63 74 59 75 60 76
REMARK SMILES IDX 62 77 64 78 61 79 45 80 46 81 51 82 47 83 48 84 50 85 52 86
REMARK SMILES IDX 49 87
REMARK H PARENT 82 24 69 49 43 60
REMARK Flexibility Score: inf
ROOT
ATOM      1  C   UNL A   1      44.150  18.774  25.131  1.00  0.00     0.188 C 
ENDROOT
BRANCH   1   2
ATOM      2  O   UNL A   1      42.763  19.025  25.006  1.00  0.00    -0.376 OA
BRANCH   2   3
ATOM      3  C   UNL A   1      42.190  19.645  26.147  1.00  0.00     0.202 C 
BRANCH   3   4
ATOM      4  C   UNL A   1      40.679  19.792  26.422  1.00  0.00     0.261 C 
BRANCH   4   5
ATOM      5  O   UNL A   1      39.795  20.963  26.369  1.00  0.00    -0.463 OA
BRANCH   5   6
ATOM      6  C   UNL A   1      38.724  21.608  25.845  1.00  0.00     0.309 C 
ATOM      7  O   UNL A   1      38.055  21.202  24.903  1.00  0.00    -0.252 OA
BRANCH   6   8
ATOM      8  C   UNL A   1      38.713  23.252  26.198  1.00  0.00     0.109 C 
BRANCH   8   9
ATOM      9  C   UNL A   1      36.825  23.476  26.251  1.00  0.00     0.051 C 
BRANCH   9  10
ATOM     10  C   UNL A   1      35.910  23.907  25.126  1.00  0.00    -0.047 A 
ATOM     11  C   UNL A   1      32.572  24.426  22.518  1.00  0.00     0.044 C 
ATOM     12  C   UNL A   1      33.847  24.386  23.302  1.00  0.00    -0.051 A 
ATOM     13  C   UNL A   1      33.906  25.092  24.505  1.00  0.00     0.004 A 
ATOM     14  C   UNL A   1      34.901  23.534  22.950  1.00  0.00     0.004 A 
ATOM     15  C   UNL A   1      34.928  24.852  25.406  1.00  0.00     0.004 A 
ATOM     16  C   UNL A   1      35.934  23.291  23.861  1.00  0.00     0.004 A 
ENDBRANCH   9  10
ENDBRANCH   8   9
BRANCH   8  17
ATOM     17  C   UNL A   1      40.187  24.755  26.893  1.00  0.00     0.032 C 
ATOM     18  C   UNL A   1      40.390  25.384  28.625  1.00  0.00     0.007 C 
ATOM     19  C   UNL A   1      40.935  26.223  26.271  1.00  0.00     0.118 C 
ATOM     20  C   UNL A   1      39.818  26.754  28.989  1.00  0.00     0.001 C 
ATOM     21  C   UNL A   1      40.300  27.573  26.665  1.00  0.00     0.032 C 
ATOM     22  C   UNL A   1      40.420  27.857  28.157  1.00  0.00     0.003 C 
BRANCH  19  23
ATOM     23  O   UNL A   1      41.460  26.237  24.945  1.00  0.00    -0.393 OA
ATOM     24  H   UNL A   1      42.020  27.021  24.827  1.00  0.00     0.210 HD
ENDBRANCH  19  23
ENDBRANCH   8  17
ENDBRANCH   6   8
ENDBRANCH   5   6
ENDBRANCH   4   5
ENDBRANCH   3   4
ENDBRANCH   2   3
ENDBRANCH   1   2
BRANCH   1  25
ATOM     25  C   UNL A   1      44.815  19.216  23.824  1.00  0.00     0.188 C 
BRANCH  25  26
ATOM     26  O   UNL A   1      46.165  19.602  24.089  1.00  0.00    -0.376 OA
BRANCH  26  27
ATOM     27  C   UNL A   1      46.371  20.341  25.272  1.00  0.00     0.202 C 
BRANCH  27  28
ATOM     28  C   UNL A   1      46.155  21.840  25.014  1.00  0.00     0.261 C 
BRANCH  28  29
ATOM     29  O   UNL A   1      45.463  22.455  26.141  1.00  0.00    -0.460 OA
BRANCH  29  30
ATOM     30  C   UNL A   1      44.158  22.860  26.059  1.00  0.00     0.338 C 
ATOM     31  O   UNL A   1      43.358  22.562  25.197  1.00  0.00    -0.246 OA
BRANCH  30  32
ATOM     32  C   UNL A   1      43.988  23.941  27.083  1.00  0.00     0.060 A 
ATOM     33  C   UNL A   1      44.090  25.738  26.966  1.00  0.00     0.016 A 
ATOM     34  C   UNL A   1      43.978  23.233  28.696  1.00  0.00     0.016 A 
ATOM     35  C   UNL A   1      44.288  26.763  28.530  1.00  0.00     0.010 A 
ATOM     36  C   UNL A   1      44.238  24.174  30.123  1.00  0.00     0.010 A 
ATOM     37  C   UNL A   1      44.464  25.924  30.129  1.00  0.00    -0.014 A 
BRANCH  37  38
ATOM     38  C   UNL A   1      45.706  25.964  31.206  1.00  0.00     0.031 A 
ATOM     39  C   UNL A   1      46.940  26.274  30.483  1.00  0.00     0.074 A 
ATOM     40  C   UNL A   1      45.767  26.134  32.599  1.00  0.00     0.049 A 
ATOM     41  N   UNL A   1      47.944  25.459  30.400  1.00  0.00    -0.248 NA
ATOM     42  C   UNL A   1      47.024  27.451  29.608  1.00  0.00     0.031 C 
ATOM     43  C   UNL A   1      46.811  26.911  33.322  1.00  0.00     0.029 A 
ATOM     44  N   UNL A   1      44.914  25.863  33.686  1.00  0.00    -0.354 N 
ATOM     45  C   UNL A   1      48.879  26.208  29.725  1.00  0.00     0.074 A 
ATOM     46  C   UNL A   1      48.098  27.114  28.907  1.00  0.00     0.031 C 
ATOM     47  C   UNL A   1      46.576  26.959  34.653  1.00  0.00     0.029 A 
ATOM     48  C   UNL A   1      45.405  26.163  34.962  1.00  0.00     0.049 A 
ATOM     49  H   UNL A   1      44.015  25.481  33.555  1.00  0.00     0.167 HD
ATOM     50  C   UNL A   1      50.020  26.641  30.351  1.00  0.00     0.037 A 
ATOM     51  C   UNL A   1      45.272  25.305  36.021  1.00  0.00     0.037 A 
ATOM     52  C   UNL A   1      50.018  26.399  31.813  1.00  0.00     0.049 A 
ATOM     53  C   UNL A   1      46.457  24.369  35.947  1.00  0.00     0.074 A 
ATOM     54  C   UNL A   1      50.160  27.194  32.943  1.00  0.00     0.029 A 
ATOM     55  N   UNL A   1      49.558  25.185  32.324  1.00  0.00    -0.354 N 
ATOM     56  N   UNL A   1      47.548  24.728  35.332  1.00  0.00    -0.248 NA
ATOM     57  C   UNL A   1      46.536  22.995  36.429  1.00  0.00     0.031 C 
ATOM     58  C   UNL A   1      49.967  26.391  34.109  1.00  0.00     0.029 A 
ATOM     59  C   UNL A   1      49.677  25.104  33.699  1.00  0.00     0.049 A 
ATOM     60  H   UNL A   1      49.189  24.463  31.766  1.00  0.00     0.167 HD
ATOM     61  C   UNL A   1      48.361  23.664  35.133  1.00  0.00     0.074 A 
ATOM     62  C   UNL A   1      47.691  22.592  35.862  1.00  0.00     0.031 C 
ATOM     63  C   UNL A   1      49.481  23.810  34.360  1.00  0.00     0.037 A 
BRANCH  50  64
ATOM     64  C   UNL A   1      50.940  27.608  29.610  1.00  0.00     0.057 A 
ATOM     65  C   UNL A   1      50.911  28.991  29.834  1.00  0.00     0.134 A 
ATOM     66  C   UNL A   1      51.924  27.203  28.671  1.00  0.00     0.134 A 
ATOM     67  F   UNL A   1      50.150  29.535  30.789  1.00  0.00    -0.206 F 
ATOM     68  C   UNL A   1      51.700  29.897  29.113  1.00  0.00     0.040 A 
ATOM     69  C   UNL A   1      52.668  28.099  27.892  1.00  0.00     0.040 A 
ATOM     70  F   UNL A   1      52.236  25.910  28.490  1.00  0.00    -0.206 F 
ATOM     71  C   UNL A   1      52.558  29.458  28.115  1.00  0.00     0.006 A 
ENDBRANCH  50  64
BRANCH  51  72
ATOM     72  C   UNL A   1      43.863  24.953  36.357  1.00  0.00     0.057 A 
ATOM     73  C   UNL A   1      43.149  25.797  37.233  1.00  0.00     0.134 A 
ATOM     74  C   UNL A   1      43.101  24.068  35.601  1.00  0.00     0.134 A 
ATOM     75  F   UNL A   1      43.808  26.610  38.074  1.00  0.00    -0.206 F 
ATOM     76  C   UNL A   1      41.753  25.907  37.196  1.00  0.00     0.040 A 
ATOM     77  C   UNL A   1      41.703  24.156  35.571  1.00  0.00     0.040 A 
ATOM     78  F   UNL A   1      43.689  23.204  34.762  1.00  0.00    -0.206 F 
ATOM     79  C   UNL A   1      41.033  25.138  36.297  1.00  0.00     0.006 A 
ENDBRANCH  51  72
BRANCH  63  80
ATOM     80  C   UNL A   1      50.502  22.734  34.127  1.00  0.00     0.057 A 
ATOM     81  C   UNL A   1      50.172  21.454  33.678  1.00  0.00     0.134 A 
ATOM     82  C   UNL A   1      51.869  22.915  34.443  1.00  0.00     0.134 A 
ATOM     83  F   UNL A   1      48.899  21.049  33.587  1.00  0.00    -0.206 F 
ATOM     84  C   UNL A   1      51.145  20.498  33.376  1.00  0.00     0.040 A 
ATOM     85  C   UNL A   1      52.843  21.957  34.192  1.00  0.00     0.040 A 
ATOM     86  F   UNL A   1      52.348  24.013  35.037  1.00  0.00    -0.206 F 
ATOM     87  C   UNL A   1      52.488  20.757  33.612  1.00  0.00     0.006 A 
ENDBRANCH  63  80
ENDBRANCH  37  38
ENDBRANCH  30  32
ENDBRANCH  29  30
ENDBRANCH  28  29
ENDBRANCH  27  28
ENDBRANCH  26  27
ENDBRANCH  25  26
ENDBRANCH   1  25
TORSDOF 21
ENDMDL
