MODEL 1
REMARK VINA RESULT:      -9.7      0.000      0.000
REMARK SMILES [N-]=[N+]=NC[C@@H](Nc1ccccc1Br)C(=O)OCCOCCOCCOC(=O)c1ccc(-c2c3nc(c(-c4c(F)cccc4F)c4ccc([nH]4)c(-c4c(F)cccc4F)c4nc(c(-c5c(F)cccc5F)c5ccc2[nH]5)C=C4)C=C3)cc1
REMARK SMILES IDX 20 1 19 2 18 3 17 4 16 5 14 6 15 7 5 8 4 9 3 10 1 11 2 12
REMARK SMILES IDX 6 13 7 15 8 16 12 17 9 18 11 19 13 20 10 21 21 22 22 23
REMARK SMILES IDX 23 24 24 25 25 26 26 27 27 28 28 29 29 30 81 31 30 32 80 33
REMARK SMILES IDX 31 34 32 35 33 36 74 37 34 38 79 39 73 40 75 41 35 42 78 43
REMARK SMILES IDX 72 44 71 45 36 47 62 48 45 49 61 50 46 51 49 52 60 53 76 54
REMARK SMILES IDX 47 55 48 56 59 58 77 59 50 60 37 61 38 62 43 63 39 64 40 65
REMARK SMILES IDX 42 66 44 67 41 68 63 69 64 70 69 71 65 72 66 73 68 74 70 75
REMARK SMILES IDX 67 76 51 77 52 78 57 79 53 80 54 81 56 82 58 83 55 84
REMARK H PARENT 6 14 75 46 49 57
REMARK Flexibility Score: inf
ROOT
ATOM      1  C   UNL A   1      37.501  22.804  25.568  1.00  0.00     0.188 C 
ENDROOT
BRANCH   1   2
ATOM      2  O   UNL A   1      36.331  22.703  26.337  1.00  0.00    -0.376 OA
BRANCH   2   3
ATOM      3  C   UNL A   1      35.397  21.664  26.127  1.00  0.00     0.202 C 
BRANCH   3   4
ATOM      4  C   UNL A   1      33.859  21.774  26.202  1.00  0.00     0.261 C 
BRANCH   4   5
ATOM      5  O   UNL A   1      33.227  22.911  26.815  1.00  0.00    -0.462 OA
BRANCH   5   6
ATOM      6  C   UNL A   1      32.280  23.515  26.039  1.00  0.00     0.328 C 
ATOM      7  O   UNL A   1      31.385  22.889  25.475  1.00  0.00    -0.250 OA
BRANCH   6   8
ATOM      8  C   UNL A   1      32.447  25.048  25.882  1.00  0.00     0.195 C 
BRANCH   8   9
ATOM      9  C   UNL A   1      33.164  25.521  24.599  1.00  0.00     0.127 C 
BRANCH   9  10
ATOM     10  N   UNL A   1      34.406  24.739  24.395  1.00  0.00    -0.091 NA
ATOM     11  N   UNL A   1      34.512  23.445  22.402  1.00  0.00    -0.003 NA
ATOM     12  N   UNL A   1      34.463  24.048  23.361  1.00  0.00     0.001 N 
ENDBRANCH   9  10
ENDBRANCH   8   9
BRANCH   8  13
ATOM     13  N   UNL A   1      31.173  25.809  26.066  1.00  0.00    -0.371 N 
ATOM     14  H   UNL A   1      30.309  25.346  26.156  1.00  0.00     0.161 HD
BRANCH  13  15
ATOM     15  C   UNL A   1      31.258  27.202  26.105  1.00  0.00     0.049 A 
ATOM     16  C   UNL A   1      31.779  27.817  27.250  1.00  0.00     0.027 A 
ATOM     17  C   UNL A   1      31.003  28.000  24.974  1.00  0.00     0.041 A 
ATOM     18  C   UNL A   1      32.125  29.170  27.236  1.00  0.00     0.002 A 
ATOM     19  C   UNL A   1      31.396  29.338  24.942  1.00  0.00     0.018 A 
ATOM     20  Br  UNL A   1      30.063  27.316  23.465  1.00  0.00    -0.049 Br
ATOM     21  C   UNL A   1      31.972  29.917  26.071  1.00  0.00     0.001 A 
ENDBRANCH  13  15
ENDBRANCH   8  13
ENDBRANCH   6   8
ENDBRANCH   5   6
ENDBRANCH   4   5
ENDBRANCH   3   4
ENDBRANCH   2   3
ENDBRANCH   1   2
BRANCH   1  22
ATOM     22  C   UNL A   1      38.787  22.182  26.123  1.00  0.00     0.188 C 
BRANCH  22  23
ATOM     23  O   UNL A   1      39.276  20.967  25.610  1.00  0.00    -0.376 OA
BRANCH  23  24
ATOM     24  C   UNL A   1      40.452  20.418  26.182  1.00  0.00     0.202 C 
BRANCH  24  25
ATOM     25  C   UNL A   1      41.817  21.146  26.197  1.00  0.00     0.261 C 
BRANCH  25  26
ATOM     26  O   UNL A   1      41.966  22.318  25.380  1.00  0.00    -0.460 OA
BRANCH  26  27
ATOM     27  C   UNL A   1      43.045  23.106  25.636  1.00  0.00     0.338 C 
ATOM     28  O   UNL A   1      44.138  23.052  25.103  1.00  0.00    -0.246 OA
BRANCH  27  29
ATOM     29  C   UNL A   1      42.620  24.222  26.519  1.00  0.00     0.060 A 
ATOM     30  C   UNL A   1      43.249  25.474  26.407  1.00  0.00     0.016 A 
ATOM     31  C   UNL A   1      41.595  24.040  27.444  1.00  0.00     0.016 A 
ATOM     32  C   UNL A   1      42.841  26.551  27.199  1.00  0.00     0.010 A 
ATOM     33  C   UNL A   1      41.218  25.105  28.269  1.00  0.00     0.010 A 
ATOM     34  C   UNL A   1      41.842  26.364  28.160  1.00  0.00    -0.014 A 
BRANCH  34  35
ATOM     35  C   UNL A   1      41.544  27.410  29.169  1.00  0.00     0.031 A 
ATOM     36  C   UNL A   1      42.329  27.416  30.450  1.00  0.00     0.074 A 
ATOM     37  C   UNL A   1      40.568  28.316  28.980  1.00  0.00     0.049 A 
ATOM     38  N   UNL A   1      42.135  28.103  31.546  1.00  0.00    -0.248 NA
ATOM     39  C   UNL A   1      43.487  26.511  30.499  1.00  0.00     0.031 C 
ATOM     40  C   UNL A   1      39.781  28.476  27.760  1.00  0.00     0.029 A 
ATOM     41  N   UNL A   1      40.057  29.261  29.839  1.00  0.00    -0.354 N 
ATOM     42  C   UNL A   1      43.135  27.702  32.422  1.00  0.00     0.074 A 
ATOM     43  C   UNL A   1      43.915  26.692  31.739  1.00  0.00     0.031 C 
ATOM     44  C   UNL A   1      38.869  29.444  27.956  1.00  0.00     0.029 A 
ATOM     45  C   UNL A   1      38.975  29.936  29.330  1.00  0.00     0.049 A 
ATOM     46  H   UNL A   1      40.432  29.436  30.732  1.00  0.00     0.167 HD
ATOM     47  C   UNL A   1      43.383  28.137  33.681  1.00  0.00     0.037 A 
ATOM     48  C   UNL A   1      38.143  30.818  29.919  1.00  0.00     0.037 A 
ATOM     49  C   UNL A   1      42.593  29.127  34.364  1.00  0.00     0.049 A 
ATOM     50  C   UNL A   1      38.351  31.186  31.368  1.00  0.00     0.074 A 
ATOM     51  C   UNL A   1      42.763  29.637  35.640  1.00  0.00     0.029 A 
ATOM     52  N   UNL A   1      41.471  29.746  33.835  1.00  0.00    -0.354 N 
ATOM     53  N   UNL A   1      39.300  30.813  32.191  1.00  0.00    -0.248 NA
ATOM     54  C   UNL A   1      37.360  32.091  31.972  1.00  0.00     0.031 C 
ATOM     55  C   UNL A   1      41.706  30.514  35.905  1.00  0.00     0.029 A 
ATOM     56  C   UNL A   1      40.915  30.602  34.771  1.00  0.00     0.049 A 
ATOM     57  H   UNL A   1      41.121  29.600  32.926  1.00  0.00     0.167 HD
ATOM     58  C   UNL A   1      39.041  31.458  33.395  1.00  0.00     0.074 A 
ATOM     59  C   UNL A   1      37.849  32.255  33.194  1.00  0.00     0.031 C 
ATOM     60  C   UNL A   1      39.730  31.397  34.562  1.00  0.00     0.037 A 
BRANCH  47  61
ATOM     61  C   UNL A   1      44.532  27.500  34.411  1.00  0.00     0.057 A 
ATOM     62  C   UNL A   1      45.819  28.055  34.403  1.00  0.00     0.134 A 
ATOM     63  C   UNL A   1      44.348  26.313  35.133  1.00  0.00     0.134 A 
ATOM     64  F   UNL A   1      46.068  29.184  33.722  1.00  0.00    -0.206 F 
ATOM     65  C   UNL A   1      46.889  27.430  35.046  1.00  0.00     0.040 A 
ATOM     66  C   UNL A   1      45.402  25.697  35.809  1.00  0.00     0.040 A 
ATOM     67  F   UNL A   1      43.140  25.731  35.193  1.00  0.00    -0.206 F 
ATOM     68  C   UNL A   1      46.680  26.249  35.756  1.00  0.00     0.006 A 
ENDBRANCH  47  61
BRANCH  48  69
ATOM     69  C   UNL A   1      37.016  31.408  29.151  1.00  0.00     0.057 A 
ATOM     70  C   UNL A   1      37.067  32.735  28.705  1.00  0.00     0.134 A 
ATOM     71  C   UNL A   1      35.856  30.678  28.861  1.00  0.00     0.134 A 
ATOM     72  F   UNL A   1      38.136  33.497  28.980  1.00  0.00    -0.206 F 
ATOM     73  C   UNL A   1      36.006  33.315  28.008  1.00  0.00     0.040 A 
ATOM     74  C   UNL A   1      34.799  31.236  28.141  1.00  0.00     0.040 A 
ATOM     75  F   UNL A   1      35.738  29.405  29.267  1.00  0.00    -0.206 F 
ATOM     76  C   UNL A   1      34.870  32.562  27.717  1.00  0.00     0.006 A 
ENDBRANCH  48  69
BRANCH  60  77
ATOM     77  C   UNL A   1      39.240  32.234  35.710  1.00  0.00     0.057 A 
ATOM     78  C   UNL A   1      39.621  33.572  35.871  1.00  0.00     0.134 A 
ATOM     79  C   UNL A   1      38.319  31.713  36.630  1.00  0.00     0.134 A 
ATOM     80  F   UNL A   1      40.508  34.130  35.034  1.00  0.00    -0.206 F 
ATOM     81  C   UNL A   1      39.114  34.358  36.908  1.00  0.00     0.040 A 
ATOM     82  C   UNL A   1      37.782  32.496  37.654  1.00  0.00     0.040 A 
ATOM     83  F   UNL A   1      37.902  30.441  36.532  1.00  0.00    -0.206 F 
ATOM     84  C   UNL A   1      38.183  33.823  37.797  1.00  0.00     0.006 A 
ENDBRANCH  60  77
ENDBRANCH  34  35
ENDBRANCH  27  29
ENDBRANCH  26  27
ENDBRANCH  25  26
ENDBRANCH  24  25
ENDBRANCH  23  24
ENDBRANCH  22  23
ENDBRANCH   1  22
TORSDOF 21
ENDMDL
MODEL 2
REMARK VINA RESULT:      -9.6      1.541      2.973
REMARK SMILES [N-]=[N+]=NC[C@@H](Nc1ccccc1Br)C(=O)OCCOCCOCCOC(=O)c1ccc(-c2c3nc(c(-c4c(F)cccc4F)c4ccc([nH]4)c(-c4c(F)cccc4F)c4nc(c(-c5c(F)cccc5F)c5ccc2[nH]5)C=C4)C=C3)cc1
REMARK SMILES IDX 20 1 19 2 18 3 17 4 16 5 14 6 15 7 5 8 4 9 3 10 1 11 2 12
REMARK SMILES IDX 6 13 7 15 8 16 12 17 9 18 11 19 13 20 10 21 21 22 22 23
REMARK SMILES IDX 23 24 24 25 25 26 26 27 27 28 28 29 29 30 81 31 30 32 80 33
REMARK SMILES IDX 31 34 32 35 33 36 74 37 34 38 79 39 73 40 75 41 35 42 78 43
REMARK SMILES IDX 72 44 71 45 36 47 62 48 45 49 61 50 46 51 49 52 60 53 76 54
REMARK SMILES IDX 47 55 48 56 59 58 77 59 50 60 37 61 38 62 43 63 39 64 40 65
REMARK SMILES IDX 42 66 44 67 41 68 63 69 64 70 69 71 65 72 66 73 68 74 70 75
REMARK SMILES IDX 67 76 51 77 52 78 57 79 53 80 54 81 56 82 58 83 55 84
REMARK H PARENT 6 14 75 46 49 57
REMARK Flexibility Score: inf
ROOT
ATOM      1  C   UNL A   1      38.106  23.649  25.824  1.00  0.00     0.188 C 
ENDROOT
BRANCH   1   2
ATOM      2  O   UNL A   1      36.753  23.743  26.186  1.00  0.00    -0.376 OA
BRANCH   2   3
ATOM      3  C   UNL A   1      35.721  23.410  25.279  1.00  0.00     0.202 C 
BRANCH   3   4
ATOM      4  C   UNL A   1      34.772  24.391  24.558  1.00  0.00     0.261 C 
BRANCH   4   5
ATOM      5  O   UNL A   1      34.730  24.461  23.122  1.00  0.00    -0.462 OA
BRANCH   5   6
ATOM      6  C   UNL A   1      33.656  25.142  22.623  1.00  0.00     0.328 C 
ATOM      7  O   UNL A   1      33.649  25.638  21.500  1.00  0.00    -0.250 OA
BRANCH   6   8
ATOM      8  C   UNL A   1      32.462  25.281  23.602  1.00  0.00     0.195 C 
BRANCH   8   9
ATOM      9  C   UNL A   1      31.871  26.701  23.747  1.00  0.00     0.127 C 
BRANCH   9  10
ATOM     10  N   UNL A   1      30.486  26.729  23.224  1.00  0.00    -0.091 NA
ATOM     11  N   UNL A   1      29.764  28.793  22.287  1.00  0.00    -0.003 NA
ATOM     12  N   UNL A   1      30.096  27.811  22.744  1.00  0.00     0.001 N 
ENDBRANCH   9  10
ENDBRANCH   8   9
BRANCH   8  13
ATOM     13  N   UNL A   1      31.366  24.295  23.351  1.00  0.00    -0.371 N 
ATOM     14  H   UNL A   1      30.519  24.568  22.930  1.00  0.00     0.161 HD
BRANCH  13  15
ATOM     15  C   UNL A   1      31.591  22.973  23.739  1.00  0.00     0.049 A 
ATOM     16  C   UNL A   1      31.993  22.043  22.773  1.00  0.00     0.027 A 
ATOM     17  C   UNL A   1      31.597  22.580  25.091  1.00  0.00     0.041 A 
ATOM     18  C   UNL A   1      32.478  20.790  23.150  1.00  0.00     0.002 A 
ATOM     19  C   UNL A   1      32.131  21.348  25.472  1.00  0.00     0.018 A 
ATOM     20  Br  UNL A   1      30.832  23.674  26.449  1.00  0.00    -0.049 Br
ATOM     21  C   UNL A   1      32.585  20.460  24.500  1.00  0.00     0.001 A 
ENDBRANCH  13  15
ENDBRANCH   8  13
ENDBRANCH   6   8
ENDBRANCH   5   6
ENDBRANCH   4   5
ENDBRANCH   3   4
ENDBRANCH   2   3
ENDBRANCH   1   2
BRANCH   1  22
ATOM     22  C   UNL A   1      38.959  22.564  26.489  1.00  0.00     0.188 C 
BRANCH  22  23
ATOM     23  O   UNL A   1      39.202  21.341  25.838  1.00  0.00    -0.376 OA
BRANCH  23  24
ATOM     24  C   UNL A   1      40.415  20.659  26.113  1.00  0.00     0.202 C 
BRANCH  24  25
ATOM     25  C   UNL A   1      41.778  21.371  26.282  1.00  0.00     0.261 C 
BRANCH  25  26
ATOM     26  O   UNL A   1      42.101  22.437  25.374  1.00  0.00    -0.460 OA
BRANCH  26  27
ATOM     27  C   UNL A   1      43.169  23.213  25.700  1.00  0.00     0.338 C 
ATOM     28  O   UNL A   1      44.287  23.162  25.222  1.00  0.00    -0.246 OA
BRANCH  27  29
ATOM     29  C   UNL A   1      42.706  24.314  26.583  1.00  0.00     0.060 A 
ATOM     30  C   UNL A   1      43.240  25.605  26.421  1.00  0.00     0.016 A 
ATOM     31  C   UNL A   1      41.737  24.080  27.556  1.00  0.00     0.016 A 
ATOM     32  C   UNL A   1      42.792  26.666  27.213  1.00  0.00     0.010 A 
ATOM     33  C   UNL A   1      41.323  25.133  28.379  1.00  0.00     0.010 A 
ATOM     34  C   UNL A   1      41.852  26.429  28.221  1.00  0.00    -0.014 A 
BRANCH  34  35
ATOM     35  C   UNL A   1      41.526  27.472  29.225  1.00  0.00     0.031 A 
ATOM     36  C   UNL A   1      42.296  27.493  30.514  1.00  0.00     0.074 A 
ATOM     37  C   UNL A   1      40.537  28.361  29.024  1.00  0.00     0.049 A 
ATOM     38  N   UNL A   1      42.079  28.179  31.607  1.00  0.00    -0.248 NA
ATOM     39  C   UNL A   1      43.469  26.607  30.578  1.00  0.00     0.031 C 
ATOM     40  C   UNL A   1      39.761  28.505  27.795  1.00  0.00     0.029 A 
ATOM     41  N   UNL A   1      40.001  29.298  29.876  1.00  0.00    -0.354 N 
ATOM     42  C   UNL A   1      43.077  27.796  32.494  1.00  0.00     0.074 A 
ATOM     43  C   UNL A   1      43.881  26.798  31.822  1.00  0.00     0.031 C 
ATOM     44  C   UNL A   1      38.830  29.459  27.980  1.00  0.00     0.029 A 
ATOM     45  C   UNL A   1      38.913  29.955  29.353  1.00  0.00     0.049 A 
ATOM     46  H   UNL A   1      40.363  29.482  30.773  1.00  0.00     0.167 HD
ATOM     47  C   UNL A   1      43.304  28.237  33.756  1.00  0.00     0.037 A 
ATOM     48  C   UNL A   1      38.060  30.824  29.932  1.00  0.00     0.037 A 
ATOM     49  C   UNL A   1      42.489  29.215  34.428  1.00  0.00     0.049 A 
ATOM     50  C   UNL A   1      38.246  31.197  31.382  1.00  0.00     0.074 A 
ATOM     51  C   UNL A   1      42.637  29.729  35.705  1.00  0.00     0.029 A 
ATOM     52  N   UNL A   1      41.364  29.814  33.885  1.00  0.00    -0.354 N 
ATOM     53  N   UNL A   1      39.193  30.842  32.216  1.00  0.00    -0.248 NA
ATOM     54  C   UNL A   1      37.234  32.087  31.974  1.00  0.00     0.031 C 
ATOM     55  C   UNL A   1      41.563  30.589  35.957  1.00  0.00     0.029 A 
ATOM     56  C   UNL A   1      40.783  30.662  34.814  1.00  0.00     0.049 A 
ATOM     57  H   UNL A   1      41.026  29.660  32.973  1.00  0.00     0.167 HD
ATOM     58  C   UNL A   1      38.910  31.485  33.416  1.00  0.00     0.074 A 
ATOM     59  C   UNL A   1      37.707  32.261  33.201  1.00  0.00     0.031 C 
ATOM     60  C   UNL A   1      39.587  31.437  34.590  1.00  0.00     0.037 A 
BRANCH  47  61
ATOM     61  C   UNL A   1      44.455  27.621  34.499  1.00  0.00     0.057 A 
ATOM     62  C   UNL A   1      44.320  26.430  35.226  1.00  0.00     0.134 A 
ATOM     63  C   UNL A   1      45.719  28.228  34.487  1.00  0.00     0.134 A 
ATOM     64  F   UNL A   1      43.136  25.803  35.290  1.00  0.00    -0.206 F 
ATOM     65  C   UNL A   1      45.386  25.891  35.951  1.00  0.00     0.040 A 
ATOM     66  C   UNL A   1      46.800  27.680  35.178  1.00  0.00     0.040 A 
ATOM     67  F   UNL A   1      45.923  29.363  33.802  1.00  0.00    -0.206 F 
ATOM     68  C   UNL A   1      46.632  26.515  35.923  1.00  0.00     0.006 A 
ENDBRANCH  47  61
BRANCH  48  69
ATOM     69  C   UNL A   1      36.932  31.394  29.151  1.00  0.00     0.057 A 
ATOM     70  C   UNL A   1      36.965  32.721  28.706  1.00  0.00     0.134 A 
ATOM     71  C   UNL A   1      35.789  30.642  28.848  1.00  0.00     0.134 A 
ATOM     72  F   UNL A   1      38.016  33.502  28.993  1.00  0.00    -0.206 F 
ATOM     73  C   UNL A   1      35.901  33.282  27.996  1.00  0.00     0.040 A 
ATOM     74  C   UNL A   1      34.731  31.182  28.115  1.00  0.00     0.040 A 
ATOM     75  F   UNL A   1      35.689  29.368  29.252  1.00  0.00    -0.206 F 
ATOM     76  C   UNL A   1      34.783  32.508  27.692  1.00  0.00     0.006 A 
ENDBRANCH  48  69
BRANCH  60  77
ATOM     77  C   UNL A   1      39.071  32.267  35.732  1.00  0.00     0.057 A 
ATOM     78  C   UNL A   1      38.225  31.736  36.714  1.00  0.00     0.134 A 
ATOM     79  C   UNL A   1      39.480  33.599  35.889  1.00  0.00     0.134 A 
ATOM     80  F   UNL A   1      37.785  30.472  36.620  1.00  0.00    -0.206 F 
ATOM     81  C   UNL A   1      37.798  32.499  37.803  1.00  0.00     0.040 A 
ATOM     82  C   UNL A   1      39.084  34.364  36.987  1.00  0.00     0.040 A 
ATOM     83  F   UNL A   1      40.297  34.170  34.990  1.00  0.00    -0.206 F 
ATOM     84  C   UNL A   1      38.237  33.814  37.947  1.00  0.00     0.006 A 
ENDBRANCH  60  77
ENDBRANCH  34  35
ENDBRANCH  27  29
ENDBRANCH  26  27
ENDBRANCH  25  26
ENDBRANCH  24  25
ENDBRANCH  23  24
ENDBRANCH  22  23
ENDBRANCH   1  22
TORSDOF 21
ENDMDL
MODEL 3
REMARK VINA RESULT:      -9.3      5.882     11.327
REMARK SMILES [N-]=[N+]=NC[C@@H](Nc1ccccc1Br)C(=O)OCCOCCOCCOC(=O)c1ccc(-c2c3nc(c(-c4c(F)cccc4F)c4ccc([nH]4)c(-c4c(F)cccc4F)c4nc(c(-c5c(F)cccc5F)c5ccc2[nH]5)C=C4)C=C3)cc1
REMARK SMILES IDX 20 1 19 2 18 3 17 4 16 5 14 6 15 7 5 8 4 9 3 10 1 11 2 12
REMARK SMILES IDX 6 13 7 15 8 16 12 17 9 18 11 19 13 20 10 21 21 22 22 23
REMARK SMILES IDX 23 24 24 25 25 26 26 27 27 28 28 29 29 30 81 31 30 32 80 33
REMARK SMILES IDX 31 34 32 35 33 36 74 37 34 38 79 39 73 40 75 41 35 42 78 43
REMARK SMILES IDX 72 44 71 45 36 47 62 48 45 49 61 50 46 51 49 52 60 53 76 54
REMARK SMILES IDX 47 55 48 56 59 58 77 59 50 60 37 61 38 62 43 63 39 64 40 65
REMARK SMILES IDX 42 66 44 67 41 68 63 69 64 70 69 71 65 72 66 73 68 74 70 75
REMARK SMILES IDX 67 76 51 77 52 78 57 79 53 80 54 81 56 82 58 83 55 84
REMARK H PARENT 6 14 75 46 49 57
REMARK Flexibility Score: inf
ROOT
ATOM      1  C   UNL A   1      32.926  35.032  29.829  1.00  0.00     0.188 C 
ENDROOT
BRANCH   1   2
ATOM      2  O   UNL A   1      33.168  35.357  31.173  1.00  0.00    -0.376 OA
BRANCH   2   3
ATOM      3  C   UNL A   1      34.256  34.800  31.882  1.00  0.00     0.202 C 
BRANCH   3   4
ATOM      4  C   UNL A   1      34.185  33.989  33.194  1.00  0.00     0.261 C 
BRANCH   4   5
ATOM      5  O   UNL A   1      35.225  33.061  33.548  1.00  0.00    -0.462 OA
BRANCH   5   6
ATOM      6  C   UNL A   1      35.985  33.447  34.615  1.00  0.00     0.328 C 
ATOM      7  O   UNL A   1      35.514  34.030  35.589  1.00  0.00    -0.250 OA
BRANCH   6   8
ATOM      8  C   UNL A   1      37.498  33.138  34.483  1.00  0.00     0.195 C 
BRANCH   8   9
ATOM      9  C   UNL A   1      37.856  31.802  33.795  1.00  0.00     0.127 C 
BRANCH   9  10
ATOM     10  N   UNL A   1      38.662  30.961  34.710  1.00  0.00    -0.091 NA
ATOM     11  N   UNL A   1      37.869  30.792  36.947  1.00  0.00    -0.003 NA
ATOM     12  N   UNL A   1      38.260  30.879  35.887  1.00  0.00     0.001 N 
ENDBRANCH   9  10
ENDBRANCH   8   9
BRANCH   8  13
ATOM     13  N   UNL A   1      38.285  34.253  33.873  1.00  0.00    -0.371 N 
ATOM     14  H   UNL A   1      38.454  35.089  34.366  1.00  0.00     0.161 HD
BRANCH  13  15
ATOM     15  C   UNL A   1      38.770  34.063  32.578  1.00  0.00     0.049 A 
ATOM     16  C   UNL A   1      37.868  34.074  31.508  1.00  0.00     0.027 A 
ATOM     17  C   UNL A   1      40.149  34.033  32.292  1.00  0.00     0.041 A 
ATOM     18  C   UNL A   1      38.327  34.151  30.191  1.00  0.00     0.002 A 
ATOM     19  C   UNL A   1      40.608  34.163  30.981  1.00  0.00     0.018 A 
ATOM     20  Br  UNL A   1      41.444  33.758  33.662  1.00  0.00    -0.049 Br
ATOM     21  C   UNL A   1      39.694  34.237  29.933  1.00  0.00     0.001 A 
ENDBRANCH  13  15
ENDBRANCH   8  13
ENDBRANCH   6   8
ENDBRANCH   5   6
ENDBRANCH   4   5
ENDBRANCH   3   4
ENDBRANCH   2   3
ENDBRANCH   1   2
BRANCH   1  22
ATOM     22  C   UNL A   1      34.022  35.341  28.802  1.00  0.00     0.188 C 
BRANCH  22  23
ATOM     23  O   UNL A   1      35.231  34.623  28.804  1.00  0.00    -0.376 OA
BRANCH  23  24
ATOM     24  C   UNL A   1      35.379  33.547  27.893  1.00  0.00     0.202 C 
BRANCH  24  25
ATOM     25  C   UNL A   1      34.530  32.255  27.949  1.00  0.00     0.261 C 
BRANCH  25  26
ATOM     26  O   UNL A   1      35.130  31.074  28.505  1.00  0.00    -0.460 OA
BRANCH  26  27
ATOM     27  C   UNL A   1      35.859  31.238  29.642  1.00  0.00     0.338 C 
ATOM     28  O   UNL A   1      35.473  31.698  30.701  1.00  0.00    -0.246 OA
BRANCH  27  29
ATOM     29  C   UNL A   1      37.162  30.547  29.476  1.00  0.00     0.060 A 
ATOM     30  C   UNL A   1      37.831  30.046  30.606  1.00  0.00     0.016 A 
ATOM     31  C   UNL A   1      37.717  30.380  28.209  1.00  0.00     0.016 A 
ATOM     32  C   UNL A   1      39.040  29.357  30.472  1.00  0.00     0.010 A 
ATOM     33  C   UNL A   1      38.950  29.731  28.081  1.00  0.00     0.010 A 
ATOM     34  C   UNL A   1      39.624  29.224  29.208  1.00  0.00    -0.014 A 
BRANCH  34  35
ATOM     35  C   UNL A   1      41.007  28.707  29.055  1.00  0.00     0.031 A 
ATOM     36  C   UNL A   1      42.153  29.668  29.201  1.00  0.00     0.074 A 
ATOM     37  C   UNL A   1      41.251  27.420  28.748  1.00  0.00     0.049 A 
ATOM     38  N   UNL A   1      43.423  29.501  28.936  1.00  0.00    -0.248 NA
ATOM     39  C   UNL A   1      41.810  31.005  29.710  1.00  0.00     0.031 C 
ATOM     40  C   UNL A   1      40.245  26.365  28.651  1.00  0.00     0.029 A 
ATOM     41  N   UNL A   1      42.433  26.792  28.433  1.00  0.00    -0.354 N 
ATOM     42  C   UNL A   1      44.029  30.716  29.229  1.00  0.00     0.074 A 
ATOM     43  C   UNL A   1      42.983  31.617  29.663  1.00  0.00     0.031 C 
ATOM     44  C   UNL A   1      40.850  25.224  28.276  1.00  0.00     0.029 A 
ATOM     45  C   UNL A   1      42.274  25.480  28.059  1.00  0.00     0.049 A 
ATOM     46  H   UNL A   1      43.309  27.240  28.474  1.00  0.00     0.167 HD
ATOM     47  C   UNL A   1      45.340  31.051  29.144  1.00  0.00     0.037 A 
ATOM     48  C   UNL A   1      43.168  24.603  27.560  1.00  0.00     0.037 A 
ATOM     49  C   UNL A   1      46.374  30.158  28.692  1.00  0.00     0.049 A 
ATOM     50  C   UNL A   1      44.596  25.037  27.341  1.00  0.00     0.074 A 
ATOM     51  C   UNL A   1      47.731  30.401  28.572  1.00  0.00     0.029 A 
ATOM     52  N   UNL A   1      46.164  28.855  28.268  1.00  0.00    -0.354 N 
ATOM     53  N   UNL A   1      45.169  26.181  27.624  1.00  0.00    -0.248 NA
ATOM     54  C   UNL A   1      45.500  24.056  26.718  1.00  0.00     0.031 C 
ATOM     55  C   UNL A   1      48.331  29.268  28.013  1.00  0.00     0.029 A 
ATOM     56  C   UNL A   1      47.358  28.294  27.847  1.00  0.00     0.049 A 
ATOM     57  H   UNL A   1      45.293  28.395  28.266  1.00  0.00     0.167 HD
ATOM     58  C   UNL A   1      46.500  26.049  27.246  1.00  0.00     0.074 A 
ATOM     59  C   UNL A   1      46.654  24.709  26.721  1.00  0.00     0.031 C 
ATOM     60  C   UNL A   1      47.505  26.956  27.329  1.00  0.00     0.037 A 
BRANCH  47  61
ATOM     61  C   UNL A   1      45.710  32.461  29.505  1.00  0.00     0.057 A 
ATOM     62  C   UNL A   1      46.119  32.817  30.798  1.00  0.00     0.134 A 
ATOM     63  C   UNL A   1      45.655  33.482  28.545  1.00  0.00     0.134 A 
ATOM     64  F   UNL A   1      46.182  31.893  31.768  1.00  0.00    -0.206 F 
ATOM     65  C   UNL A   1      46.416  34.139  31.133  1.00  0.00     0.040 A 
ATOM     66  C   UNL A   1      45.984  34.801  28.860  1.00  0.00     0.040 A 
ATOM     67  F   UNL A   1      45.282  33.213  27.284  1.00  0.00    -0.206 F 
ATOM     68  C   UNL A   1      46.353  35.135  30.160  1.00  0.00     0.006 A 
ENDBRANCH  47  61
BRANCH  48  69
ATOM     69  C   UNL A   1      42.742  23.223  27.210  1.00  0.00     0.057 A 
ATOM     70  C   UNL A   1      42.515  22.857  25.877  1.00  0.00     0.134 A 
ATOM     71  C   UNL A   1      42.528  22.244  28.190  1.00  0.00     0.134 A 
ATOM     72  F   UNL A   1      42.670  23.758  24.896  1.00  0.00    -0.206 F 
ATOM     73  C   UNL A   1      42.086  21.574  25.532  1.00  0.00     0.040 A 
ATOM     74  C   UNL A   1      42.126  20.950  27.857  1.00  0.00     0.040 A 
ATOM     75  F   UNL A   1      42.717  22.530  29.486  1.00  0.00    -0.206 F 
ATOM     76  C   UNL A   1      41.898  20.614  26.524  1.00  0.00     0.006 A 
ENDBRANCH  48  69
BRANCH  60  77
ATOM     77  C   UNL A   1      48.873  26.532  26.872  1.00  0.00     0.057 A 
ATOM     78  C   UNL A   1      49.732  25.789  27.691  1.00  0.00     0.134 A 
ATOM     79  C   UNL A   1      49.309  26.811  25.570  1.00  0.00     0.134 A 
ATOM     80  F   UNL A   1      49.384  25.496  28.954  1.00  0.00    -0.206 F 
ATOM     81  C   UNL A   1      50.977  25.349  27.237  1.00  0.00     0.040 A 
ATOM     82  C   UNL A   1      50.538  26.352  25.093  1.00  0.00     0.040 A 
ATOM     83  F   UNL A   1      48.533  27.511  24.727  1.00  0.00    -0.206 F 
ATOM     84  C   UNL A   1      51.378  25.621  25.930  1.00  0.00     0.006 A 
ENDBRANCH  60  77
ENDBRANCH  34  35
ENDBRANCH  27  29
ENDBRANCH  26  27
ENDBRANCH  25  26
ENDBRANCH  24  25
ENDBRANCH  23  24
ENDBRANCH  22  23
ENDBRANCH   1  22
TORSDOF 21
ENDMDL
