MODEL 1
REMARK VINA RESULT:     -10.1      0.000      0.000
REMARK SMILES O=C(Cc1c[nH]c(=O)n(Cc2ccccc2)c1=O)OCCOCCOCCOC(=O)c1ccc(-c2c3nc(c(-c4c(F)cccc4F)c4ccc([nH]4)c(-c4c(F)cccc4F)c4nc(c(-c5c(F)cccc5F)c5ccc2[nH]5)C=C4)C=C3)cc1
REMARK SMILES IDX 23 1 22 2 21 3 20 4 19 5 2 6 1 7 3 8 4 9 5 10 17 11 6 12
REMARK SMILES IDX 9 13 18 14 7 15 8 17 10 18 11 19 12 20 16 21 13 22 15 23
REMARK SMILES IDX 14 24 24 25 25 26 26 27 27 28 28 29 29 30 30 31 31 32 32 33
REMARK SMILES IDX 84 34 33 35 83 36 34 37 35 38 36 39 77 40 37 41 82 42 76 43
REMARK SMILES IDX 78 44 38 45 81 46 75 47 74 48 39 50 65 51 48 52 64 53 49 54
REMARK SMILES IDX 52 55 63 56 79 57 50 58 51 59 62 61 80 62 53 63 40 64 41 65
REMARK SMILES IDX 46 66 42 67 43 68 45 69 47 70 44 71 66 72 67 73 72 74 68 75
REMARK SMILES IDX 69 76 71 77 73 78 70 79 54 80 55 81 60 82 56 83 57 84 59 85
REMARK SMILES IDX 61 86 58 87
REMARK H PARENT 6 16 78 49 52 60
REMARK Flexibility Score: inf
ROOT
ATOM      1  C   UNL A   1      33.466  28.616  27.248  1.00  0.00     0.188 C 
ENDROOT
BRANCH   1   2
ATOM      2  O   UNL A   1      34.030  28.030  26.094  1.00  0.00    -0.376 OA
BRANCH   2   3
ATOM      3  C   UNL A   1      33.585  26.747  25.690  1.00  0.00     0.202 C 
BRANCH   3   4
ATOM      4  C   UNL A   1      34.061  26.273  24.324  1.00  0.00     0.261 C 
BRANCH   4   5
ATOM      5  O   UNL A   1      33.286  26.650  23.153  1.00  0.00    -0.463 OA
BRANCH   5   6
ATOM      6  C   UNL A   1      32.754  25.916  22.151  1.00  0.00     0.310 C 
ATOM      7  O   UNL A   1      33.278  25.931  21.036  1.00  0.00    -0.252 OA
BRANCH   6   8
ATOM      8  C   UNL A   1      31.415  25.223  22.335  1.00  0.00     0.165 C 
BRANCH   8   9
ATOM      9  C   UNL A   1      31.088  24.686  23.680  1.00  0.00     0.045 A 
ATOM     10  C   UNL A   1      30.403  25.384  24.593  1.00  0.00     0.097 A 
ATOM     11  C   UNL A   1      31.521  23.324  24.077  1.00  0.00     0.260 A 
ATOM     12  N   UNL A   1      30.131  24.839  25.808  1.00  0.00    -0.314 N 
ATOM     13  N   UNL A   1      31.626  23.101  25.425  1.00  0.00    -0.256 N 
ATOM     14  O   UNL A   1      31.759  22.472  23.229  1.00  0.00    -0.269 OA
ATOM     15  C   UNL A   1      30.652  23.642  26.237  1.00  0.00     0.328 A 
ATOM     16  H   UNL A   1      29.531  25.329  26.414  1.00  0.00     0.171 HD
ATOM     17  O   UNL A   1      30.202  23.130  27.258  1.00  0.00    -0.248 OA
BRANCH  13  18
ATOM     18  C   UNL A   1      32.438  21.972  25.872  1.00  0.00     0.166 C 
BRANCH  18  19
ATOM     19  C   UNL A   1      33.928  22.191  25.669  1.00  0.00    -0.028 A 
ATOM     20  C   UNL A   1      34.650  21.359  24.802  1.00  0.00     0.005 A 
ATOM     21  C   UNL A   1      34.621  23.221  26.325  1.00  0.00     0.005 A 
ATOM     22  C   UNL A   1      36.025  21.502  24.633  1.00  0.00     0.000 A 
ATOM     23  C   UNL A   1      35.999  23.389  26.126  1.00  0.00     0.000 A 
ATOM     24  C   UNL A   1      36.701  22.520  25.294  1.00  0.00     0.000 A 
ENDBRANCH  18  19
ENDBRANCH  13  18
ENDBRANCH   8   9
ENDBRANCH   6   8
ENDBRANCH   5   6
ENDBRANCH   4   5
ENDBRANCH   3   4
ENDBRANCH   2   3
ENDBRANCH   1   2
BRANCH   1  25
ATOM     25  C   UNL A   1      32.109  29.313  27.077  1.00  0.00     0.188 C 
BRANCH  25  26
ATOM     26  O   UNL A   1      32.066  30.661  26.641  1.00  0.00    -0.376 OA
BRANCH  26  27
ATOM     27  C   UNL A   1      32.851  31.634  27.318  1.00  0.00     0.202 C 
BRANCH  27  28
ATOM     28  C   UNL A   1      32.530  33.124  27.113  1.00  0.00     0.261 C 
BRANCH  28  29
ATOM     29  O   UNL A   1      32.312  33.876  28.324  1.00  0.00    -0.460 OA
BRANCH  29  30
ATOM     30  C   UNL A   1      33.236  34.831  28.621  1.00  0.00     0.338 C 
ATOM     31  O   UNL A   1      33.149  36.023  28.436  1.00  0.00    -0.246 OA
BRANCH  30  32
ATOM     32  C   UNL A   1      34.350  34.213  29.384  1.00  0.00     0.060 A 
ATOM     33  C   UNL A   1      34.106  33.489  30.550  1.00  0.00     0.016 A 
ATOM     34  C   UNL A   1      35.663  34.358  28.907  1.00  0.00     0.016 A 
ATOM     35  C   UNL A   1      35.176  32.897  31.232  1.00  0.00     0.010 A 
ATOM     36  C   UNL A   1      36.734  33.791  29.606  1.00  0.00     0.010 A 
ATOM     37  C   UNL A   1      36.497  33.037  30.763  1.00  0.00    -0.014 A 
BRANCH  37  38
ATOM     38  C   UNL A   1      37.589  32.249  31.390  1.00  0.00     0.031 A 
ATOM     39  C   UNL A   1      38.234  31.082  30.706  1.00  0.00     0.074 A 
ATOM     40  C   UNL A   1      38.000  32.605  32.620  1.00  0.00     0.049 A 
ATOM     41  N   UNL A   1      39.267  30.370  31.089  1.00  0.00    -0.248 NA
ATOM     42  C   UNL A   1      37.640  30.649  29.436  1.00  0.00     0.031 C 
ATOM     43  C   UNL A   1      37.422  33.693  33.410  1.00  0.00     0.029 A 
ATOM     44  N   UNL A   1      38.992  32.097  33.419  1.00  0.00    -0.354 N 
ATOM     45  C   UNL A   1      39.468  29.421  30.097  1.00  0.00     0.074 A 
ATOM     46  C   UNL A   1      38.411  29.617  29.120  1.00  0.00     0.031 C 
ATOM     47  C   UNL A   1      38.081  33.782  34.575  1.00  0.00     0.029 A 
ATOM     48  C   UNL A   1      39.109  32.746  34.622  1.00  0.00     0.049 A 
ATOM     49  H   UNL A   1      39.564  31.341  33.154  1.00  0.00     0.167 HD
ATOM     50  C   UNL A   1      40.448  28.486  30.003  1.00  0.00     0.037 A 
ATOM     51  C   UNL A   1      39.949  32.533  35.653  1.00  0.00     0.037 A 
ATOM     52  C   UNL A   1      41.470  28.267  31.001  1.00  0.00     0.049 A 
ATOM     53  C   UNL A   1      40.989  31.456  35.553  1.00  0.00     0.074 A 
ATOM     54  C   UNL A   1      42.540  27.386  30.966  1.00  0.00     0.029 A 
ATOM     55  N   UNL A   1      41.530  28.908  32.231  1.00  0.00    -0.354 N 
ATOM     56  N   UNL A   1      41.243  30.641  34.557  1.00  0.00    -0.248 NA
ATOM     57  C   UNL A   1      41.862  31.272  36.720  1.00  0.00     0.031 C 
ATOM     58  C   UNL A   1      43.203  27.446  32.199  1.00  0.00     0.029 A 
ATOM     59  C   UNL A   1      42.585  28.406  32.982  1.00  0.00     0.049 A 
ATOM     60  H   UNL A   1      40.915  29.617  32.526  1.00  0.00     0.167 HD
ATOM     61  C   UNL A   1      42.306  29.850  34.975  1.00  0.00     0.074 A 
ATOM     62  C   UNL A   1      42.670  30.309  36.301  1.00  0.00     0.031 C 
ATOM     63  C   UNL A   1      42.920  28.834  34.319  1.00  0.00     0.037 A 
BRANCH  50  64
ATOM     64  C   UNL A   1      40.443  27.609  28.780  1.00  0.00     0.057 A 
ATOM     65  C   UNL A   1      39.683  26.432  28.740  1.00  0.00     0.134 A 
ATOM     66  C   UNL A   1      41.202  27.920  27.642  1.00  0.00     0.134 A 
ATOM     67  F   UNL A   1      38.944  26.062  29.796  1.00  0.00    -0.206 F 
ATOM     68  C   UNL A   1      39.664  25.610  27.610  1.00  0.00     0.040 A 
ATOM     69  C   UNL A   1      41.169  27.122  26.496  1.00  0.00     0.040 A 
ATOM     70  F   UNL A   1      41.952  29.033  27.609  1.00  0.00    -0.206 F 
ATOM     71  C   UNL A   1      40.399  25.961  26.480  1.00  0.00     0.006 A 
ENDBRANCH  50  64
BRANCH  51  72
ATOM     72  C   UNL A   1      39.832  33.373  36.869  1.00  0.00     0.057 A 
ATOM     73  C   UNL A   1      38.923  33.051  37.885  1.00  0.00     0.134 A 
ATOM     74  C   UNL A   1      40.609  34.523  37.036  1.00  0.00     0.134 A 
ATOM     75  F   UNL A   1      38.144  31.965  37.777  1.00  0.00    -0.206 F 
ATOM     76  C   UNL A   1      38.778  33.854  39.016  1.00  0.00     0.040 A 
ATOM     77  C   UNL A   1      40.494  35.321  38.175  1.00  0.00     0.040 A 
ATOM     78  F   UNL A   1      41.510  34.870  36.106  1.00  0.00    -0.206 F 
ATOM     79  C   UNL A   1      39.570  34.990  39.165  1.00  0.00     0.006 A 
ENDBRANCH  51  72
BRANCH  63  80
ATOM     80  C   UNL A   1      44.039  28.138  35.044  1.00  0.00     0.057 A 
ATOM     81  C   UNL A   1      43.799  26.992  35.814  1.00  0.00     0.134 A 
ATOM     82  C   UNL A   1      45.360  28.601  34.979  1.00  0.00     0.134 A 
ATOM     83  F   UNL A   1      42.559  26.494  35.927  1.00  0.00    -0.206 F 
ATOM     84  C   UNL A   1      44.830  26.333  36.488  1.00  0.00     0.040 A 
ATOM     85  C   UNL A   1      46.405  27.935  35.624  1.00  0.00     0.040 A 
ATOM     86  F   UNL A   1      45.665  29.682  34.245  1.00  0.00    -0.206 F 
ATOM     87  C   UNL A   1      46.139  26.799  36.386  1.00  0.00     0.006 A 
ENDBRANCH  63  80
ENDBRANCH  37  38
ENDBRANCH  30  32
ENDBRANCH  29  30
ENDBRANCH  28  29
ENDBRANCH  27  28
ENDBRANCH  26  27
ENDBRANCH  25  26
ENDBRANCH   1  25
TORSDOF 20
ENDMDL
MODEL 2
REMARK VINA RESULT:     -10.1      2.984      7.947
REMARK SMILES O=C(Cc1c[nH]c(=O)n(Cc2ccccc2)c1=O)OCCOCCOCCOC(=O)c1ccc(-c2c3nc(c(-c4c(F)cccc4F)c4ccc([nH]4)c(-c4c(F)cccc4F)c4nc(c(-c5c(F)cccc5F)c5ccc2[nH]5)C=C4)C=C3)cc1
REMARK SMILES IDX 23 1 22 2 21 3 20 4 19 5 2 6 1 7 3 8 4 9 5 10 17 11 6 12
REMARK SMILES IDX 9 13 18 14 7 15 8 17 10 18 11 19 12 20 16 21 13 22 15 23
REMARK SMILES IDX 14 24 24 25 25 26 26 27 27 28 28 29 29 30 30 31 31 32 32 33
REMARK SMILES IDX 84 34 33 35 83 36 34 37 35 38 36 39 77 40 37 41 82 42 76 43
REMARK SMILES IDX 78 44 38 45 81 46 75 47 74 48 39 50 65 51 48 52 64 53 49 54
REMARK SMILES IDX 52 55 63 56 79 57 50 58 51 59 62 61 80 62 53 63 40 64 41 65
REMARK SMILES IDX 46 66 42 67 43 68 45 69 47 70 44 71 66 72 67 73 72 74 68 75
REMARK SMILES IDX 69 76 71 77 73 78 70 79 54 80 55 81 60 82 56 83 57 84 59 85
REMARK SMILES IDX 61 86 58 87
REMARK H PARENT 6 16 78 49 52 60
REMARK Flexibility Score: inf
ROOT
ATOM      1  C   UNL A   1      39.394  21.451  25.769  1.00  0.00     0.188 C 
ENDROOT
BRANCH   1   2
ATOM      2  O   UNL A   1      39.173  22.649  26.484  1.00  0.00    -0.376 OA
BRANCH   2   3
ATOM      3  C   UNL A   1      38.160  23.533  26.041  1.00  0.00     0.202 C 
BRANCH   3   4
ATOM      4  C   UNL A   1      36.959  22.889  25.362  1.00  0.00     0.261 C 
BRANCH   4   5
ATOM      5  O   UNL A   1      35.761  22.655  26.152  1.00  0.00    -0.463 OA
BRANCH   5   6
ATOM      6  C   UNL A   1      34.801  21.707  26.073  1.00  0.00     0.310 C 
ATOM      7  O   UNL A   1      35.033  20.648  25.489  1.00  0.00    -0.252 OA
BRANCH   6   8
ATOM      8  C   UNL A   1      33.385  22.009  26.535  1.00  0.00     0.165 C 
BRANCH   8   9
ATOM      9  C   UNL A   1      32.484  22.724  25.596  1.00  0.00     0.045 A 
ATOM     10  C   UNL A   1      32.551  22.569  24.269  1.00  0.00     0.097 A 
ATOM     11  C   UNL A   1      31.453  23.661  26.102  1.00  0.00     0.260 A 
ATOM     12  N   UNL A   1      31.697  23.249  23.458  1.00  0.00    -0.314 N 
ATOM     13  N   UNL A   1      31.026  24.614  25.214  1.00  0.00    -0.256 N 
ATOM     14  O   UNL A   1      31.025  23.561  27.247  1.00  0.00    -0.269 OA
ATOM     15  C   UNL A   1      30.841  24.226  23.904  1.00  0.00     0.328 A 
ATOM     16  H   UNL A   1      31.693  23.030  22.498  1.00  0.00     0.171 HD
ATOM     17  O   UNL A   1      29.971  24.646  23.148  1.00  0.00    -0.248 OA
BRANCH  13  18
ATOM     18  C   UNL A   1      30.365  25.801  25.749  1.00  0.00     0.166 C 
BRANCH  18  19
ATOM     19  C   UNL A   1      31.217  27.055  25.650  1.00  0.00    -0.028 A 
ATOM     20  C   UNL A   1      32.234  27.290  26.587  1.00  0.00     0.005 A 
ATOM     21  C   UNL A   1      31.026  28.002  24.632  1.00  0.00     0.005 A 
ATOM     22  C   UNL A   1      33.000  28.453  26.553  1.00  0.00     0.000 A 
ATOM     23  C   UNL A   1      31.821  29.155  24.575  1.00  0.00     0.000 A 
ATOM     24  C   UNL A   1      32.795  29.387  25.544  1.00  0.00     0.000 A 
ENDBRANCH  18  19
ENDBRANCH  13  18
ENDBRANCH   8   9
ENDBRANCH   6   8
ENDBRANCH   5   6
ENDBRANCH   4   5
ENDBRANCH   3   4
ENDBRANCH   2   3
ENDBRANCH   1   2
BRANCH   1  25
ATOM     25  C   UNL A   1      40.226  20.370  26.471  1.00  0.00     0.188 C 
BRANCH  25  26
ATOM     26  O   UNL A   1      41.543  20.670  26.902  1.00  0.00    -0.376 OA
BRANCH  26  27
ATOM     27  C   UNL A   1      42.639  20.352  26.055  1.00  0.00     0.202 C 
BRANCH  27  28
ATOM     28  C   UNL A   1      43.523  21.492  25.521  1.00  0.00     0.261 C 
BRANCH  28  29
ATOM     29  O   UNL A   1      43.629  22.641  26.386  1.00  0.00    -0.460 OA
BRANCH  29  30
ATOM     30  C   UNL A   1      43.566  23.862  25.786  1.00  0.00     0.338 C 
ATOM     31  O   UNL A   1      43.799  24.125  24.627  1.00  0.00    -0.246 OA
BRANCH  30  32
ATOM     32  C   UNL A   1      42.993  24.847  26.737  1.00  0.00     0.060 A 
ATOM     33  C   UNL A   1      41.901  24.518  27.539  1.00  0.00     0.016 A 
ATOM     34  C   UNL A   1      43.576  26.121  26.829  1.00  0.00     0.016 A 
ATOM     35  C   UNL A   1      41.401  25.461  28.445  1.00  0.00     0.010 A 
ATOM     36  C   UNL A   1      43.055  27.073  27.713  1.00  0.00     0.010 A 
ATOM     37  C   UNL A   1      41.977  26.743  28.544  1.00  0.00    -0.014 A 
BRANCH  37  38
ATOM     38  C   UNL A   1      41.556  27.657  29.637  1.00  0.00     0.031 A 
ATOM     39  C   UNL A   1      40.396  28.596  29.500  1.00  0.00     0.074 A 
ATOM     40  C   UNL A   1      42.258  27.634  30.785  1.00  0.00     0.049 A 
ATOM     41  N   UNL A   1      39.853  29.372  30.406  1.00  0.00    -0.248 NA
ATOM     42  C   UNL A   1      39.770  28.684  28.176  1.00  0.00     0.031 C 
ATOM     43  C   UNL A   1      43.435  26.799  31.026  1.00  0.00     0.029 A 
ATOM     44  N   UNL A   1      42.086  28.325  31.957  1.00  0.00    -0.354 N 
ATOM     45  C   UNL A   1      38.804  30.024  29.775  1.00  0.00     0.074 A 
ATOM     46  C   UNL A   1      38.823  29.588  28.390  1.00  0.00     0.031 C 
ATOM     47  C   UNL A   1      43.871  27.014  32.277  1.00  0.00     0.029 A 
ATOM     48  C   UNL A   1      43.020  28.015  32.913  1.00  0.00     0.049 A 
ATOM     49  H   UNL A   1      41.364  28.978  32.097  1.00  0.00     0.167 HD
ATOM     50  C   UNL A   1      37.902  30.891  30.303  1.00  0.00     0.037 A 
ATOM     51  C   UNL A   1      43.178  28.484  34.166  1.00  0.00     0.037 A 
ATOM     52  C   UNL A   1      37.916  31.355  31.671  1.00  0.00     0.049 A 
ATOM     53  C   UNL A   1      42.203  29.486  34.712  1.00  0.00     0.074 A 
ATOM     54  C   UNL A   1      37.009  32.184  32.314  1.00  0.00     0.029 A 
ATOM     55  N   UNL A   1      38.905  31.061  32.601  1.00  0.00    -0.354 N 
ATOM     56  N   UNL A   1      41.144  30.007  34.140  1.00  0.00    -0.248 NA
ATOM     57  C   UNL A   1      42.445  29.962  36.080  1.00  0.00     0.031 C 
ATOM     58  C   UNL A   1      37.486  32.445  33.605  1.00  0.00     0.029 A 
ATOM     59  C   UNL A   1      38.659  31.732  33.791  1.00  0.00     0.049 A 
ATOM     60  H   UNL A   1      39.668  30.461  32.439  1.00  0.00     0.167 HD
ATOM     61  C   UNL A   1      40.591  30.868  35.078  1.00  0.00     0.074 A 
ATOM     62  C   UNL A   1      41.413  30.772  36.268  1.00  0.00     0.031 C 
ATOM     63  C   UNL A   1      39.502  31.669  34.961  1.00  0.00     0.037 A 
BRANCH  50  64
ATOM     64  C   UNL A   1      36.834  31.414  29.381  1.00  0.00     0.057 A 
ATOM     65  C   UNL A   1      36.896  32.718  28.872  1.00  0.00     0.134 A 
ATOM     66  C   UNL A   1      35.732  30.632  29.005  1.00  0.00     0.134 A 
ATOM     67  F   UNL A   1      37.912  33.531  29.201  1.00  0.00    -0.206 F 
ATOM     68  C   UNL A   1      35.915  33.217  28.012  1.00  0.00     0.040 A 
ATOM     69  C   UNL A   1      34.759  31.108  28.122  1.00  0.00     0.040 A 
ATOM     70  F   UNL A   1      35.609  29.372  29.452  1.00  0.00    -0.206 F 
ATOM     71  C   UNL A   1      34.849  32.407  27.625  1.00  0.00     0.006 A 
ENDBRANCH  50  64
BRANCH  51  72
ATOM     72  C   UNL A   1      44.314  27.996  34.985  1.00  0.00     0.057 A 
ATOM     73  C   UNL A   1      45.502  28.730  35.083  1.00  0.00     0.134 A 
ATOM     74  C   UNL A   1      44.245  26.780  35.671  1.00  0.00     0.134 A 
ATOM     75  F   UNL A   1      45.630  29.901  34.440  1.00  0.00    -0.206 F 
ATOM     76  C   UNL A   1      46.590  28.264  35.820  1.00  0.00     0.040 A 
ATOM     77  C   UNL A   1      45.316  26.313  36.435  1.00  0.00     0.040 A 
ATOM     78  F   UNL A   1      43.126  26.043  35.629  1.00  0.00    -0.206 F 
ATOM     79  C   UNL A   1      46.496  27.053  36.504  1.00  0.00     0.006 A 
ENDBRANCH  51  72
BRANCH  63  80
ATOM     80  C   UNL A   1      39.155  32.521  36.151  1.00  0.00     0.057 A 
ATOM     81  C   UNL A   1      38.289  32.054  37.148  1.00  0.00     0.134 A 
ATOM     82  C   UNL A   1      39.684  33.809  36.313  1.00  0.00     0.134 A 
ATOM     83  F   UNL A   1      37.741  30.832  37.058  1.00  0.00    -0.206 F 
ATOM     84  C   UNL A   1      37.963  32.834  38.260  1.00  0.00     0.040 A 
ATOM     85  C   UNL A   1      39.389  34.588  37.435  1.00  0.00     0.040 A 
ATOM     86  F   UNL A   1      40.535  34.314  35.406  1.00  0.00    -0.206 F 
ATOM     87  C   UNL A   1      38.521  34.101  38.410  1.00  0.00     0.006 A 
ENDBRANCH  63  80
ENDBRANCH  37  38
ENDBRANCH  30  32
ENDBRANCH  29  30
ENDBRANCH  28  29
ENDBRANCH  27  28
ENDBRANCH  26  27
ENDBRANCH  25  26
ENDBRANCH   1  25
TORSDOF 20
ENDMDL
MODEL 3
REMARK VINA RESULT:     -10.0      2.372      7.647
REMARK SMILES O=C(Cc1c[nH]c(=O)n(Cc2ccccc2)c1=O)OCCOCCOCCOC(=O)c1ccc(-c2c3nc(c(-c4c(F)cccc4F)c4ccc([nH]4)c(-c4c(F)cccc4F)c4nc(c(-c5c(F)cccc5F)c5ccc2[nH]5)C=C4)C=C3)cc1
REMARK SMILES IDX 23 1 22 2 21 3 20 4 19 5 2 6 1 7 3 8 4 9 5 10 17 11 6 12
REMARK SMILES IDX 9 13 18 14 7 15 8 17 10 18 11 19 12 20 16 21 13 22 15 23
REMARK SMILES IDX 14 24 24 25 25 26 26 27 27 28 28 29 29 30 30 31 31 32 32 33
REMARK SMILES IDX 84 34 33 35 83 36 34 37 35 38 36 39 77 40 37 41 82 42 76 43
REMARK SMILES IDX 78 44 38 45 81 46 75 47 74 48 39 50 65 51 48 52 64 53 49 54
REMARK SMILES IDX 52 55 63 56 79 57 50 58 51 59 62 61 80 62 53 63 40 64 41 65
REMARK SMILES IDX 46 66 42 67 43 68 45 69 47 70 44 71 66 72 67 73 72 74 68 75
REMARK SMILES IDX 69 76 71 77 73 78 70 79 54 80 55 81 60 82 56 83 57 84 59 85
REMARK SMILES IDX 61 86 58 87
REMARK H PARENT 6 16 78 49 52 60
REMARK Flexibility Score: inf
ROOT
ATOM      1  C   UNL A   1      35.777  22.482  24.183  1.00  0.00     0.188 C 
ENDROOT
BRANCH   1   2
ATOM      2  O   UNL A   1      34.829  22.137  25.171  1.00  0.00    -0.376 OA
BRANCH   2   3
ATOM      3  C   UNL A   1      33.807  23.063  25.491  1.00  0.00     0.202 C 
BRANCH   3   4
ATOM      4  C   UNL A   1      32.493  22.468  25.978  1.00  0.00     0.261 C 
BRANCH   4   5
ATOM      5  O   UNL A   1      31.451  23.373  26.434  1.00  0.00    -0.463 OA
BRANCH   5   6
ATOM      6  C   UNL A   1      30.758  24.342  25.796  1.00  0.00     0.310 C 
ATOM      7  O   UNL A   1      30.049  25.114  26.443  1.00  0.00    -0.252 OA
BRANCH   6   8
ATOM      8  C   UNL A   1      30.700  24.372  24.278  1.00  0.00     0.165 C 
BRANCH   8   9
ATOM      9  C   UNL A   1      31.627  25.285  23.564  1.00  0.00     0.045 A 
ATOM     10  C   UNL A   1      32.738  24.858  22.953  1.00  0.00     0.097 A 
ATOM     11  C   UNL A   1      31.354  26.742  23.499  1.00  0.00     0.260 A 
ATOM     12  N   UNL A   1      33.548  25.742  22.312  1.00  0.00    -0.314 N 
ATOM     13  N   UNL A   1      32.444  27.543  23.280  1.00  0.00    -0.256 N 
ATOM     14  O   UNL A   1      30.213  27.170  23.632  1.00  0.00    -0.269 OA
ATOM     15  C   UNL A   1      33.384  27.105  22.371  1.00  0.00     0.328 A 
ATOM     16  H   UNL A   1      34.294  25.386  21.777  1.00  0.00     0.171 HD
ATOM     17  O   UNL A   1      34.032  27.816  21.609  1.00  0.00    -0.248 OA
BRANCH  13  18
ATOM     18  C   UNL A   1      32.336  28.957  23.629  1.00  0.00     0.166 C 
BRANCH  18  19
ATOM     19  C   UNL A   1      32.832  29.265  25.032  1.00  0.00    -0.028 A 
ATOM     20  C   UNL A   1      33.966  28.611  25.536  1.00  0.00     0.005 A 
ATOM     21  C   UNL A   1      32.191  30.204  25.855  1.00  0.00     0.005 A 
ATOM     22  C   UNL A   1      34.417  28.834  26.834  1.00  0.00     0.000 A 
ATOM     23  C   UNL A   1      32.667  30.457  27.149  1.00  0.00     0.000 A 
ATOM     24  C   UNL A   1      33.769  29.760  27.642  1.00  0.00     0.000 A 
ENDBRANCH  18  19
ENDBRANCH  13  18
ENDBRANCH   8   9
ENDBRANCH   6   8
ENDBRANCH   5   6
ENDBRANCH   4   5
ENDBRANCH   3   4
ENDBRANCH   2   3
ENDBRANCH   1   2
BRANCH   1  25
ATOM     25  C   UNL A   1      37.206  21.957  24.381  1.00  0.00     0.188 C 
BRANCH  25  26
ATOM     26  O   UNL A   1      37.728  21.832  25.693  1.00  0.00    -0.376 OA
BRANCH  26  27
ATOM     27  C   UNL A   1      39.015  21.255  25.875  1.00  0.00     0.202 C 
BRANCH  27  28
ATOM     28  C   UNL A   1      40.113  22.087  26.560  1.00  0.00     0.261 C 
BRANCH  28  29
ATOM     29  O   UNL A   1      39.878  23.510  26.585  1.00  0.00    -0.460 OA
BRANCH  29  30
ATOM     30  C   UNL A   1      40.982  24.307  26.616  1.00  0.00     0.338 C 
ATOM     31  O   UNL A   1      41.976  24.215  25.932  1.00  0.00    -0.246 OA
BRANCH  30  32
ATOM     32  C   UNL A   1      40.732  25.454  27.525  1.00  0.00     0.060 A 
ATOM     33  C   UNL A   1      39.658  25.443  28.414  1.00  0.00     0.016 A 
ATOM     34  C   UNL A   1      41.602  26.555  27.485  1.00  0.00     0.016 A 
ATOM     35  C   UNL A   1      39.466  26.529  29.277  1.00  0.00     0.010 A 
ATOM     36  C   UNL A   1      41.390  27.653  28.326  1.00  0.00     0.010 A 
ATOM     37  C   UNL A   1      40.332  27.639  29.244  1.00  0.00    -0.014 A 
BRANCH  37  38
ATOM     38  C   UNL A   1      40.224  28.690  30.290  1.00  0.00     0.031 A 
ATOM     39  C   UNL A   1      39.230  29.808  30.208  1.00  0.00     0.074 A 
ATOM     40  C   UNL A   1      41.062  28.623  31.340  1.00  0.00     0.049 A 
ATOM     41  N   UNL A   1      38.954  30.731  31.097  1.00  0.00    -0.248 NA
ATOM     42  C   UNL A   1      38.453  29.912  28.968  1.00  0.00     0.031 C 
ATOM     43  C   UNL A   1      42.104  27.611  31.514  1.00  0.00     0.029 A 
ATOM     44  N   UNL A   1      41.170  29.415  32.455  1.00  0.00    -0.354 N 
ATOM     45  C   UNL A   1      37.952  31.513  30.540  1.00  0.00     0.074 A 
ATOM     46  C   UNL A   1      37.709  30.984  29.210  1.00  0.00     0.031 C 
ATOM     47  C   UNL A   1      42.737  27.833  32.675  1.00  0.00     0.029 A 
ATOM     48  C   UNL A   1      42.161  29.013  33.315  1.00  0.00     0.049 A 
ATOM     49  H   UNL A   1      40.594  30.195  32.620  1.00  0.00     0.167 HD
ATOM     50  C   UNL A   1      37.289  32.563  31.091  1.00  0.00     0.037 A 
ATOM     51  C   UNL A   1      42.564  29.533  34.489  1.00  0.00     0.037 A 
ATOM     52  C   UNL A   1      37.567  33.113  32.398  1.00  0.00     0.049 A 
ATOM     53  C   UNL A   1      41.855  30.730  35.053  1.00  0.00     0.074 A 
ATOM     54  C   UNL A   1      36.909  34.134  33.065  1.00  0.00     0.029 A 
ATOM     55  N   UNL A   1      38.610  32.713  33.223  1.00  0.00    -0.354 N 
ATOM     56  N   UNL A   1      40.831  31.389  34.569  1.00  0.00    -0.248 NA
ATOM     57  C   UNL A   1      42.358  31.251  36.332  1.00  0.00     0.031 C 
ATOM     58  C   UNL A   1      37.595  34.397  34.258  1.00  0.00     0.029 A 
ATOM     59  C   UNL A   1      38.646  33.501  34.366  1.00  0.00     0.049 A 
ATOM     60  H   UNL A   1      39.233  31.977  33.026  1.00  0.00     0.167 HD
ATOM     61  C   UNL A   1      40.563  32.400  35.483  1.00  0.00     0.074 A 
ATOM     62  C   UNL A   1      41.512  32.244  36.567  1.00  0.00     0.031 C 
ATOM     63  C   UNL A   1      39.618  33.371  35.425  1.00  0.00     0.037 A 
BRANCH  50  64
ATOM     64  C   UNL A   1      36.208  33.200  30.261  1.00  0.00     0.057 A 
ATOM     65  C   UNL A   1      34.856  32.915  30.496  1.00  0.00     0.134 A 
ATOM     66  C   UNL A   1      36.502  34.089  29.216  1.00  0.00     0.134 A 
ATOM     67  F   UNL A   1      34.498  32.063  31.468  1.00  0.00    -0.206 F 
ATOM     68  C   UNL A   1      33.840  33.502  29.738  1.00  0.00     0.040 A 
ATOM     69  C   UNL A   1      35.495  34.705  28.470  1.00  0.00     0.040 A 
ATOM     70  F   UNL A   1      37.775  34.410  28.936  1.00  0.00    -0.206 F 
ATOM     71  C   UNL A   1      34.158  34.409  28.729  1.00  0.00     0.006 A 
ENDBRANCH  50  64
BRANCH  51  72
ATOM     72  C   UNL A   1      43.704  28.911  35.205  1.00  0.00     0.057 A 
ATOM     73  C   UNL A   1      45.027  29.235  34.880  1.00  0.00     0.134 A 
ATOM     74  C   UNL A   1      43.498  27.966  36.216  1.00  0.00     0.134 A 
ATOM     75  F   UNL A   1      45.287  30.128  33.914  1.00  0.00    -0.206 F 
ATOM     76  C   UNL A   1      46.106  28.628  35.522  1.00  0.00     0.040 A 
ATOM     77  C   UNL A   1      44.568  27.371  36.885  1.00  0.00     0.040 A 
ATOM     78  F   UNL A   1      42.253  27.631  36.583  1.00  0.00    -0.206 F 
ATOM     79  C   UNL A   1      45.877  27.696  36.532  1.00  0.00     0.006 A 
ENDBRANCH  51  72
BRANCH  63  80
ATOM     80  C   UNL A   1      39.585  34.354  36.563  1.00  0.00     0.057 A 
ATOM     81  C   UNL A   1      40.260  35.579  36.482  1.00  0.00     0.134 A 
ATOM     82  C   UNL A   1      38.880  34.088  37.745  1.00  0.00     0.134 A 
ATOM     83  F   UNL A   1      40.959  35.900  35.383  1.00  0.00    -0.206 F 
ATOM     84  C   UNL A   1      40.232  36.502  37.531  1.00  0.00     0.040 A 
ATOM     85  C   UNL A   1      38.820  35.014  38.789  1.00  0.00     0.040 A 
ATOM     86  F   UNL A   1      38.196  32.941  37.885  1.00  0.00    -0.206 F 
ATOM     87  C   UNL A   1      39.503  36.224  38.685  1.00  0.00     0.006 A 
ENDBRANCH  63  80
ENDBRANCH  37  38
ENDBRANCH  30  32
ENDBRANCH  29  30
ENDBRANCH  28  29
ENDBRANCH  27  28
ENDBRANCH  26  27
ENDBRANCH  25  26
ENDBRANCH   1  25
TORSDOF 20
ENDMDL
