MODEL 1
REMARK VINA RESULT:      -9.7      0.000      0.000
REMARK SMILES CCCCSc1ccccc1C(=O)OCCOCCOCCOC(=O)c1ccc(-c2c3nc(c(-c4c(F)cccc4F)c4ccc([nH]4)c(-c4c(F)cccc4F)c4nc(c(-c5c(F)cccc5F)c5ccc2[nH]5)C=C4)C=C3)cc1
REMARK SMILES IDX 18 1 17 2 16 3 15 4 14 5 12 6 13 7 11 8 6 9 7 10 8 11 10 12
REMARK SMILES IDX 9 13 5 14 4 15 3 16 2 17 1 18 19 19 20 20 21 21 22 22 23 23
REMARK SMILES IDX 24 24 25 25 26 26 27 27 79 28 28 29 78 30 29 31 30 32 31 33
REMARK SMILES IDX 72 34 32 35 77 36 71 37 73 38 33 39 76 40 70 41 69 42 34 44
REMARK SMILES IDX 60 45 43 46 59 47 44 48 47 49 58 50 74 51 45 52 46 53 57 55
REMARK SMILES IDX 75 56 48 57 35 58 36 59 41 60 37 61 38 62 40 63 42 64 39 65
REMARK SMILES IDX 61 66 62 67 67 68 63 69 64 70 66 71 68 72 65 73 49 74 50 75
REMARK SMILES IDX 55 76 51 77 52 78 54 79 56 80 53 81
REMARK H PARENT 73 43 47 54
REMARK Flexibility Score: inf
ROOT
ATOM      1  C   UNL A   1      39.542  21.375  26.123  1.00  0.00     0.188 C 
ENDROOT
BRANCH   1   2
ATOM      2  O   UNL A   1      38.207  21.841  26.107  1.00  0.00    -0.376 OA
BRANCH   2   3
ATOM      3  C   UNL A   1      37.304  21.406  25.100  1.00  0.00     0.202 C 
BRANCH   3   4
ATOM      4  C   UNL A   1      36.777  22.331  23.996  1.00  0.00     0.261 C 
BRANCH   4   5
ATOM      5  O   UNL A   1      35.992  23.426  24.469  1.00  0.00    -0.460 OA
BRANCH   5   6
ATOM      6  C   UNL A   1      34.961  23.805  23.679  1.00  0.00     0.339 C 
ATOM      7  O   UNL A   1      34.872  23.617  22.474  1.00  0.00    -0.246 OA
BRANCH   6   8
ATOM      8  C   UNL A   1      33.817  24.313  24.481  1.00  0.00     0.073 A 
ATOM      9  C   UNL A   1      32.567  23.677  24.585  1.00  0.00     0.022 A 
ATOM     10  C   UNL A   1      31.588  24.257  25.410  1.00  0.00     0.016 A 
ATOM     11  C   UNL A   1      31.849  25.429  26.129  1.00  0.00     0.001 A 
ATOM     12  C   UNL A   1      34.068  25.496  25.204  1.00  0.00     0.017 A 
ATOM     13  C   UNL A   1      33.087  26.052  26.021  1.00  0.00     0.001 A 
BRANCH   9  14
ATOM     14  S   UNL A   1      32.118  22.203  23.686  1.00  0.00    -0.125 SA
BRANCH  14  15
ATOM     15  C   UNL A   1      32.256  20.911  24.962  1.00  0.00     0.075 C 
BRANCH  15  16
ATOM     16  C   UNL A   1      32.851  19.572  24.518  1.00  0.00     0.011 C 
BRANCH  16  17
ATOM     17  C   UNL A   1      32.713  18.366  25.454  1.00  0.00    -0.003 C 
ATOM     18  C   UNL A   1      33.108  17.020  24.872  1.00  0.00     0.004 C 
ENDBRANCH  16  17
ENDBRANCH  15  16
ENDBRANCH  14  15
ENDBRANCH   9  14
ENDBRANCH   6   8
ENDBRANCH   5   6
ENDBRANCH   4   5
ENDBRANCH   3   4
ENDBRANCH   2   3
ENDBRANCH   1   2
BRANCH   1  19
ATOM     19  C   UNL A   1      39.857  19.908  25.760  1.00  0.00     0.188 C 
BRANCH  19  20
ATOM     20  O   UNL A   1      41.183  19.488  25.548  1.00  0.00    -0.376 OA
BRANCH  20  21
ATOM     21  C   UNL A   1      42.238  20.094  26.271  1.00  0.00     0.202 C 
BRANCH  21  22
ATOM     22  C   UNL A   1      43.139  21.202  25.697  1.00  0.00     0.261 C 
BRANCH  22  23
ATOM     23  O   UNL A   1      42.500  22.418  25.288  1.00  0.00    -0.460 OA
BRANCH  23  24
ATOM     24  C   UNL A   1      43.316  23.501  25.184  1.00  0.00     0.338 C 
ATOM     25  O   UNL A   1      44.200  23.693  24.374  1.00  0.00    -0.246 OA
BRANCH  24  26
ATOM     26  C   UNL A   1      42.842  24.540  26.121  1.00  0.00     0.060 A 
ATOM     27  C   UNL A   1      43.399  25.827  26.060  1.00  0.00     0.016 A 
ATOM     28  C   UNL A   1      41.862  24.236  27.064  1.00  0.00     0.016 A 
ATOM     29  C   UNL A   1      42.965  26.821  26.938  1.00  0.00     0.010 A 
ATOM     30  C   UNL A   1      41.453  25.224  27.964  1.00  0.00     0.010 A 
ATOM     31  C   UNL A   1      42.009  26.516  27.913  1.00  0.00    -0.014 A 
BRANCH  31  32
ATOM     32  C   UNL A   1      41.675  27.489  28.980  1.00  0.00     0.031 A 
ATOM     33  C   UNL A   1      42.462  27.456  30.257  1.00  0.00     0.074 A 
ATOM     34  C   UNL A   1      40.665  28.363  28.831  1.00  0.00     0.049 A 
ATOM     35  N   UNL A   1      42.258  28.101  31.377  1.00  0.00    -0.248 NA
ATOM     36  C   UNL A   1      43.636  26.569  30.274  1.00  0.00     0.031 C 
ATOM     37  C   UNL A   1      39.862  28.534  27.623  1.00  0.00     0.029 A 
ATOM     38  N   UNL A   1      40.127  29.258  29.724  1.00  0.00    -0.354 N 
ATOM     39  C   UNL A   1      43.269  27.690  32.236  1.00  0.00     0.074 A 
ATOM     40  C   UNL A   1      44.069  26.721  31.516  1.00  0.00     0.031 C 
ATOM     41  C   UNL A   1      38.917  29.461  27.857  1.00  0.00     0.029 A 
ATOM     42  C   UNL A   1      39.020  29.912  29.244  1.00  0.00     0.049 A 
ATOM     43  H   UNL A   1      40.500  29.414  30.622  1.00  0.00     0.167 HD
ATOM     44  C   UNL A   1      43.509  28.085  33.509  1.00  0.00     0.037 A 
ATOM     45  C   UNL A   1      38.165  30.748  29.867  1.00  0.00     0.037 A 
ATOM     46  C   UNL A   1      42.699  29.034  34.227  1.00  0.00     0.049 A 
ATOM     47  C   UNL A   1      38.383  31.083  31.321  1.00  0.00     0.074 A 
ATOM     48  C   UNL A   1      42.863  29.505  35.517  1.00  0.00     0.029 A 
ATOM     49  N   UNL A   1      41.561  29.644  33.721  1.00  0.00    -0.354 N 
ATOM     50  N   UNL A   1      39.348  30.706  32.124  1.00  0.00    -0.248 NA
ATOM     51  C   UNL A   1      37.385  31.957  31.956  1.00  0.00     0.031 C 
ATOM     52  C   UNL A   1      41.791  30.354  35.812  1.00  0.00     0.029 A 
ATOM     53  C   UNL A   1      40.993  30.461  34.684  1.00  0.00     0.049 A 
ATOM     54  H   UNL A   1      41.208  29.515  32.811  1.00  0.00     0.167 HD
ATOM     55  C   UNL A   1      39.093  31.320  33.345  1.00  0.00     0.074 A 
ATOM     56  C   UNL A   1      37.887  32.101  33.175  1.00  0.00     0.031 C 
ATOM     57  C   UNL A   1      39.796  31.242  34.503  1.00  0.00     0.037 A 
BRANCH  44  58
ATOM     58  C   UNL A   1      44.675  27.458  34.216  1.00  0.00     0.057 A 
ATOM     59  C   UNL A   1      45.951  28.037  34.202  1.00  0.00     0.134 A 
ATOM     60  C   UNL A   1      44.517  26.264  34.933  1.00  0.00     0.134 A 
ATOM     61  F   UNL A   1      46.174  29.173  33.523  1.00  0.00    -0.206 F 
ATOM     62  C   UNL A   1      47.033  27.438  34.849  1.00  0.00     0.040 A 
ATOM     63  C   UNL A   1      45.584  25.672  35.608  1.00  0.00     0.040 A 
ATOM     64  F   UNL A   1      43.322  25.658  34.991  1.00  0.00    -0.206 F 
ATOM     65  C   UNL A   1      46.849  26.253  35.559  1.00  0.00     0.006 A 
ENDBRANCH  44  58
BRANCH  45  66
ATOM     66  C   UNL A   1      37.006  31.313  29.131  1.00  0.00     0.057 A 
ATOM     67  C   UNL A   1      35.882  30.531  28.843  1.00  0.00     0.134 A 
ATOM     68  C   UNL A   1      37.000  32.638  28.676  1.00  0.00     0.134 A 
ATOM     69  F   UNL A   1      35.839  29.246  29.228  1.00  0.00    -0.206 F 
ATOM     70  C   UNL A   1      34.802  31.038  28.119  1.00  0.00     0.040 A 
ATOM     71  C   UNL A   1      35.916  33.167  27.974  1.00  0.00     0.040 A 
ATOM     72  F   UNL A   1      38.048  33.441  28.914  1.00  0.00    -0.206 F 
ATOM     73  C   UNL A   1      34.815  32.362  27.687  1.00  0.00     0.006 A 
ENDBRANCH  45  66
BRANCH  57  74
ATOM     74  C   UNL A   1      39.308  32.055  35.669  1.00  0.00     0.057 A 
ATOM     75  C   UNL A   1      39.696  33.387  35.861  1.00  0.00     0.134 A 
ATOM     76  C   UNL A   1      38.390  31.514  36.579  1.00  0.00     0.134 A 
ATOM     77  F   UNL A   1      40.583  33.963  35.034  1.00  0.00    -0.206 F 
ATOM     78  C   UNL A   1      39.203  34.146  36.925  1.00  0.00     0.040 A 
ATOM     79  C   UNL A   1      37.867  32.271  37.628  1.00  0.00     0.040 A 
ATOM     80  F   UNL A   1      37.968  30.247  36.449  1.00  0.00    -0.206 F 
ATOM     81  C   UNL A   1      38.278  33.591  37.807  1.00  0.00     0.006 A 
ENDBRANCH  57  74
ENDBRANCH  31  32
ENDBRANCH  24  26
ENDBRANCH  23  24
ENDBRANCH  22  23
ENDBRANCH  21  22
ENDBRANCH  20  21
ENDBRANCH  19  20
ENDBRANCH   1  19
TORSDOF 21
ENDMDL
MODEL 2
REMARK VINA RESULT:      -9.5      1.120      2.692
REMARK SMILES CCCCSc1ccccc1C(=O)OCCOCCOCCOC(=O)c1ccc(-c2c3nc(c(-c4c(F)cccc4F)c4ccc([nH]4)c(-c4c(F)cccc4F)c4nc(c(-c5c(F)cccc5F)c5ccc2[nH]5)C=C4)C=C3)cc1
REMARK SMILES IDX 18 1 17 2 16 3 15 4 14 5 12 6 13 7 11 8 6 9 7 10 8 11 10 12
REMARK SMILES IDX 9 13 5 14 4 15 3 16 2 17 1 18 19 19 20 20 21 21 22 22 23 23
REMARK SMILES IDX 24 24 25 25 26 26 27 27 79 28 28 29 78 30 29 31 30 32 31 33
REMARK SMILES IDX 72 34 32 35 77 36 71 37 73 38 33 39 76 40 70 41 69 42 34 44
REMARK SMILES IDX 60 45 43 46 59 47 44 48 47 49 58 50 74 51 45 52 46 53 57 55
REMARK SMILES IDX 75 56 48 57 35 58 36 59 41 60 37 61 38 62 40 63 42 64 39 65
REMARK SMILES IDX 61 66 62 67 67 68 63 69 64 70 66 71 68 72 65 73 49 74 50 75
REMARK SMILES IDX 55 76 51 77 52 78 54 79 56 80 53 81
REMARK H PARENT 73 43 47 54
REMARK Flexibility Score: inf
ROOT
ATOM      1  C   UNL A   1      39.087  21.121  25.798  1.00  0.00     0.188 C 
ENDROOT
BRANCH   1   2
ATOM      2  O   UNL A   1      37.808  21.478  25.313  1.00  0.00    -0.376 OA
BRANCH   2   3
ATOM      3  C   UNL A   1      37.259  22.755  25.601  1.00  0.00     0.202 C 
BRANCH   3   4
ATOM      4  C   UNL A   1      35.804  22.957  26.045  1.00  0.00     0.261 C 
BRANCH   4   5
ATOM      5  O   UNL A   1      35.125  21.753  26.404  1.00  0.00    -0.460 OA
BRANCH   5   6
ATOM      6  C   UNL A   1      33.803  21.870  26.664  1.00  0.00     0.339 C 
ATOM      7  O   UNL A   1      33.289  21.918  27.772  1.00  0.00    -0.246 OA
BRANCH   6   8
ATOM      8  C   UNL A   1      33.027  22.145  25.426  1.00  0.00     0.073 A 
ATOM      9  C   UNL A   1      32.128  23.216  25.265  1.00  0.00     0.022 A 
ATOM     10  C   UNL A   1      31.489  23.372  24.023  1.00  0.00     0.016 A 
ATOM     11  C   UNL A   1      31.749  22.499  22.961  1.00  0.00     0.001 A 
ATOM     12  C   UNL A   1      33.276  21.268  24.352  1.00  0.00     0.017 A 
ATOM     13  C   UNL A   1      32.638  21.443  23.127  1.00  0.00     0.001 A 
BRANCH   9  14
ATOM     14  S   UNL A   1      31.699  24.362  26.562  1.00  0.00    -0.125 SA
BRANCH  14  15
ATOM     15  C   UNL A   1      32.654  25.845  26.105  1.00  0.00     0.075 C 
BRANCH  15  16
ATOM     16  C   UNL A   1      31.845  27.091  25.734  1.00  0.00     0.011 C 
BRANCH  16  17
ATOM     17  C   UNL A   1      32.038  28.360  26.571  1.00  0.00    -0.003 C 
ATOM     18  C   UNL A   1      32.212  29.653  25.792  1.00  0.00     0.004 C 
ENDBRANCH  16  17
ENDBRANCH  15  16
ENDBRANCH  14  15
ENDBRANCH   9  14
ENDBRANCH   6   8
ENDBRANCH   5   6
ENDBRANCH   4   5
ENDBRANCH   3   4
ENDBRANCH   2   3
ENDBRANCH   1   2
BRANCH   1  19
ATOM     19  C   UNL A   1      39.565  19.654  25.721  1.00  0.00     0.188 C 
BRANCH  19  20
ATOM     20  O   UNL A   1      40.937  19.341  25.751  1.00  0.00    -0.376 OA
BRANCH  20  21
ATOM     21  C   UNL A   1      41.833  20.174  26.462  1.00  0.00     0.202 C 
BRANCH  21  22
ATOM     22  C   UNL A   1      42.806  21.155  25.784  1.00  0.00     0.261 C 
BRANCH  22  23
ATOM     23  O   UNL A   1      42.269  22.410  25.345  1.00  0.00    -0.460 OA
BRANCH  23  24
ATOM     24  C   UNL A   1      43.153  23.442  25.302  1.00  0.00     0.338 C 
ATOM     25  O   UNL A   1      44.091  23.588  24.543  1.00  0.00    -0.246 OA
BRANCH  24  26
ATOM     26  C   UNL A   1      42.692  24.497  26.227  1.00  0.00     0.060 A 
ATOM     27  C   UNL A   1      43.334  25.746  26.220  1.00  0.00     0.016 A 
ATOM     28  C   UNL A   1      41.640  24.246  27.106  1.00  0.00     0.016 A 
ATOM     29  C   UNL A   1      42.914  26.754  27.088  1.00  0.00     0.010 A 
ATOM     30  C   UNL A   1      41.244  25.246  27.997  1.00  0.00     0.010 A 
ATOM     31  C   UNL A   1      41.884  26.499  28.001  1.00  0.00    -0.014 A 
BRANCH  31  32
ATOM     32  C   UNL A   1      41.551  27.479  29.062  1.00  0.00     0.031 A 
ATOM     33  C   UNL A   1      42.319  27.432  30.351  1.00  0.00     0.074 A 
ATOM     34  C   UNL A   1      40.559  28.369  28.899  1.00  0.00     0.049 A 
ATOM     35  N   UNL A   1      42.109  28.081  31.468  1.00  0.00    -0.248 NA
ATOM     36  C   UNL A   1      43.477  26.525  30.385  1.00  0.00     0.031 C 
ATOM     37  C   UNL A   1      39.776  28.553  27.679  1.00  0.00     0.029 A 
ATOM     38  N   UNL A   1      40.022  29.273  29.784  1.00  0.00    -0.354 N 
ATOM     39  C   UNL A   1      43.101  27.653  32.341  1.00  0.00     0.074 A 
ATOM     40  C   UNL A   1      43.895  26.671  31.633  1.00  0.00     0.031 C 
ATOM     41  C   UNL A   1      38.843  29.496  27.900  1.00  0.00     0.029 A 
ATOM     42  C   UNL A   1      38.934  29.946  29.288  1.00  0.00     0.049 A 
ATOM     43  H   UNL A   1      40.385  29.423  30.687  1.00  0.00     0.167 HD
ATOM     44  C   UNL A   1      43.329  28.044  33.618  1.00  0.00     0.037 A 
ATOM     45  C   UNL A   1      38.084  30.796  29.899  1.00  0.00     0.037 A 
ATOM     46  C   UNL A   1      42.525  29.007  34.324  1.00  0.00     0.049 A 
ATOM     47  C   UNL A   1      38.286  31.128  31.356  1.00  0.00     0.074 A 
ATOM     48  C   UNL A   1      42.678  29.475  35.616  1.00  0.00     0.029 A 
ATOM     49  N   UNL A   1      41.404  29.635  33.801  1.00  0.00    -0.354 N 
ATOM     50  N   UNL A   1      39.233  30.735  32.172  1.00  0.00    -0.248 NA
ATOM     51  C   UNL A   1      37.294  32.019  31.977  1.00  0.00     0.031 C 
ATOM     52  C   UNL A   1      41.616  30.342  35.896  1.00  0.00     0.029 A 
ATOM     53  C   UNL A   1      40.837  30.463  34.757  1.00  0.00     0.049 A 
ATOM     54  H   UNL A   1      41.063  29.512  32.886  1.00  0.00     0.167 HD
ATOM     55  C   UNL A   1      38.971  31.353  33.390  1.00  0.00     0.074 A 
ATOM     56  C   UNL A   1      37.780  32.154  33.203  1.00  0.00     0.031 C 
ATOM     57  C   UNL A   1      39.656  31.264  34.558  1.00  0.00     0.037 A 
BRANCH  44  58
ATOM     58  C   UNL A   1      44.474  27.397  34.341  1.00  0.00     0.057 A 
ATOM     59  C   UNL A   1      45.759  27.957  34.348  1.00  0.00     0.134 A 
ATOM     60  C   UNL A   1      44.286  26.206  35.054  1.00  0.00     0.134 A 
ATOM     61  F   UNL A   1      46.011  29.089  33.674  1.00  0.00    -0.206 F 
ATOM     62  C   UNL A   1      46.821  27.339  35.010  1.00  0.00     0.040 A 
ATOM     63  C   UNL A   1      45.332  25.596  35.745  1.00  0.00     0.040 A 
ATOM     64  F   UNL A   1      43.080  25.619  35.094  1.00  0.00    -0.206 F 
ATOM     65  C   UNL A   1      46.607  26.156  35.716  1.00  0.00     0.006 A 
ENDBRANCH  44  58
BRANCH  45  66
ATOM     66  C   UNL A   1      36.945  31.381  29.146  1.00  0.00     0.057 A 
ATOM     67  C   UNL A   1      35.817  30.614  28.834  1.00  0.00     0.134 A 
ATOM     68  C   UNL A   1      36.965  32.708  28.699  1.00  0.00     0.134 A 
ATOM     69  F   UNL A   1      35.751  29.328  29.209  1.00  0.00    -0.206 F 
ATOM     70  C   UNL A   1      34.757  31.139  28.093  1.00  0.00     0.040 A 
ATOM     71  C   UNL A   1      35.899  33.255  27.982  1.00  0.00     0.040 A 
ATOM     72  F   UNL A   1      38.018  33.496  28.961  1.00  0.00    -0.206 F 
ATOM     73  C   UNL A   1      34.794  32.466  27.670  1.00  0.00     0.006 A 
ENDBRANCH  45  66
BRANCH  57  74
ATOM     74  C   UNL A   1      39.165  32.085  35.717  1.00  0.00     0.057 A 
ATOM     75  C   UNL A   1      38.276  31.570  36.668  1.00  0.00     0.134 A 
ATOM     76  C   UNL A   1      39.638  33.390  35.915  1.00  0.00     0.134 A 
ATOM     77  F   UNL A   1      37.774  30.333  36.531  1.00  0.00    -0.206 F 
ATOM     78  C   UNL A   1      37.860  32.329  37.765  1.00  0.00     0.040 A 
ATOM     79  C   UNL A   1      39.253  34.146  37.023  1.00  0.00     0.040 A 
ATOM     80  F   UNL A   1      40.500  33.941  35.048  1.00  0.00    -0.206 F 
ATOM     81  C   UNL A   1      38.357  33.618  37.950  1.00  0.00     0.006 A 
ENDBRANCH  57  74
ENDBRANCH  31  32
ENDBRANCH  24  26
ENDBRANCH  23  24
ENDBRANCH  22  23
ENDBRANCH  21  22
ENDBRANCH  20  21
ENDBRANCH  19  20
ENDBRANCH   1  19
TORSDOF 21
ENDMDL
MODEL 3
REMARK VINA RESULT:      -9.4      3.487      8.420
REMARK SMILES CCCCSc1ccccc1C(=O)OCCOCCOCCOC(=O)c1ccc(-c2c3nc(c(-c4c(F)cccc4F)c4ccc([nH]4)c(-c4c(F)cccc4F)c4nc(c(-c5c(F)cccc5F)c5ccc2[nH]5)C=C4)C=C3)cc1
REMARK SMILES IDX 18 1 17 2 16 3 15 4 14 5 12 6 13 7 11 8 6 9 7 10 8 11 10 12
REMARK SMILES IDX 9 13 5 14 4 15 3 16 2 17 1 18 19 19 20 20 21 21 22 22 23 23
REMARK SMILES IDX 24 24 25 25 26 26 27 27 79 28 28 29 78 30 29 31 30 32 31 33
REMARK SMILES IDX 72 34 32 35 77 36 71 37 73 38 33 39 76 40 70 41 69 42 34 44
REMARK SMILES IDX 60 45 43 46 59 47 44 48 47 49 58 50 74 51 45 52 46 53 57 55
REMARK SMILES IDX 75 56 48 57 35 58 36 59 41 60 37 61 38 62 40 63 42 64 39 65
REMARK SMILES IDX 61 66 62 67 67 68 63 69 64 70 66 71 68 72 65 73 49 74 50 75
REMARK SMILES IDX 55 76 51 77 52 78 54 79 56 80 53 81
REMARK H PARENT 73 43 47 54
REMARK Flexibility Score: inf
ROOT
ATOM      1  C   UNL A   1      32.661  25.611  26.067  1.00  0.00     0.188 C 
ENDROOT
BRANCH   1   2
ATOM      2  O   UNL A   1      32.887  24.276  26.474  1.00  0.00    -0.376 OA
BRANCH   2   3
ATOM      3  C   UNL A   1      31.810  23.468  26.925  1.00  0.00     0.202 C 
BRANCH   3   4
ATOM      4  C   UNL A   1      30.943  22.628  25.979  1.00  0.00     0.261 C 
BRANCH   4   5
ATOM      5  O   UNL A   1      31.524  21.379  25.599  1.00  0.00    -0.460 OA
BRANCH   5   6
ATOM      6  C   UNL A   1      32.245  21.382  24.455  1.00  0.00     0.339 C 
ATOM      7  O   UNL A   1      32.386  22.330  23.696  1.00  0.00    -0.246 OA
BRANCH   6   8
ATOM      8  C   UNL A   1      33.040  20.134  24.309  1.00  0.00     0.073 A 
ATOM      9  C   UNL A   1      34.335  19.944  24.826  1.00  0.00     0.022 A 
ATOM     10  C   UNL A   1      34.953  18.695  24.640  1.00  0.00     0.016 A 
ATOM     11  C   UNL A   1      34.296  17.655  23.974  1.00  0.00     0.001 A 
ATOM     12  C   UNL A   1      32.390  19.082  23.635  1.00  0.00     0.017 A 
ATOM     13  C   UNL A   1      33.016  17.850  23.466  1.00  0.00     0.001 A 
BRANCH   9  14
ATOM     14  S   UNL A   1      35.274  21.212  25.658  1.00  0.00    -0.125 SA
BRANCH  14  15
ATOM     15  C   UNL A   1      36.739  21.376  24.589  1.00  0.00     0.075 C 
BRANCH  15  16
ATOM     16  C   UNL A   1      38.097  21.434  25.294  1.00  0.00     0.011 C 
BRANCH  16  17
ATOM     17  C   UNL A   1      38.371  22.601  26.250  1.00  0.00    -0.003 C 
ATOM     18  C   UNL A   1      37.811  23.950  25.835  1.00  0.00     0.004 C 
ENDBRANCH  16  17
ENDBRANCH  15  16
ENDBRANCH  14  15
ENDBRANCH   9  14
ENDBRANCH   6   8
ENDBRANCH   5   6
ENDBRANCH   4   5
ENDBRANCH   3   4
ENDBRANCH   2   3
ENDBRANCH   1   2
BRANCH   1  19
ATOM     19  C   UNL A   1      31.280  26.267  26.287  1.00  0.00     0.188 C 
BRANCH  19  20
ATOM     20  O   UNL A   1      31.091  27.221  27.305  1.00  0.00    -0.376 OA
BRANCH  20  21
ATOM     21  C   UNL A   1      32.187  27.991  27.761  1.00  0.00     0.202 C 
BRANCH  21  22
ATOM     22  C   UNL A   1      32.654  29.294  27.087  1.00  0.00     0.261 C 
BRANCH  22  23
ATOM     23  O   UNL A   1      34.067  29.507  26.986  1.00  0.00    -0.460 OA
BRANCH  23  24
ATOM     24  C   UNL A   1      34.557  30.541  27.721  1.00  0.00     0.338 C 
ATOM     25  O   UNL A   1      33.981  31.557  28.053  1.00  0.00    -0.246 OA
BRANCH  24  26
ATOM     26  C   UNL A   1      35.889  30.164  28.238  1.00  0.00     0.060 A 
ATOM     27  C   UNL A   1      37.019  30.353  27.427  1.00  0.00     0.016 A 
ATOM     28  C   UNL A   1      36.014  29.611  29.511  1.00  0.00     0.016 A 
ATOM     29  C   UNL A   1      38.285  30.000  27.897  1.00  0.00     0.010 A 
ATOM     30  C   UNL A   1      37.278  29.229  29.966  1.00  0.00     0.010 A 
ATOM     31  C   UNL A   1      38.417  29.410  29.159  1.00  0.00    -0.014 A 
BRANCH  31  32
ATOM     32  C   UNL A   1      39.715  28.848  29.602  1.00  0.00     0.031 A 
ATOM     33  C   UNL A   1      40.551  29.639  30.565  1.00  0.00     0.074 A 
ATOM     34  C   UNL A   1      40.161  27.673  29.128  1.00  0.00     0.049 A 
ATOM     35  N   UNL A   1      41.775  29.425  30.974  1.00  0.00    -0.248 NA
ATOM     36  C   UNL A   1      39.921  30.839  31.139  1.00  0.00     0.031 C 
ATOM     37  C   UNL A   1      39.423  26.784  28.233  1.00  0.00     0.029 A 
ATOM     38  N   UNL A   1      41.364  27.038  29.318  1.00  0.00    -0.354 N 
ATOM     39  C   UNL A   1      42.066  30.468  31.844  1.00  0.00     0.074 A 
ATOM     40  C   UNL A   1      40.901  31.327  31.883  1.00  0.00     0.031 C 
ATOM     41  C   UNL A   1      40.199  25.728  27.933  1.00  0.00     0.029 A 
ATOM     42  C   UNL A   1      41.503  25.892  28.575  1.00  0.00     0.049 A 
ATOM     43  H   UNL A   1      42.060  27.374  29.928  1.00  0.00     0.167 HD
ATOM     44  C   UNL A   1      43.203  30.689  32.547  1.00  0.00     0.037 A 
ATOM     45  C   UNL A   1      42.573  25.091  28.404  1.00  0.00     0.037 A 
ATOM     46  C   UNL A   1      44.366  29.843  32.491  1.00  0.00     0.049 A 
ATOM     47  C   UNL A   1      43.867  25.421  29.105  1.00  0.00     0.074 A 
ATOM     48  C   UNL A   1      45.563  29.977  33.171  1.00  0.00     0.029 A 
ATOM     49  N   UNL A   1      44.483  28.713  31.695  1.00  0.00    -0.354 N 
ATOM     50  N   UNL A   1      44.133  26.397  29.938  1.00  0.00    -0.248 NA
ATOM     51  C   UNL A   1      45.012  24.538  28.833  1.00  0.00     0.031 C 
ATOM     52  C   UNL A   1      46.426  28.963  32.741  1.00  0.00     0.029 A 
ATOM     53  C   UNL A   1      45.744  28.160  31.841  1.00  0.00     0.049 A 
ATOM     54  H   UNL A   1      43.774  28.357  31.112  1.00  0.00     0.167 HD
ATOM     55  C   UNL A   1      45.462  26.228  30.314  1.00  0.00     0.074 A 
ATOM     56  C   UNL A   1      45.944  25.051  29.625  1.00  0.00     0.031 C 
ATOM     57  C   UNL A   1      46.212  26.981  31.156  1.00  0.00     0.037 A 
BRANCH  44  58
ATOM     58  C   UNL A   1      43.251  31.918  33.408  1.00  0.00     0.057 A 
ATOM     59  C   UNL A   1      42.822  31.907  34.743  1.00  0.00     0.134 A 
ATOM     60  C   UNL A   1      43.748  33.125  32.901  1.00  0.00     0.134 A 
ATOM     61  F   UNL A   1      42.322  30.788  35.287  1.00  0.00    -0.206 F 
ATOM     62  C   UNL A   1      42.855  33.059  35.530  1.00  0.00     0.040 A 
ATOM     63  C   UNL A   1      43.815  34.276  33.687  1.00  0.00     0.040 A 
ATOM     64  F   UNL A   1      44.180  33.206  31.633  1.00  0.00    -0.206 F 
ATOM     65  C   UNL A   1      43.358  34.248  35.003  1.00  0.00     0.006 A 
ENDBRANCH  44  58
BRANCH  45  66
ATOM     66  C   UNL A   1      42.483  23.906  27.512  1.00  0.00     0.057 A 
ATOM     67  C   UNL A   1      42.146  22.646  28.019  1.00  0.00     0.134 A 
ATOM     68  C   UNL A   1      42.754  23.996  26.142  1.00  0.00     0.134 A 
ATOM     69  F   UNL A   1      41.903  22.489  29.329  1.00  0.00    -0.206 F 
ATOM     70  C   UNL A   1      42.095  21.517  27.200  1.00  0.00     0.040 A 
ATOM     71  C   UNL A   1      42.680  22.881  25.305  1.00  0.00     0.040 A 
ATOM     72  F   UNL A   1      43.088  25.174  25.593  1.00  0.00    -0.206 F 
ATOM     73  C   UNL A   1      42.357  21.634  25.837  1.00  0.00     0.006 A 
ENDBRANCH  45  66
BRANCH  57  74
ATOM     74  C   UNL A   1      47.624  26.536  31.418  1.00  0.00     0.057 A 
ATOM     75  C   UNL A   1      47.942  25.640  32.446  1.00  0.00     0.134 A 
ATOM     76  C   UNL A   1      48.670  26.965  30.589  1.00  0.00     0.134 A 
ATOM     77  F   UNL A   1      46.991  25.201  33.284  1.00  0.00    -0.206 F 
ATOM     78  C   UNL A   1      49.252  25.200  32.652  1.00  0.00     0.040 A 
ATOM     79  C   UNL A   1      49.977  26.509  30.766  1.00  0.00     0.040 A 
ATOM     80  F   UNL A   1      48.434  27.815  29.579  1.00  0.00    -0.206 F 
ATOM     81  C   UNL A   1      50.272  25.627  31.804  1.00  0.00     0.006 A 
ENDBRANCH  57  74
ENDBRANCH  31  32
ENDBRANCH  24  26
ENDBRANCH  23  24
ENDBRANCH  22  23
ENDBRANCH  21  22
ENDBRANCH  20  21
ENDBRANCH  19  20
ENDBRANCH   1  19
TORSDOF 21
ENDMDL
