MODEL 1
REMARK VINA RESULT:     -10.2      0.000      0.000
REMARK SMILES CN(C)c1cccc(C(=O)CCCC(=O)OCCOCCOCCOC(=O)c2ccc(-c3c4nc(c(-c5c(F)cccc5F)c5ccc([nH]5)c(-c5c(F)cccc5F)c5nc(c(-c6c(F)cccc6F)c6ccc3[nH]6)C=C5)C=C4)cc2)c1
REMARK SMILES IDX 19 1 18 2 17 3 16 4 14 5 15 6 13 7 12 8 11 9 9 10 10 11 8 12
REMARK SMILES IDX 4 13 5 14 82 15 6 16 7 17 2 18 1 19 3 20 20 21 21 22 22 23
REMARK SMILES IDX 23 24 24 25 25 26 26 27 27 28 28 29 29 30 81 31 30 32 80 33
REMARK SMILES IDX 31 34 32 35 33 36 74 37 34 38 79 39 73 40 75 41 35 42 78 43
REMARK SMILES IDX 72 44 71 45 36 47 62 48 45 49 61 50 46 51 49 52 60 53 76 54
REMARK SMILES IDX 47 55 48 56 59 58 77 59 50 60 37 61 38 62 43 63 39 64 40 65
REMARK SMILES IDX 42 66 44 67 41 68 63 69 64 70 69 71 65 72 66 73 68 74 70 75
REMARK SMILES IDX 67 76 51 77 52 78 57 79 53 80 54 81 56 82 58 83 55 84
REMARK H PARENT 75 46 49 57
REMARK Flexibility Score: inf
ROOT
ATOM      1  O   UNL A   1      34.004  32.496  28.606  1.00  0.00    -0.376 OA
ENDROOT
BRANCH   1   2
ATOM      2  C   UNL A   1      34.484  31.425  27.825  1.00  0.00     0.202 C 
BRANCH   2   3
ATOM      3  C   UNL A   1      33.575  30.486  27.016  1.00  0.00     0.261 C 
BRANCH   3   4
ATOM      4  O   UNL A   1      33.583  29.079  27.293  1.00  0.00    -0.463 OA
BRANCH   4   5
ATOM      5  C   UNL A   1      32.569  28.327  26.798  1.00  0.00     0.305 C 
ATOM      6  O   UNL A   1      31.454  28.267  27.306  1.00  0.00    -0.252 OA
BRANCH   5   7
ATOM      7  C   UNL A   1      32.928  27.557  25.526  1.00  0.00     0.123 C 
BRANCH   7   8
ATOM      8  C   UNL A   1      33.516  28.213  24.262  1.00  0.00     0.020 C 
BRANCH   8   9
ATOM      9  C   UNL A   1      32.611  28.796  23.167  1.00  0.00     0.081 C 
BRANCH   9  10
ATOM     10  C   UNL A   1      31.318  28.034  22.873  1.00  0.00     0.162 C 
ATOM     11  O   UNL A   1      31.343  26.860  22.504  1.00  0.00    -0.294 OA
BRANCH  10  12
ATOM     12  C   UNL A   1      30.001  28.722  22.994  1.00  0.00     0.020 A 
ATOM     13  C   UNL A   1      28.696  30.730  22.552  1.00  0.00     0.037 A 
ATOM     14  C   UNL A   1      27.530  29.992  22.716  1.00  0.00     0.026 A 
ATOM     15  C   UNL A   1      29.906  30.096  22.828  1.00  0.00     0.037 A 
ATOM     16  C   UNL A   1      27.593  28.640  23.076  1.00  0.00     0.003 A 
ATOM     17  C   UNL A   1      28.829  27.992  23.173  1.00  0.00     0.012 A 
BRANCH  13  18
ATOM     18  N   UNL A   1      28.734  32.010  22.018  1.00  0.00    -0.378 N 
ATOM     19  C   UNL A   1      27.977  32.226  20.786  1.00  0.00     0.143 C 
ATOM     20  C   UNL A   1      28.857  33.131  22.930  1.00  0.00     0.143 C 
ENDBRANCH  13  18
ENDBRANCH  10  12
ENDBRANCH   9  10
ENDBRANCH   8   9
ENDBRANCH   7   8
ENDBRANCH   5   7
ENDBRANCH   4   5
ENDBRANCH   3   4
ENDBRANCH   2   3
ENDBRANCH   1   2
BRANCH   1  21
ATOM     21  C   UNL A   1      34.315  33.814  28.221  1.00  0.00     0.188 C 
BRANCH  21  22
ATOM     22  C   UNL A   1      33.520  34.874  29.013  1.00  0.00     0.188 C 
BRANCH  22  23
ATOM     23  O   UNL A   1      33.139  34.619  30.353  1.00  0.00    -0.376 OA
BRANCH  23  24
ATOM     24  C   UNL A   1      33.880  35.264  31.380  1.00  0.00     0.202 C 
BRANCH  24  25
ATOM     25  C   UNL A   1      34.458  34.434  32.548  1.00  0.00     0.261 C 
BRANCH  25  26
ATOM     26  O   UNL A   1      34.899  33.095  32.227  1.00  0.00    -0.460 OA
BRANCH  26  27
ATOM     27  C   UNL A   1      35.910  32.596  32.987  1.00  0.00     0.338 C 
ATOM     28  O   UNL A   1      36.011  32.672  34.204  1.00  0.00    -0.246 OA
BRANCH  27  29
ATOM     29  C   UNL A   1      36.783  31.698  32.182  1.00  0.00     0.060 A 
ATOM     30  C   UNL A   1      37.746  30.927  32.859  1.00  0.00     0.016 A 
ATOM     31  C   UNL A   1      36.699  31.630  30.791  1.00  0.00     0.016 A 
ATOM     32  C   UNL A   1      38.655  30.134  32.155  1.00  0.00     0.010 A 
ATOM     33  C   UNL A   1      37.640  30.863  30.082  1.00  0.00     0.010 A 
ATOM     34  C   UNL A   1      38.651  30.152  30.757  1.00  0.00    -0.014 A 
BRANCH  34  35
ATOM     35  C   UNL A   1      39.861  29.672  30.034  1.00  0.00     0.031 A 
ATOM     36  C   UNL A   1      41.004  30.642  29.850  1.00  0.00     0.074 A 
ATOM     37  C   UNL A   1      39.996  28.404  29.605  1.00  0.00     0.049 A 
ATOM     38  N   UNL A   1      42.154  30.477  29.248  1.00  0.00    -0.248 NA
ATOM     39  C   UNL A   1      40.816  31.983  30.429  1.00  0.00     0.031 C 
ATOM     40  C   UNL A   1      39.007  27.342  29.767  1.00  0.00     0.029 A 
ATOM     41  N   UNL A   1      41.037  27.798  28.940  1.00  0.00    -0.354 N 
ATOM     42  C   UNL A   1      42.819  31.693  29.367  1.00  0.00     0.074 A 
ATOM     43  C   UNL A   1      41.932  32.595  30.067  1.00  0.00     0.031 C 
ATOM     44  C   UNL A   1      39.481  26.216  29.201  1.00  0.00     0.029 A 
ATOM     45  C   UNL A   1      40.796  26.484  28.618  1.00  0.00     0.049 A 
ATOM     46  H   UNL A   1      41.875  28.262  28.715  1.00  0.00     0.167 HD
ATOM     47  C   UNL A   1      44.060  32.030  28.942  1.00  0.00     0.037 A 
ATOM     48  C   UNL A   1      41.543  25.606  27.916  1.00  0.00     0.037 A 
ATOM     49  C   UNL A   1      44.951  31.140  28.246  1.00  0.00     0.049 A 
ATOM     50  C   UNL A   1      42.893  26.026  27.387  1.00  0.00     0.074 A 
ATOM     51  C   UNL A   1      46.230  31.391  27.781  1.00  0.00     0.029 A 
ATOM     52  N   UNL A   1      44.653  29.829  27.908  1.00  0.00    -0.354 N 
ATOM     53  N   UNL A   1      43.515  27.173  27.514  1.00  0.00    -0.248 NA
ATOM     54  C   UNL A   1      43.646  25.021  26.622  1.00  0.00     0.031 C 
ATOM     55  C   UNL A   1      46.684  30.250  27.112  1.00  0.00     0.029 A 
ATOM     56  C   UNL A   1      45.715  29.266  27.220  1.00  0.00     0.049 A 
ATOM     57  H   UNL A   1      43.811  29.367  28.125  1.00  0.00     0.167 HD
ATOM     58  C   UNL A   1      44.745  27.014  26.884  1.00  0.00     0.074 A 
ATOM     59  C   UNL A   1      44.785  25.656  26.384  1.00  0.00     0.031 C 
ATOM     60  C   UNL A   1      45.753  27.910  26.736  1.00  0.00     0.037 A 
BRANCH  47  61
ATOM     61  C   UNL A   1      44.515  33.440  29.195  1.00  0.00     0.057 A 
ATOM     62  C   UNL A   1      45.221  33.800  30.350  1.00  0.00     0.134 A 
ATOM     63  C   UNL A   1      44.260  34.447  28.254  1.00  0.00     0.134 A 
ATOM     64  F   UNL A   1      45.484  32.888  31.299  1.00  0.00    -0.206 F 
ATOM     65  C   UNL A   1      45.633  35.115  30.575  1.00  0.00     0.040 A 
ATOM     66  C   UNL A   1      44.694  35.759  28.453  1.00  0.00     0.040 A 
ATOM     67  F   UNL A   1      43.592  34.172  27.124  1.00  0.00    -0.206 F 
ATOM     68  C   UNL A   1      45.377  36.097  29.619  1.00  0.00     0.006 A 
ENDBRANCH  47  61
BRANCH  48  69
ATOM     69  C   UNL A   1      41.037  24.232  27.657  1.00  0.00     0.057 A 
ATOM     70  C   UNL A   1      41.558  23.121  28.333  1.00  0.00     0.134 A 
ATOM     71  C   UNL A   1      40.050  23.990  26.693  1.00  0.00     0.134 A 
ATOM     72  F   UNL A   1      42.527  23.282  29.247  1.00  0.00    -0.206 F 
ATOM     73  C   UNL A   1      41.135  21.822  28.047  1.00  0.00     0.040 A 
ATOM     74  C   UNL A   1      39.596  22.698  26.416  1.00  0.00     0.040 A 
ATOM     75  F   UNL A   1      39.513  25.007  26.003  1.00  0.00    -0.206 F 
ATOM     76  C   UNL A   1      40.146  21.609  27.088  1.00  0.00     0.006 A 
ENDBRANCH  48  69
BRANCH  60  77
ATOM     77  C   UNL A   1      47.011  27.435  26.060  1.00  0.00     0.057 A 
ATOM     78  C   UNL A   1      47.198  27.530  24.674  1.00  0.00     0.134 A 
ATOM     79  C   UNL A   1      48.061  26.894  26.815  1.00  0.00     0.134 A 
ATOM     80  F   UNL A   1      46.233  28.031  23.889  1.00  0.00    -0.206 F 
ATOM     81  C   UNL A   1      48.367  27.070  24.062  1.00  0.00     0.040 A 
ATOM     82  C   UNL A   1      49.245  26.461  26.218  1.00  0.00     0.040 A 
ATOM     83  F   UNL A   1      47.957  26.787  28.148  1.00  0.00    -0.206 F 
ATOM     84  C   UNL A   1      49.396  26.537  24.835  1.00  0.00     0.006 A 
ENDBRANCH  60  77
ENDBRANCH  34  35
ENDBRANCH  27  29
ENDBRANCH  26  27
ENDBRANCH  25  26
ENDBRANCH  24  25
ENDBRANCH  23  24
ENDBRANCH  22  23
ENDBRANCH  21  22
ENDBRANCH   1  21
TORSDOF 22
ENDMDL
MODEL 2
REMARK VINA RESULT:     -10.0      5.183     10.532
REMARK SMILES CN(C)c1cccc(C(=O)CCCC(=O)OCCOCCOCCOC(=O)c2ccc(-c3c4nc(c(-c5c(F)cccc5F)c5ccc([nH]5)c(-c5c(F)cccc5F)c5nc(c(-c6c(F)cccc6F)c6ccc3[nH]6)C=C5)C=C4)cc2)c1
REMARK SMILES IDX 19 1 18 2 17 3 16 4 14 5 15 6 13 7 12 8 11 9 9 10 10 11 8 12
REMARK SMILES IDX 4 13 5 14 82 15 6 16 7 17 2 18 1 19 3 20 20 21 21 22 22 23
REMARK SMILES IDX 23 24 24 25 25 26 26 27 27 28 28 29 29 30 81 31 30 32 80 33
REMARK SMILES IDX 31 34 32 35 33 36 74 37 34 38 79 39 73 40 75 41 35 42 78 43
REMARK SMILES IDX 72 44 71 45 36 47 62 48 45 49 61 50 46 51 49 52 60 53 76 54
REMARK SMILES IDX 47 55 48 56 59 58 77 59 50 60 37 61 38 62 43 63 39 64 40 65
REMARK SMILES IDX 42 66 44 67 41 68 63 69 64 70 69 71 65 72 66 73 68 74 70 75
REMARK SMILES IDX 67 76 51 77 52 78 57 79 53 80 54 81 56 82 58 83 55 84
REMARK H PARENT 75 46 49 57
REMARK Flexibility Score: inf
ROOT
ATOM      1  O   UNL A   1      42.558  19.354  26.704  1.00  0.00    -0.376 OA
ENDROOT
BRANCH   1   2
ATOM      2  C   UNL A   1      41.257  19.524  26.188  1.00  0.00     0.202 C 
BRANCH   2   3
ATOM      3  C   UNL A   1      40.435  20.812  26.358  1.00  0.00     0.261 C 
BRANCH   3   4
ATOM      4  O   UNL A   1      39.137  20.909  25.756  1.00  0.00    -0.463 OA
BRANCH   4   5
ATOM      5  C   UNL A   1      38.524  22.119  25.759  1.00  0.00     0.305 C 
ATOM      6  O   UNL A   1      38.876  23.060  26.463  1.00  0.00    -0.252 OA
BRANCH   5   7
ATOM      7  C   UNL A   1      37.345  22.221  24.790  1.00  0.00     0.123 C 
BRANCH   7   8
ATOM      8  C   UNL A   1      36.441  23.463  24.665  1.00  0.00     0.020 C 
BRANCH   8   9
ATOM      9  C   UNL A   1      35.279  23.512  23.664  1.00  0.00     0.081 C 
BRANCH   9  10
ATOM     10  C   UNL A   1      33.974  24.134  24.163  1.00  0.00     0.162 C 
ATOM     11  O   UNL A   1      33.192  23.492  24.863  1.00  0.00    -0.294 OA
BRANCH  10  12
ATOM     12  C   UNL A   1      33.612  25.526  23.770  1.00  0.00     0.020 A 
ATOM     13  C   UNL A   1      33.374  27.849  24.460  1.00  0.00     0.037 A 
ATOM     14  C   UNL A   1      33.420  28.236  23.126  1.00  0.00     0.026 A 
ATOM     15  C   UNL A   1      33.339  26.483  24.736  1.00  0.00     0.037 A 
ATOM     16  C   UNL A   1      33.500  27.273  22.112  1.00  0.00     0.003 A 
ATOM     17  C   UNL A   1      33.641  25.919  22.434  1.00  0.00     0.012 A 
BRANCH  13  18
ATOM     18  N   UNL A   1      33.484  28.729  25.526  1.00  0.00    -0.378 N 
ATOM     19  C   UNL A   1      32.595  29.889  25.509  1.00  0.00     0.143 C 
ATOM     20  C   UNL A   1      33.857  28.195  26.822  1.00  0.00     0.143 C 
ENDBRANCH  13  18
ENDBRANCH  10  12
ENDBRANCH   9  10
ENDBRANCH   8   9
ENDBRANCH   7   8
ENDBRANCH   5   7
ENDBRANCH   4   5
ENDBRANCH   3   4
ENDBRANCH   2   3
ENDBRANCH   1   2
BRANCH   1  21
ATOM     21  C   UNL A   1      43.406  18.398  26.115  1.00  0.00     0.188 C 
BRANCH  21  22
ATOM     22  C   UNL A   1      44.135  18.933  24.863  1.00  0.00     0.188 C 
BRANCH  22  23
ATOM     23  O   UNL A   1      45.484  19.357  24.955  1.00  0.00    -0.376 OA
BRANCH  23  24
ATOM     24  C   UNL A   1      45.724  20.745  25.137  1.00  0.00     0.202 C 
BRANCH  24  25
ATOM     25  C   UNL A   1      44.561  21.752  24.990  1.00  0.00     0.261 C 
BRANCH  25  26
ATOM     26  O   UNL A   1      44.474  22.785  25.999  1.00  0.00    -0.460 OA
BRANCH  26  27
ATOM     27  C   UNL A   1      44.611  24.065  25.562  1.00  0.00     0.338 C 
ATOM     28  O   UNL A   1      45.213  24.433  24.563  1.00  0.00    -0.246 OA
BRANCH  27  29
ATOM     29  C   UNL A   1      43.707  24.980  26.314  1.00  0.00     0.060 A 
ATOM     30  C   UNL A   1      44.071  26.335  26.416  1.00  0.00     0.016 A 
ATOM     31  C   UNL A   1      42.547  24.528  26.943  1.00  0.00     0.016 A 
ATOM     32  C   UNL A   1      43.315  27.225  27.182  1.00  0.00     0.010 A 
ATOM     33  C   UNL A   1      41.810  25.414  27.746  1.00  0.00     0.010 A 
ATOM     34  C   UNL A   1      42.218  26.753  27.909  1.00  0.00    -0.014 A 
BRANCH  34  35
ATOM     35  C   UNL A   1      41.698  27.579  29.034  1.00  0.00     0.031 A 
ATOM     36  C   UNL A   1      42.411  27.488  30.362  1.00  0.00     0.074 A 
ATOM     37  C   UNL A   1      40.674  28.440  28.891  1.00  0.00     0.049 A 
ATOM     38  N   UNL A   1      42.150  28.090  31.495  1.00  0.00    -0.248 NA
ATOM     39  C   UNL A   1      43.579  26.593  30.412  1.00  0.00     0.031 C 
ATOM     40  C   UNL A   1      39.932  28.680  27.657  1.00  0.00     0.029 A 
ATOM     41  N   UNL A   1      40.083  29.276  29.809  1.00  0.00    -0.354 N 
ATOM     42  C   UNL A   1      43.113  27.638  32.391  1.00  0.00     0.074 A 
ATOM     43  C   UNL A   1      43.941  26.689  31.681  1.00  0.00     0.031 C 
ATOM     44  C   UNL A   1      38.972  29.593  27.898  1.00  0.00     0.029 A 
ATOM     45  C   UNL A   1      39.017  29.983  29.307  1.00  0.00     0.049 A 
ATOM     46  H   UNL A   1      40.394  29.360  30.739  1.00  0.00     0.167 HD
ATOM     47  C   UNL A   1      43.302  27.987  33.686  1.00  0.00     0.037 A 
ATOM     48  C   UNL A   1      38.165  30.831  29.920  1.00  0.00     0.037 A 
ATOM     49  C   UNL A   1      42.485  28.931  34.401  1.00  0.00     0.049 A 
ATOM     50  C   UNL A   1      38.348  31.148  31.385  1.00  0.00     0.074 A 
ATOM     51  C   UNL A   1      42.603  29.352  35.715  1.00  0.00     0.029 A 
ATOM     52  N   UNL A   1      41.394  29.596  33.865  1.00  0.00    -0.354 N 
ATOM     53  N   UNL A   1      39.268  30.725  32.218  1.00  0.00    -0.248 NA
ATOM     54  C   UNL A   1      37.377  32.072  31.989  1.00  0.00     0.031 C 
ATOM     55  C   UNL A   1      41.549  30.229  35.989  1.00  0.00     0.029 A 
ATOM     56  C   UNL A   1      40.815  30.407  34.828  1.00  0.00     0.049 A 
ATOM     57  H   UNL A   1      41.076  29.506  32.938  1.00  0.00     0.167 HD
ATOM     58  C   UNL A   1      39.009  31.360  33.429  1.00  0.00     0.074 A 
ATOM     59  C   UNL A   1      37.854  32.205  33.218  1.00  0.00     0.031 C 
ATOM     60  C   UNL A   1      39.672  31.256  34.608  1.00  0.00     0.037 A 
BRANCH  47  61
ATOM     61  C   UNL A   1      44.425  27.314  34.424  1.00  0.00     0.057 A 
ATOM     62  C   UNL A   1      45.706  27.875  34.505  1.00  0.00     0.134 A 
ATOM     63  C   UNL A   1      44.212  26.095  35.082  1.00  0.00     0.134 A 
ATOM     64  F   UNL A   1      45.983  29.032  33.883  1.00  0.00    -0.206 F 
ATOM     65  C   UNL A   1      46.742  27.236  35.189  1.00  0.00     0.040 A 
ATOM     66  C   UNL A   1      45.232  25.462  35.795  1.00  0.00     0.040 A 
ATOM     67  F   UNL A   1      43.009  25.503  35.049  1.00  0.00    -0.206 F 
ATOM     68  C   UNL A   1      46.503  26.030  35.844  1.00  0.00     0.006 A 
ENDBRANCH  47  61
BRANCH  48  69
ATOM     69  C   UNL A   1      37.044  31.445  29.161  1.00  0.00     0.057 A 
ATOM     70  C   UNL A   1      37.108  32.769  28.706  1.00  0.00     0.134 A 
ATOM     71  C   UNL A   1      35.862  30.738  28.910  1.00  0.00     0.134 A 
ATOM     72  F   UNL A   1      38.201  33.510  28.941  1.00  0.00    -0.206 F 
ATOM     73  C   UNL A   1      36.033  33.372  28.051  1.00  0.00     0.040 A 
ATOM     74  C   UNL A   1      34.788  31.320  28.231  1.00  0.00     0.040 A 
ATOM     75  F   UNL A   1      35.730  29.469  29.324  1.00  0.00    -0.206 F 
ATOM     76  C   UNL A   1      34.870  32.644  27.807  1.00  0.00     0.006 A 
ENDBRANCH  48  69
BRANCH  60  77
ATOM     77  C   UNL A   1      39.205  32.122  35.747  1.00  0.00     0.057 A 
ATOM     78  C   UNL A   1      38.304  31.662  36.717  1.00  0.00     0.134 A 
ATOM     79  C   UNL A   1      39.685  33.431  35.884  1.00  0.00     0.134 A 
ATOM     80  F   UNL A   1      37.799  30.422  36.644  1.00  0.00    -0.206 F 
ATOM     81  C   UNL A   1      37.870  32.486  37.759  1.00  0.00     0.040 A 
ATOM     82  C   UNL A   1      39.282  34.253  36.938  1.00  0.00     0.040 A 
ATOM     83  F   UNL A   1      40.561  33.933  35.001  1.00  0.00    -0.206 F 
ATOM     84  C   UNL A   1      38.362  33.784  37.874  1.00  0.00     0.006 A 
ENDBRANCH  60  77
ENDBRANCH  34  35
ENDBRANCH  27  29
ENDBRANCH  26  27
ENDBRANCH  25  26
ENDBRANCH  24  25
ENDBRANCH  23  24
ENDBRANCH  22  23
ENDBRANCH  21  22
ENDBRANCH   1  21
TORSDOF 22
ENDMDL
MODEL 3
REMARK VINA RESULT:      -9.7      5.860     11.330
REMARK SMILES CN(C)c1cccc(C(=O)CCCC(=O)OCCOCCOCCOC(=O)c2ccc(-c3c4nc(c(-c5c(F)cccc5F)c5ccc([nH]5)c(-c5c(F)cccc5F)c5nc(c(-c6c(F)cccc6F)c6ccc3[nH]6)C=C5)C=C4)cc2)c1
REMARK SMILES IDX 19 1 18 2 17 3 16 4 14 5 15 6 13 7 12 8 11 9 9 10 10 11 8 12
REMARK SMILES IDX 4 13 5 14 82 15 6 16 7 17 2 18 1 19 3 20 20 21 21 22 22 23
REMARK SMILES IDX 23 24 24 25 25 26 26 27 27 28 28 29 29 30 81 31 30 32 80 33
REMARK SMILES IDX 31 34 32 35 33 36 74 37 34 38 79 39 73 40 75 41 35 42 78 43
REMARK SMILES IDX 72 44 71 45 36 47 62 48 45 49 61 50 46 51 49 52 60 53 76 54
REMARK SMILES IDX 47 55 48 56 59 58 77 59 50 60 37 61 38 62 43 63 39 64 40 65
REMARK SMILES IDX 42 66 44 67 41 68 63 69 64 70 69 71 65 72 66 73 68 74 70 75
REMARK SMILES IDX 67 76 51 77 52 78 57 79 53 80 54 81 56 82 58 83 55 84
REMARK H PARENT 75 46 49 57
REMARK Flexibility Score: inf
ROOT
ATOM      1  O   UNL A   1      42.175  19.461  26.945  1.00  0.00    -0.376 OA
ENDROOT
BRANCH   1   2
ATOM      2  C   UNL A   1      41.222  20.304  26.337  1.00  0.00     0.202 C 
BRANCH   2   3
ATOM      3  C   UNL A   1      40.394  21.346  27.105  1.00  0.00     0.261 C 
BRANCH   3   4
ATOM      4  O   UNL A   1      40.310  22.690  26.611  1.00  0.00    -0.463 OA
BRANCH   4   5
ATOM      5  C   UNL A   1      39.088  23.276  26.566  1.00  0.00     0.305 C 
ATOM      6  O   UNL A   1      38.763  24.229  27.267  1.00  0.00    -0.252 OA
BRANCH   5   7
ATOM      7  C   UNL A   1      38.134  22.651  25.547  1.00  0.00     0.123 C 
BRANCH   7   8
ATOM      8  C   UNL A   1      36.810  21.957  25.922  1.00  0.00     0.020 C 
BRANCH   8   9
ATOM      9  C   UNL A   1      36.208  20.850  25.045  1.00  0.00     0.081 C 
BRANCH   9  10
ATOM     10  C   UNL A   1      34.688  20.691  25.094  1.00  0.00     0.162 C 
ATOM     11  O   UNL A   1      33.989  21.469  25.742  1.00  0.00    -0.294 OA
BRANCH  10  12
ATOM     12  C   UNL A   1      34.033  19.556  24.383  1.00  0.00     0.020 A 
ATOM     13  C   UNL A   1      33.714  17.146  24.235  1.00  0.00     0.037 A 
ATOM     14  C   UNL A   1      32.562  17.358  23.486  1.00  0.00     0.026 A 
ATOM     15  C   UNL A   1      34.493  18.258  24.552  1.00  0.00     0.037 A 
ATOM     16  C   UNL A   1      32.177  18.658  23.134  1.00  0.00     0.003 A 
ATOM     17  C   UNL A   1      32.887  19.761  23.619  1.00  0.00     0.012 A 
BRANCH  13  18
ATOM     18  N   UNL A   1      34.066  15.923  24.785  1.00  0.00    -0.378 N 
ATOM     19  C   UNL A   1      35.405  15.829  25.364  1.00  0.00     0.143 C 
ATOM     20  C   UNL A   1      33.023  15.114  25.385  1.00  0.00     0.143 C 
ENDBRANCH  13  18
ENDBRANCH  10  12
ENDBRANCH   9  10
ENDBRANCH   8   9
ENDBRANCH   7   8
ENDBRANCH   5   7
ENDBRANCH   4   5
ENDBRANCH   3   4
ENDBRANCH   2   3
ENDBRANCH   1   2
BRANCH   1  21
ATOM     21  C   UNL A   1      43.001  18.665  26.129  1.00  0.00     0.188 C 
BRANCH  21  22
ATOM     22  C   UNL A   1      43.665  19.463  24.987  1.00  0.00     0.188 C 
BRANCH  22  23
ATOM     23  O   UNL A   1      44.762  20.316  25.264  1.00  0.00    -0.376 OA
BRANCH  23  24
ATOM     24  C   UNL A   1      44.483  21.690  25.497  1.00  0.00     0.202 C 
BRANCH  24  25
ATOM     25  C   UNL A   1      44.178  22.625  24.306  1.00  0.00     0.261 C 
BRANCH  25  26
ATOM     26  O   UNL A   1      43.427  23.824  24.606  1.00  0.00    -0.460 OA
BRANCH  26  27
ATOM     27  C   UNL A   1      44.136  24.865  25.119  1.00  0.00     0.338 C 
ATOM     28  O   UNL A   1      45.219  25.273  24.722  1.00  0.00    -0.246 OA
BRANCH  27  29
ATOM     29  C   UNL A   1      43.311  25.641  26.086  1.00  0.00     0.060 A 
ATOM     30  C   UNL A   1      43.521  27.030  26.171  1.00  0.00     0.016 A 
ATOM     31  C   UNL A   1      42.377  25.032  26.924  1.00  0.00     0.016 A 
ATOM     32  C   UNL A   1      42.845  27.801  27.119  1.00  0.00     0.010 A 
ATOM     33  C   UNL A   1      41.728  25.802  27.905  1.00  0.00     0.010 A 
ATOM     34  C   UNL A   1      41.996  27.178  28.039  1.00  0.00    -0.014 A 
BRANCH  34  35
ATOM     35  C   UNL A   1      41.634  27.909  29.285  1.00  0.00     0.031 A 
ATOM     36  C   UNL A   1      40.419  28.804  29.249  1.00  0.00     0.074 A 
ATOM     37  C   UNL A   1      42.303  27.750  30.442  1.00  0.00     0.049 A 
ATOM     38  N   UNL A   1      39.904  29.556  30.189  1.00  0.00    -0.248 NA
ATOM     39  C   UNL A   1      39.687  28.853  27.972  1.00  0.00     0.031 C 
ATOM     40  C   UNL A   1      43.455  26.875  30.644  1.00  0.00     0.029 A 
ATOM     41  N   UNL A   1      42.100  28.331  31.672  1.00  0.00    -0.354 N 
ATOM     42  C   UNL A   1      38.798  30.172  29.614  1.00  0.00     0.074 A 
ATOM     43  C   UNL A   1      38.736  29.735  28.238  1.00  0.00     0.031 C 
ATOM     44  C   UNL A   1      43.867  26.988  31.921  1.00  0.00     0.029 A 
ATOM     45  C   UNL A   1      43.025  27.960  32.618  1.00  0.00     0.049 A 
ATOM     46  H   UNL A   1      41.362  28.955  31.857  1.00  0.00     0.167 HD
ATOM     47  C   UNL A   1      37.905  31.019  30.180  1.00  0.00     0.037 A 
ATOM     48  C   UNL A   1      43.183  28.371  33.893  1.00  0.00     0.037 A 
ATOM     49  C   UNL A   1      37.957  31.460  31.548  1.00  0.00     0.049 A 
ATOM     50  C   UNL A   1      42.220  29.374  34.481  1.00  0.00     0.074 A 
ATOM     51  C   UNL A   1      37.093  32.314  32.212  1.00  0.00     0.029 A 
ATOM     52  N   UNL A   1      38.931  31.088  32.461  1.00  0.00    -0.354 N 
ATOM     53  N   UNL A   1      41.173  29.941  33.933  1.00  0.00    -0.248 NA
ATOM     54  C   UNL A   1      42.460  29.786  35.873  1.00  0.00     0.031 C 
ATOM     55  C   UNL A   1      37.576  32.502  33.511  1.00  0.00     0.029 A 
ATOM     56  C   UNL A   1      38.702  31.713  33.677  1.00  0.00     0.049 A 
ATOM     57  H   UNL A   1      39.675  30.471  32.274  1.00  0.00     0.167 HD
ATOM     58  C   UNL A   1      40.608  30.741  34.922  1.00  0.00     0.074 A 
ATOM     59  C   UNL A   1      41.423  30.578  36.106  1.00  0.00     0.031 C 
ATOM     60  C   UNL A   1      39.510  31.536  34.856  1.00  0.00     0.037 A 
BRANCH  47  61
ATOM     61  C   UNL A   1      36.808  31.551  29.301  1.00  0.00     0.057 A 
ATOM     62  C   UNL A   1      36.816  32.863  28.810  1.00  0.00     0.134 A 
ATOM     63  C   UNL A   1      35.739  30.728  28.923  1.00  0.00     0.134 A 
ATOM     64  F   UNL A   1      37.801  33.710  29.147  1.00  0.00    -0.206 F 
ATOM     65  C   UNL A   1      35.787  33.347  27.999  1.00  0.00     0.040 A 
ATOM     66  C   UNL A   1      34.721  31.190  28.087  1.00  0.00     0.040 A 
ATOM     67  F   UNL A   1      35.670  29.459  29.353  1.00  0.00    -0.206 F 
ATOM     68  C   UNL A   1      34.740  32.504  27.628  1.00  0.00     0.006 A 
ENDBRANCH  47  61
BRANCH  48  69
ATOM     69  C   UNL A   1      44.306  27.848  34.715  1.00  0.00     0.057 A 
ATOM     70  C   UNL A   1      44.149  26.724  35.536  1.00  0.00     0.134 A 
ATOM     71  C   UNL A   1      45.552  28.486  34.735  1.00  0.00     0.134 A 
ATOM     72  F   UNL A   1      42.970  26.085  35.586  1.00  0.00    -0.206 F 
ATOM     73  C   UNL A   1      45.179  26.267  36.361  1.00  0.00     0.040 A 
ATOM     74  C   UNL A   1      46.601  28.024  35.533  1.00  0.00     0.040 A 
ATOM     75  F   UNL A   1      45.769  29.573  33.978  1.00  0.00    -0.206 F 
ATOM     76  C   UNL A   1      46.412  26.916  36.356  1.00  0.00     0.006 A 
ENDBRANCH  48  69
BRANCH  60  77
ATOM     77  C   UNL A   1      39.088  32.243  36.115  1.00  0.00     0.057 A 
ATOM     78  C   UNL A   1      39.518  33.540  36.427  1.00  0.00     0.134 A 
ATOM     79  C   UNL A   1      38.218  31.620  37.020  1.00  0.00     0.134 A 
ATOM     80  F   UNL A   1      40.357  34.194  35.609  1.00  0.00    -0.206 F 
ATOM     81  C   UNL A   1      39.127  34.175  37.609  1.00  0.00     0.040 A 
ATOM     82  C   UNL A   1      37.796  32.256  38.188  1.00  0.00     0.040 A 
ATOM     83  F   UNL A   1      37.755  30.384  36.780  1.00  0.00    -0.206 F 
ATOM     84  C   UNL A   1      38.261  33.534  38.491  1.00  0.00     0.006 A 
ENDBRANCH  60  77
ENDBRANCH  34  35
ENDBRANCH  27  29
ENDBRANCH  26  27
ENDBRANCH  25  26
ENDBRANCH  24  25
ENDBRANCH  23  24
ENDBRANCH  22  23
ENDBRANCH  21  22
ENDBRANCH   1  21
TORSDOF 22
ENDMDL
