MODEL 1
REMARK VINA RESULT:      -9.9      0.000      0.000
REMARK SMILES Cc1cnn(-c2ccccc2OCC(=O)OCCOCCOCCOC(=O)c2ccc(-c3c4nc(c(-c5c(F)cccc5F)c5ccc([nH]5)c(-c5c(F)cccc5F)c5nc(c(-c6c(F)cccc6F)c6ccc3[nH]6)C=C5)C=C4)cc2)c1
REMARK SMILES IDX 20 1 19 2 18 3 17 4 16 5 14 6 15 7 13 8 12 9 11 10 6 11 7 12
REMARK SMILES IDX 8 13 10 14 9 15 5 16 1 17 2 18 3 19 82 20 4 21 21 22 22 23
REMARK SMILES IDX 23 24 24 25 25 26 26 27 27 28 28 29 29 30 81 31 30 32 80 33
REMARK SMILES IDX 31 34 32 35 33 36 74 37 34 38 79 39 73 40 75 41 35 42 78 43
REMARK SMILES IDX 72 44 71 45 36 47 62 48 45 49 61 50 46 51 49 52 60 53 76 54
REMARK SMILES IDX 47 55 48 56 59 58 77 59 50 60 37 61 38 62 43 63 39 64 40 65
REMARK SMILES IDX 42 66 44 67 41 68 63 69 64 70 69 71 65 72 66 73 68 74 70 75
REMARK SMILES IDX 67 76 51 77 52 78 57 79 53 80 54 81 56 82 58 83 55 84
REMARK H PARENT 75 46 49 57
REMARK Flexibility Score: inf
ROOT
ATOM      1  C   UNL A   1      34.629  30.627  27.778  1.00  0.00     0.188 C 
ENDROOT
BRANCH   1   2
ATOM      2  O   UNL A   1      34.021  29.892  26.719  1.00  0.00    -0.376 OA
BRANCH   2   3
ATOM      3  C   UNL A   1      32.659  29.516  26.865  1.00  0.00     0.202 C 
BRANCH   3   4
ATOM      4  C   UNL A   1      31.914  29.015  25.619  1.00  0.00     0.261 C 
BRANCH   4   5
ATOM      5  O   UNL A   1      31.707  27.589  25.557  1.00  0.00    -0.461 OA
BRANCH   5   6
ATOM      6  C   UNL A   1      32.772  26.825  25.187  1.00  0.00     0.344 C 
ATOM      7  O   UNL A   1      33.624  27.167  24.374  1.00  0.00    -0.248 OA
BRANCH   6   8
ATOM      8  C   UNL A   1      32.742  25.423  25.816  1.00  0.00     0.352 C 
BRANCH   8   9
ATOM      9  O   UNL A   1      33.269  24.288  25.190  1.00  0.00    -0.480 OA
BRANCH   9  10
ATOM     10  C   UNL A   1      34.291  23.436  25.451  1.00  0.00     0.145 A 
ATOM     11  C   UNL A   1      34.514  22.050  25.369  1.00  0.00     0.107 A 
ATOM     12  C   UNL A   1      35.855  21.575  25.502  1.00  0.00     0.032 A 
ATOM     13  C   UNL A   1      36.948  22.418  25.695  1.00  0.00     0.003 A 
ATOM     14  C   UNL A   1      35.428  24.257  25.695  1.00  0.00     0.049 A 
ATOM     15  C   UNL A   1      36.732  23.773  25.794  1.00  0.00     0.004 A 
BRANCH  11  16
ATOM     16  N   UNL A   1      33.580  21.024  25.024  1.00  0.00    -0.237 N 
ATOM     17  C   UNL A   1      32.157  18.549  22.755  1.00  0.00     0.048 C 
ATOM     18  C   UNL A   1      32.601  19.411  23.871  1.00  0.00    -0.013 A 
ATOM     19  C   UNL A   1      32.796  19.045  25.209  1.00  0.00     0.139 A 
ATOM     20  C   UNL A   1      32.917  20.754  23.856  1.00  0.00     0.118 A 
ATOM     21  N   UNL A   1      33.297  20.042  25.935  1.00  0.00    -0.176 NA
ENDBRANCH  11  16
ENDBRANCH   9  10
ENDBRANCH   8   9
ENDBRANCH   6   8
ENDBRANCH   5   6
ENDBRANCH   4   5
ENDBRANCH   3   4
ENDBRANCH   2   3
ENDBRANCH   1   2
BRANCH   1  22
ATOM     22  C   UNL A   1      34.041  31.994  28.198  1.00  0.00     0.188 C 
BRANCH  22  23
ATOM     23  O   UNL A   1      34.728  33.097  27.632  1.00  0.00    -0.376 OA
BRANCH  23  24
ATOM     24  C   UNL A   1      34.643  34.335  28.308  1.00  0.00     0.202 C 
BRANCH  24  25
ATOM     25  C   UNL A   1      33.575  34.422  29.391  1.00  0.00     0.261 C 
BRANCH  25  26
ATOM     26  O   UNL A   1      33.923  35.252  30.489  1.00  0.00    -0.460 OA
BRANCH  26  27
ATOM     27  C   UNL A   1      33.191  35.042  31.601  1.00  0.00     0.338 C 
ATOM     28  O   UNL A   1      32.026  35.348  31.777  1.00  0.00    -0.246 OA
BRANCH  27  29
ATOM     29  C   UNL A   1      34.089  34.554  32.663  1.00  0.00     0.060 A 
ATOM     30  C   UNL A   1      35.155  35.410  32.928  1.00  0.00     0.016 A 
ATOM     31  C   UNL A   1      34.196  33.160  32.777  1.00  0.00     0.016 A 
ATOM     32  C   UNL A   1      36.414  34.869  32.889  1.00  0.00     0.010 A 
ATOM     33  C   UNL A   1      35.455  32.621  32.716  1.00  0.00     0.010 A 
ATOM     34  C   UNL A   1      36.536  33.498  32.647  1.00  0.00    -0.014 A 
BRANCH  34  35
ATOM     35  C   UNL A   1      37.861  33.004  32.351  1.00  0.00     0.031 A 
ATOM     36  C   UNL A   1      38.787  33.090  33.499  1.00  0.00     0.074 A 
ATOM     37  C   UNL A   1      38.147  32.431  31.167  1.00  0.00     0.049 A 
ATOM     38  N   UNL A   1      39.968  33.605  33.550  1.00  0.00    -0.248 NA
ATOM     39  C   UNL A   1      38.260  32.641  34.801  1.00  0.00     0.031 C 
ATOM     40  C   UNL A   1      37.214  32.066  30.094  1.00  0.00     0.029 A 
ATOM     41  N   UNL A   1      39.329  31.918  30.736  1.00  0.00    -0.354 N 
ATOM     42  C   UNL A   1      40.407  33.384  34.851  1.00  0.00     0.074 A 
ATOM     43  C   UNL A   1      39.271  32.938  35.610  1.00  0.00     0.031 C 
ATOM     44  C   UNL A   1      37.818  31.177  29.275  1.00  0.00     0.029 A 
ATOM     45  C   UNL A   1      39.192  30.994  29.713  1.00  0.00     0.049 A 
ATOM     46  H   UNL A   1      40.199  32.178  31.115  1.00  0.00     0.167 HD
ATOM     47  C   UNL A   1      41.728  33.339  35.154  1.00  0.00     0.037 A 
ATOM     48  C   UNL A   1      40.108  30.063  29.350  1.00  0.00     0.037 A 
ATOM     49  C   UNL A   1      42.514  34.084  34.209  1.00  0.00     0.049 A 
ATOM     50  C   UNL A   1      41.415  30.452  29.941  1.00  0.00     0.074 A 
ATOM     51  C   UNL A   1      42.521  35.400  33.783  1.00  0.00     0.029 A 
ATOM     52  N   UNL A   1      43.269  33.397  33.291  1.00  0.00    -0.354 N 
ATOM     53  N   UNL A   1      42.134  31.465  29.548  1.00  0.00    -0.248 NA
ATOM     54  C   UNL A   1      41.732  29.945  31.270  1.00  0.00     0.031 C 
ATOM     55  C   UNL A   1      42.877  35.349  32.406  1.00  0.00     0.029 A 
ATOM     56  C   UNL A   1      43.083  34.008  32.079  1.00  0.00     0.049 A 
ATOM     57  H   UNL A   1      43.836  32.612  33.470  1.00  0.00     0.167 HD
ATOM     58  C   UNL A   1      42.695  31.977  30.711  1.00  0.00     0.074 A 
ATOM     59  C   UNL A   1      42.499  30.941  31.718  1.00  0.00     0.031 C 
ATOM     60  C   UNL A   1      43.010  33.300  30.824  1.00  0.00     0.037 A 
BRANCH  47  61
ATOM     61  C   UNL A   1      42.306  32.294  36.076  1.00  0.00     0.057 A 
ATOM     62  C   UNL A   1      43.179  32.698  37.099  1.00  0.00     0.134 A 
ATOM     63  C   UNL A   1      42.283  30.904  35.823  1.00  0.00     0.134 A 
ATOM     64  F   UNL A   1      43.296  33.992  37.431  1.00  0.00    -0.206 F 
ATOM     65  C   UNL A   1      44.030  31.801  37.754  1.00  0.00     0.040 A 
ATOM     66  C   UNL A   1      43.089  29.994  36.509  1.00  0.00     0.040 A 
ATOM     67  F   UNL A   1      41.561  30.355  34.838  1.00  0.00    -0.206 F 
ATOM     68  C   UNL A   1      43.995  30.445  37.451  1.00  0.00     0.006 A 
ENDBRANCH  47  61
BRANCH  48  69
ATOM     69  C   UNL A   1      39.860  28.713  28.792  1.00  0.00     0.057 A 
ATOM     70  C   UNL A   1      40.353  28.350  27.533  1.00  0.00     0.134 A 
ATOM     71  C   UNL A   1      39.331  27.667  29.570  1.00  0.00     0.134 A 
ATOM     72  F   UNL A   1      40.928  29.264  26.737  1.00  0.00    -0.206 F 
ATOM     73  C   UNL A   1      40.324  27.027  27.075  1.00  0.00     0.040 A 
ATOM     74  C   UNL A   1      39.279  26.345  29.118  1.00  0.00     0.040 A 
ATOM     75  F   UNL A   1      38.923  27.871  30.831  1.00  0.00    -0.206 F 
ATOM     76  C   UNL A   1      39.786  26.018  27.869  1.00  0.00     0.006 A 
ENDBRANCH  48  69
BRANCH  60  77
ATOM     77  C   UNL A   1      42.991  34.135  29.576  1.00  0.00     0.057 A 
ATOM     78  C   UNL A   1      41.860  34.833  29.130  1.00  0.00     0.134 A 
ATOM     79  C   UNL A   1      44.189  34.360  28.889  1.00  0.00     0.134 A 
ATOM     80  F   UNL A   1      40.698  34.766  29.794  1.00  0.00    -0.206 F 
ATOM     81  C   UNL A   1      41.907  35.676  28.016  1.00  0.00     0.040 A 
ATOM     82  C   UNL A   1      44.257  35.225  27.795  1.00  0.00     0.040 A 
ATOM     83  F   UNL A   1      45.326  33.776  29.300  1.00  0.00    -0.206 F 
ATOM     84  C   UNL A   1      43.111  35.877  27.347  1.00  0.00     0.006 A 
ENDBRANCH  60  77
ENDBRANCH  34  35
ENDBRANCH  27  29
ENDBRANCH  26  27
ENDBRANCH  25  26
ENDBRANCH  24  25
ENDBRANCH  23  24
ENDBRANCH  22  23
ENDBRANCH   1  22
TORSDOF 20
ENDMDL
MODEL 2
REMARK VINA RESULT:      -9.8      5.536     10.707
REMARK SMILES Cc1cnn(-c2ccccc2OCC(=O)OCCOCCOCCOC(=O)c2ccc(-c3c4nc(c(-c5c(F)cccc5F)c5ccc([nH]5)c(-c5c(F)cccc5F)c5nc(c(-c6c(F)cccc6F)c6ccc3[nH]6)C=C5)C=C4)cc2)c1
REMARK SMILES IDX 20 1 19 2 18 3 17 4 16 5 14 6 15 7 13 8 12 9 11 10 6 11 7 12
REMARK SMILES IDX 8 13 10 14 9 15 5 16 1 17 2 18 3 19 82 20 4 21 21 22 22 23
REMARK SMILES IDX 23 24 24 25 25 26 26 27 27 28 28 29 29 30 81 31 30 32 80 33
REMARK SMILES IDX 31 34 32 35 33 36 74 37 34 38 79 39 73 40 75 41 35 42 78 43
REMARK SMILES IDX 72 44 71 45 36 47 62 48 45 49 61 50 46 51 49 52 60 53 76 54
REMARK SMILES IDX 47 55 48 56 59 58 77 59 50 60 37 61 38 62 43 63 39 64 40 65
REMARK SMILES IDX 42 66 44 67 41 68 63 69 64 70 69 71 65 72 66 73 68 74 70 75
REMARK SMILES IDX 67 76 51 77 52 78 57 79 53 80 54 81 56 82 58 83 55 84
REMARK H PARENT 75 46 49 57
REMARK Flexibility Score: inf
ROOT
ATOM      1  C   UNL A   1      39.346  22.147  26.221  1.00  0.00     0.188 C 
ENDROOT
BRANCH   1   2
ATOM      2  O   UNL A   1      37.936  22.195  26.019  1.00  0.00    -0.376 OA
BRANCH   2   3
ATOM      3  C   UNL A   1      37.371  21.309  25.063  1.00  0.00     0.202 C 
BRANCH   3   4
ATOM      4  C   UNL A   1      35.875  21.454  24.745  1.00  0.00     0.261 C 
BRANCH   4   5
ATOM      5  O   UNL A   1      34.978  20.941  25.752  1.00  0.00    -0.461 OA
BRANCH   5   6
ATOM      6  C   UNL A   1      34.077  21.814  26.279  1.00  0.00     0.344 C 
ATOM      7  O   UNL A   1      33.870  21.959  27.479  1.00  0.00    -0.248 OA
BRANCH   6   8
ATOM      8  C   UNL A   1      33.248  22.533  25.202  1.00  0.00     0.352 C 
BRANCH   8   9
ATOM      9  O   UNL A   1      33.148  23.925  25.111  1.00  0.00    -0.480 OA
BRANCH   9  10
ATOM     10  C   UNL A   1      32.881  24.806  24.115  1.00  0.00     0.145 A 
ATOM     11  C   UNL A   1      32.764  26.200  23.986  1.00  0.00     0.107 A 
ATOM     12  C   UNL A   1      32.722  26.754  22.669  1.00  0.00     0.032 A 
ATOM     13  C   UNL A   1      32.806  25.979  21.513  1.00  0.00     0.003 A 
ATOM     14  C   UNL A   1      32.917  24.048  22.910  1.00  0.00     0.049 A 
ATOM     15  C   UNL A   1      32.902  24.612  21.634  1.00  0.00     0.004 A 
BRANCH  11  16
ATOM     16  N   UNL A   1      32.819  27.190  25.016  1.00  0.00    -0.237 N 
ATOM     17  C   UNL A   1      34.593  29.383  27.328  1.00  0.00     0.048 C 
ATOM     18  C   UNL A   1      33.660  28.662  26.437  1.00  0.00    -0.013 A 
ATOM     19  C   UNL A   1      32.573  29.190  25.727  1.00  0.00     0.139 A 
ATOM     20  C   UNL A   1      33.638  27.322  26.107  1.00  0.00     0.118 A 
ATOM     21  N   UNL A   1      32.000  28.284  24.938  1.00  0.00    -0.176 NA
ENDBRANCH  11  16
ENDBRANCH   9  10
ENDBRANCH   8   9
ENDBRANCH   6   8
ENDBRANCH   5   6
ENDBRANCH   4   5
ENDBRANCH   3   4
ENDBRANCH   2   3
ENDBRANCH   1   2
BRANCH   1  22
ATOM     22  C   UNL A   1      40.077  20.784  26.208  1.00  0.00     0.188 C 
BRANCH  22  23
ATOM     23  O   UNL A   1      41.232  20.760  27.030  1.00  0.00    -0.376 OA
BRANCH  23  24
ATOM     24  C   UNL A   1      41.898  19.523  27.181  1.00  0.00     0.202 C 
BRANCH  24  25
ATOM     25  C   UNL A   1      42.732  19.073  25.988  1.00  0.00     0.261 C 
BRANCH  25  26
ATOM     26  O   UNL A   1      43.109  20.122  25.109  1.00  0.00    -0.460 OA
BRANCH  26  27
ATOM     27  C   UNL A   1      44.216  19.873  24.384  1.00  0.00     0.338 C 
ATOM     28  O   UNL A   1      44.622  18.784  24.021  1.00  0.00    -0.246 OA
BRANCH  27  29
ATOM     29  C   UNL A   1      44.984  21.125  24.262  1.00  0.00     0.060 A 
ATOM     30  C   UNL A   1      46.009  21.243  25.198  1.00  0.00     0.016 A 
ATOM     31  C   UNL A   1      44.270  22.233  23.783  1.00  0.00     0.016 A 
ATOM     32  C   UNL A   1      46.032  22.384  25.958  1.00  0.00     0.010 A 
ATOM     33  C   UNL A   1      44.278  23.365  24.556  1.00  0.00     0.010 A 
ATOM     34  C   UNL A   1      45.070  23.365  25.703  1.00  0.00    -0.014 A 
BRANCH  34  35
ATOM     35  C   UNL A   1      44.948  24.426  26.677  1.00  0.00     0.031 A 
ATOM     36  C   UNL A   1      46.159  25.266  26.780  1.00  0.00     0.074 A 
ATOM     37  C   UNL A   1      43.789  24.655  27.321  1.00  0.00     0.049 A 
ATOM     38  N   UNL A   1      46.826  25.598  27.833  1.00  0.00    -0.248 NA
ATOM     39  C   UNL A   1      46.773  25.691  25.509  1.00  0.00     0.031 C 
ATOM     40  C   UNL A   1      42.479  24.043  27.067  1.00  0.00     0.029 A 
ATOM     41  N   UNL A   1      43.510  25.604  28.254  1.00  0.00    -0.354 N 
ATOM     42  C   UNL A   1      47.846  26.425  27.373  1.00  0.00     0.074 A 
ATOM     43  C   UNL A   1      47.862  26.319  25.940  1.00  0.00     0.031 C 
ATOM     44  C   UNL A   1      41.522  24.809  27.635  1.00  0.00     0.029 A 
ATOM     45  C   UNL A   1      42.159  25.894  28.362  1.00  0.00     0.049 A 
ATOM     46  H   UNL A   1      44.201  26.043  28.799  1.00  0.00     0.167 HD
ATOM     47  C   UNL A   1      48.439  27.335  28.185  1.00  0.00     0.037 A 
ATOM     48  C   UNL A   1      41.624  27.017  28.901  1.00  0.00     0.037 A 
ATOM     49  C   UNL A   1      48.342  26.954  29.568  1.00  0.00     0.049 A 
ATOM     50  C   UNL A   1      42.680  27.685  29.708  1.00  0.00     0.074 A 
ATOM     51  C   UNL A   1      48.742  25.847  30.295  1.00  0.00     0.029 A 
ATOM     52  N   UNL A   1      47.463  27.629  30.378  1.00  0.00    -0.354 N 
ATOM     53  N   UNL A   1      43.143  27.236  30.840  1.00  0.00    -0.248 NA
ATOM     54  C   UNL A   1      43.527  28.661  29.035  1.00  0.00     0.031 C 
ATOM     55  C   UNL A   1      47.741  25.670  31.293  1.00  0.00     0.029 A 
ATOM     56  C   UNL A   1      46.803  26.688  31.125  1.00  0.00     0.049 A 
ATOM     57  H   UNL A   1      47.331  28.604  30.415  1.00  0.00     0.167 HD
ATOM     58  C   UNL A   1      44.496  27.547  30.821  1.00  0.00     0.074 A 
ATOM     59  C   UNL A   1      44.651  28.513  29.739  1.00  0.00     0.031 C 
ATOM     60  C   UNL A   1      45.409  26.784  31.489  1.00  0.00     0.037 A 
BRANCH  47  61
ATOM     61  C   UNL A   1      48.745  28.739  27.729  1.00  0.00     0.057 A 
ATOM     62  C   UNL A   1      50.028  29.264  27.956  1.00  0.00     0.134 A 
ATOM     63  C   UNL A   1      47.769  29.690  27.354  1.00  0.00     0.134 A 
ATOM     64  F   UNL A   1      51.042  28.465  28.324  1.00  0.00    -0.206 F 
ATOM     65  C   UNL A   1      50.295  30.636  27.907  1.00  0.00     0.040 A 
ATOM     66  C   UNL A   1      48.039  31.056  27.248  1.00  0.00     0.040 A 
ATOM     67  F   UNL A   1      46.481  29.375  27.166  1.00  0.00    -0.206 F 
ATOM     68  C   UNL A   1      49.296  31.539  27.564  1.00  0.00     0.006 A 
ENDBRANCH  47  61
BRANCH  48  69
ATOM     69  C   UNL A   1      40.369  27.702  28.515  1.00  0.00     0.057 A 
ATOM     70  C   UNL A   1      39.276  27.755  29.389  1.00  0.00     0.134 A 
ATOM     71  C   UNL A   1      40.283  28.519  27.373  1.00  0.00     0.134 A 
ATOM     72  F   UNL A   1      39.285  27.055  30.533  1.00  0.00    -0.206 F 
ATOM     73  C   UNL A   1      38.165  28.571  29.144  1.00  0.00     0.040 A 
ATOM     74  C   UNL A   1      39.172  29.326  27.107  1.00  0.00     0.040 A 
ATOM     75  F   UNL A   1      41.307  28.633  26.516  1.00  0.00    -0.206 F 
ATOM     76  C   UNL A   1      38.111  29.362  28.000  1.00  0.00     0.006 A 
ENDBRANCH  48  69
BRANCH  60  77
ATOM     77  C   UNL A   1      44.894  25.766  32.464  1.00  0.00     0.057 A 
ATOM     78  C   UNL A   1      44.584  26.062  33.800  1.00  0.00     0.134 A 
ATOM     79  C   UNL A   1      44.561  24.488  32.003  1.00  0.00     0.134 A 
ATOM     80  F   UNL A   1      44.764  27.292  34.297  1.00  0.00    -0.206 F 
ATOM     81  C   UNL A   1      44.017  25.110  34.652  1.00  0.00     0.040 A 
ATOM     82  C   UNL A   1      43.963  23.538  32.834  1.00  0.00     0.040 A 
ATOM     83  F   UNL A   1      44.769  24.156  30.719  1.00  0.00    -0.206 F 
ATOM     84  C   UNL A   1      43.701  23.844  34.167  1.00  0.00     0.006 A 
ENDBRANCH  60  77
ENDBRANCH  34  35
ENDBRANCH  27  29
ENDBRANCH  26  27
ENDBRANCH  25  26
ENDBRANCH  24  25
ENDBRANCH  23  24
ENDBRANCH  22  23
ENDBRANCH   1  22
TORSDOF 20
ENDMDL
MODEL 3
REMARK VINA RESULT:      -9.7      4.640      9.545
REMARK SMILES Cc1cnn(-c2ccccc2OCC(=O)OCCOCCOCCOC(=O)c2ccc(-c3c4nc(c(-c5c(F)cccc5F)c5ccc([nH]5)c(-c5c(F)cccc5F)c5nc(c(-c6c(F)cccc6F)c6ccc3[nH]6)C=C5)C=C4)cc2)c1
REMARK SMILES IDX 20 1 19 2 18 3 17 4 16 5 14 6 15 7 13 8 12 9 11 10 6 11 7 12
REMARK SMILES IDX 8 13 10 14 9 15 5 16 1 17 2 18 3 19 82 20 4 21 21 22 22 23
REMARK SMILES IDX 23 24 24 25 25 26 26 27 27 28 28 29 29 30 81 31 30 32 80 33
REMARK SMILES IDX 31 34 32 35 33 36 74 37 34 38 79 39 73 40 75 41 35 42 78 43
REMARK SMILES IDX 72 44 71 45 36 47 62 48 45 49 61 50 46 51 49 52 60 53 76 54
REMARK SMILES IDX 47 55 48 56 59 58 77 59 50 60 37 61 38 62 43 63 39 64 40 65
REMARK SMILES IDX 42 66 44 67 41 68 63 69 64 70 69 71 65 72 66 73 68 74 70 75
REMARK SMILES IDX 67 76 51 77 52 78 57 79 53 80 54 81 56 82 58 83 55 84
REMARK H PARENT 75 46 49 57
REMARK Flexibility Score: inf
ROOT
ATOM      1  C   UNL A   1      38.231  23.873  26.496  1.00  0.00     0.188 C 
ENDROOT
BRANCH   1   2
ATOM      2  O   UNL A   1      37.062  24.074  25.707  1.00  0.00    -0.376 OA
BRANCH   2   3
ATOM      3  C   UNL A   1      36.666  23.031  24.827  1.00  0.00     0.202 C 
BRANCH   3   4
ATOM      4  C   UNL A   1      35.762  23.398  23.640  1.00  0.00     0.261 C 
BRANCH   4   5
ATOM      5  O   UNL A   1      34.732  22.437  23.331  1.00  0.00    -0.461 OA
BRANCH   5   6
ATOM      6  C   UNL A   1      33.512  22.929  22.981  1.00  0.00     0.344 C 
ATOM      7  O   UNL A   1      32.495  22.253  22.870  1.00  0.00    -0.248 OA
BRANCH   6   8
ATOM      8  C   UNL A   1      33.556  24.424  22.625  1.00  0.00     0.352 C 
BRANCH   8   9
ATOM      9  O   UNL A   1      32.623  25.355  23.096  1.00  0.00    -0.480 OA
BRANCH   9  10
ATOM     10  C   UNL A   1      32.674  26.436  23.912  1.00  0.00     0.145 A 
ATOM     11  C   UNL A   1      31.923  27.608  24.105  1.00  0.00     0.107 A 
ATOM     12  C   UNL A   1      32.179  28.386  25.277  1.00  0.00     0.032 A 
ATOM     13  C   UNL A   1      33.125  28.031  26.237  1.00  0.00     0.003 A 
ATOM     14  C   UNL A   1      33.662  26.135  24.893  1.00  0.00     0.049 A 
ATOM     15  C   UNL A   1      33.875  26.895  26.043  1.00  0.00     0.004 A 
BRANCH  11  16
ATOM     16  N   UNL A   1      30.808  28.078  23.344  1.00  0.00    -0.237 N 
ATOM     17  C   UNL A   1      27.335  29.127  22.970  1.00  0.00     0.048 C 
ATOM     18  C   UNL A   1      28.781  28.832  22.882  1.00  0.00    -0.013 A 
ATOM     19  C   UNL A   1      29.773  29.595  22.252  1.00  0.00     0.139 A 
ATOM     20  C   UNL A   1      29.477  27.753  23.386  1.00  0.00     0.118 A 
ATOM     21  N   UNL A   1      30.991  29.095  22.446  1.00  0.00    -0.176 NA
ENDBRANCH  11  16
ENDBRANCH   9  10
ENDBRANCH   8   9
ENDBRANCH   6   8
ENDBRANCH   5   6
ENDBRANCH   4   5
ENDBRANCH   3   4
ENDBRANCH   2   3
ENDBRANCH   1   2
BRANCH   1  22
ATOM     22  C   UNL A   1      39.032  22.558  26.359  1.00  0.00     0.188 C 
BRANCH  22  23
ATOM     23  O   UNL A   1      40.121  22.468  27.263  1.00  0.00    -0.376 OA
BRANCH  23  24
ATOM     24  C   UNL A   1      40.715  21.199  27.443  1.00  0.00     0.202 C 
BRANCH  24  25
ATOM     25  C   UNL A   1      41.404  20.613  26.218  1.00  0.00     0.261 C 
BRANCH  25  26
ATOM     26  O   UNL A   1      42.194  21.542  25.491  1.00  0.00    -0.460 OA
BRANCH  26  27
ATOM     27  C   UNL A   1      43.508  21.249  25.454  1.00  0.00     0.338 C 
ATOM     28  O   UNL A   1      44.026  20.179  25.714  1.00  0.00    -0.246 OA
BRANCH  27  29
ATOM     29  C   UNL A   1      44.257  22.500  25.236  1.00  0.00     0.060 A 
ATOM     30  C   UNL A   1      45.191  22.771  26.233  1.00  0.00     0.016 A 
ATOM     31  C   UNL A   1      43.565  23.515  24.558  1.00  0.00     0.016 A 
ATOM     32  C   UNL A   1      45.121  23.999  26.838  1.00  0.00     0.010 A 
ATOM     33  C   UNL A   1      43.479  24.736  25.174  1.00  0.00     0.010 A 
ATOM     34  C   UNL A   1      44.165  24.908  26.375  1.00  0.00    -0.014 A 
BRANCH  34  35
ATOM     35  C   UNL A   1      43.934  26.080  27.188  1.00  0.00     0.031 A 
ATOM     36  C   UNL A   1      44.943  27.140  26.986  1.00  0.00     0.074 A 
ATOM     37  C   UNL A   1      42.835  26.194  27.957  1.00  0.00     0.049 A 
ATOM     38  N   UNL A   1      45.642  27.772  27.867  1.00  0.00    -0.248 NA
ATOM     39  C   UNL A   1      45.303  27.445  25.589  1.00  0.00     0.031 C 
ATOM     40  C   UNL A   1      41.665  25.309  27.993  1.00  0.00     0.029 A 
ATOM     41  N   UNL A   1      42.471  27.221  28.769  1.00  0.00    -0.354 N 
ATOM     42  C   UNL A   1      46.403  28.684  27.143  1.00  0.00     0.074 A 
ATOM     43  C   UNL A   1      46.276  28.334  25.756  1.00  0.00     0.031 C 
ATOM     44  C   UNL A   1      40.639  25.966  28.577  1.00  0.00     0.029 A 
ATOM     45  C   UNL A   1      41.111  27.263  29.033  1.00  0.00     0.049 A 
ATOM     46  H   UNL A   1      43.111  27.872  29.135  1.00  0.00     0.167 HD
ATOM     47  C   UNL A   1      46.879  29.819  27.715  1.00  0.00     0.037 A 
ATOM     48  C   UNL A   1      40.416  28.341  29.473  1.00  0.00     0.037 A 
ATOM     49  C   UNL A   1      47.025  29.674  29.138  1.00  0.00     0.049 A 
ATOM     50  C   UNL A   1      41.392  29.328  30.006  1.00  0.00     0.074 A 
ATOM     51  C   UNL A   1      47.732  28.809  29.953  1.00  0.00     0.029 A 
ATOM     52  N   UNL A   1      46.123  30.301  29.961  1.00  0.00    -0.354 N 
ATOM     53  N   UNL A   1      42.066  29.180  31.111  1.00  0.00    -0.248 NA
ATOM     54  C   UNL A   1      41.929  30.314  29.079  1.00  0.00     0.031 C 
ATOM     55  C   UNL A   1      46.913  28.621  31.103  1.00  0.00     0.029 A 
ATOM     56  C   UNL A   1      45.767  29.397  30.928  1.00  0.00     0.049 A 
ATOM     57  H   UNL A   1      45.792  31.224  29.872  1.00  0.00     0.167 HD
ATOM     58  C   UNL A   1      43.311  29.734  30.845  1.00  0.00     0.074 A 
ATOM     59  C   UNL A   1      43.133  30.507  29.622  1.00  0.00     0.031 C 
ATOM     60  C   UNL A   1      44.437  29.288  31.477  1.00  0.00     0.037 A 
BRANCH  47  61
ATOM     61  C   UNL A   1      46.826  31.154  27.015  1.00  0.00     0.057 A 
ATOM     62  C   UNL A   1      47.986  31.945  26.972  1.00  0.00     0.134 A 
ATOM     63  C   UNL A   1      45.634  31.820  26.651  1.00  0.00     0.134 A 
ATOM     64  F   UNL A   1      49.181  31.431  27.300  1.00  0.00    -0.206 F 
ATOM     65  C   UNL A   1      47.948  33.313  26.680  1.00  0.00     0.040 A 
ATOM     66  C   UNL A   1      45.594  33.172  26.306  1.00  0.00     0.040 A 
ATOM     67  F   UNL A   1      44.430  31.237  26.703  1.00  0.00    -0.206 F 
ATOM     68  C   UNL A   1      46.747  33.933  26.358  1.00  0.00     0.006 A 
ENDBRANCH  47  61
BRANCH  48  69
ATOM     69  C   UNL A   1      39.008  28.695  29.180  1.00  0.00     0.057 A 
ATOM     70  C   UNL A   1      38.045  28.728  30.196  1.00  0.00     0.134 A 
ATOM     71  C   UNL A   1      38.614  29.234  27.942  1.00  0.00     0.134 A 
ATOM     72  F   UNL A   1      38.340  28.289  31.429  1.00  0.00    -0.206 F 
ATOM     73  C   UNL A   1      36.767  29.265  29.994  1.00  0.00     0.040 A 
ATOM     74  C   UNL A   1      37.336  29.756  27.721  1.00  0.00     0.040 A 
ATOM     75  F   UNL A   1      39.478  29.352  26.924  1.00  0.00    -0.206 F 
ATOM     76  C   UNL A   1      36.410  29.783  28.753  1.00  0.00     0.006 A 
ENDBRANCH  48  69
BRANCH  60  77
ATOM     77  C   UNL A   1      44.265  28.377  32.657  1.00  0.00     0.057 A 
ATOM     78  C   UNL A   1      44.074  26.993  32.544  1.00  0.00     0.134 A 
ATOM     79  C   UNL A   1      44.445  28.891  33.946  1.00  0.00     0.134 A 
ATOM     80  F   UNL A   1      44.004  26.398  31.346  1.00  0.00    -0.206 F 
ATOM     81  C   UNL A   1      44.012  26.164  33.668  1.00  0.00     0.040 A 
ATOM     82  C   UNL A   1      44.419  28.070  35.075  1.00  0.00     0.040 A 
ATOM     83  F   UNL A   1      44.697  30.197  34.125  1.00  0.00    -0.206 F 
ATOM     84  C   UNL A   1      44.190  26.703  34.939  1.00  0.00     0.006 A 
ENDBRANCH  60  77
ENDBRANCH  34  35
ENDBRANCH  27  29
ENDBRANCH  26  27
ENDBRANCH  25  26
ENDBRANCH  24  25
ENDBRANCH  23  24
ENDBRANCH  22  23
ENDBRANCH   1  22
TORSDOF 20
ENDMDL
