MODEL 1
REMARK VINA RESULT:     -10.1      0.000      0.000
REMARK SMILES COc1cc2c[nH]nc2cc1C(=O)OCCOCCOCCOC(=O)c1ccc(-c2c3nc(c(-c4c(F)cccc4F)c4ccc([nH]4)c(-c4c(F)cccc4F)c4nc(c(-c5c(F)cccc5F)c5ccc2[nH]5)C=C4)C=C3)cc1
REMARK SMILES IDX 19 1 18 2 17 3 16 4 15 5 14 6 12 7 13 8 11 9 3 10 4 11 5 12
REMARK SMILES IDX 10 13 6 14 9 15 7 16 8 17 2 19 1 20 20 21 21 22 22 23 23 24
REMARK SMILES IDX 24 25 25 26 26 27 27 28 79 29 28 30 78 31 29 32 30 33 31 34
REMARK SMILES IDX 72 35 32 36 77 37 71 38 73 39 33 40 76 41 70 42 69 43 34 45
REMARK SMILES IDX 60 46 43 47 59 48 44 49 47 50 58 51 74 52 45 53 46 54 57 56
REMARK SMILES IDX 75 57 48 58 35 59 36 60 41 61 37 62 38 63 40 64 42 65 39 66
REMARK SMILES IDX 61 67 62 68 67 69 63 70 64 71 66 72 68 73 65 74 49 75 50 76
REMARK SMILES IDX 55 77 51 78 52 79 54 80 56 81 53 82
REMARK H PARENT 7 18 73 44 47 55
REMARK Flexibility Score: inf
ROOT
ATOM      1  C   UNL A   1      40.181  20.160  26.126  1.00  0.00     0.188 C 
ENDROOT
BRANCH   1   2
ATOM      2  C   UNL A   1      39.275  21.408  26.072  1.00  0.00     0.188 C 
BRANCH   2   3
ATOM      3  O   UNL A   1      38.175  21.430  25.165  1.00  0.00    -0.376 OA
BRANCH   3   4
ATOM      4  C   UNL A   1      36.852  21.472  25.696  1.00  0.00     0.202 C 
BRANCH   4   5
ATOM      5  C   UNL A   1      35.704  21.365  24.691  1.00  0.00     0.261 C 
BRANCH   5   6
ATOM      6  O   UNL A   1      35.481  22.605  23.999  1.00  0.00    -0.460 OA
BRANCH   6   7
ATOM      7  C   UNL A   1      35.344  23.698  24.783  1.00  0.00     0.342 C 
ATOM      8  O   UNL A   1      36.247  24.337  25.300  1.00  0.00    -0.246 OA
BRANCH   7   9
ATOM      9  C   UNL A   1      33.935  24.155  24.818  1.00  0.00     0.104 A 
ATOM     10  C   UNL A   1      33.291  24.823  23.716  1.00  0.00     0.134 A 
ATOM     11  C   UNL A   1      31.940  25.251  23.744  1.00  0.00     0.059 A 
ATOM     12  C   UNL A   1      31.336  24.949  24.958  1.00  0.00     0.023 A 
ATOM     13  C   UNL A   1      33.276  23.879  26.046  1.00  0.00     0.050 A 
ATOM     14  C   UNL A   1      30.039  25.217  25.296  1.00  0.00     0.114 A 
ATOM     15  C   UNL A   1      31.942  24.305  26.092  1.00  0.00     0.093 A 
ATOM     16  N   UNL A   1      29.918  24.765  26.581  1.00  0.00    -0.285 N 
ATOM     17  N   UNL A   1      31.044  24.226  27.086  1.00  0.00    -0.176 NA
ATOM     18  H   UNL A   1      29.079  24.829  27.092  1.00  0.00     0.189 HD
BRANCH  10  19
ATOM     19  O   UNL A   1      33.963  25.214  22.578  1.00  0.00    -0.496 OA
ATOM     20  C   UNL A   1      33.207  26.086  21.744  1.00  0.00     0.278 C 
ENDBRANCH  10  19
ENDBRANCH   7   9
ENDBRANCH   6   7
ENDBRANCH   5   6
ENDBRANCH   4   5
ENDBRANCH   3   4
ENDBRANCH   2   3
ENDBRANCH   1   2
BRANCH   1  21
ATOM     21  O   UNL A   1      41.394  20.360  26.833  1.00  0.00    -0.376 OA
BRANCH  21  22
ATOM     22  C   UNL A   1      42.582  20.019  26.137  1.00  0.00     0.202 C 
BRANCH  22  23
ATOM     23  C   UNL A   1      43.388  21.221  25.631  1.00  0.00     0.261 C 
BRANCH  23  24
ATOM     24  O   UNL A   1      42.671  22.467  25.592  1.00  0.00    -0.460 OA
BRANCH  24  25
ATOM     25  C   UNL A   1      43.383  23.591  25.360  1.00  0.00     0.338 C 
ATOM     26  O   UNL A   1      44.157  23.800  24.443  1.00  0.00    -0.246 OA
BRANCH  25  27
ATOM     27  C   UNL A   1      42.917  24.610  26.326  1.00  0.00     0.060 A 
ATOM     28  C   UNL A   1      43.545  25.862  26.359  1.00  0.00     0.016 A 
ATOM     29  C   UNL A   1      41.832  24.340  27.164  1.00  0.00     0.016 A 
ATOM     30  C   UNL A   1      43.084  26.849  27.237  1.00  0.00     0.010 A 
ATOM     31  C   UNL A   1      41.388  25.319  28.055  1.00  0.00     0.010 A 
ATOM     32  C   UNL A   1      42.020  26.574  28.108  1.00  0.00    -0.014 A 
BRANCH  32  33
ATOM     33  C   UNL A   1      41.646  27.529  29.179  1.00  0.00     0.031 A 
ATOM     34  C   UNL A   1      42.396  27.481  30.480  1.00  0.00     0.074 A 
ATOM     35  C   UNL A   1      40.632  28.398  29.018  1.00  0.00     0.049 A 
ATOM     36  N   UNL A   1      42.185  28.145  31.587  1.00  0.00    -0.248 NA
ATOM     37  C   UNL A   1      43.537  26.554  30.539  1.00  0.00     0.031 C 
ATOM     38  C   UNL A   1      39.846  28.569  27.799  1.00  0.00     0.029 A 
ATOM     39  N   UNL A   1      40.080  29.291  29.905  1.00  0.00    -0.354 N 
ATOM     40  C   UNL A   1      43.161  27.714  32.475  1.00  0.00     0.074 A 
ATOM     41  C   UNL A   1      43.953  26.716  31.786  1.00  0.00     0.031 C 
ATOM     42  C   UNL A   1      38.899  29.499  28.019  1.00  0.00     0.029 A 
ATOM     43  C   UNL A   1      38.992  29.962  29.403  1.00  0.00     0.049 A 
ATOM     44  H   UNL A   1      40.431  29.436  30.813  1.00  0.00     0.167 HD
ATOM     45  C   UNL A   1      43.381  28.115  33.749  1.00  0.00     0.037 A 
ATOM     46  C   UNL A   1      38.151  30.828  30.003  1.00  0.00     0.037 A 
ATOM     47  C   UNL A   1      42.591  29.097  34.441  1.00  0.00     0.049 A 
ATOM     48  C   UNL A   1      38.362  31.189  31.451  1.00  0.00     0.074 A 
ATOM     49  C   UNL A   1      42.756  29.587  35.724  1.00  0.00     0.029 A 
ATOM     50  N   UNL A   1      41.476  29.726  33.910  1.00  0.00    -0.354 N 
ATOM     51  N   UNL A   1      39.310  30.806  32.272  1.00  0.00    -0.248 NA
ATOM     52  C   UNL A   1      37.378  32.100  32.058  1.00  0.00     0.031 C 
ATOM     53  C   UNL A   1      41.712  30.480  35.988  1.00  0.00     0.029 A 
ATOM     54  C   UNL A   1      40.923  30.578  34.853  1.00  0.00     0.049 A 
ATOM     55  H   UNL A   1      41.128  29.588  33.000  1.00  0.00     0.167 HD
ATOM     56  C   UNL A   1      39.054  31.447  33.478  1.00  0.00     0.074 A 
ATOM     57  C   UNL A   1      37.866  32.251  33.283  1.00  0.00     0.031 C 
ATOM     58  C   UNL A   1      39.744  31.379  34.644  1.00  0.00     0.037 A 
BRANCH  45  59
ATOM     59  C   UNL A   1      44.512  27.463  34.487  1.00  0.00     0.057 A 
ATOM     60  C   UNL A   1      45.802  28.006  34.487  1.00  0.00     0.134 A 
ATOM     61  C   UNL A   1      44.299  26.293  35.226  1.00  0.00     0.134 A 
ATOM     62  F   UNL A   1      46.074  29.116  33.784  1.00  0.00    -0.206 F 
ATOM     63  C   UNL A   1      46.850  27.395  35.180  1.00  0.00     0.040 A 
ATOM     64  C   UNL A   1      45.332  25.687  35.941  1.00  0.00     0.040 A 
ATOM     65  F   UNL A   1      43.085  25.725  35.268  1.00  0.00    -0.206 F 
ATOM     66  C   UNL A   1      46.613  26.235  35.915  1.00  0.00     0.006 A 
ENDBRANCH  45  59
BRANCH  46  67
ATOM     67  C   UNL A   1      37.011  31.407  29.249  1.00  0.00     0.057 A 
ATOM     68  C   UNL A   1      35.858  30.657  28.992  1.00  0.00     0.134 A 
ATOM     69  C   UNL A   1      37.061  32.709  28.735  1.00  0.00     0.134 A 
ATOM     70  F   UNL A   1      35.764  29.393  29.431  1.00  0.00    -0.206 F 
ATOM     71  C   UNL A   1      34.801  31.174  28.241  1.00  0.00     0.040 A 
ATOM     72  C   UNL A   1      36.002  33.247  28.002  1.00  0.00     0.040 A 
ATOM     73  F   UNL A   1      38.143  33.476  28.939  1.00  0.00    -0.206 F 
ATOM     74  C   UNL A   1      34.870  32.475  27.747  1.00  0.00     0.006 A 
ENDBRANCH  46  67
BRANCH  58  75
ATOM     75  C   UNL A   1      39.257  32.216  35.788  1.00  0.00     0.057 A 
ATOM     76  C   UNL A   1      38.360  31.716  36.740  1.00  0.00     0.134 A 
ATOM     77  C   UNL A   1      39.734  33.521  35.972  1.00  0.00     0.134 A 
ATOM     78  F   UNL A   1      37.856  30.478  36.615  1.00  0.00    -0.206 F 
ATOM     79  C   UNL A   1      37.944  32.488  37.827  1.00  0.00     0.040 A 
ATOM     80  C   UNL A   1      39.344  34.293  37.065  1.00  0.00     0.040 A 
ATOM     81  F   UNL A   1      40.603  34.056  35.101  1.00  0.00    -0.206 F 
ATOM     82  C   UNL A   1      38.444  33.778  37.996  1.00  0.00     0.006 A 
ENDBRANCH  58  75
ENDBRANCH  32  33
ENDBRANCH  25  27
ENDBRANCH  24  25
ENDBRANCH  23  24
ENDBRANCH  22  23
ENDBRANCH  21  22
ENDBRANCH   1  21
TORSDOF 18
ENDMDL
MODEL 2
REMARK VINA RESULT:     -10.1      5.253     10.967
REMARK SMILES COc1cc2c[nH]nc2cc1C(=O)OCCOCCOCCOC(=O)c1ccc(-c2c3nc(c(-c4c(F)cccc4F)c4ccc([nH]4)c(-c4c(F)cccc4F)c4nc(c(-c5c(F)cccc5F)c5ccc2[nH]5)C=C4)C=C3)cc1
REMARK SMILES IDX 19 1 18 2 17 3 16 4 15 5 14 6 12 7 13 8 11 9 3 10 4 11 5 12
REMARK SMILES IDX 10 13 6 14 9 15 7 16 8 17 2 19 1 20 20 21 21 22 22 23 23 24
REMARK SMILES IDX 24 25 25 26 26 27 27 28 79 29 28 30 78 31 29 32 30 33 31 34
REMARK SMILES IDX 72 35 32 36 77 37 71 38 73 39 33 40 76 41 70 42 69 43 34 45
REMARK SMILES IDX 60 46 43 47 59 48 44 49 47 50 58 51 74 52 45 53 46 54 57 56
REMARK SMILES IDX 75 57 48 58 35 59 36 60 41 61 37 62 38 63 40 64 42 65 39 66
REMARK SMILES IDX 61 67 62 68 67 69 63 70 64 71 66 72 68 73 65 74 49 75 50 76
REMARK SMILES IDX 55 77 51 78 52 79 54 80 56 81 53 82
REMARK H PARENT 7 18 73 44 47 55
REMARK Flexibility Score: inf
ROOT
ATOM      1  C   UNL A   1      32.864  35.638  30.426  1.00  0.00     0.188 C 
ENDROOT
BRANCH   1   2
ATOM      2  C   UNL A   1      34.072  35.130  31.240  1.00  0.00     0.188 C 
BRANCH   2   3
ATOM      3  O   UNL A   1      33.843  34.347  32.409  1.00  0.00    -0.376 OA
BRANCH   3   4
ATOM      4  C   UNL A   1      34.218  34.883  33.676  1.00  0.00     0.202 C 
BRANCH   4   5
ATOM      5  C   UNL A   1      35.383  34.200  34.393  1.00  0.00     0.261 C 
BRANCH   5   6
ATOM      6  O   UNL A   1      35.578  32.851  33.936  1.00  0.00    -0.460 OA
BRANCH   6   7
ATOM      7  C   UNL A   1      36.858  32.413  33.929  1.00  0.00     0.342 C 
ATOM      8  O   UNL A   1      37.316  31.502  34.599  1.00  0.00    -0.246 OA
BRANCH   7   9
ATOM      9  C   UNL A   1      37.640  33.076  32.860  1.00  0.00     0.104 A 
ATOM     10  C   UNL A   1      38.904  33.728  33.091  1.00  0.00     0.134 A 
ATOM     11  C   UNL A   1      39.658  34.354  32.067  1.00  0.00     0.059 A 
ATOM     12  C   UNL A   1      39.022  34.259  30.836  1.00  0.00     0.023 A 
ATOM     13  C   UNL A   1      37.024  33.017  31.581  1.00  0.00     0.050 A 
ATOM     14  C   UNL A   1      39.495  34.748  29.650  1.00  0.00     0.114 A 
ATOM     15  C   UNL A   1      37.754  33.640  30.560  1.00  0.00     0.093 A 
ATOM     16  N   UNL A   1      38.523  34.440  28.739  1.00  0.00    -0.285 N 
ATOM     17  N   UNL A   1      37.465  33.787  29.258  1.00  0.00    -0.176 NA
ATOM     18  H   UNL A   1      38.591  34.675  27.785  1.00  0.00     0.189 HD
BRANCH  10  19
ATOM     19  O   UNL A   1      39.438  33.908  34.348  1.00  0.00    -0.496 OA
ATOM     20  C   UNL A   1      39.124  35.172  34.923  1.00  0.00     0.278 C 
ENDBRANCH  10  19
ENDBRANCH   7   9
ENDBRANCH   6   7
ENDBRANCH   5   6
ENDBRANCH   4   5
ENDBRANCH   3   4
ENDBRANCH   2   3
ENDBRANCH   1   2
BRANCH   1  21
ATOM     21  O   UNL A   1      32.736  35.034  29.149  1.00  0.00    -0.376 OA
BRANCH  21  22
ATOM     22  C   UNL A   1      33.921  34.471  28.608  1.00  0.00     0.202 C 
BRANCH  22  23
ATOM     23  C   UNL A   1      33.761  33.037  28.089  1.00  0.00     0.261 C 
BRANCH  23  24
ATOM     24  O   UNL A   1      34.670  32.076  28.654  1.00  0.00    -0.460 OA
BRANCH  24  25
ATOM     25  C   UNL A   1      34.669  30.832  28.129  1.00  0.00     0.338 C 
ATOM     26  O   UNL A   1      33.806  30.320  27.439  1.00  0.00    -0.246 OA
BRANCH  25  27
ATOM     27  C   UNL A   1      36.003  30.248  28.391  1.00  0.00     0.060 A 
ATOM     28  C   UNL A   1      36.309  29.786  29.677  1.00  0.00     0.016 A 
ATOM     29  C   UNL A   1      36.929  30.116  27.353  1.00  0.00     0.016 A 
ATOM     30  C   UNL A   1      37.551  29.190  29.926  1.00  0.00     0.010 A 
ATOM     31  C   UNL A   1      38.176  29.542  27.609  1.00  0.00     0.010 A 
ATOM     32  C   UNL A   1      38.500  29.089  28.899  1.00  0.00    -0.014 A 
BRANCH  32  33
ATOM     33  C   UNL A   1      39.887  28.646  29.186  1.00  0.00     0.031 A 
ATOM     34  C   UNL A   1      40.819  29.602  29.874  1.00  0.00     0.074 A 
ATOM     35  C   UNL A   1      40.326  27.434  28.805  1.00  0.00     0.049 A 
ATOM     36  N   UNL A   1      42.094  29.476  30.140  1.00  0.00    -0.248 NA
ATOM     37  C   UNL A   1      40.232  30.875  30.321  1.00  0.00     0.031 C 
ATOM     38  C   UNL A   1      39.518  26.402  28.160  1.00  0.00     0.029 A 
ATOM     39  N   UNL A   1      41.578  26.875  28.896  1.00  0.00    -0.354 N 
ATOM     40  C   UNL A   1      42.463  30.651  30.778  1.00  0.00     0.074 A 
ATOM     41  C   UNL A   1      41.284  31.489  30.843  1.00  0.00     0.031 C 
ATOM     42  C   UNL A   1      40.300  25.339  27.896  1.00  0.00     0.029 A 
ATOM     43  C   UNL A   1      41.668  25.631  28.322  1.00  0.00     0.049 A 
ATOM     44  H   UNL A   1      42.338  27.324  29.331  1.00  0.00     0.167 HD
ATOM     45  C   UNL A   1      43.675  31.002  31.269  1.00  0.00     0.037 A 
ATOM     46  C   UNL A   1      42.739  24.832  28.138  1.00  0.00     0.037 A 
ATOM     47  C   UNL A   1      44.851  30.179  31.197  1.00  0.00     0.049 A 
ATOM     48  C   UNL A   1      44.095  25.285  28.612  1.00  0.00     0.074 A 
ATOM     49  C   UNL A   1      46.116  30.438  31.692  1.00  0.00     0.029 A 
ATOM     50  N   UNL A   1      44.909  28.941  30.576  1.00  0.00    -0.354 N 
ATOM     51  N   UNL A   1      44.428  26.382  29.249  1.00  0.00    -0.248 NA
ATOM     52  C   UNL A   1      45.229  24.388  28.334  1.00  0.00     0.031 C 
ATOM     53  C   UNL A   1      46.954  29.378  31.329  1.00  0.00     0.029 A 
ATOM     54  C   UNL A   1      46.198  28.438  30.647  1.00  0.00     0.049 A 
ATOM     55  H   UNL A   1      44.148  28.487  30.147  1.00  0.00     0.167 HD
ATOM     56  C   UNL A   1      45.798  26.295  29.470  1.00  0.00     0.074 A 
ATOM     57  C   UNL A   1      46.235  25.035  28.908  1.00  0.00     0.031 C 
ATOM     58  C   UNL A   1      46.619  27.179  30.089  1.00  0.00     0.037 A 
BRANCH  45  59
ATOM     59  C   UNL A   1      43.791  32.355  31.905  1.00  0.00     0.057 A 
ATOM     60  C   UNL A   1      43.619  32.539  33.283  1.00  0.00     0.134 A 
ATOM     61  C   UNL A   1      44.104  33.480  31.134  1.00  0.00     0.134 A 
ATOM     62  F   UNL A   1      43.301  31.503  34.074  1.00  0.00    -0.206 F 
ATOM     63  C   UNL A   1      43.733  33.801  33.869  1.00  0.00     0.040 A 
ATOM     64  C   UNL A   1      44.243  34.742  31.711  1.00  0.00     0.040 A 
ATOM     65  F   UNL A   1      44.283  33.369  29.809  1.00  0.00    -0.206 F 
ATOM     66  C   UNL A   1      44.052  34.907  33.082  1.00  0.00     0.006 A 
ENDBRANCH  45  59
BRANCH  46  67
ATOM     67  C   UNL A   1      42.587  23.524  27.453  1.00  0.00     0.057 A 
ATOM     68  C   UNL A   1      42.683  23.421  26.061  1.00  0.00     0.134 A 
ATOM     69  C   UNL A   1      42.304  22.354  28.168  1.00  0.00     0.134 A 
ATOM     70  F   UNL A   1      42.920  24.513  25.319  1.00  0.00    -0.206 F 
ATOM     71  C   UNL A   1      42.491  22.205  25.403  1.00  0.00     0.040 A 
ATOM     72  C   UNL A   1      42.133  21.127  27.525  1.00  0.00     0.040 A 
ATOM     73  F   UNL A   1      42.189  22.388  29.505  1.00  0.00    -0.206 F 
ATOM     74  C   UNL A   1      42.219  21.052  26.136  1.00  0.00     0.006 A 
ENDBRANCH  46  67
BRANCH  58  75
ATOM     75  C   UNL A   1      48.066  26.807  30.220  1.00  0.00     0.057 A 
ATOM     76  C   UNL A   1      48.537  26.041  31.293  1.00  0.00     0.134 A 
ATOM     77  C   UNL A   1      48.989  27.172  29.231  1.00  0.00     0.134 A 
ATOM     78  F   UNL A   1      47.706  25.670  32.280  1.00  0.00    -0.206 F 
ATOM     79  C   UNL A   1      49.878  25.662  31.386  1.00  0.00     0.040 A 
ATOM     80  C   UNL A   1      50.326  26.780  29.301  1.00  0.00     0.040 A 
ATOM     81  F   UNL A   1      48.601  27.897  28.172  1.00  0.00    -0.206 F 
ATOM     82  C   UNL A   1      50.775  26.025  30.383  1.00  0.00     0.006 A 
ENDBRANCH  58  75
ENDBRANCH  32  33
ENDBRANCH  25  27
ENDBRANCH  24  25
ENDBRANCH  23  24
ENDBRANCH  22  23
ENDBRANCH  21  22
ENDBRANCH   1  21
TORSDOF 18
ENDMDL
MODEL 3
REMARK VINA RESULT:     -10.1      1.847      2.557
REMARK SMILES COc1cc2c[nH]nc2cc1C(=O)OCCOCCOCCOC(=O)c1ccc(-c2c3nc(c(-c4c(F)cccc4F)c4ccc([nH]4)c(-c4c(F)cccc4F)c4nc(c(-c5c(F)cccc5F)c5ccc2[nH]5)C=C4)C=C3)cc1
REMARK SMILES IDX 19 1 18 2 17 3 16 4 15 5 14 6 12 7 13 8 11 9 3 10 4 11 5 12
REMARK SMILES IDX 10 13 6 14 9 15 7 16 8 17 2 19 1 20 20 21 21 22 22 23 23 24
REMARK SMILES IDX 24 25 25 26 26 27 27 28 79 29 28 30 78 31 29 32 30 33 31 34
REMARK SMILES IDX 72 35 32 36 77 37 71 38 73 39 33 40 76 41 70 42 69 43 34 45
REMARK SMILES IDX 60 46 43 47 59 48 44 49 47 50 58 51 74 52 45 53 46 54 57 56
REMARK SMILES IDX 75 57 48 58 35 59 36 60 41 61 37 62 38 63 40 64 42 65 39 66
REMARK SMILES IDX 61 67 62 68 67 69 63 70 64 71 66 72 68 73 65 74 49 75 50 76
REMARK SMILES IDX 55 77 51 78 52 79 54 80 56 81 53 82
REMARK H PARENT 7 18 73 44 47 55
REMARK Flexibility Score: inf
ROOT
ATOM      1  C   UNL A   1      39.883  21.140  25.905  1.00  0.00     0.188 C 
ENDROOT
BRANCH   1   2
ATOM      2  C   UNL A   1      38.421  21.633  25.860  1.00  0.00     0.188 C 
BRANCH   2   3
ATOM      3  O   UNL A   1      37.799  21.847  24.595  1.00  0.00    -0.376 OA
BRANCH   3   4
ATOM      4  C   UNL A   1      36.399  22.116  24.559  1.00  0.00     0.202 C 
BRANCH   4   5
ATOM      5  C   UNL A   1      35.728  22.447  25.893  1.00  0.00     0.261 C 
BRANCH   5   6
ATOM      6  O   UNL A   1      34.449  23.077  25.709  1.00  0.00    -0.460 OA
BRANCH   6   7
ATOM      7  C   UNL A   1      33.377  22.356  26.110  1.00  0.00     0.342 C 
ATOM      8  O   UNL A   1      32.669  22.587  27.077  1.00  0.00    -0.246 OA
BRANCH   7   9
ATOM      9  C   UNL A   1      33.041  21.308  25.119  1.00  0.00     0.104 A 
ATOM     10  C   UNL A   1      32.586  21.596  23.783  1.00  0.00     0.134 A 
ATOM     11  C   UNL A   1      32.273  20.594  22.831  1.00  0.00     0.059 A 
ATOM     12  C   UNL A   1      32.457  19.320  23.354  1.00  0.00     0.023 A 
ATOM     13  C   UNL A   1      33.202  19.984  25.612  1.00  0.00     0.050 A 
ATOM     14  C   UNL A   1      32.256  18.144  22.688  1.00  0.00     0.114 A 
ATOM     15  C   UNL A   1      32.888  18.982  24.684  1.00  0.00     0.093 A 
ATOM     16  N   UNL A   1      32.538  17.173  23.609  1.00  0.00    -0.285 N 
ATOM     17  N   UNL A   1      32.907  17.647  24.816  1.00  0.00    -0.176 NA
ATOM     18  H   UNL A   1      32.477  16.212  23.408  1.00  0.00     0.189 HD
BRANCH  10  19
ATOM     19  O   UNL A   1      32.297  22.870  23.347  1.00  0.00    -0.496 OA
ATOM     20  C   UNL A   1      33.284  23.408  22.472  1.00  0.00     0.278 C 
ENDBRANCH  10  19
ENDBRANCH   7   9
ENDBRANCH   6   7
ENDBRANCH   5   6
ENDBRANCH   4   5
ENDBRANCH   3   4
ENDBRANCH   2   3
ENDBRANCH   1   2
BRANCH   1  21
ATOM     21  O   UNL A   1      40.412  21.031  27.217  1.00  0.00    -0.376 OA
BRANCH  21  22
ATOM     22  C   UNL A   1      41.690  20.423  27.322  1.00  0.00     0.202 C 
BRANCH  22  23
ATOM     23  C   UNL A   1      42.694  20.871  26.253  1.00  0.00     0.261 C 
BRANCH  23  24
ATOM     24  O   UNL A   1      43.386  22.098  26.537  1.00  0.00    -0.460 OA
BRANCH  24  25
ATOM     25  C   UNL A   1      43.112  23.166  25.756  1.00  0.00     0.338 C 
ATOM     26  O   UNL A   1      43.054  23.197  24.540  1.00  0.00    -0.246 OA
BRANCH  25  27
ATOM     27  C   UNL A   1      42.711  24.272  26.653  1.00  0.00     0.060 A 
ATOM     28  C   UNL A   1      43.491  25.435  26.700  1.00  0.00     0.016 A 
ATOM     29  C   UNL A   1      41.541  24.174  27.410  1.00  0.00     0.016 A 
ATOM     30  C   UNL A   1      43.097  26.505  27.510  1.00  0.00     0.010 A 
ATOM     31  C   UNL A   1      41.162  25.235  28.235  1.00  0.00     0.010 A 
ATOM     32  C   UNL A   1      41.944  26.400  28.302  1.00  0.00    -0.014 A 
BRANCH  32  33
ATOM     33  C   UNL A   1      41.618  27.436  29.313  1.00  0.00     0.031 A 
ATOM     34  C   UNL A   1      42.393  27.455  30.600  1.00  0.00     0.074 A 
ATOM     35  C   UNL A   1      40.625  28.320  29.112  1.00  0.00     0.049 A 
ATOM     36  N   UNL A   1      42.223  28.197  31.663  1.00  0.00    -0.248 NA
ATOM     37  C   UNL A   1      43.510  26.502  30.700  1.00  0.00     0.031 C 
ATOM     38  C   UNL A   1      39.819  28.431  27.899  1.00  0.00     0.029 A 
ATOM     39  N   UNL A   1      40.116  29.286  29.946  1.00  0.00    -0.354 N 
ATOM     40  C   UNL A   1      43.205  27.799  32.559  1.00  0.00     0.074 A 
ATOM     41  C   UNL A   1      43.955  26.736  31.926  1.00  0.00     0.031 C 
ATOM     42  C   UNL A   1      38.902  29.400  28.073  1.00  0.00     0.029 A 
ATOM     43  C   UNL A   1      39.036  29.952  29.420  1.00  0.00     0.049 A 
ATOM     44  H   UNL A   1      40.489  29.481  30.836  1.00  0.00     0.167 HD
ATOM     45  C   UNL A   1      43.462  28.279  33.800  1.00  0.00     0.037 A 
ATOM     46  C   UNL A   1      38.231  30.881  29.976  1.00  0.00     0.037 A 
ATOM     47  C   UNL A   1      42.713  29.327  34.437  1.00  0.00     0.049 A 
ATOM     48  C   UNL A   1      38.481  31.332  31.392  1.00  0.00     0.074 A 
ATOM     49  C   UNL A   1      42.917  29.898  35.681  1.00  0.00     0.029 A 
ATOM     50  N   UNL A   1      41.604  29.950  33.886  1.00  0.00    -0.354 N 
ATOM     51  N   UNL A   1      39.436  30.978  32.219  1.00  0.00    -0.248 NA
ATOM     52  C   UNL A   1      37.535  32.309  31.954  1.00  0.00     0.031 C 
ATOM     53  C   UNL A   1      41.903  30.835  35.903  1.00  0.00     0.029 A 
ATOM     54  C   UNL A   1      41.094  30.879  34.779  1.00  0.00     0.049 A 
ATOM     55  H   UNL A   1      41.234  29.761  32.994  1.00  0.00     0.167 HD
ATOM     56  C   UNL A   1      39.222  31.706  33.383  1.00  0.00     0.074 A 
ATOM     57  C   UNL A   1      38.052  32.528  33.156  1.00  0.00     0.031 C 
ATOM     58  C   UNL A   1      39.933  31.696  34.538  1.00  0.00     0.037 A 
BRANCH  45  59
ATOM     59  C   UNL A   1      44.589  27.646  34.559  1.00  0.00     0.057 A 
ATOM     60  C   UNL A   1      44.408  26.481  35.314  1.00  0.00     0.134 A 
ATOM     61  C   UNL A   1      45.875  28.197  34.513  1.00  0.00     0.134 A 
ATOM     62  F   UNL A   1      43.196  25.914  35.412  1.00  0.00    -0.206 F 
ATOM     63  C   UNL A   1      45.465  25.896  36.015  1.00  0.00     0.040 A 
ATOM     64  C   UNL A   1      46.944  27.609  35.190  1.00  0.00     0.040 A 
ATOM     65  F   UNL A   1      46.114  29.312  33.805  1.00  0.00    -0.206 F 
ATOM     66  C   UNL A   1      46.739  26.457  35.948  1.00  0.00     0.006 A 
ENDBRANCH  45  59
BRANCH  46  67
ATOM     67  C   UNL A   1      37.092  31.439  29.206  1.00  0.00     0.057 A 
ATOM     68  C   UNL A   1      37.134  32.740  28.692  1.00  0.00     0.134 A 
ATOM     69  C   UNL A   1      35.920  30.702  28.997  1.00  0.00     0.134 A 
ATOM     70  F   UNL A   1      38.218  33.507  28.888  1.00  0.00    -0.206 F 
ATOM     71  C   UNL A   1      36.050  33.293  28.010  1.00  0.00     0.040 A 
ATOM     72  C   UNL A   1      34.836  31.234  28.297  1.00  0.00     0.040 A 
ATOM     73  F   UNL A   1      35.812  29.452  29.473  1.00  0.00    -0.206 F 
ATOM     74  C   UNL A   1      34.897  32.537  27.807  1.00  0.00     0.006 A 
ENDBRANCH  46  67
BRANCH  58  75
ATOM     75  C   UNL A   1      39.492  32.622  35.632  1.00  0.00     0.057 A 
ATOM     76  C   UNL A   1      38.587  32.219  36.621  1.00  0.00     0.134 A 
ATOM     77  C   UNL A   1      40.022  33.916  35.729  1.00  0.00     0.134 A 
ATOM     78  F   UNL A   1      38.034  30.997  36.579  1.00  0.00    -0.206 F 
ATOM     79  C   UNL A   1      38.215  33.073  37.661  1.00  0.00     0.040 A 
ATOM     80  C   UNL A   1      39.675  34.771  36.775  1.00  0.00     0.040 A 
ATOM     81  F   UNL A   1      40.901  34.362  34.818  1.00  0.00    -0.206 F 
ATOM     82  C   UNL A   1      38.766  34.351  37.744  1.00  0.00     0.006 A 
ENDBRANCH  58  75
ENDBRANCH  32  33
ENDBRANCH  25  27
ENDBRANCH  24  25
ENDBRANCH  23  24
ENDBRANCH  22  23
ENDBRANCH  21  22
ENDBRANCH   1  21
TORSDOF 18
ENDMDL
