MODEL 1
REMARK VINA RESULT:      -9.9      0.000      0.000
REMARK SMILES Cc1n[nH]c(C)c1S(=O)(=O)N[C@H](C(=O)OCCOCCOCCOC(=O)c1ccc(-c2c3nc(c(-c4c(F)cccc4F)c4ccc([nH]4)c(-c4c(F)cccc4F)c4nc(c(-c5c(F)cccc5F)c5ccc2[nH]5)C=C4)C=C3)cc1)C(C)C
REMARK SMILES IDX 19 1 18 2 17 3 16 4 15 5 13 6 14 7 12 8 11 9 8 11 9 12 10 13
REMARK SMILES IDX 7 14 1 15 2 16 3 17 4 18 5 19 6 21 81 22 82 23 83 24 20 25
REMARK SMILES IDX 21 26 22 27 23 28 24 29 25 30 26 31 27 32 28 33 80 34 29 35
REMARK SMILES IDX 79 36 30 37 31 38 32 39 73 40 33 41 78 42 72 43 74 44 34 45
REMARK SMILES IDX 77 46 71 47 70 48 35 50 61 51 44 52 60 53 45 54 48 55 59 56
REMARK SMILES IDX 75 57 46 58 47 59 58 61 76 62 49 63 36 64 37 65 42 66 38 67
REMARK SMILES IDX 39 68 41 69 43 70 40 71 62 72 63 73 68 74 64 75 65 76 67 77
REMARK SMILES IDX 69 78 66 79 50 80 51 81 56 82 52 83 53 84 55 85 57 86 54 87
REMARK H PARENT 11 10 4 20 74 49 48 60
REMARK Flexibility Score: inf
ROOT
ATOM      1  C   UNL A   1      34.923  32.116  27.784  1.00  0.00     0.188 C 
ENDROOT
BRANCH   1   2
ATOM      2  O   UNL A   1      34.046  31.188  27.160  1.00  0.00    -0.376 OA
BRANCH   2   3
ATOM      3  C   UNL A   1      32.659  31.274  27.500  1.00  0.00     0.202 C 
BRANCH   3   4
ATOM      4  C   UNL A   1      31.705  30.288  26.804  1.00  0.00     0.261 C 
BRANCH   4   5
ATOM      5  O   UNL A   1      31.742  30.314  25.353  1.00  0.00    -0.462 OA
BRANCH   5   6
ATOM      6  C   UNL A   1      31.458  29.146  24.731  1.00  0.00     0.324 C 
ATOM      7  O   UNL A   1      30.812  29.090  23.685  1.00  0.00    -0.250 OA
BRANCH   6   8
ATOM      8  C   UNL A   1      32.110  27.858  25.310  1.00  0.00     0.182 C 
BRANCH   8   9
ATOM      9  N   UNL A   1      31.359  26.770  24.589  1.00  0.00    -0.196 NA
ATOM     10  H   UNL A   1      30.793  27.238  23.881  1.00  0.00     0.142 HD
BRANCH   9  11
ATOM     11  S   UNL A   1      30.327  25.705  25.386  1.00  0.00     0.245 S 
ATOM     12  O   UNL A   1      29.071  25.716  24.687  1.00  0.00    -0.207 OA
ATOM     13  O   UNL A   1      30.411  26.090  26.784  1.00  0.00    -0.207 OA
BRANCH  11  14
ATOM     14  C   UNL A   1      30.855  24.069  25.373  1.00  0.00     0.125 A 
ATOM     15  C   UNL A   1      32.349  24.090  23.209  1.00  0.00     0.070 C 
ATOM     16  C   UNL A   1      31.732  23.489  24.420  1.00  0.00     0.079 A 
ATOM     17  N   UNL A   1      31.973  22.201  24.702  1.00  0.00    -0.179 NA
ATOM     18  N   UNL A   1      31.195  21.943  25.759  1.00  0.00    -0.281 N 
ATOM     19  C   UNL A   1      30.462  23.016  26.183  1.00  0.00     0.052 A 
ATOM     20  H   UNL A   1      31.152  21.059  26.191  1.00  0.00     0.190 HD
ATOM     21  C   UNL A   1      29.477  22.872  27.275  1.00  0.00     0.067 C 
ENDBRANCH  11  14
ENDBRANCH   9  11
ENDBRANCH   8   9
BRANCH   8  22
ATOM     22  C   UNL A   1      33.636  27.655  25.192  1.00  0.00     0.012 C 
ATOM     23  C   UNL A   1      34.076  26.240  25.591  1.00  0.00     0.009 C 
ATOM     24  C   UNL A   1      34.101  27.882  23.741  1.00  0.00     0.009 C 
ENDBRANCH   8  22
ENDBRANCH   6   8
ENDBRANCH   5   6
ENDBRANCH   4   5
ENDBRANCH   3   4
ENDBRANCH   2   3
ENDBRANCH   1   2
BRANCH   1  25
ATOM     25  C   UNL A   1      34.330  33.485  28.125  1.00  0.00     0.188 C 
BRANCH  25  26
ATOM     26  O   UNL A   1      34.918  34.110  29.252  1.00  0.00    -0.376 OA
BRANCH  26  27
ATOM     27  C   UNL A   1      34.055  34.551  30.300  1.00  0.00     0.202 C 
BRANCH  27  28
ATOM     28  C   UNL A   1      34.441  34.139  31.737  1.00  0.00     0.261 C 
BRANCH  28  29
ATOM     29  O   UNL A   1      34.836  32.761  31.916  1.00  0.00    -0.460 OA
BRANCH  29  30
ATOM     30  C   UNL A   1      35.854  32.503  32.772  1.00  0.00     0.338 C 
ATOM     31  O   UNL A   1      35.839  32.654  33.979  1.00  0.00    -0.246 OA
BRANCH  30  32
ATOM     32  C   UNL A   1      36.899  31.737  32.034  1.00  0.00     0.060 A 
ATOM     33  C   UNL A   1      37.840  31.016  32.783  1.00  0.00     0.016 A 
ATOM     34  C   UNL A   1      36.912  31.652  30.639  1.00  0.00     0.016 A 
ATOM     35  C   UNL A   1      38.819  30.249  32.141  1.00  0.00     0.010 A 
ATOM     36  C   UNL A   1      37.901  30.895  29.996  1.00  0.00     0.010 A 
ATOM     37  C   UNL A   1      38.883  30.219  30.742  1.00  0.00    -0.014 A 
BRANCH  37  38
ATOM     38  C   UNL A   1      40.090  29.677  30.060  1.00  0.00     0.031 A 
ATOM     39  C   UNL A   1      41.250  30.613  29.834  1.00  0.00     0.074 A 
ATOM     40  C   UNL A   1      40.178  28.398  29.650  1.00  0.00     0.049 A 
ATOM     41  N   UNL A   1      42.378  30.407  29.204  1.00  0.00    -0.248 NA
ATOM     42  C   UNL A   1      41.113  31.970  30.392  1.00  0.00     0.031 C 
ATOM     43  C   UNL A   1      39.159  27.369  29.838  1.00  0.00     0.029 A 
ATOM     44  N   UNL A   1      41.186  27.751  28.970  1.00  0.00    -0.354 N 
ATOM     45  C   UNL A   1      43.075  31.608  29.278  1.00  0.00     0.074 A 
ATOM     46  C   UNL A   1      42.237  32.543  29.994  1.00  0.00     0.031 C 
ATOM     47  C   UNL A   1      39.586  26.223  29.275  1.00  0.00     0.029 A 
ATOM     48  C   UNL A   1      40.893  26.445  28.656  1.00  0.00     0.049 A 
ATOM     49  H   UNL A   1      42.037  28.184  28.731  1.00  0.00     0.167 HD
ATOM     50  C   UNL A   1      44.305  31.904  28.799  1.00  0.00     0.037 A 
ATOM     51  C   UNL A   1      41.591  25.544  27.933  1.00  0.00     0.037 A 
ATOM     52  C   UNL A   1      45.155  30.976  28.104  1.00  0.00     0.049 A 
ATOM     53  C   UNL A   1      42.930  25.927  27.349  1.00  0.00     0.074 A 
ATOM     54  C   UNL A   1      46.437  31.182  27.621  1.00  0.00     0.029 A 
ATOM     55  N   UNL A   1      44.811  29.673  27.788  1.00  0.00    -0.354 N 
ATOM     56  N   UNL A   1      43.597  27.049  27.463  1.00  0.00    -0.248 NA
ATOM     57  C   UNL A   1      43.615  24.911  26.533  1.00  0.00     0.031 C 
ATOM     58  C   UNL A   1      46.845  30.021  26.959  1.00  0.00     0.029 A 
ATOM     59  C   UNL A   1      45.842  29.073  27.084  1.00  0.00     0.049 A 
ATOM     60  H   UNL A   1      43.961  29.237  28.027  1.00  0.00     0.167 HD
ATOM     61  C   UNL A   1      44.791  26.858  26.774  1.00  0.00     0.074 A 
ATOM     62  C   UNL A   1      44.763  25.511  26.251  1.00  0.00     0.031 C 
ATOM     63  C   UNL A   1      45.819  27.722  26.590  1.00  0.00     0.037 A 
BRANCH  50  64
ATOM     64  C   UNL A   1      44.806  33.305  28.982  1.00  0.00     0.057 A 
ATOM     65  C   UNL A   1      44.524  34.322  28.061  1.00  0.00     0.134 A 
ATOM     66  C   UNL A   1      45.520  33.654  30.136  1.00  0.00     0.134 A 
ATOM     67  F   UNL A   1      43.859  34.048  26.929  1.00  0.00    -0.206 F 
ATOM     68  C   UNL A   1      44.941  35.636  28.279  1.00  0.00     0.040 A 
ATOM     69  C   UNL A   1      45.920  34.968  30.376  1.00  0.00     0.040 A 
ATOM     70  F   UNL A   1      45.821  32.726  31.058  1.00  0.00    -0.206 F 
ATOM     71  C   UNL A   1      45.631  35.963  29.445  1.00  0.00     0.006 A 
ENDBRANCH  50  64
BRANCH  51  72
ATOM     72  C   UNL A   1      41.038  24.186  27.672  1.00  0.00     0.057 A 
ATOM     73  C   UNL A   1      41.547  23.054  28.324  1.00  0.00     0.134 A 
ATOM     74  C   UNL A   1      40.055  23.976  26.697  1.00  0.00     0.134 A 
ATOM     75  F   UNL A   1      42.517  23.183  29.241  1.00  0.00    -0.206 F 
ATOM     76  C   UNL A   1      41.125  21.765  27.990  1.00  0.00     0.040 A 
ATOM     77  C   UNL A   1      39.602  22.695  26.376  1.00  0.00     0.040 A 
ATOM     78  F   UNL A   1      39.532  25.013  26.029  1.00  0.00    -0.206 F 
ATOM     79  C   UNL A   1      40.147  21.583  27.014  1.00  0.00     0.006 A 
ENDBRANCH  51  72
BRANCH  63  80
ATOM     80  C   UNL A   1      47.025  27.228  25.845  1.00  0.00     0.057 A 
ATOM     81  C   UNL A   1      47.187  27.430  24.468  1.00  0.00     0.134 A 
ATOM     82  C   UNL A   1      48.068  26.585  26.529  1.00  0.00     0.134 A 
ATOM     83  F   UNL A   1      46.225  28.030  23.752  1.00  0.00    -0.206 F 
ATOM     84  C   UNL A   1      48.327  26.989  23.795  1.00  0.00     0.040 A 
ATOM     85  C   UNL A   1      49.225  26.167  25.871  1.00  0.00     0.040 A 
ATOM     86  F   UNL A   1      47.986  26.372  27.850  1.00  0.00    -0.206 F 
ATOM     87  C   UNL A   1      49.354  26.362  24.498  1.00  0.00     0.006 A 
ENDBRANCH  63  80
ENDBRANCH  37  38
ENDBRANCH  30  32
ENDBRANCH  29  30
ENDBRANCH  28  29
ENDBRANCH  27  28
ENDBRANCH  26  27
ENDBRANCH  25  26
ENDBRANCH   1  25
TORSDOF 21
ENDMDL
MODEL 2
REMARK VINA RESULT:      -9.6      1.775      2.139
REMARK SMILES Cc1n[nH]c(C)c1S(=O)(=O)N[C@H](C(=O)OCCOCCOCCOC(=O)c1ccc(-c2c3nc(c(-c4c(F)cccc4F)c4ccc([nH]4)c(-c4c(F)cccc4F)c4nc(c(-c5c(F)cccc5F)c5ccc2[nH]5)C=C4)C=C3)cc1)C(C)C
REMARK SMILES IDX 19 1 18 2 17 3 16 4 15 5 13 6 14 7 12 8 11 9 8 11 9 12 10 13
REMARK SMILES IDX 7 14 1 15 2 16 3 17 4 18 5 19 6 21 81 22 82 23 83 24 20 25
REMARK SMILES IDX 21 26 22 27 23 28 24 29 25 30 26 31 27 32 28 33 80 34 29 35
REMARK SMILES IDX 79 36 30 37 31 38 32 39 73 40 33 41 78 42 72 43 74 44 34 45
REMARK SMILES IDX 77 46 71 47 70 48 35 50 61 51 44 52 60 53 45 54 48 55 59 56
REMARK SMILES IDX 75 57 46 58 47 59 58 61 76 62 49 63 36 64 37 65 42 66 38 67
REMARK SMILES IDX 39 68 41 69 43 70 40 71 62 72 63 73 68 74 64 75 65 76 67 77
REMARK SMILES IDX 69 78 66 79 50 80 51 81 56 82 52 83 53 84 55 85 57 86 54 87
REMARK H PARENT 11 10 4 20 74 49 48 60
REMARK Flexibility Score: inf
ROOT
ATOM      1  C   UNL A   1      34.325  30.691  27.448  1.00  0.00     0.188 C 
ENDROOT
BRANCH   1   2
ATOM      2  O   UNL A   1      33.386  30.247  26.479  1.00  0.00    -0.376 OA
BRANCH   2   3
ATOM      3  C   UNL A   1      33.500  28.893  26.034  1.00  0.00     0.202 C 
BRANCH   3   4
ATOM      4  C   UNL A   1      33.394  28.642  24.520  1.00  0.00     0.261 C 
BRANCH   4   5
ATOM      5  O   UNL A   1      33.771  27.308  24.088  1.00  0.00    -0.462 OA
BRANCH   5   6
ATOM      6  C   UNL A   1      33.516  27.010  22.793  1.00  0.00     0.324 C 
ATOM      7  O   UNL A   1      34.006  27.642  21.857  1.00  0.00    -0.250 OA
BRANCH   6   8
ATOM      8  C   UNL A   1      32.683  25.726  22.511  1.00  0.00     0.182 C 
BRANCH   8   9
ATOM      9  N   UNL A   1      33.209  24.772  23.551  1.00  0.00    -0.196 NA
ATOM     10  H   UNL A   1      33.981  25.253  24.012  1.00  0.00     0.142 HD
BRANCH   9  11
ATOM     11  S   UNL A   1      33.778  23.237  23.162  1.00  0.00     0.245 S 
ATOM     12  O   UNL A   1      35.008  23.403  22.437  1.00  0.00    -0.207 OA
ATOM     13  O   UNL A   1      32.639  22.564  22.563  1.00  0.00    -0.207 OA
BRANCH  11  14
ATOM     14  C   UNL A   1      34.165  22.262  24.524  1.00  0.00     0.125 A 
ATOM     15  C   UNL A   1      35.993  23.774  25.660  1.00  0.00     0.070 C 
ATOM     16  C   UNL A   1      35.101  22.591  25.539  1.00  0.00     0.079 A 
ATOM     17  N   UNL A   1      35.154  21.637  26.478  1.00  0.00    -0.179 NA
ATOM     18  N   UNL A   1      34.339  20.679  26.024  1.00  0.00    -0.281 N 
ATOM     19  C   UNL A   1      33.746  20.976  24.828  1.00  0.00     0.052 A 
ATOM     20  H   UNL A   1      34.180  19.836  26.507  1.00  0.00     0.190 HD
ATOM     21  C   UNL A   1      32.896  19.983  24.141  1.00  0.00     0.067 C 
ENDBRANCH  11  14
ENDBRANCH   9  11
ENDBRANCH   8   9
BRANCH   8  22
ATOM     22  C   UNL A   1      31.141  25.793  22.544  1.00  0.00     0.012 C 
ATOM     23  C   UNL A   1      30.551  25.181  23.821  1.00  0.00     0.009 C 
ATOM     24  C   UNL A   1      30.663  27.256  22.478  1.00  0.00     0.009 C 
ENDBRANCH   8  22
ENDBRANCH   6   8
ENDBRANCH   5   6
ENDBRANCH   4   5
ENDBRANCH   3   4
ENDBRANCH   2   3
ENDBRANCH   1   2
BRANCH   1  25
ATOM     25  C   UNL A   1      34.117  32.105  27.996  1.00  0.00     0.188 C 
BRANCH  25  26
ATOM     26  O   UNL A   1      34.939  32.428  29.104  1.00  0.00    -0.376 OA
BRANCH  26  27
ATOM     27  C   UNL A   1      34.373  33.217  30.150  1.00  0.00     0.202 C 
BRANCH  27  28
ATOM     28  C   UNL A   1      34.671  32.768  31.597  1.00  0.00     0.261 C 
BRANCH  28  29
ATOM     29  O   UNL A   1      35.696  33.510  32.292  1.00  0.00    -0.460 OA
BRANCH  29  30
ATOM     30  C   UNL A   1      36.521  32.825  33.118  1.00  0.00     0.338 C 
ATOM     31  O   UNL A   1      36.372  32.660  34.315  1.00  0.00    -0.246 OA
BRANCH  30  32
ATOM     32  C   UNL A   1      37.494  32.066  32.282  1.00  0.00     0.060 A 
ATOM     33  C   UNL A   1      38.210  31.021  32.885  1.00  0.00     0.016 A 
ATOM     34  C   UNL A   1      37.646  32.310  30.913  1.00  0.00     0.016 A 
ATOM     35  C   UNL A   1      39.107  30.252  32.136  1.00  0.00     0.010 A 
ATOM     36  C   UNL A   1      38.555  31.547  30.167  1.00  0.00     0.010 A 
ATOM     37  C   UNL A   1      39.318  30.538  30.781  1.00  0.00    -0.014 A 
BRANCH  37  38
ATOM     38  C   UNL A   1      40.481  29.949  30.064  1.00  0.00     0.031 A 
ATOM     39  C   UNL A   1      41.665  30.842  29.789  1.00  0.00     0.074 A 
ATOM     40  C   UNL A   1      40.512  28.663  29.666  1.00  0.00     0.049 A 
ATOM     41  N   UNL A   1      42.763  30.591  29.123  1.00  0.00    -0.248 NA
ATOM     42  C   UNL A   1      41.593  32.208  30.336  1.00  0.00     0.031 C 
ATOM     43  C   UNL A   1      39.466  27.672  29.900  1.00  0.00     0.029 A 
ATOM     44  N   UNL A   1      41.473  27.976  28.959  1.00  0.00    -0.354 N 
ATOM     45  C   UNL A   1      43.502  31.768  29.160  1.00  0.00     0.074 A 
ATOM     46  C   UNL A   1      42.722  32.739  29.894  1.00  0.00     0.031 C 
ATOM     47  C   UNL A   1      39.834  26.507  29.335  1.00  0.00     0.029 A 
ATOM     48  C   UNL A   1      41.126  26.677  28.670  1.00  0.00     0.049 A 
ATOM     49  H   UNL A   1      42.330  28.377  28.687  1.00  0.00     0.167 HD
ATOM     50  C   UNL A   1      44.725  32.017  28.637  1.00  0.00     0.037 A 
ATOM     51  C   UNL A   1      41.767  25.746  27.934  1.00  0.00     0.037 A 
ATOM     52  C   UNL A   1      45.518  31.053  27.924  1.00  0.00     0.049 A 
ATOM     53  C   UNL A   1      43.098  26.077  27.300  1.00  0.00     0.074 A 
ATOM     54  C   UNL A   1      46.788  31.211  27.395  1.00  0.00     0.029 A 
ATOM     55  N   UNL A   1      45.119  29.760  27.634  1.00  0.00    -0.354 N 
ATOM     56  N   UNL A   1      43.806  27.176  27.379  1.00  0.00    -0.248 NA
ATOM     57  C   UNL A   1      43.720  25.029  26.472  1.00  0.00     0.031 C 
ATOM     58  C   UNL A   1      47.135  30.030  26.733  1.00  0.00     0.029 A 
ATOM     59  C   UNL A   1      46.104  29.118  26.902  1.00  0.00     0.049 A 
ATOM     60  H   UNL A   1      44.264  29.356  27.907  1.00  0.00     0.167 HD
ATOM     61  C   UNL A   1      44.968  26.938  26.652  1.00  0.00     0.074 A 
ATOM     62  C   UNL A   1      44.877  25.587  26.146  1.00  0.00     0.031 C 
ATOM     63  C   UNL A   1      46.018  27.764  26.424  1.00  0.00     0.037 A 
BRANCH  50  64
ATOM     64  C   UNL A   1      45.279  33.402  28.787  1.00  0.00     0.057 A 
ATOM     65  C   UNL A   1      44.924  34.442  27.920  1.00  0.00     0.134 A 
ATOM     66  C   UNL A   1      46.123  33.711  29.861  1.00  0.00     0.134 A 
ATOM     67  F   UNL A   1      44.133  34.208  26.863  1.00  0.00    -0.206 F 
ATOM     68  C   UNL A   1      45.397  35.742  28.113  1.00  0.00     0.040 A 
ATOM     69  C   UNL A   1      46.581  35.010  30.078  1.00  0.00     0.040 A 
ATOM     70  F   UNL A   1      46.499  32.758  30.729  1.00  0.00    -0.206 F 
ATOM     71  C   UNL A   1      46.218  36.030  29.202  1.00  0.00     0.006 A 
ENDBRANCH  50  64
BRANCH  51  72
ATOM     72  C   UNL A   1      41.160  24.405  27.707  1.00  0.00     0.057 A 
ATOM     73  C   UNL A   1      41.661  23.261  28.342  1.00  0.00     0.134 A 
ATOM     74  C   UNL A   1      40.128  24.222  26.778  1.00  0.00     0.134 A 
ATOM     75  F   UNL A   1      42.675  23.362  29.214  1.00  0.00    -0.206 F 
ATOM     76  C   UNL A   1      41.184  21.984  28.036  1.00  0.00     0.040 A 
ATOM     77  C   UNL A   1      39.620  22.954  26.487  1.00  0.00     0.040 A 
ATOM     78  F   UNL A   1      39.608  25.272  26.127  1.00  0.00    -0.206 F 
ATOM     79  C   UNL A   1      40.158  21.829  27.107  1.00  0.00     0.006 A 
ENDBRANCH  51  72
BRANCH  63  80
ATOM     80  C   UNL A   1      47.181  27.221  25.643  1.00  0.00     0.057 A 
ATOM     81  C   UNL A   1      47.345  27.473  24.276  1.00  0.00     0.134 A 
ATOM     82  C   UNL A   1      48.182  26.477  26.286  1.00  0.00     0.134 A 
ATOM     83  F   UNL A   1      46.421  28.172  23.598  1.00  0.00    -0.206 F 
ATOM     84  C   UNL A   1      48.446  26.985  23.570  1.00  0.00     0.040 A 
ATOM     85  C   UNL A   1      49.301  26.009  25.598  1.00  0.00     0.040 A 
ATOM     86  F   UNL A   1      48.096  26.210  27.598  1.00  0.00    -0.206 F 
ATOM     87  C   UNL A   1      49.433  26.258  24.233  1.00  0.00     0.006 A 
ENDBRANCH  63  80
ENDBRANCH  37  38
ENDBRANCH  30  32
ENDBRANCH  29  30
ENDBRANCH  28  29
ENDBRANCH  27  28
ENDBRANCH  26  27
ENDBRANCH  25  26
ENDBRANCH   1  25
TORSDOF 21
ENDMDL
MODEL 3
REMARK VINA RESULT:      -9.5      5.072      9.954
REMARK SMILES Cc1n[nH]c(C)c1S(=O)(=O)N[C@H](C(=O)OCCOCCOCCOC(=O)c1ccc(-c2c3nc(c(-c4c(F)cccc4F)c4ccc([nH]4)c(-c4c(F)cccc4F)c4nc(c(-c5c(F)cccc5F)c5ccc2[nH]5)C=C4)C=C3)cc1)C(C)C
REMARK SMILES IDX 19 1 18 2 17 3 16 4 15 5 13 6 14 7 12 8 11 9 8 11 9 12 10 13
REMARK SMILES IDX 7 14 1 15 2 16 3 17 4 18 5 19 6 21 81 22 82 23 83 24 20 25
REMARK SMILES IDX 21 26 22 27 23 28 24 29 25 30 26 31 27 32 28 33 80 34 29 35
REMARK SMILES IDX 79 36 30 37 31 38 32 39 73 40 33 41 78 42 72 43 74 44 34 45
REMARK SMILES IDX 77 46 71 47 70 48 35 50 61 51 44 52 60 53 45 54 48 55 59 56
REMARK SMILES IDX 75 57 46 58 47 59 58 61 76 62 49 63 36 64 37 65 42 66 38 67
REMARK SMILES IDX 39 68 41 69 43 70 40 71 62 72 63 73 68 74 64 75 65 76 67 77
REMARK SMILES IDX 69 78 66 79 50 80 51 81 56 82 52 83 53 84 55 85 57 86 54 87
REMARK H PARENT 11 10 4 20 74 49 48 60
REMARK Flexibility Score: inf
ROOT
ATOM      1  C   UNL A   1      41.426  21.300  27.244  1.00  0.00     0.188 C 
ENDROOT
BRANCH   1   2
ATOM      2  O   UNL A   1      40.819  22.235  26.364  1.00  0.00    -0.376 OA
BRANCH   2   3
ATOM      3  C   UNL A   1      39.390  22.294  26.359  1.00  0.00     0.202 C 
BRANCH   3   4
ATOM      4  C   UNL A   1      38.643  21.133  25.681  1.00  0.00     0.261 C 
BRANCH   4   5
ATOM      5  O   UNL A   1      37.685  21.527  24.664  1.00  0.00    -0.462 OA
BRANCH   5   6
ATOM      6  C   UNL A   1      36.508  20.859  24.669  1.00  0.00     0.324 C 
ATOM      7  O   UNL A   1      36.413  19.683  25.022  1.00  0.00    -0.250 OA
BRANCH   6   8
ATOM      8  C   UNL A   1      35.225  21.678  24.348  1.00  0.00     0.182 C 
BRANCH   8   9
ATOM      9  N   UNL A   1      34.144  20.829  24.963  1.00  0.00    -0.196 NA
ATOM     10  H   UNL A   1      34.323  19.874  24.654  1.00  0.00     0.142 HD
BRANCH   9  11
ATOM     11  S   UNL A   1      32.508  21.114  24.689  1.00  0.00     0.245 S 
ATOM     12  O   UNL A   1      31.780  19.987  25.206  1.00  0.00    -0.207 OA
ATOM     13  O   UNL A   1      32.429  21.477  23.285  1.00  0.00    -0.207 OA
BRANCH  11  14
ATOM     14  C   UNL A   1      31.883  22.489  25.508  1.00  0.00     0.125 A 
ATOM     15  C   UNL A   1      30.718  23.725  23.500  1.00  0.00     0.070 C 
ATOM     16  C   UNL A   1      31.116  23.527  24.919  1.00  0.00     0.079 A 
ATOM     17  N   UNL A   1      30.754  24.442  25.829  1.00  0.00    -0.179 NA
ATOM     18  N   UNL A   1      31.356  24.043  26.956  1.00  0.00    -0.281 N 
ATOM     19  C   UNL A   1      32.088  22.897  26.817  1.00  0.00     0.052 A 
ATOM     20  H   UNL A   1      31.279  24.531  27.807  1.00  0.00     0.190 HD
ATOM     21  C   UNL A   1      32.895  22.377  27.940  1.00  0.00     0.067 C 
ENDBRANCH  11  14
ENDBRANCH   9  11
ENDBRANCH   8   9
BRANCH   8  22
ATOM     22  C   UNL A   1      35.118  23.145  24.818  1.00  0.00     0.012 C 
ATOM     23  C   UNL A   1      35.889  23.405  26.118  1.00  0.00     0.009 C 
ATOM     24  C   UNL A   1      35.692  24.097  23.752  1.00  0.00     0.009 C 
ENDBRANCH   8  22
ENDBRANCH   6   8
ENDBRANCH   5   6
ENDBRANCH   4   5
ENDBRANCH   3   4
ENDBRANCH   2   3
ENDBRANCH   1   2
BRANCH   1  25
ATOM     25  C   UNL A   1      42.077  20.078  26.590  1.00  0.00     0.188 C 
BRANCH  25  26
ATOM     26  O   UNL A   1      42.653  20.334  25.321  1.00  0.00    -0.376 OA
BRANCH  26  27
ATOM     27  C   UNL A   1      44.076  20.345  25.221  1.00  0.00     0.202 C 
BRANCH  27  28
ATOM     28  C   UNL A   1      44.774  21.714  25.379  1.00  0.00     0.261 C 
BRANCH  28  29
ATOM     29  O   UNL A   1      43.904  22.865  25.426  1.00  0.00    -0.460 OA
BRANCH  29  30
ATOM     30  C   UNL A   1      44.479  24.091  25.422  1.00  0.00     0.338 C 
ATOM     31  O   UNL A   1      45.298  24.503  24.620  1.00  0.00    -0.246 OA
BRANCH  30  32
ATOM     32  C   UNL A   1      43.743  24.956  26.387  1.00  0.00     0.060 A 
ATOM     33  C   UNL A   1      43.765  26.343  26.182  1.00  0.00     0.016 A 
ATOM     34  C   UNL A   1      42.973  24.422  27.425  1.00  0.00     0.016 A 
ATOM     35  C   UNL A   1      43.059  27.197  27.036  1.00  0.00     0.010 A 
ATOM     36  C   UNL A   1      42.277  25.279  28.288  1.00  0.00     0.010 A 
ATOM     37  C   UNL A   1      42.345  26.674  28.121  1.00  0.00    -0.014 A 
BRANCH  37  38
ATOM     38  C   UNL A   1      41.862  27.574  29.203  1.00  0.00     0.031 A 
ATOM     39  C   UNL A   1      42.591  27.542  30.523  1.00  0.00     0.074 A 
ATOM     40  C   UNL A   1      40.816  28.406  29.042  1.00  0.00     0.049 A 
ATOM     41  N   UNL A   1      42.326  28.172  31.639  1.00  0.00    -0.248 NA
ATOM     42  C   UNL A   1      43.780  26.674  30.592  1.00  0.00     0.031 C 
ATOM     43  C   UNL A   1      40.045  28.579  27.814  1.00  0.00     0.029 A 
ATOM     44  N   UNL A   1      40.215  29.260  29.939  1.00  0.00    -0.354 N 
ATOM     45  C   UNL A   1      43.301  27.766  32.542  1.00  0.00     0.074 A 
ATOM     46  C   UNL A   1      44.152  26.822  31.853  1.00  0.00     0.031 C 
ATOM     47  C   UNL A   1      39.063  29.472  28.037  1.00  0.00     0.029 A 
ATOM     48  C   UNL A   1      39.113  29.910  29.433  1.00  0.00     0.049 A 
ATOM     49  H   UNL A   1      40.543  29.393  30.857  1.00  0.00     0.167 HD
ATOM     50  C   UNL A   1      43.479  28.149  33.827  1.00  0.00     0.037 A 
ATOM     51  C   UNL A   1      38.237  30.740  30.035  1.00  0.00     0.037 A 
ATOM     52  C   UNL A   1      42.652  29.103  34.514  1.00  0.00     0.049 A 
ATOM     53  C   UNL A   1      38.420  31.094  31.492  1.00  0.00     0.074 A 
ATOM     54  C   UNL A   1      42.787  29.581  35.807  1.00  0.00     0.029 A 
ATOM     55  N   UNL A   1      41.536  29.717  33.974  1.00  0.00    -0.354 N 
ATOM     56  N   UNL A   1      39.370  30.740  32.321  1.00  0.00    -0.248 NA
ATOM     57  C   UNL A   1      37.401  31.969  32.097  1.00  0.00     0.031 C 
ATOM     58  C   UNL A   1      41.717  30.441  36.069  1.00  0.00     0.029 A 
ATOM     59  C   UNL A   1      40.951  30.544  34.918  1.00  0.00     0.049 A 
ATOM     60  H   UNL A   1      41.207  29.587  33.055  1.00  0.00     0.167 HD
ATOM     61  C   UNL A   1      39.088  31.379  33.525  1.00  0.00     0.074 A 
ATOM     62  C   UNL A   1      37.884  32.151  33.318  1.00  0.00     0.031 C 
ATOM     63  C   UNL A   1      39.767  31.331  34.697  1.00  0.00     0.037 A 
BRANCH  50  64
ATOM     64  C   UNL A   1      44.600  27.516  34.595  1.00  0.00     0.057 A 
ATOM     65  C   UNL A   1      44.449  26.291  35.256  1.00  0.00     0.134 A 
ATOM     66  C   UNL A   1      45.868  28.110  34.611  1.00  0.00     0.134 A 
ATOM     67  F   UNL A   1      43.255  25.680  35.291  1.00  0.00    -0.206 F 
ATOM     68  C   UNL A   1      45.520  25.682  35.911  1.00  0.00     0.040 A 
ATOM     69  C   UNL A   1      46.952  27.499  35.241  1.00  0.00     0.040 A 
ATOM     70  F   UNL A   1      46.079  29.284  33.995  1.00  0.00    -0.206 F 
ATOM     71  C   UNL A   1      46.779  26.281  35.894  1.00  0.00     0.006 A 
ENDBRANCH  50  64
BRANCH  51  72
ATOM     72  C   UNL A   1      37.069  31.285  29.289  1.00  0.00     0.057 A 
ATOM     73  C   UNL A   1      35.968  30.480  28.969  1.00  0.00     0.134 A 
ATOM     74  C   UNL A   1      37.068  32.597  28.798  1.00  0.00     0.134 A 
ATOM     75  F   UNL A   1      35.925  29.203  29.376  1.00  0.00    -0.206 F 
ATOM     76  C   UNL A   1      34.929  30.946  28.160  1.00  0.00     0.040 A 
ATOM     77  C   UNL A   1      36.020  33.085  28.014  1.00  0.00     0.040 A 
ATOM     78  F   UNL A   1      38.094  33.419  29.059  1.00  0.00    -0.206 F 
ATOM     79  C   UNL A   1      34.953  32.254  27.682  1.00  0.00     0.006 A 
ENDBRANCH  51  72
BRANCH  63  80
ATOM     80  C   UNL A   1      39.266  32.176  35.833  1.00  0.00     0.057 A 
ATOM     81  C   UNL A   1      39.661  33.509  36.003  1.00  0.00     0.134 A 
ATOM     82  C   UNL A   1      38.328  31.661  36.741  1.00  0.00     0.134 A 
ATOM     83  F   UNL A   1      40.561  34.061  35.175  1.00  0.00    -0.206 F 
ATOM     84  C   UNL A   1      39.164  34.290  37.047  1.00  0.00     0.040 A 
ATOM     85  C   UNL A   1      37.802  32.442  37.770  1.00  0.00     0.040 A 
ATOM     86  F   UNL A   1      37.895  30.397  36.628  1.00  0.00    -0.206 F 
ATOM     87  C   UNL A   1      38.225  33.759  37.930  1.00  0.00     0.006 A 
ENDBRANCH  63  80
ENDBRANCH  37  38
ENDBRANCH  30  32
ENDBRANCH  29  30
ENDBRANCH  28  29
ENDBRANCH  27  28
ENDBRANCH  26  27
ENDBRANCH  25  26
ENDBRANCH   1  25
TORSDOF 21
ENDMDL
