MODEL 1
REMARK VINA RESULT:     -10.3      0.000      0.000
REMARK SMILES O=C(CCCc1nc(-c2cccc(Cl)c2)no1)OCCOCCOCCOC(=O)c1ccc(-c2c3nc(c(-c4c(F)cccc4F)c4ccc([nH]4)c(-c4c(F)cccc4F)c4nc(c(-c5c(F)cccc5F)c5ccc2[nH]5)C=C4)C=C3)cc1
REMARK SMILES IDX 22 1 21 2 20 3 19 4 18 5 2 6 1 7 3 8 4 9 5 10 6 11 7 12
REMARK SMILES IDX 17 13 8 14 16 15 9 16 10 17 15 18 11 19 13 20 12 21 14 22
REMARK SMILES IDX 23 23 24 24 25 25 26 26 27 27 28 28 29 29 30 30 31 31 83 32
REMARK SMILES IDX 32 33 82 34 33 35 34 36 35 37 76 38 36 39 81 40 75 41 77 42
REMARK SMILES IDX 37 43 80 44 74 45 73 46 38 48 64 49 47 50 63 51 48 52 51 53
REMARK SMILES IDX 62 54 78 55 49 56 50 57 61 59 79 60 52 61 39 62 40 63 45 64
REMARK SMILES IDX 41 65 42 66 44 67 46 68 43 69 65 70 66 71 71 72 67 73 68 74
REMARK SMILES IDX 70 75 72 76 69 77 53 78 54 79 59 80 55 81 56 82 58 83 60 84
REMARK SMILES IDX 57 85
REMARK H PARENT 77 47 51 58
REMARK Flexibility Score: inf
ROOT
ATOM      1  C   UNL A   1      33.918  33.732  28.399  1.00  0.00     0.188 C 
ENDROOT
BRANCH   1   2
ATOM      2  O   UNL A   1      35.112  33.257  27.790  1.00  0.00    -0.376 OA
BRANCH   2   3
ATOM      3  C   UNL A   1      35.221  31.845  27.674  1.00  0.00     0.202 C 
BRANCH   3   4
ATOM      4  C   UNL A   1      33.823  31.247  27.694  1.00  0.00     0.261 C 
BRANCH   4   5
ATOM      5  O   UNL A   1      33.818  29.912  27.147  1.00  0.00    -0.463 OA
BRANCH   5   6
ATOM      6  C   UNL A   1      32.757  29.271  26.617  1.00  0.00     0.305 C 
ATOM      7  O   UNL A   1      31.622  29.698  26.832  1.00  0.00    -0.252 OA
BRANCH   6   8
ATOM      8  C   UNL A   1      32.946  28.014  25.801  1.00  0.00     0.123 C 
BRANCH   8   9
ATOM      9  C   UNL A   1      33.811  28.178  24.554  1.00  0.00     0.022 C 
BRANCH   9  10
ATOM     10  C   UNL A   1      33.277  27.521  23.277  1.00  0.00     0.101 C 
BRANCH  10  11
ATOM     11  C   UNL A   1      33.589  26.074  23.139  1.00  0.00     0.226 A 
ATOM     12  N   UNL A   1      34.031  25.228  24.044  1.00  0.00    -0.191 NA
ATOM     13  O   UNL A   1      33.441  25.515  21.906  1.00  0.00    -0.339 OA
ATOM     14  C   UNL A   1      34.207  24.073  23.310  1.00  0.00     0.202 A 
ATOM     15  N   UNL A   1      33.854  24.189  22.020  1.00  0.00    -0.057 NA
BRANCH  14  16
ATOM     16  C   UNL A   1      34.801  22.870  23.876  1.00  0.00     0.024 A 
ATOM     17  C   UNL A   1      36.192  22.746  24.004  1.00  0.00     0.012 A 
ATOM     18  C   UNL A   1      33.983  21.802  24.275  1.00  0.00     0.032 A 
ATOM     19  C   UNL A   1      36.756  21.581  24.532  1.00  0.00     0.002 A 
ATOM     20  C   UNL A   1      34.553  20.633  24.781  1.00  0.00     0.041 A 
ATOM     21  C   UNL A   1      35.935  20.520  24.916  1.00  0.00     0.020 A 
ATOM     22  Cl  UNL A   1      33.541  19.316  25.228  1.00  0.00    -0.084 Cl
ENDBRANCH  14  16
ENDBRANCH  10  11
ENDBRANCH   9  10
ENDBRANCH   8   9
ENDBRANCH   6   8
ENDBRANCH   5   6
ENDBRANCH   4   5
ENDBRANCH   3   4
ENDBRANCH   2   3
ENDBRANCH   1   2
BRANCH   1  23
ATOM     23  C   UNL A   1      34.135  34.796  29.480  1.00  0.00     0.188 C 
BRANCH  23  24
ATOM     24  O   UNL A   1      33.196  34.847  30.549  1.00  0.00    -0.376 OA
BRANCH  24  25
ATOM     25  C   UNL A   1      33.675  34.851  31.891  1.00  0.00     0.202 C 
BRANCH  25  26
ATOM     26  C   UNL A   1      35.085  34.304  32.101  1.00  0.00     0.261 C 
BRANCH  26  27
ATOM     27  O   UNL A   1      35.088  32.872  32.220  1.00  0.00    -0.460 OA
BRANCH  27  28
ATOM     28  C   UNL A   1      36.057  32.362  33.011  1.00  0.00     0.338 C 
ATOM     29  O   UNL A   1      36.176  32.491  34.216  1.00  0.00    -0.246 OA
BRANCH  28  30
ATOM     30  C   UNL A   1      36.951  31.497  32.223  1.00  0.00     0.060 A 
ATOM     31  C   UNL A   1      38.005  30.869  32.894  1.00  0.00     0.016 A 
ATOM     32  C   UNL A   1      36.843  31.423  30.832  1.00  0.00     0.016 A 
ATOM     33  C   UNL A   1      38.997  30.218  32.166  1.00  0.00     0.010 A 
ATOM     34  C   UNL A   1      37.845  30.776  30.101  1.00  0.00     0.010 A 
ATOM     35  C   UNL A   1      38.949  30.213  30.764  1.00  0.00    -0.014 A 
BRANCH  35  36
ATOM     36  C   UNL A   1      40.137  29.760  30.005  1.00  0.00     0.031 A 
ATOM     37  C   UNL A   1      41.272  30.723  29.784  1.00  0.00     0.074 A 
ATOM     38  C   UNL A   1      40.227  28.492  29.571  1.00  0.00     0.049 A 
ATOM     39  N   UNL A   1      42.418  30.529  29.181  1.00  0.00    -0.248 NA
ATOM     40  C   UNL A   1      41.095  32.084  30.315  1.00  0.00     0.031 C 
ATOM     41  C   UNL A   1      39.204  27.464  29.747  1.00  0.00     0.029 A 
ATOM     42  N   UNL A   1      41.234  27.857  28.891  1.00  0.00    -0.354 N 
ATOM     43  C   UNL A   1      43.102  31.735  29.273  1.00  0.00     0.074 A 
ATOM     44  C   UNL A   1      42.229  32.666  29.955  1.00  0.00     0.031 C 
ATOM     45  C   UNL A   1      39.632  26.323  29.178  1.00  0.00     0.029 A 
ATOM     46  C   UNL A   1      40.950  26.548  28.589  1.00  0.00     0.049 A 
ATOM     47  H   UNL A   1      42.080  28.296  28.643  1.00  0.00     0.167 HD
ATOM     48  C   UNL A   1      44.350  32.035  28.843  1.00  0.00     0.037 A 
ATOM     49  C   UNL A   1      41.672  25.640  27.904  1.00  0.00     0.037 A 
ATOM     50  C   UNL A   1      45.214  31.115  28.153  1.00  0.00     0.049 A 
ATOM     51  C   UNL A   1      43.035  26.015  27.390  1.00  0.00     0.074 A 
ATOM     52  C   UNL A   1      46.493  31.327  27.671  1.00  0.00     0.029 A 
ATOM     53  N   UNL A   1      44.882  29.804  27.846  1.00  0.00    -0.354 N 
ATOM     54  N   UNL A   1      43.679  27.151  27.503  1.00  0.00    -0.248 NA
ATOM     55  C   UNL A   1      43.777  24.975  26.662  1.00  0.00     0.031 C 
ATOM     56  C   UNL A   1      46.924  30.152  27.041  1.00  0.00     0.029 A 
ATOM     57  C   UNL A   1      45.926  29.199  27.168  1.00  0.00     0.049 A 
ATOM     58  H   UNL A   1      44.030  29.368  28.076  1.00  0.00     0.167 HD
ATOM     59  C   UNL A   1      44.905  26.959  26.877  1.00  0.00     0.074 A 
ATOM     60  C   UNL A   1      44.922  25.590  26.406  1.00  0.00     0.031 C 
ATOM     61  C   UNL A   1      45.924  27.836  26.704  1.00  0.00     0.037 A 
BRANCH  48  62
ATOM     62  C   UNL A   1      44.853  33.424  29.103  1.00  0.00     0.057 A 
ATOM     63  C   UNL A   1      45.683  33.710  30.194  1.00  0.00     0.134 A 
ATOM     64  C   UNL A   1      44.537  34.476  28.235  1.00  0.00     0.134 A 
ATOM     65  F   UNL A   1      46.009  32.748  31.070  1.00  0.00    -0.206 F 
ATOM     66  C   UNL A   1      46.170  34.999  30.421  1.00  0.00     0.040 A 
ATOM     67  C   UNL A   1      45.034  35.764  28.440  1.00  0.00     0.040 A 
ATOM     68  F   UNL A   1      43.748  34.268  27.170  1.00  0.00    -0.206 F 
ATOM     69  C   UNL A   1      45.852  36.028  29.538  1.00  0.00     0.006 A 
ENDBRANCH  48  62
BRANCH  49  70
ATOM     70  C   UNL A   1      41.118  24.287  27.654  1.00  0.00     0.057 A 
ATOM     71  C   UNL A   1      41.587  23.168  28.349  1.00  0.00     0.134 A 
ATOM     72  C   UNL A   1      40.124  24.080  26.690  1.00  0.00     0.134 A 
ATOM     73  F   UNL A   1      42.556  23.300  29.268  1.00  0.00    -0.206 F 
ATOM     74  C   UNL A   1      41.102  21.887  28.081  1.00  0.00     0.040 A 
ATOM     75  C   UNL A   1      39.614  22.809  26.427  1.00  0.00     0.040 A 
ATOM     76  F   UNL A   1      39.632  25.115  25.991  1.00  0.00    -0.206 F 
ATOM     77  C   UNL A   1      40.109  21.706  27.120  1.00  0.00     0.006 A 
ENDBRANCH  49  70
BRANCH  61  78
ATOM     78  C   UNL A   1      47.142  27.331  25.991  1.00  0.00     0.057 A 
ATOM     79  C   UNL A   1      47.265  27.406  24.598  1.00  0.00     0.134 A 
ATOM     80  C   UNL A   1      48.211  26.777  26.707  1.00  0.00     0.134 A 
ATOM     81  F   UNL A   1      46.270  27.915  23.856  1.00  0.00    -0.206 F 
ATOM     82  C   UNL A   1      48.396  26.924  23.940  1.00  0.00     0.040 A 
ATOM     83  C   UNL A   1      49.357  26.311  26.062  1.00  0.00     0.040 A 
ATOM     84  F   UNL A   1      48.159  26.682  28.045  1.00  0.00    -0.206 F 
ATOM     85  C   UNL A   1      49.449  26.378  24.672  1.00  0.00     0.006 A 
ENDBRANCH  61  78
ENDBRANCH  35  36
ENDBRANCH  28  30
ENDBRANCH  27  28
ENDBRANCH  26  27
ENDBRANCH  25  26
ENDBRANCH  24  25
ENDBRANCH  23  24
ENDBRANCH   1  23
TORSDOF 21
ENDMDL
MODEL 2
REMARK VINA RESULT:     -10.0      4.755      9.903
REMARK SMILES O=C(CCCc1nc(-c2cccc(Cl)c2)no1)OCCOCCOCCOC(=O)c1ccc(-c2c3nc(c(-c4c(F)cccc4F)c4ccc([nH]4)c(-c4c(F)cccc4F)c4nc(c(-c5c(F)cccc5F)c5ccc2[nH]5)C=C4)C=C3)cc1
REMARK SMILES IDX 22 1 21 2 20 3 19 4 18 5 2 6 1 7 3 8 4 9 5 10 6 11 7 12
REMARK SMILES IDX 17 13 8 14 16 15 9 16 10 17 15 18 11 19 13 20 12 21 14 22
REMARK SMILES IDX 23 23 24 24 25 25 26 26 27 27 28 28 29 29 30 30 31 31 83 32
REMARK SMILES IDX 32 33 82 34 33 35 34 36 35 37 76 38 36 39 81 40 75 41 77 42
REMARK SMILES IDX 37 43 80 44 74 45 73 46 38 48 64 49 47 50 63 51 48 52 51 53
REMARK SMILES IDX 62 54 78 55 49 56 50 57 61 59 79 60 52 61 39 62 40 63 45 64
REMARK SMILES IDX 41 65 42 66 44 67 46 68 43 69 65 70 66 71 71 72 67 73 68 74
REMARK SMILES IDX 70 75 72 76 69 77 53 78 54 79 59 80 55 81 56 82 58 83 60 84
REMARK SMILES IDX 57 85
REMARK H PARENT 77 47 51 58
REMARK Flexibility Score: inf
ROOT
ATOM      1  C   UNL A   1      39.511  21.830  26.109  1.00  0.00     0.188 C 
ENDROOT
BRANCH   1   2
ATOM      2  O   UNL A   1      38.507  21.133  25.383  1.00  0.00    -0.376 OA
BRANCH   2   3
ATOM      3  C   UNL A   1      37.387  21.910  24.985  1.00  0.00     0.202 C 
BRANCH   3   4
ATOM      4  C   UNL A   1      37.204  23.045  25.981  1.00  0.00     0.261 C 
BRANCH   4   5
ATOM      5  O   UNL A   1      36.460  24.136  25.399  1.00  0.00    -0.463 OA
BRANCH   5   6
ATOM      6  C   UNL A   1      35.151  24.124  25.075  1.00  0.00     0.305 C 
ATOM      7  O   UNL A   1      34.816  24.308  23.905  1.00  0.00    -0.252 OA
BRANCH   6   8
ATOM      8  C   UNL A   1      34.097  23.932  26.139  1.00  0.00     0.123 C 
BRANCH   8   9
ATOM      9  C   UNL A   1      32.689  24.369  25.739  1.00  0.00     0.022 C 
BRANCH   9  10
ATOM     10  C   UNL A   1      31.600  23.296  25.840  1.00  0.00     0.101 C 
BRANCH  10  11
ATOM     11  C   UNL A   1      31.943  21.994  25.208  1.00  0.00     0.226 A 
ATOM     12  N   UNL A   1      32.387  20.889  25.767  1.00  0.00    -0.191 NA
ATOM     13  O   UNL A   1      31.825  21.904  23.854  1.00  0.00    -0.339 OA
ATOM     14  C   UNL A   1      32.597  20.070  24.677  1.00  0.00     0.202 A 
ATOM     15  N   UNL A   1      32.263  20.629  23.503  1.00  0.00    -0.057 NA
BRANCH  14  16
ATOM     16  C   UNL A   1      33.206  18.752  24.796  1.00  0.00     0.024 A 
ATOM     17  C   UNL A   1      34.529  18.531  24.387  1.00  0.00     0.012 A 
ATOM     18  C   UNL A   1      32.460  17.675  25.298  1.00  0.00     0.032 A 
ATOM     19  C   UNL A   1      35.101  17.259  24.488  1.00  0.00     0.002 A 
ATOM     20  C   UNL A   1      33.030  16.403  25.376  1.00  0.00     0.041 A 
ATOM     21  C   UNL A   1      34.348  16.192  24.978  1.00  0.00     0.020 A 
ATOM     22  Cl  UNL A   1      32.090  15.083  25.954  1.00  0.00    -0.084 Cl
ENDBRANCH  14  16
ENDBRANCH  10  11
ENDBRANCH   9  10
ENDBRANCH   8   9
ENDBRANCH   6   8
ENDBRANCH   5   6
ENDBRANCH   4   5
ENDBRANCH   3   4
ENDBRANCH   2   3
ENDBRANCH   1   2
BRANCH   1  23
ATOM     23  C   UNL A   1      40.422  20.934  26.954  1.00  0.00     0.188 C 
BRANCH  23  24
ATOM     24  O   UNL A   1      41.774  21.348  27.127  1.00  0.00    -0.376 OA
BRANCH  24  25
ATOM     25  C   UNL A   1      42.732  21.017  26.126  1.00  0.00     0.202 C 
BRANCH  25  26
ATOM     26  C   UNL A   1      43.288  22.185  25.316  1.00  0.00     0.261 C 
BRANCH  26  27
ATOM     27  O   UNL A   1      43.931  23.157  26.156  1.00  0.00    -0.460 OA
BRANCH  27  28
ATOM     28  C   UNL A   1      44.003  24.405  25.642  1.00  0.00     0.338 C 
ATOM     29  O   UNL A   1      44.532  24.749  24.600  1.00  0.00    -0.246 OA
BRANCH  28  30
ATOM     30  C   UNL A   1      43.236  25.341  26.480  1.00  0.00     0.060 A 
ATOM     31  C   UNL A   1      43.713  26.652  26.592  1.00  0.00     0.016 A 
ATOM     32  C   UNL A   1      42.158  24.904  27.253  1.00  0.00     0.016 A 
ATOM     33  C   UNL A   1      43.154  27.512  27.533  1.00  0.00     0.010 A 
ATOM     34  C   UNL A   1      41.603  25.767  28.204  1.00  0.00     0.010 A 
ATOM     35  C   UNL A   1      42.131  27.058  28.378  1.00  0.00    -0.014 A 
BRANCH  35  36
ATOM     36  C   UNL A   1      41.738  27.885  29.541  1.00  0.00     0.031 A 
ATOM     37  C   UNL A   1      40.544  28.794  29.421  1.00  0.00     0.074 A 
ATOM     38  C   UNL A   1      42.399  27.785  30.705  1.00  0.00     0.049 A 
ATOM     39  N   UNL A   1      40.003  29.577  30.320  1.00  0.00    -0.248 NA
ATOM     40  C   UNL A   1      39.867  28.822  28.114  1.00  0.00     0.031 C 
ATOM     41  C   UNL A   1      43.554  26.923  30.949  1.00  0.00     0.029 A 
ATOM     42  N   UNL A   1      42.189  28.418  31.904  1.00  0.00    -0.354 N 
ATOM     43  C   UNL A   1      38.918  30.177  29.694  1.00  0.00     0.074 A 
ATOM     44  C   UNL A   1      38.898  29.700  28.329  1.00  0.00     0.031 C 
ATOM     45  C   UNL A   1      43.959  27.088  32.221  1.00  0.00     0.029 A 
ATOM     46  C   UNL A   1      43.101  28.076  32.871  1.00  0.00     0.049 A 
ATOM     47  H   UNL A   1      41.455  29.057  32.055  1.00  0.00     0.167 HD
ATOM     48  C   UNL A   1      38.010  31.037  30.215  1.00  0.00     0.037 A 
ATOM     49  C   UNL A   1      43.232  28.522  34.135  1.00  0.00     0.037 A 
ATOM     50  C   UNL A   1      38.037  31.524  31.569  1.00  0.00     0.049 A 
ATOM     51  C   UNL A   1      42.241  29.518  34.674  1.00  0.00     0.074 A 
ATOM     52  C   UNL A   1      37.166  32.403  32.188  1.00  0.00     0.029 A 
ATOM     53  N   UNL A   1      38.990  31.171  32.513  1.00  0.00    -0.354 N 
ATOM     54  N   UNL A   1      41.206  30.061  34.080  1.00  0.00    -0.248 NA
ATOM     55  C   UNL A   1      42.431  29.954  36.065  1.00  0.00     0.031 C 
ATOM     56  C   UNL A   1      37.612  32.608  33.500  1.00  0.00     0.029 A 
ATOM     57  C   UNL A   1      38.737  31.827  33.706  1.00  0.00     0.049 A 
ATOM     58  H   UNL A   1      39.736  30.548  32.357  1.00  0.00     0.167 HD
ATOM     59  C   UNL A   1      40.613  30.888  35.026  1.00  0.00     0.074 A 
ATOM     60  C   UNL A   1      41.392  30.757  36.240  1.00  0.00     0.031 C 
ATOM     61  C   UNL A   1      39.525  31.686  34.902  1.00  0.00     0.037 A 
BRANCH  48  62
ATOM     62  C   UNL A   1      36.913  31.512  29.310  1.00  0.00     0.057 A 
ATOM     63  C   UNL A   1      35.820  30.695  28.994  1.00  0.00     0.134 A 
ATOM     64  C   UNL A   1      36.929  32.807  28.781  1.00  0.00     0.134 A 
ATOM     65  F   UNL A   1      35.754  29.438  29.459  1.00  0.00    -0.206 F 
ATOM     66  C   UNL A   1      34.787  31.147  28.171  1.00  0.00     0.040 A 
ATOM     67  C   UNL A   1      35.892  33.277  27.973  1.00  0.00     0.040 A 
ATOM     68  F   UNL A   1      37.947  33.640  29.046  1.00  0.00    -0.206 F 
ATOM     69  C   UNL A   1      34.818  32.444  27.664  1.00  0.00     0.006 A 
ENDBRANCH  48  62
BRANCH  49  70
ATOM     70  C   UNL A   1      44.350  28.038  34.981  1.00  0.00     0.057 A 
ATOM     71  C   UNL A   1      44.220  26.895  35.778  1.00  0.00     0.134 A 
ATOM     72  C   UNL A   1      45.567  28.727  35.033  1.00  0.00     0.134 A 
ATOM     73  F   UNL A   1      43.068  26.207  35.788  1.00  0.00    -0.206 F 
ATOM     74  C   UNL A   1      45.253  26.466  36.612  1.00  0.00     0.040 A 
ATOM     75  C   UNL A   1      46.617  28.297  35.845  1.00  0.00     0.040 A 
ATOM     76  F   UNL A   1      45.753  29.830  34.291  1.00  0.00    -0.206 F 
ATOM     77  C   UNL A   1      46.458  27.166  36.644  1.00  0.00     0.006 A 
ENDBRANCH  49  70
BRANCH  61  78
ATOM     78  C   UNL A   1      39.109  32.462  36.117  1.00  0.00     0.057 A 
ATOM     79  C   UNL A   1      39.552  33.771  36.341  1.00  0.00     0.134 A 
ATOM     80  C   UNL A   1      38.245  31.898  37.063  1.00  0.00     0.134 A 
ATOM     81  F   UNL A   1      40.391  34.362  35.477  1.00  0.00    -0.206 F 
ATOM     82  C   UNL A   1      39.171  34.484  37.478  1.00  0.00     0.040 A 
ATOM     83  C   UNL A   1      37.838  32.609  38.194  1.00  0.00     0.040 A 
ATOM     84  F   UNL A   1      37.778  30.650  36.903  1.00  0.00    -0.206 F 
ATOM     85  C   UNL A   1      38.308  33.904  38.407  1.00  0.00     0.006 A 
ENDBRANCH  61  78
ENDBRANCH  35  36
ENDBRANCH  28  30
ENDBRANCH  27  28
ENDBRANCH  26  27
ENDBRANCH  25  26
ENDBRANCH  24  25
ENDBRANCH  23  24
ENDBRANCH   1  23
TORSDOF 21
ENDMDL
MODEL 3
REMARK VINA RESULT:     -10.0      2.426      3.960
REMARK SMILES O=C(CCCc1nc(-c2cccc(Cl)c2)no1)OCCOCCOCCOC(=O)c1ccc(-c2c3nc(c(-c4c(F)cccc4F)c4ccc([nH]4)c(-c4c(F)cccc4F)c4nc(c(-c5c(F)cccc5F)c5ccc2[nH]5)C=C4)C=C3)cc1
REMARK SMILES IDX 22 1 21 2 20 3 19 4 18 5 2 6 1 7 3 8 4 9 5 10 6 11 7 12
REMARK SMILES IDX 17 13 8 14 16 15 9 16 10 17 15 18 11 19 13 20 12 21 14 22
REMARK SMILES IDX 23 23 24 24 25 25 26 26 27 27 28 28 29 29 30 30 31 31 83 32
REMARK SMILES IDX 32 33 82 34 33 35 34 36 35 37 76 38 36 39 81 40 75 41 77 42
REMARK SMILES IDX 37 43 80 44 74 45 73 46 38 48 64 49 47 50 63 51 48 52 51 53
REMARK SMILES IDX 62 54 78 55 49 56 50 57 61 59 79 60 52 61 39 62 40 63 45 64
REMARK SMILES IDX 41 65 42 66 44 67 46 68 43 69 65 70 66 71 71 72 67 73 68 74
REMARK SMILES IDX 70 75 72 76 69 77 53 78 54 79 59 80 55 81 56 82 58 83 60 84
REMARK SMILES IDX 57 85
REMARK H PARENT 77 47 51 58
REMARK Flexibility Score: inf
ROOT
ATOM      1  C   UNL A   1      34.001  32.547  28.335  1.00  0.00     0.188 C 
ENDROOT
BRANCH   1   2
ATOM      2  O   UNL A   1      34.836  31.750  27.504  1.00  0.00    -0.376 OA
BRANCH   2   3
ATOM      3  C   UNL A   1      34.834  30.358  27.787  1.00  0.00     0.202 C 
BRANCH   3   4
ATOM      4  C   UNL A   1      34.216  29.624  26.608  1.00  0.00     0.261 C 
BRANCH   4   5
ATOM      5  O   UNL A   1      33.784  28.300  26.986  1.00  0.00    -0.463 OA
BRANCH   5   6
ATOM      6  C   UNL A   1      32.558  27.774  26.788  1.00  0.00     0.305 C 
ATOM      7  O   UNL A   1      31.566  28.388  27.179  1.00  0.00    -0.252 OA
BRANCH   6   8
ATOM      8  C   UNL A   1      32.397  26.424  26.131  1.00  0.00     0.123 C 
BRANCH   8   9
ATOM      9  C   UNL A   1      33.388  26.130  25.007  1.00  0.00     0.022 C 
BRANCH   9  10
ATOM     10  C   UNL A   1      32.799  26.065  23.594  1.00  0.00     0.101 C 
BRANCH  10  11
ATOM     11  C   UNL A   1      31.610  26.931  23.370  1.00  0.00     0.226 A 
ATOM     12  N   UNL A   1      31.556  28.219  23.110  1.00  0.00    -0.191 NA
ATOM     13  O   UNL A   1      30.383  26.351  23.475  1.00  0.00    -0.339 OA
ATOM     14  C   UNL A   1      30.199  28.461  23.091  1.00  0.00     0.202 A 
ATOM     15  N   UNL A   1      29.447  27.367  23.294  1.00  0.00    -0.057 NA
BRANCH  14  16
ATOM     16  C   UNL A   1      29.645  29.801  22.949  1.00  0.00     0.024 A 
ATOM     17  C   UNL A   1      29.618  30.688  24.035  1.00  0.00     0.012 A 
ATOM     18  C   UNL A   1      29.103  30.211  21.721  1.00  0.00     0.032 A 
ATOM     19  C   UNL A   1      29.070  31.966  23.895  1.00  0.00     0.002 A 
ATOM     20  C   UNL A   1      28.537  31.480  21.594  1.00  0.00     0.041 A 
ATOM     21  C   UNL A   1      28.523  32.361  22.673  1.00  0.00     0.020 A 
ATOM     22  Cl  UNL A   1      27.838  31.955  20.095  1.00  0.00    -0.084 Cl
ENDBRANCH  14  16
ENDBRANCH  10  11
ENDBRANCH   9  10
ENDBRANCH   8   9
ENDBRANCH   6   8
ENDBRANCH   5   6
ENDBRANCH   4   5
ENDBRANCH   3   4
ENDBRANCH   2   3
ENDBRANCH   1   2
BRANCH   1  23
ATOM     23  C   UNL A   1      34.732  33.664  29.087  1.00  0.00     0.188 C 
BRANCH  23  24
ATOM     24  O   UNL A   1      33.935  34.611  29.791  1.00  0.00    -0.376 OA
BRANCH  24  25
ATOM     25  C   UNL A   1      33.988  34.637  31.215  1.00  0.00     0.202 C 
BRANCH  25  26
ATOM     26  C   UNL A   1      35.271  34.102  31.849  1.00  0.00     0.261 C 
BRANCH  26  27
ATOM     27  O   UNL A   1      35.145  32.720  32.219  1.00  0.00    -0.460 OA
BRANCH  27  28
ATOM     28  C   UNL A   1      36.130  32.244  33.012  1.00  0.00     0.338 C 
ATOM     29  O   UNL A   1      36.256  32.402  34.214  1.00  0.00    -0.246 OA
BRANCH  28  30
ATOM     30  C   UNL A   1      37.032  31.379  32.235  1.00  0.00     0.060 A 
ATOM     31  C   UNL A   1      38.148  30.849  32.891  1.00  0.00     0.016 A 
ATOM     32  C   UNL A   1      36.866  31.212  30.859  1.00  0.00     0.016 A 
ATOM     33  C   UNL A   1      39.140  30.206  32.157  1.00  0.00     0.010 A 
ATOM     34  C   UNL A   1      37.868  30.573  30.120  1.00  0.00     0.010 A 
ATOM     35  C   UNL A   1      39.029  30.110  30.762  1.00  0.00    -0.014 A 
BRANCH  35  36
ATOM     36  C   UNL A   1      40.205  29.672  29.975  1.00  0.00     0.031 A 
ATOM     37  C   UNL A   1      41.330  30.643  29.740  1.00  0.00     0.074 A 
ATOM     38  C   UNL A   1      40.294  28.409  29.526  1.00  0.00     0.049 A 
ATOM     39  N   UNL A   1      42.465  30.463  29.113  1.00  0.00    -0.248 NA
ATOM     40  C   UNL A   1      41.155  31.998  30.289  1.00  0.00     0.031 C 
ATOM     41  C   UNL A   1      39.280  27.373  29.711  1.00  0.00     0.029 A 
ATOM     42  N   UNL A   1      41.291  27.786  28.819  1.00  0.00    -0.354 N 
ATOM     43  C   UNL A   1      43.143  31.672  29.204  1.00  0.00     0.074 A 
ATOM     44  C   UNL A   1      42.278  32.591  29.912  1.00  0.00     0.031 C 
ATOM     45  C   UNL A   1      39.703  26.240  29.122  1.00  0.00     0.029 A 
ATOM     46  C   UNL A   1      41.008  26.479  28.510  1.00  0.00     0.049 A 
ATOM     47  H   UNL A   1      42.129  28.234  28.559  1.00  0.00     0.167 HD
ATOM     48  C   UNL A   1      44.380  31.984  28.753  1.00  0.00     0.037 A 
ATOM     49  C   UNL A   1      41.721  25.583  27.801  1.00  0.00     0.037 A 
ATOM     50  C   UNL A   1      45.236  31.076  28.036  1.00  0.00     0.049 A 
ATOM     51  C   UNL A   1      43.072  25.971  27.264  1.00  0.00     0.074 A 
ATOM     52  C   UNL A   1      46.504  31.300  27.530  1.00  0.00     0.029 A 
ATOM     53  N   UNL A   1      44.905  29.766  27.722  1.00  0.00    -0.354 N 
ATOM     54  N   UNL A   1      43.711  27.110  27.376  1.00  0.00    -0.248 NA
ATOM     55  C   UNL A   1      43.805  24.943  26.511  1.00  0.00     0.031 C 
ATOM     56  C   UNL A   1      46.929  30.135  26.881  1.00  0.00     0.029 A 
ATOM     57  C   UNL A   1      45.939  29.175  27.017  1.00  0.00     0.049 A 
ATOM     58  H   UNL A   1      44.060  29.323  27.964  1.00  0.00     0.167 HD
ATOM     59  C   UNL A   1      44.925  26.932  26.724  1.00  0.00     0.074 A 
ATOM     60  C   UNL A   1      44.942  25.567  26.239  1.00  0.00     0.031 C 
ATOM     61  C   UNL A   1      45.935  27.817  26.540  1.00  0.00     0.037 A 
BRANCH  48  62
ATOM     62  C   UNL A   1      44.880  33.373  29.016  1.00  0.00     0.057 A 
ATOM     63  C   UNL A   1      44.608  34.428  28.136  1.00  0.00     0.134 A 
ATOM     64  C   UNL A   1      45.605  33.668  30.176  1.00  0.00     0.134 A 
ATOM     65  F   UNL A   1      43.931  34.207  26.999  1.00  0.00    -0.206 F 
ATOM     66  C   UNL A   1      45.053  35.726  28.394  1.00  0.00     0.040 A 
ATOM     67  C   UNL A   1      46.038  34.965  30.456  1.00  0.00     0.040 A 
ATOM     68  F   UNL A   1      45.897  32.703  31.062  1.00  0.00    -0.206 F 
ATOM     69  C   UNL A   1      45.764  35.998  29.561  1.00  0.00     0.006 A 
ENDBRANCH  48  62
BRANCH  49  70
ATOM     70  C   UNL A   1      41.170  24.229  27.548  1.00  0.00     0.057 A 
ATOM     71  C   UNL A   1      40.142  24.022  26.623  1.00  0.00     0.134 A 
ATOM     72  C   UNL A   1      41.643  23.114  28.251  1.00  0.00     0.134 A 
ATOM     73  F   UNL A   1      39.631  25.056  25.938  1.00  0.00    -0.206 F 
ATOM     74  C   UNL A   1      39.588  22.757  26.419  1.00  0.00     0.040 A 
ATOM     75  C   UNL A   1      41.114  21.840  28.041  1.00  0.00     0.040 A 
ATOM     76  F   UNL A   1      42.629  23.249  29.151  1.00  0.00    -0.206 F 
ATOM     77  C   UNL A   1      40.077  21.661  27.127  1.00  0.00     0.006 A 
ENDBRANCH  49  70
BRANCH  61  78
ATOM     78  C   UNL A   1      47.143  27.325  25.798  1.00  0.00     0.057 A 
ATOM     79  C   UNL A   1      47.312  27.564  24.428  1.00  0.00     0.134 A 
ATOM     80  C   UNL A   1      48.153  26.620  26.463  1.00  0.00     0.134 A 
ATOM     81  F   UNL A   1      46.374  28.223  23.732  1.00  0.00    -0.206 F 
ATOM     82  C   UNL A   1      48.432  27.095  23.741  1.00  0.00     0.040 A 
ATOM     83  C   UNL A   1      49.289  26.166  25.791  1.00  0.00     0.040 A 
ATOM     84  F   UNL A   1      48.055  26.366  27.777  1.00  0.00    -0.206 F 
ATOM     85  C   UNL A   1      49.427  26.396  24.424  1.00  0.00     0.006 A 
ENDBRANCH  61  78
ENDBRANCH  35  36
ENDBRANCH  28  30
ENDBRANCH  27  28
ENDBRANCH  26  27
ENDBRANCH  25  26
ENDBRANCH  24  25
ENDBRANCH  23  24
ENDBRANCH   1  23
TORSDOF 21
ENDMDL
