MODEL 1
REMARK VINA RESULT:     -12.8      0.000      0.000
REMARK SMILES Cc1cccc(OCC(=O)Nc2cc(C(=O)OCCOCCOCCOC(=O)c3ccc(-c4c5nc(c(-c6c(F)cccc6F)c6ccc([nH]6)c(-c6c(F)cccc6F)c6nc(c(-c7c(F)cccc7F)c7ccc4[nH]7)C=C6)C=C5)cc3)c(Cl)cc2Cl)c1
REMARK SMILES IDX 21 1 20 2 19 3 18 4 17 5 15 6 16 7 14 8 12 9 13 10 86 11
REMARK SMILES IDX 85 12 87 13 83 14 84 15 11 16 9 17 10 18 8 20 7 21 6 22 1 23
REMARK SMILES IDX 2 24 3 25 88 26 4 27 5 28 22 29 23 30 24 31 25 32 26 33
REMARK SMILES IDX 27 34 28 35 29 36 30 37 82 38 31 39 81 40 32 41 33 42 34 43
REMARK SMILES IDX 75 44 35 45 80 46 74 47 76 48 36 49 79 50 73 51 72 52 37 54
REMARK SMILES IDX 63 55 46 56 62 57 47 58 50 59 61 60 77 61 48 62 49 63 60 65
REMARK SMILES IDX 78 66 51 67 38 68 39 69 44 70 40 71 41 72 43 73 45 74 42 75
REMARK SMILES IDX 64 76 65 77 70 78 66 79 67 80 69 81 71 82 68 83 52 84 53 85
REMARK SMILES IDX 58 86 54 87 55 88 57 89 59 90 56 91
REMARK H PARENT 11 19 76 53 50 64
REMARK Flexibility Score: inf
ROOT
ATOM      1  C   UNL A   1      40.886  20.451  26.650  1.00  0.00     0.188 C 
ENDROOT
BRANCH   1   2
ATOM      2  O   UNL A   1      40.043  21.104  25.711  1.00  0.00    -0.376 OA
BRANCH   2   3
ATOM      3  C   UNL A   1      38.956  21.833  26.260  1.00  0.00     0.202 C 
BRANCH   3   4
ATOM      4  C   UNL A   1      37.700  22.085  25.326  1.00  0.00     0.261 C 
BRANCH   4   5
ATOM      5  O   UNL A   1      36.411  22.835  25.864  1.00  0.00    -0.460 OA
BRANCH   5   6
ATOM      6  C   UNL A   1      35.047  22.586  26.382  1.00  0.00     0.339 C 
ATOM      7  O   UNL A   1      34.821  21.403  26.663  1.00  0.00    -0.246 OA
BRANCH   6   8
ATOM      8  C   UNL A   1      33.480  23.668  26.165  1.00  0.00     0.080 A 
ATOM      9  C   UNL A   1      32.941  25.585  24.885  1.00  0.00     0.061 A 
ATOM     10  C   UNL A   1      33.847  24.921  25.716  1.00  0.00     0.045 A 
ATOM     11  C   UNL A   1      31.648  25.788  25.340  1.00  0.00     0.066 A 
ATOM     12  C   UNL A   1      31.110  24.756  26.036  1.00  0.00     0.044 A 
ATOM     13  Cl  UNL A   1      30.593  26.954  24.642  1.00  0.00    -0.082 Cl
ATOM     14  C   UNL A   1      31.930  23.623  26.229  1.00  0.00     0.057 A 
ATOM     15  Cl  UNL A   1      30.675  22.328  26.228  1.00  0.00    -0.083 Cl
BRANCH   9  16
ATOM     16  N   UNL A   1      32.968  25.283  23.488  1.00  0.00    -0.322 N 
ATOM     17  C   UNL A   1      33.356  25.999  22.351  1.00  0.00     0.262 C 
ATOM     18  O   UNL A   1      33.555  25.265  21.363  1.00  0.00    -0.271 OA
ATOM     19  H   UNL A   1      32.644  24.377  23.283  1.00  0.00     0.170 HD
BRANCH  17  20
ATOM     20  C   UNL A   1      33.537  27.831  22.097  1.00  0.00     0.329 C 
BRANCH  20  21
ATOM     21  O   UNL A   1      33.274  29.317  23.589  1.00  0.00    -0.484 OA
BRANCH  21  22
ATOM     22  C   UNL A   1      33.259  29.388  25.272  1.00  0.00     0.120 A 
ATOM     23  C   UNL A   1      35.735  29.528  28.277  1.00  0.00     0.044 C 
ATOM     24  C   UNL A   1      34.545  29.803  27.396  1.00  0.00    -0.047 A 
ATOM     25  C   UNL A   1      33.632  30.790  27.740  1.00  0.00     0.003 A 
ATOM     26  C   UNL A   1      34.348  29.102  26.183  1.00  0.00     0.049 A 
ATOM     27  C   UNL A   1      32.485  30.956  26.954  1.00  0.00     0.004 A 
ATOM     28  C   UNL A   1      32.262  30.191  25.776  1.00  0.00     0.046 A 
ENDBRANCH  21  22
ENDBRANCH  20  21
ENDBRANCH  17  20
ENDBRANCH   9  16
ENDBRANCH   6   8
ENDBRANCH   5   6
ENDBRANCH   4   5
ENDBRANCH   3   4
ENDBRANCH   2   3
ENDBRANCH   1   2
BRANCH   1  29
ATOM     29  C   UNL A   1      42.328  20.443  26.225  1.00  0.00     0.188 C 
BRANCH  29  30
ATOM     30  O   UNL A   1      42.559  19.395  25.303  1.00  0.00    -0.376 OA
BRANCH  30  31
ATOM     31  C   UNL A   1      43.901  18.923  25.256  1.00  0.00     0.202 C 
BRANCH  31  32
ATOM     32  C   UNL A   1      44.604  19.185  23.901  1.00  0.00     0.261 C 
BRANCH  32  33
ATOM     33  O   UNL A   1      45.483  20.341  24.011  1.00  0.00    -0.460 OA
BRANCH  33  34
ATOM     34  C   UNL A   1      45.000  21.634  24.017  1.00  0.00     0.338 C 
ATOM     35  O   UNL A   1      44.294  22.140  23.165  1.00  0.00    -0.246 OA
BRANCH  34  36
ATOM     36  C   UNL A   1      45.788  22.408  25.050  1.00  0.00     0.060 A 
ATOM     37  C   UNL A   1      45.594  22.305  26.437  1.00  0.00     0.016 A 
ATOM     38  C   UNL A   1      46.207  23.612  24.630  1.00  0.00     0.016 A 
ATOM     39  C   UNL A   1      45.321  23.466  27.278  1.00  0.00     0.010 A 
ATOM     40  C   UNL A   1      45.784  24.674  25.415  1.00  0.00     0.010 A 
ATOM     41  C   UNL A   1      45.164  24.740  26.744  1.00  0.00    -0.014 A 
BRANCH  41  42
ATOM     42  C   UNL A   1      44.436  26.169  27.616  1.00  0.00     0.031 A 
ATOM     43  C   UNL A   1      42.647  26.676  27.890  1.00  0.00     0.074 A 
ATOM     44  C   UNL A   1      45.349  26.918  28.297  1.00  0.00     0.049 A 
ATOM     45  N   UNL A   1      42.406  28.101  28.543  1.00  0.00    -0.248 NA
ATOM     46  C   UNL A   1      40.777  25.940  27.404  1.00  0.00     0.031 C 
ATOM     47  C   UNL A   1      45.150  27.954  29.310  1.00  0.00     0.029 A 
ATOM     48  N   UNL A   1      46.745  26.794  28.258  1.00  0.00    -0.354 N 
ATOM     49  C   UNL A   1      40.679  28.517  28.825  1.00  0.00     0.074 A 
ATOM     50  C   UNL A   1      39.645  27.128  27.984  1.00  0.00     0.031 C 
ATOM     51  C   UNL A   1      46.329  28.494  29.659  1.00  0.00     0.029 A 
ATOM     52  C   UNL A   1      47.316  27.982  28.737  1.00  0.00     0.049 A 
ATOM     53  H   UNL A   1      47.242  26.004  27.946  1.00  0.00     0.167 HD
ATOM     54  C   UNL A   1      40.446  29.619  29.581  1.00  0.00     0.037 A 
ATOM     55  C   UNL A   1      48.133  28.717  27.940  1.00  0.00     0.037 A 
ATOM     56  C   UNL A   1      41.713  30.344  29.757  1.00  0.00     0.049 A 
ATOM     57  C   UNL A   1      47.419  30.009  27.608  1.00  0.00     0.074 A 
ATOM     58  C   UNL A   1      42.623  30.445  30.796  1.00  0.00     0.029 A 
ATOM     59  N   UNL A   1      42.393  30.838  28.628  1.00  0.00    -0.354 N 
ATOM     60  N   UNL A   1      46.122  30.165  27.750  1.00  0.00    -0.248 NA
ATOM     61  C   UNL A   1      48.085  31.258  27.266  1.00  0.00     0.031 C 
ATOM     62  C   UNL A   1      43.841  30.992  30.281  1.00  0.00     0.029 A 
ATOM     63  C   UNL A   1      43.693  31.243  28.922  1.00  0.00     0.049 A 
ATOM     64  H   UNL A   1      41.994  30.892  27.730  1.00  0.00     0.167 HD
ATOM     65  C   UNL A   1      45.791  31.484  27.676  1.00  0.00     0.074 A 
ATOM     66  C   UNL A   1      47.055  32.125  27.331  1.00  0.00     0.031 C 
ATOM     67  C   UNL A   1      44.534  31.969  27.942  1.00  0.00     0.037 A 
BRANCH  54  68
ATOM     68  C   UNL A   1      39.148  29.810  30.318  1.00  0.00     0.057 A 
ATOM     69  C   UNL A   1      38.457  31.033  30.285  1.00  0.00     0.134 A 
ATOM     70  C   UNL A   1      38.564  28.849  31.163  1.00  0.00     0.134 A 
ATOM     71  F   UNL A   1      38.834  32.021  29.461  1.00  0.00    -0.206 F 
ATOM     72  C   UNL A   1      37.346  31.304  31.101  1.00  0.00     0.040 A 
ATOM     73  C   UNL A   1      37.504  29.124  32.040  1.00  0.00     0.040 A 
ATOM     74  F   UNL A   1      38.937  27.569  31.115  1.00  0.00    -0.206 F 
ATOM     75  C   UNL A   1      36.892  30.364  32.016  1.00  0.00     0.006 A 
ENDBRANCH  54  68
BRANCH  55  76
ATOM     76  C   UNL A   1      49.077  27.823  27.192  1.00  0.00     0.057 A 
ATOM     77  C   UNL A   1      48.806  27.669  25.806  1.00  0.00     0.134 A 
ATOM     78  C   UNL A   1      50.398  27.597  27.580  1.00  0.00     0.134 A 
ATOM     79  F   UNL A   1      47.552  27.818  25.350  1.00  0.00    -0.206 F 
ATOM     80  C   UNL A   1      49.817  27.549  24.846  1.00  0.00     0.040 A 
ATOM     81  C   UNL A   1      51.413  27.391  26.622  1.00  0.00     0.040 A 
ATOM     82  F   UNL A   1      50.774  27.758  28.856  1.00  0.00    -0.206 F 
ATOM     83  C   UNL A   1      51.136  27.457  25.253  1.00  0.00     0.006 A 
ENDBRANCH  55  76
BRANCH  67  84
ATOM     84  C   UNL A   1      44.039  33.289  27.383  1.00  0.00     0.057 A 
ATOM     85  C   UNL A   1      43.812  33.526  26.017  1.00  0.00     0.134 A 
ATOM     86  C   UNL A   1      43.610  34.332  28.235  1.00  0.00     0.134 A 
ATOM     87  F   UNL A   1      44.022  32.586  25.085  1.00  0.00    -0.206 F 
ATOM     88  C   UNL A   1      43.294  34.730  25.532  1.00  0.00     0.040 A 
ATOM     89  C   UNL A   1      43.002  35.498  27.767  1.00  0.00     0.040 A 
ATOM     90  F   UNL A   1      43.727  34.265  29.567  1.00  0.00    -0.206 F 
ATOM     91  C   UNL A   1      42.867  35.715  26.408  1.00  0.00     0.006 A 
ENDBRANCH  67  84
ENDBRANCH  41  42
ENDBRANCH  34  36
ENDBRANCH  33  34
ENDBRANCH  32  33
ENDBRANCH  31  32
ENDBRANCH  30  31
ENDBRANCH  29  30
ENDBRANCH   1  29
TORSDOF 21
ENDMDL
MODEL 2
REMARK VINA RESULT:     -12.8      4.059     10.057
REMARK SMILES Cc1cccc(OCC(=O)Nc2cc(C(=O)OCCOCCOCCOC(=O)c3ccc(-c4c5nc(c(-c6c(F)cccc6F)c6ccc([nH]6)c(-c6c(F)cccc6F)c6nc(c(-c7c(F)cccc7F)c7ccc4[nH]7)C=C6)C=C5)cc3)c(Cl)cc2Cl)c1
REMARK SMILES IDX 21 1 20 2 19 3 18 4 17 5 15 6 16 7 14 8 12 9 13 10 86 11
REMARK SMILES IDX 85 12 87 13 83 14 84 15 11 16 9 17 10 18 8 20 7 21 6 22 1 23
REMARK SMILES IDX 2 24 3 25 88 26 4 27 5 28 22 29 23 30 24 31 25 32 26 33
REMARK SMILES IDX 27 34 28 35 29 36 30 37 82 38 31 39 81 40 32 41 33 42 34 43
REMARK SMILES IDX 75 44 35 45 80 46 74 47 76 48 36 49 79 50 73 51 72 52 37 54
REMARK SMILES IDX 63 55 46 56 62 57 47 58 50 59 61 60 77 61 48 62 49 63 60 65
REMARK SMILES IDX 78 66 51 67 38 68 39 69 44 70 40 71 41 72 43 73 45 74 42 75
REMARK SMILES IDX 64 76 65 77 70 78 66 79 67 80 69 81 71 82 68 83 52 84 53 85
REMARK SMILES IDX 58 86 54 87 55 88 57 89 59 90 56 91
REMARK H PARENT 11 19 76 53 50 64
REMARK Flexibility Score: inf
ROOT
ATOM      1  C   UNL A   1      33.615  34.735  29.147  1.00  0.00     0.188 C 
ENDROOT
BRANCH   1   2
ATOM      2  O   UNL A   1      32.529  34.468  28.271  1.00  0.00    -0.376 OA
BRANCH   2   3
ATOM      3  C   UNL A   1      32.549  33.202  27.631  1.00  0.00     0.202 C 
BRANCH   3   4
ATOM      4  C   UNL A   1      33.914  32.397  27.650  1.00  0.00     0.261 C 
BRANCH   4   5
ATOM      5  O   UNL A   1      33.949  30.841  27.957  1.00  0.00    -0.460 OA
BRANCH   5   6
ATOM      6  C   UNL A   1      33.867  29.519  27.295  1.00  0.00     0.339 C 
ATOM      7  O   UNL A   1      34.958  28.954  27.156  1.00  0.00    -0.246 OA
BRANCH   6   8
ATOM      8  C   UNL A   1      32.468  28.839  26.175  1.00  0.00     0.080 A 
ATOM      9  C   UNL A   1      31.737  29.279  23.967  1.00  0.00     0.061 A 
ATOM     10  C   UNL A   1      32.167  29.771  25.202  1.00  0.00     0.045 A 
ATOM     11  C   UNL A   1      30.639  28.433  23.933  1.00  0.00     0.066 A 
ATOM     12  C   UNL A   1      30.571  27.532  24.945  1.00  0.00     0.044 A 
ATOM     13  Cl  UNL A   1      29.747  28.130  22.494  1.00  0.00    -0.082 Cl
ATOM     14  C   UNL A   1      31.602  27.579  25.908  1.00  0.00     0.057 A 
ATOM     15  Cl  UNL A   1      31.695  25.833  26.348  1.00  0.00    -0.083 Cl
BRANCH   9  16
ATOM     16  N   UNL A   1      32.733  28.888  23.018  1.00  0.00    -0.322 N 
ATOM     17  C   UNL A   1      33.507  27.736  22.848  1.00  0.00     0.262 C 
ATOM     18  O   UNL A   1      34.000  27.651  21.706  1.00  0.00    -0.271 OA
ATOM     19  H   UNL A   1      32.911  29.578  22.340  1.00  0.00     0.170 HD
BRANCH  17  20
ATOM     20  C   UNL A   1      33.950  26.404  24.065  1.00  0.00     0.329 C 
BRANCH  20  21
ATOM     21  O   UNL A   1      33.382  24.364  23.925  1.00  0.00    -0.484 OA
BRANCH  21  22
ATOM     22  C   UNL A   1      34.155  22.872  23.816  1.00  0.00     0.120 A 
ATOM     23  C   UNL A   1      37.464  21.135  24.921  1.00  0.00     0.044 C 
ATOM     24  C   UNL A   1      36.005  21.369  24.628  1.00  0.00    -0.047 A 
ATOM     25  C   UNL A   1      35.061  20.411  24.967  1.00  0.00     0.003 A 
ATOM     26  C   UNL A   1      35.555  22.577  24.045  1.00  0.00     0.049 A 
ATOM     27  C   UNL A   1      33.726  20.613  24.594  1.00  0.00     0.004 A 
ATOM     28  C   UNL A   1      33.299  21.802  23.941  1.00  0.00     0.046 A 
ENDBRANCH  21  22
ENDBRANCH  20  21
ENDBRANCH  17  20
ENDBRANCH   9  16
ENDBRANCH   6   8
ENDBRANCH   5   6
ENDBRANCH   4   5
ENDBRANCH   3   4
ENDBRANCH   2   3
ENDBRANCH   1   2
BRANCH   1  29
ATOM     29  C   UNL A   1      33.173  35.352  30.445  1.00  0.00     0.188 C 
BRANCH  29  30
ATOM     30  O   UNL A   1      33.650  34.587  31.536  1.00  0.00    -0.376 OA
BRANCH  30  31
ATOM     31  C   UNL A   1      34.495  33.497  31.180  1.00  0.00     0.202 C 
BRANCH  31  32
ATOM     32  C   UNL A   1      35.935  33.622  31.735  1.00  0.00     0.261 C 
BRANCH  32  33
ATOM     33  O   UNL A   1      36.756  32.523  31.244  1.00  0.00    -0.460 OA
BRANCH  33  34
ATOM     34  C   UNL A   1      37.180  32.452  29.933  1.00  0.00     0.338 C 
ATOM     35  O   UNL A   1      37.405  33.396  29.199  1.00  0.00    -0.246 OA
BRANCH  34  36
ATOM     36  C   UNL A   1      36.962  31.031  29.462  1.00  0.00     0.060 A 
ATOM     37  C   UNL A   1      36.961  29.907  30.303  1.00  0.00     0.016 A 
ATOM     38  C   UNL A   1      37.394  30.796  28.213  1.00  0.00     0.016 A 
ATOM     39  C   UNL A   1      37.829  28.757  30.076  1.00  0.00     0.010 A 
ATOM     40  C   UNL A   1      38.325  29.773  28.109  1.00  0.00     0.010 A 
ATOM     41  C   UNL A   1      38.766  28.735  29.048  1.00  0.00    -0.014 A 
BRANCH  41  42
ATOM     42  C   UNL A   1      40.154  27.559  28.910  1.00  0.00     0.031 A 
ATOM     43  C   UNL A   1      40.226  25.791  28.274  1.00  0.00     0.074 A 
ATOM     44  C   UNL A   1      41.370  28.110  29.191  1.00  0.00     0.049 A 
ATOM     45  N   UNL A   1      41.591  25.015  28.487  1.00  0.00    -0.248 NA
ATOM     46  C   UNL A   1      38.901  24.420  27.474  1.00  0.00     0.031 C 
ATOM     47  C   UNL A   1      42.717  27.597  28.943  1.00  0.00     0.029 A 
ATOM     48  N   UNL A   1      41.620  29.388  29.709  1.00  0.00    -0.354 N 
ATOM     49  C   UNL A   1      41.621  23.344  27.821  1.00  0.00     0.074 A 
ATOM     50  C   UNL A   1      39.822  22.958  27.255  1.00  0.00     0.031 C 
ATOM     51  C   UNL A   1      43.633  28.432  29.458  1.00  0.00     0.029 A 
ATOM     52  C   UNL A   1      42.916  29.410  30.244  1.00  0.00     0.049 A 
ATOM     53  H   UNL A   1      40.991  30.145  29.699  1.00  0.00     0.167 HD
ATOM     54  C   UNL A   1      42.833  22.737  27.785  1.00  0.00     0.037 A 
ATOM     55  C   UNL A   1      43.108  29.685  31.559  1.00  0.00     0.037 A 
ATOM     56  C   UNL A   1      43.786  23.543  28.563  1.00  0.00     0.049 A 
ATOM     57  C   UNL A   1      43.600  28.422  32.231  1.00  0.00     0.074 A 
ATOM     58  C   UNL A   1      44.787  24.436  28.222  1.00  0.00     0.029 A 
ATOM     59  N   UNL A   1      43.551  23.762  29.934  1.00  0.00    -0.354 N 
ATOM     60  N   UNL A   1      43.465  27.229  31.694  1.00  0.00    -0.248 NA
ATOM     61  C   UNL A   1      44.415  28.389  33.437  1.00  0.00     0.031 C 
ATOM     62  C   UNL A   1      45.141  25.186  29.389  1.00  0.00     0.029 A 
ATOM     63  C   UNL A   1      44.368  24.758  30.462  1.00  0.00     0.049 A 
ATOM     64  H   UNL A   1      42.884  23.265  30.460  1.00  0.00     0.167 HD
ATOM     65  C   UNL A   1      44.249  26.325  32.345  1.00  0.00     0.074 A 
ATOM     66  C   UNL A   1      44.793  27.095  33.457  1.00  0.00     0.031 C 
ATOM     67  C   UNL A   1      44.438  25.033  31.916  1.00  0.00     0.037 A 
BRANCH  54  68
ATOM     68  C   UNL A   1      43.121  21.608  26.832  1.00  0.00     0.057 A 
ATOM     69  C   UNL A   1      42.503  20.354  26.971  1.00  0.00     0.134 A 
ATOM     70  C   UNL A   1      44.077  21.662  25.801  1.00  0.00     0.134 A 
ATOM     71  F   UNL A   1      41.508  20.164  27.848  1.00  0.00    -0.206 F 
ATOM     72  C   UNL A   1      42.881  19.230  26.217  1.00  0.00     0.040 A 
ATOM     73  C   UNL A   1      44.520  20.535  25.091  1.00  0.00     0.040 A 
ATOM     74  F   UNL A   1      44.563  22.827  25.370  1.00  0.00    -0.206 F 
ATOM     75  C   UNL A   1      43.924  19.306  25.303  1.00  0.00     0.006 A 
ENDBRANCH  54  68
BRANCH  55  76
ATOM     76  C   UNL A   1      42.231  30.823  31.990  1.00  0.00     0.057 A 
ATOM     77  C   UNL A   1      42.508  32.074  31.378  1.00  0.00     0.134 A 
ATOM     78  C   UNL A   1      40.933  30.658  32.472  1.00  0.00     0.134 A 
ATOM     79  F   UNL A   1      43.746  32.340  30.931  1.00  0.00    -0.206 F 
ATOM     80  C   UNL A   1      41.506  32.993  31.044  1.00  0.00     0.040 A 
ATOM     81  C   UNL A   1      39.932  31.619  32.213  1.00  0.00     0.040 A 
ATOM     82  F   UNL A   1      40.550  29.500  33.027  1.00  0.00    -0.206 F 
ATOM     83  C   UNL A   1      40.198  32.741  31.423  1.00  0.00     0.006 A 
ENDBRANCH  55  76
BRANCH  67  84
ATOM     84  C   UNL A   1      44.854  23.919  32.856  1.00  0.00     0.057 A 
ATOM     85  C   UNL A   1      46.121  23.834  33.458  1.00  0.00     0.134 A 
ATOM     86  C   UNL A   1      43.920  22.967  33.325  1.00  0.00     0.134 A 
ATOM     87  F   UNL A   1      47.077  24.747  33.242  1.00  0.00    -0.206 F 
ATOM     88  C   UNL A   1      46.459  22.832  34.373  1.00  0.00     0.040 A 
ATOM     89  C   UNL A   1      44.220  22.024  34.309  1.00  0.00     0.040 A 
ATOM     90  F   UNL A   1      42.658  22.919  32.878  1.00  0.00    -0.206 F 
ATOM     91  C   UNL A   1      45.503  21.934  34.818  1.00  0.00     0.006 A 
ENDBRANCH  67  84
ENDBRANCH  41  42
ENDBRANCH  34  36
ENDBRANCH  33  34
ENDBRANCH  32  33
ENDBRANCH  31  32
ENDBRANCH  30  31
ENDBRANCH  29  30
ENDBRANCH   1  29
TORSDOF 21
ENDMDL
MODEL 3
REMARK VINA RESULT:     -12.5      4.734     10.997
REMARK SMILES Cc1cccc(OCC(=O)Nc2cc(C(=O)OCCOCCOCCOC(=O)c3ccc(-c4c5nc(c(-c6c(F)cccc6F)c6ccc([nH]6)c(-c6c(F)cccc6F)c6nc(c(-c7c(F)cccc7F)c7ccc4[nH]7)C=C6)C=C5)cc3)c(Cl)cc2Cl)c1
REMARK SMILES IDX 21 1 20 2 19 3 18 4 17 5 15 6 16 7 14 8 12 9 13 10 86 11
REMARK SMILES IDX 85 12 87 13 83 14 84 15 11 16 9 17 10 18 8 20 7 21 6 22 1 23
REMARK SMILES IDX 2 24 3 25 88 26 4 27 5 28 22 29 23 30 24 31 25 32 26 33
REMARK SMILES IDX 27 34 28 35 29 36 30 37 82 38 31 39 81 40 32 41 33 42 34 43
REMARK SMILES IDX 75 44 35 45 80 46 74 47 76 48 36 49 79 50 73 51 72 52 37 54
REMARK SMILES IDX 63 55 46 56 62 57 47 58 50 59 61 60 77 61 48 62 49 63 60 65
REMARK SMILES IDX 78 66 51 67 38 68 39 69 44 70 40 71 41 72 43 73 45 74 42 75
REMARK SMILES IDX 64 76 65 77 70 78 66 79 67 80 69 81 71 82 68 83 52 84 53 85
REMARK SMILES IDX 58 86 54 87 55 88 57 89 59 90 56 91
REMARK H PARENT 11 19 76 53 50 64
REMARK Flexibility Score: inf
ROOT
ATOM      1  C   UNL A   1      35.013  34.654  28.738  1.00  0.00     0.188 C 
ENDROOT
BRANCH   1   2
ATOM      2  O   UNL A   1      34.955  33.605  27.782  1.00  0.00    -0.376 OA
BRANCH   2   3
ATOM      3  C   UNL A   1      34.348  32.401  28.222  1.00  0.00     0.202 C 
BRANCH   3   4
ATOM      4  C   UNL A   1      35.044  31.039  27.807  1.00  0.00     0.261 C 
BRANCH   4   5
ATOM      5  O   UNL A   1      34.223  29.872  27.115  1.00  0.00    -0.460 OA
BRANCH   5   6
ATOM      6  C   UNL A   1      33.024  29.624  26.283  1.00  0.00     0.339 C 
ATOM      7  O   UNL A   1      31.970  30.043  26.776  1.00  0.00    -0.246 OA
BRANCH   6   8
ATOM      8  C   UNL A   1      32.792  28.322  24.895  1.00  0.00     0.080 A 
ATOM      9  C   UNL A   1      32.633  25.961  24.833  1.00  0.00     0.061 A 
ATOM     10  C   UNL A   1      33.270  27.101  25.328  1.00  0.00     0.045 A 
ATOM     11  C   UNL A   1      32.549  25.789  23.460  1.00  0.00     0.066 A 
ATOM     12  C   UNL A   1      32.301  26.917  22.749  1.00  0.00     0.044 A 
ATOM     13  Cl  UNL A   1      32.213  24.265  22.737  1.00  0.00    -0.082 Cl
ATOM     14  C   UNL A   1      32.182  28.117  23.483  1.00  0.00     0.057 A 
ATOM     15  Cl  UNL A   1      30.985  28.991  22.456  1.00  0.00    -0.083 Cl
BRANCH   9  16
ATOM     16  N   UNL A   1      31.445  25.518  25.494  1.00  0.00    -0.322 N 
ATOM     17  C   UNL A   1      31.065  24.316  26.101  1.00  0.00     0.262 C 
ATOM     18  O   UNL A   1      30.087  24.448  26.862  1.00  0.00    -0.271 OA
ATOM     19  H   UNL A   1      30.743  26.207  25.529  1.00  0.00     0.170 HD
BRANCH  17  20
ATOM     20  C   UNL A   1      31.744  22.600  25.879  1.00  0.00     0.329 C 
BRANCH  20  21
ATOM     21  O   UNL A   1      33.770  22.029  26.151  1.00  0.00    -0.484 OA
BRANCH  21  22
ATOM     22  C   UNL A   1      35.270  22.459  25.517  1.00  0.00     0.120 A 
ATOM     23  C   UNL A   1      38.478  24.434  26.510  1.00  0.00     0.044 C 
ATOM     24  C   UNL A   1      37.578  23.369  25.940  1.00  0.00    -0.047 A 
ATOM     25  C   UNL A   1      38.120  22.213  25.395  1.00  0.00     0.003 A 
ATOM     26  C   UNL A   1      36.170  23.492  25.985  1.00  0.00     0.049 A 
ATOM     27  C   UNL A   1      37.265  21.287  24.785  1.00  0.00     0.004 A 
ATOM     28  C   UNL A   1      35.854  21.460  24.770  1.00  0.00     0.046 A 
ENDBRANCH  21  22
ENDBRANCH  20  21
ENDBRANCH  17  20
ENDBRANCH   9  16
ENDBRANCH   6   8
ENDBRANCH   5   6
ENDBRANCH   4   5
ENDBRANCH   3   4
ENDBRANCH   2   3
ENDBRANCH   1   2
BRANCH   1  29
ATOM     29  C   UNL A   1      34.232  35.867  28.315  1.00  0.00     0.188 C 
BRANCH  29  30
ATOM     30  O   UNL A   1      33.314  36.234  29.328  1.00  0.00    -0.376 OA
BRANCH  30  31
ATOM     31  C   UNL A   1      33.279  35.358  30.451  1.00  0.00     0.202 C 
BRANCH  31  32
ATOM     32  C   UNL A   1      32.636  35.990  31.710  1.00  0.00     0.261 C 
BRANCH  32  33
ATOM     33  O   UNL A   1      33.386  35.608  32.899  1.00  0.00    -0.460 OA
BRANCH  33  34
ATOM     34  C   UNL A   1      33.892  34.336  33.072  1.00  0.00     0.338 C 
ATOM     35  O   UNL A   1      33.241  33.314  33.186  1.00  0.00    -0.246 OA
BRANCH  34  36
ATOM     36  C   UNL A   1      35.347  34.475  33.462  1.00  0.00     0.060 A 
ATOM     37  C   UNL A   1      36.354  34.955  32.610  1.00  0.00     0.016 A 
ATOM     38  C   UNL A   1      35.759  33.573  34.366  1.00  0.00     0.016 A 
ATOM     39  C   UNL A   1      37.569  34.198  32.328  1.00  0.00     0.010 A 
ATOM     40  C   UNL A   1      36.836  32.800  33.958  1.00  0.00     0.010 A 
ATOM     41  C   UNL A   1      37.770  32.917  32.832  1.00  0.00    -0.014 A 
BRANCH  41  42
ATOM     42  C   UNL A   1      39.027  31.734  32.239  1.00  0.00     0.031 A 
ATOM     43  C   UNL A   1      38.944  30.385  30.932  1.00  0.00     0.074 A 
ATOM     44  C   UNL A   1      40.275  31.964  32.738  1.00  0.00     0.049 A 
ATOM     45  N   UNL A   1      40.200  29.423  30.825  1.00  0.00    -0.248 NA
ATOM     46  C   UNL A   1      37.531  29.638  29.621  1.00  0.00     0.031 C 
ATOM     47  C   UNL A   1      41.570  31.431  32.318  1.00  0.00     0.029 A 
ATOM     48  N   UNL A   1      40.630  32.878  33.740  1.00  0.00    -0.354 N 
ATOM     49  C   UNL A   1      40.088  28.180  29.529  1.00  0.00     0.074 A 
ATOM     50  C   UNL A   1      38.298  28.289  28.831  1.00  0.00     0.031 C 
ATOM     51  C   UNL A   1      42.538  31.861  33.144  1.00  0.00     0.029 A 
ATOM     52  C   UNL A   1      41.884  32.516  34.254  1.00  0.00     0.049 A 
ATOM     53  H   UNL A   1      40.090  33.646  34.035  1.00  0.00     0.167 HD
ATOM     54  C   UNL A   1      41.226  27.492  29.262  1.00  0.00     0.037 A 
ATOM     55  C   UNL A   1      42.020  32.205  35.568  1.00  0.00     0.037 A 
ATOM     56  C   UNL A   1      42.210  27.783  30.316  1.00  0.00     0.049 A 
ATOM     57  C   UNL A   1      42.326  30.726  35.666  1.00  0.00     0.074 A 
ATOM     58  C   UNL A   1      43.323  28.604  30.387  1.00  0.00     0.029 A 
ATOM     59  N   UNL A   1      41.913  27.453  31.652  1.00  0.00    -0.354 N 
ATOM     60  N   UNL A   1      42.096  29.883  34.684  1.00  0.00    -0.248 NA
ATOM     61  C   UNL A   1      43.054  30.102  36.762  1.00  0.00     0.031 C 
ATOM     62  C   UNL A   1      43.681  28.762  31.764  1.00  0.00     0.029 A 
ATOM     63  C   UNL A   1      42.800  28.036  32.555  1.00  0.00     0.049 A 
ATOM     64  H   UNL A   1      41.164  26.874  31.918  1.00  0.00     0.167 HD
ATOM     65  C   UNL A   1      42.732  28.701  34.914  1.00  0.00     0.074 A 
ATOM     66  C   UNL A   1      43.286  28.876  36.252  1.00  0.00     0.031 C 
ATOM     67  C   UNL A   1      42.805  27.684  33.993  1.00  0.00     0.037 A 
BRANCH  54  68
ATOM     68  C   UNL A   1      41.449  26.823  27.933  1.00  0.00     0.057 A 
ATOM     69  C   UNL A   1      41.858  25.482  27.845  1.00  0.00     0.134 A 
ATOM     70  C   UNL A   1      41.367  27.476  26.689  1.00  0.00     0.134 A 
ATOM     71  F   UNL A   1      41.900  24.697  28.931  1.00  0.00    -0.206 F 
ATOM     72  C   UNL A   1      42.249  24.881  26.636  1.00  0.00     0.040 A 
ATOM     73  C   UNL A   1      41.824  26.919  25.486  1.00  0.00     0.040 A 
ATOM     74  F   UNL A   1      40.756  28.655  26.568  1.00  0.00    -0.206 F 
ATOM     75  C   UNL A   1      42.276  25.612  25.457  1.00  0.00     0.006 A 
ENDBRANCH  54  68
BRANCH  55  76
ATOM     76  C   UNL A   1      41.248  33.169  36.417  1.00  0.00     0.057 A 
ATOM     77  C   UNL A   1      41.800  34.474  36.518  1.00  0.00     0.134 A 
ATOM     78  C   UNL A   1      39.874  33.074  36.641  1.00  0.00     0.134 A 
ATOM     79  F   UNL A   1      43.122  34.654  36.368  1.00  0.00    -0.206 F 
ATOM     80  C   UNL A   1      41.010  35.627  36.585  1.00  0.00     0.040 A 
ATOM     81  C   UNL A   1      39.079  34.228  36.795  1.00  0.00     0.040 A 
ATOM     82  F   UNL A   1      39.242  31.897  36.528  1.00  0.00    -0.206 F 
ATOM     83  C   UNL A   1      39.634  35.506  36.677  1.00  0.00     0.006 A 
ENDBRANCH  55  76
BRANCH  67  84
ATOM     84  C   UNL A   1      43.036  26.240  34.397  1.00  0.00     0.057 A 
ATOM     85  C   UNL A   1      42.052  25.422  34.977  1.00  0.00     0.134 A 
ATOM     86  C   UNL A   1      44.230  25.565  34.057  1.00  0.00     0.134 A 
ATOM     87  F   UNL A   1      40.811  25.863  35.225  1.00  0.00    -0.206 F 
ATOM     88  C   UNL A   1      42.269  24.074  35.280  1.00  0.00     0.040 A 
ATOM     89  C   UNL A   1      44.420  24.198  34.266  1.00  0.00     0.040 A 
ATOM     90  F   UNL A   1      45.264  26.185  33.473  1.00  0.00    -0.206 F 
ATOM     91  C   UNL A   1      43.449  23.451  34.907  1.00  0.00     0.006 A 
ENDBRANCH  67  84
ENDBRANCH  41  42
ENDBRANCH  34  36
ENDBRANCH  33  34
ENDBRANCH  32  33
ENDBRANCH  31  32
ENDBRANCH  30  31
ENDBRANCH  29  30
ENDBRANCH   1  29
TORSDOF 21
ENDMDL
