MODEL 1
REMARK VINA RESULT:     -11.3      0.000      0.000
REMARK SMILES Cc1nn(C)cc1CNC(=O)[C@H]1[C@@H]2CC[C@@H](C2)[C@@H]1C(=O)OCCOCCOCCOC(=O)c1ccc(-c2c3nc(c(-c4c(F)cccc4F)c4ccc([nH]4)c(-c4c(F)cccc4F)c4nc(c(-c5c(F)cccc5F)c5ccc2[nH]5)C=C4)C=C3)cc1
REMARK SMILES IDX 25 1 24 2 23 3 22 4 21 5 19 6 20 7 18 8 12 9 13 10 14 11
REMARK SMILES IDX 17 12 16 13 15 14 10 15 9 16 11 18 8 19 7 20 1 21 2 22 3 23
REMARK SMILES IDX 4 24 6 25 5 26 26 27 27 28 28 29 29 30 30 31 31 32 32 33
REMARK SMILES IDX 33 34 34 35 86 36 35 37 85 38 36 39 37 40 38 41 79 42 39 43
REMARK SMILES IDX 84 44 78 45 80 46 40 47 83 48 77 49 76 50 41 52 67 53 50 54
REMARK SMILES IDX 66 55 51 56 54 57 65 58 81 59 52 60 53 61 64 63 82 64 55 65
REMARK SMILES IDX 42 66 43 67 48 68 44 69 45 70 47 71 49 72 46 73 68 74 69 75
REMARK SMILES IDX 74 76 70 77 71 78 73 79 75 80 72 81 56 82 57 83 62 84 58 85
REMARK SMILES IDX 59 86 61 87 63 88 60 89
REMARK H PARENT 9 17 80 51 54 62
REMARK Flexibility Score: inf
ROOT
ATOM      1  C   UNL A   1      40.632  21.300  26.540  1.00  0.00     0.188 C 
ENDROOT
BRANCH   1   2
ATOM      2  O   UNL A   1      40.098  22.408  27.253  1.00  0.00    -0.376 OA
BRANCH   2   3
ATOM      3  C   UNL A   1      39.237  23.333  26.611  1.00  0.00     0.202 C 
BRANCH   3   4
ATOM      4  C   UNL A   1      38.004  22.770  25.891  1.00  0.00     0.261 C 
BRANCH   4   5
ATOM      5  O   UNL A   1      37.109  23.683  25.211  1.00  0.00    -0.463 OA
BRANCH   5   6
ATOM      6  C   UNL A   1      35.941  23.133  24.800  1.00  0.00     0.310 C 
ATOM      7  O   UNL A   1      35.859  22.258  23.944  1.00  0.00    -0.252 OA
BRANCH   6   8
ATOM      8  C   UNL A   1      34.694  23.675  25.459  1.00  0.00     0.115 C 
ATOM      9  C   UNL A   1      33.344  23.017  25.123  1.00  0.00     0.096 C 
ATOM     10  C   UNL A   1      32.373  24.246  25.200  1.00  0.00     0.002 C 
ATOM     11  C   UNL A   1      32.465  25.035  23.890  1.00  0.00     0.005 C 
ATOM     12  C   UNL A   1      33.087  25.221  26.150  1.00  0.00     0.009 C 
ATOM     13  C   UNL A   1      34.393  25.183  25.348  1.00  0.00     0.004 C 
ATOM     14  C   UNL A   1      33.885  25.607  23.952  1.00  0.00     0.005 C 
BRANCH   9  15
ATOM     15  C   UNL A   1      32.998  21.972  26.180  1.00  0.00     0.224 C 
ATOM     16  N   UNL A   1      32.583  20.732  25.807  1.00  0.00    -0.352 N 
ATOM     17  H   UNL A   1      32.517  20.084  26.544  1.00  0.00     0.163 HD
ATOM     18  O   UNL A   1      33.119  22.198  27.385  1.00  0.00    -0.275 OA
BRANCH  16  19
ATOM     19  C   UNL A   1      32.222  20.203  24.510  1.00  0.00     0.155 C 
BRANCH  19  20
ATOM     20  C   UNL A   1      32.723  18.808  24.358  1.00  0.00     0.012 A 
ATOM     21  C   UNL A   1      32.261  18.351  21.811  1.00  0.00     0.069 C 
ATOM     22  C   UNL A   1      32.772  18.024  23.165  1.00  0.00     0.064 A 
ATOM     23  N   UNL A   1      33.396  16.856  23.355  1.00  0.00    -0.178 NA
ATOM     24  N   UNL A   1      33.786  16.900  24.640  1.00  0.00    -0.275 N 
ATOM     25  C   UNL A   1      33.315  17.991  25.303  1.00  0.00     0.114 A 
ATOM     26  C   UNL A   1      34.666  15.881  25.158  1.00  0.00     0.173 C 
ENDBRANCH  19  20
ENDBRANCH  16  19
ENDBRANCH   9  15
ENDBRANCH   6   8
ENDBRANCH   5   6
ENDBRANCH   4   5
ENDBRANCH   3   4
ENDBRANCH   2   3
ENDBRANCH   1   2
BRANCH   1  27
ATOM     27  C   UNL A   1      42.115  20.948  26.645  1.00  0.00     0.188 C 
BRANCH  27  28
ATOM     28  O   UNL A   1      42.779  20.973  25.398  1.00  0.00    -0.376 OA
BRANCH  28  29
ATOM     29  C   UNL A   1      44.170  21.245  25.417  1.00  0.00     0.202 C 
BRANCH  29  30
ATOM     30  C   UNL A   1      44.544  22.250  24.321  1.00  0.00     0.261 C 
BRANCH  30  31
ATOM     31  O   UNL A   1      43.910  23.539  24.454  1.00  0.00    -0.460 OA
BRANCH  31  32
ATOM     32  C   UNL A   1      44.661  24.529  24.994  1.00  0.00     0.338 C 
ATOM     33  O   UNL A   1      45.773  24.876  24.630  1.00  0.00    -0.246 OA
BRANCH  32  34
ATOM     34  C   UNL A   1      43.808  25.317  25.922  1.00  0.00     0.060 A 
ATOM     35  C   UNL A   1      44.035  26.697  26.021  1.00  0.00     0.016 A 
ATOM     36  C   UNL A   1      42.769  24.728  26.648  1.00  0.00     0.016 A 
ATOM     37  C   UNL A   1      43.274  27.477  26.896  1.00  0.00     0.010 A 
ATOM     38  C   UNL A   1      42.014  25.510  27.534  1.00  0.00     0.010 A 
ATOM     39  C   UNL A   1      42.294  26.878  27.700  1.00  0.00    -0.014 A 
BRANCH  39  40
ATOM     40  C   UNL A   1      41.738  27.632  28.857  1.00  0.00     0.031 A 
ATOM     41  C   UNL A   1      42.447  27.528  30.185  1.00  0.00     0.074 A 
ATOM     42  C   UNL A   1      40.672  28.447  28.740  1.00  0.00     0.049 A 
ATOM     43  N   UNL A   1      42.174  28.106  31.327  1.00  0.00    -0.248 NA
ATOM     44  C   UNL A   1      43.626  26.648  30.227  1.00  0.00     0.031 C 
ATOM     45  C   UNL A   1      39.908  28.676  27.516  1.00  0.00     0.029 A 
ATOM     46  N   UNL A   1      40.052  29.239  29.678  1.00  0.00    -0.354 N 
ATOM     47  C   UNL A   1      43.143  27.662  32.218  1.00  0.00     0.074 A 
ATOM     48  C   UNL A   1      43.984  26.730  31.498  1.00  0.00     0.031 C 
ATOM     49  C   UNL A   1      38.921  29.553  27.778  1.00  0.00     0.029 A 
ATOM     50  C   UNL A   1      38.968  29.929  29.191  1.00  0.00     0.049 A 
ATOM     51  H   UNL A   1      40.356  29.303  30.611  1.00  0.00     0.167 HD
ATOM     52  C   UNL A   1      43.335  28.007  33.514  1.00  0.00     0.037 A 
ATOM     53  C   UNL A   1      38.109  30.760  29.816  1.00  0.00     0.037 A 
ATOM     54  C   UNL A   1      42.505  28.929  34.243  1.00  0.00     0.049 A 
ATOM     55  C   UNL A   1      38.300  31.074  31.280  1.00  0.00     0.074 A 
ATOM     56  C   UNL A   1      42.628  29.345  35.557  1.00  0.00     0.029 A 
ATOM     57  N   UNL A   1      41.394  29.575  33.722  1.00  0.00    -0.354 N 
ATOM     58  N   UNL A   1      39.238  30.670  32.102  1.00  0.00    -0.248 NA
ATOM     59  C   UNL A   1      37.313  31.973  31.898  1.00  0.00     0.031 C 
ATOM     60  C   UNL A   1      41.561  30.200  35.849  1.00  0.00     0.029 A 
ATOM     61  C   UNL A   1      40.809  30.367  34.698  1.00  0.00     0.049 A 
ATOM     62  H   UNL A   1      41.068  29.484  32.799  1.00  0.00     0.167 HD
ATOM     63  C   UNL A   1      38.973  31.290  33.320  1.00  0.00     0.074 A 
ATOM     64  C   UNL A   1      37.800  32.114  33.122  1.00  0.00     0.031 C 
ATOM     65  C   UNL A   1      39.642  31.188  34.495  1.00  0.00     0.037 A 
BRANCH  52  66
ATOM     66  C   UNL A   1      44.482  27.360  34.236  1.00  0.00     0.057 A 
ATOM     67  C   UNL A   1      45.748  27.955  34.302  1.00  0.00     0.134 A 
ATOM     68  C   UNL A   1      44.308  26.138  34.900  1.00  0.00     0.134 A 
ATOM     69  F   UNL A   1      45.988  29.116  33.672  1.00  0.00    -0.206 F 
ATOM     70  C   UNL A   1      46.806  27.348  34.980  1.00  0.00     0.040 A 
ATOM     71  C   UNL A   1      45.350  25.537  35.608  1.00  0.00     0.040 A 
ATOM     72  F   UNL A   1      43.120  25.515  34.881  1.00  0.00    -0.206 F 
ATOM     73  C   UNL A   1      46.605  26.138  35.643  1.00  0.00     0.006 A 
ENDBRANCH  52  66
BRANCH  53  74
ATOM     74  C   UNL A   1      36.973  31.365  29.070  1.00  0.00     0.057 A 
ATOM     75  C   UNL A   1      36.998  32.706  28.664  1.00  0.00     0.134 A 
ATOM     76  C   UNL A   1      35.809  30.635  28.799  1.00  0.00     0.134 A 
ATOM     77  F   UNL A   1      38.070  33.470  28.924  1.00  0.00    -0.206 F 
ATOM     78  C   UNL A   1      35.900  33.304  28.040  1.00  0.00     0.040 A 
ATOM     79  C   UNL A   1      34.717  31.211  28.148  1.00  0.00     0.040 A 
ATOM     80  F   UNL A   1      35.716  29.349  29.166  1.00  0.00    -0.206 F 
ATOM     81  C   UNL A   1      34.757  32.554  27.776  1.00  0.00     0.006 A 
ENDBRANCH  53  74
BRANCH  65  82
ATOM     82  C   UNL A   1      39.148  32.023  35.646  1.00  0.00     0.057 A 
ATOM     83  C   UNL A   1      38.265  31.519  36.610  1.00  0.00     0.134 A 
ATOM     84  C   UNL A   1      39.572  33.351  35.796  1.00  0.00     0.134 A 
ATOM     85  F   UNL A   1      37.813  30.258  36.525  1.00  0.00    -0.206 F 
ATOM     86  C   UNL A   1      37.786  32.316  37.653  1.00  0.00     0.040 A 
ATOM     87  C   UNL A   1      39.127  34.147  36.853  1.00  0.00     0.040 A 
ATOM     88  F   UNL A   1      40.430  33.896  34.922  1.00  0.00    -0.206 F 
ATOM     89  C   UNL A   1      38.220  33.633  37.778  1.00  0.00     0.006 A 
ENDBRANCH  65  82
ENDBRANCH  39  40
ENDBRANCH  32  34
ENDBRANCH  31  32
ENDBRANCH  30  31
ENDBRANCH  29  30
ENDBRANCH  28  29
ENDBRANCH  27  28
ENDBRANCH   1  27
TORSDOF 20
ENDMDL
MODEL 2
REMARK VINA RESULT:     -11.1      5.197     10.425
REMARK SMILES Cc1nn(C)cc1CNC(=O)[C@H]1[C@@H]2CC[C@@H](C2)[C@@H]1C(=O)OCCOCCOCCOC(=O)c1ccc(-c2c3nc(c(-c4c(F)cccc4F)c4ccc([nH]4)c(-c4c(F)cccc4F)c4nc(c(-c5c(F)cccc5F)c5ccc2[nH]5)C=C4)C=C3)cc1
REMARK SMILES IDX 25 1 24 2 23 3 22 4 21 5 19 6 20 7 18 8 12 9 13 10 14 11
REMARK SMILES IDX 17 12 16 13 15 14 10 15 9 16 11 18 8 19 7 20 1 21 2 22 3 23
REMARK SMILES IDX 4 24 6 25 5 26 26 27 27 28 28 29 29 30 30 31 31 32 32 33
REMARK SMILES IDX 33 34 34 35 86 36 35 37 85 38 36 39 37 40 38 41 79 42 39 43
REMARK SMILES IDX 84 44 78 45 80 46 40 47 83 48 77 49 76 50 41 52 67 53 50 54
REMARK SMILES IDX 66 55 51 56 54 57 65 58 81 59 52 60 53 61 64 63 82 64 55 65
REMARK SMILES IDX 42 66 43 67 48 68 44 69 45 70 47 71 49 72 46 73 68 74 69 75
REMARK SMILES IDX 74 76 70 77 71 78 73 79 75 80 72 81 56 82 57 83 62 84 58 85
REMARK SMILES IDX 59 86 61 87 63 88 60 89
REMARK H PARENT 9 17 80 51 54 62
REMARK Flexibility Score: inf
ROOT
ATOM      1  C   UNL A   1      34.306  33.471  28.070  1.00  0.00     0.188 C 
ENDROOT
BRANCH   1   2
ATOM      2  O   UNL A   1      34.492  32.094  27.770  1.00  0.00    -0.376 OA
BRANCH   2   3
ATOM      3  C   UNL A   1      33.381  31.262  27.478  1.00  0.00     0.202 C 
BRANCH   3   4
ATOM      4  C   UNL A   1      33.657  29.950  26.731  1.00  0.00     0.261 C 
BRANCH   4   5
ATOM      5  O   UNL A   1      33.561  28.698  27.451  1.00  0.00    -0.463 OA
BRANCH   5   6
ATOM      6  C   UNL A   1      32.702  27.797  26.913  1.00  0.00     0.310 C 
ATOM      7  O   UNL A   1      31.594  27.546  27.375  1.00  0.00    -0.252 OA
BRANCH   6   8
ATOM      8  C   UNL A   1      33.194  27.080  25.679  1.00  0.00     0.115 C 
ATOM      9  C   UNL A   1      32.246  26.964  24.472  1.00  0.00     0.096 C 
ATOM     10  C   UNL A   1      32.658  25.569  23.886  1.00  0.00     0.002 C 
ATOM     11  C   UNL A   1      31.972  24.467  24.700  1.00  0.00     0.005 C 
ATOM     12  C   UNL A   1      34.110  25.385  24.359  1.00  0.00     0.009 C 
ATOM     13  C   UNL A   1      33.758  25.652  25.827  1.00  0.00     0.004 C 
ATOM     14  C   UNL A   1      32.667  24.583  26.060  1.00  0.00     0.005 C 
BRANCH   9  15
ATOM     15  C   UNL A   1      32.532  28.087  23.479  1.00  0.00     0.224 C 
ATOM     16  N   UNL A   1      31.542  28.556  22.672  1.00  0.00    -0.352 N 
ATOM     17  H   UNL A   1      31.777  29.367  22.166  1.00  0.00     0.163 HD
ATOM     18  O   UNL A   1      33.638  28.624  23.402  1.00  0.00    -0.275 OA
BRANCH  16  19
ATOM     19  C   UNL A   1      30.203  28.065  22.431  1.00  0.00     0.155 C 
BRANCH  19  20
ATOM     20  C   UNL A   1      29.249  29.201  22.288  1.00  0.00     0.012 A 
ATOM     21  C   UNL A   1      27.132  28.278  23.542  1.00  0.00     0.069 C 
ATOM     22  C   UNL A   1      27.925  29.298  22.813  1.00  0.00     0.064 A 
ATOM     23  N   UNL A   1      27.388  30.506  22.606  1.00  0.00    -0.178 NA
ATOM     24  N   UNL A   1      28.366  31.197  21.996  1.00  0.00    -0.275 N 
ATOM     25  C   UNL A   1      29.449  30.431  21.690  1.00  0.00     0.114 A 
ATOM     26  C   UNL A   1      28.218  32.616  21.786  1.00  0.00     0.173 C 
ENDBRANCH  19  20
ENDBRANCH  16  19
ENDBRANCH   9  15
ENDBRANCH   6   8
ENDBRANCH   5   6
ENDBRANCH   4   5
ENDBRANCH   3   4
ENDBRANCH   2   3
ENDBRANCH   1   2
BRANCH   1  27
ATOM     27  C   UNL A   1      34.819  34.058  29.384  1.00  0.00     0.188 C 
BRANCH  27  28
ATOM     28  O   UNL A   1      33.974  33.777  30.481  1.00  0.00    -0.376 OA
BRANCH  28  29
ATOM     29  C   UNL A   1      34.180  34.536  31.660  1.00  0.00     0.202 C 
BRANCH  29  30
ATOM     30  C   UNL A   1      34.293  33.620  32.885  1.00  0.00     0.261 C 
BRANCH  30  31
ATOM     31  O   UNL A   1      35.049  32.413  32.658  1.00  0.00    -0.460 OA
BRANCH  31  32
ATOM     32  C   UNL A   1      36.246  32.323  33.286  1.00  0.00     0.338 C 
ATOM     33  O   UNL A   1      36.476  32.601  34.452  1.00  0.00    -0.246 OA
BRANCH  32  34
ATOM     34  C   UNL A   1      37.182  31.568  32.412  1.00  0.00     0.060 A 
ATOM     35  C   UNL A   1      38.193  30.811  33.022  1.00  0.00     0.016 A 
ATOM     36  C   UNL A   1      37.047  31.558  31.022  1.00  0.00     0.016 A 
ATOM     37  C   UNL A   1      39.112  30.102  32.243  1.00  0.00     0.010 A 
ATOM     38  C   UNL A   1      37.975  30.855  30.241  1.00  0.00     0.010 A 
ATOM     39  C   UNL A   1      39.042  30.164  30.844  1.00  0.00    -0.014 A 
BRANCH  39  40
ATOM     40  C   UNL A   1      40.203  29.703  30.034  1.00  0.00     0.031 A 
ATOM     41  C   UNL A   1      41.338  30.670  29.799  1.00  0.00     0.074 A 
ATOM     42  C   UNL A   1      40.301  28.445  29.566  1.00  0.00     0.049 A 
ATOM     43  N   UNL A   1      42.463  30.498  29.153  1.00  0.00    -0.248 NA
ATOM     44  C   UNL A   1      41.177  32.016  30.373  1.00  0.00     0.031 C 
ATOM     45  C   UNL A   1      39.303  27.392  29.743  1.00  0.00     0.029 A 
ATOM     46  N   UNL A   1      41.302  27.841  28.842  1.00  0.00    -0.354 N 
ATOM     47  C   UNL A   1      43.140  31.708  29.243  1.00  0.00     0.074 A 
ATOM     48  C   UNL A   1      42.282  32.621  29.966  1.00  0.00     0.031 C 
ATOM     49  C   UNL A   1      39.744  26.270  29.146  1.00  0.00     0.029 A 
ATOM     50  C   UNL A   1      41.042  26.530  28.523  1.00  0.00     0.049 A 
ATOM     51  H   UNL A   1      42.127  28.306  28.576  1.00  0.00     0.167 HD
ATOM     52  C   UNL A   1      44.373  32.033  28.785  1.00  0.00     0.037 A 
ATOM     53  C   UNL A   1      41.764  25.646  27.805  1.00  0.00     0.037 A 
ATOM     54  C   UNL A   1      45.237  31.137  28.063  1.00  0.00     0.049 A 
ATOM     55  C   UNL A   1      43.105  26.053  27.243  1.00  0.00     0.074 A 
ATOM     56  C   UNL A   1      46.507  31.377  27.567  1.00  0.00     0.029 A 
ATOM     57  N   UNL A   1      44.917  29.830  27.726  1.00  0.00    -0.354 N 
ATOM     58  N   UNL A   1      43.746  27.191  27.361  1.00  0.00    -0.248 NA
ATOM     59  C   UNL A   1      43.826  25.042  26.454  1.00  0.00     0.031 C 
ATOM     60  C   UNL A   1      46.934  30.234  26.883  1.00  0.00     0.029 A 
ATOM     61  C   UNL A   1      45.957  29.260  27.009  1.00  0.00     0.049 A 
ATOM     62  H   UNL A   1      44.078  29.375  27.962  1.00  0.00     0.167 HD
ATOM     63  C   UNL A   1      44.955  27.020  26.693  1.00  0.00     0.074 A 
ATOM     64  C   UNL A   1      44.967  25.663  26.192  1.00  0.00     0.031 C 
ATOM     65  C   UNL A   1      45.966  27.907  26.514  1.00  0.00     0.037 A 
BRANCH  52  66
ATOM     66  C   UNL A   1      44.853  33.434  29.035  1.00  0.00     0.057 A 
ATOM     67  C   UNL A   1      44.632  34.470  28.118  1.00  0.00     0.134 A 
ATOM     68  C   UNL A   1      45.521  33.757  30.224  1.00  0.00     0.134 A 
ATOM     69  F   UNL A   1      44.015  34.225  26.952  1.00  0.00    -0.206 F 
ATOM     70  C   UNL A   1      45.078  35.770  28.364  1.00  0.00     0.040 A 
ATOM     71  C   UNL A   1      45.944  35.059  30.494  1.00  0.00     0.040 A 
ATOM     72  F   UNL A   1      45.763  32.814  31.147  1.00  0.00    -0.206 F 
ATOM     73  C   UNL A   1      45.729  36.069  29.559  1.00  0.00     0.006 A 
ENDBRANCH  52  66
BRANCH  53  74
ATOM     74  C   UNL A   1      41.246  24.273  27.562  1.00  0.00     0.057 A 
ATOM     75  C   UNL A   1      40.213  24.035  26.645  1.00  0.00     0.134 A 
ATOM     76  C   UNL A   1      41.728  23.174  28.283  1.00  0.00     0.134 A 
ATOM     77  F   UNL A   1      39.684  25.049  25.946  1.00  0.00    -0.206 F 
ATOM     78  C   UNL A   1      39.663  22.761  26.474  1.00  0.00     0.040 A 
ATOM     79  C   UNL A   1      41.210  21.892  28.100  1.00  0.00     0.040 A 
ATOM     80  F   UNL A   1      42.711  23.334  29.181  1.00  0.00    -0.206 F 
ATOM     81  C   UNL A   1      40.166  21.685  27.200  1.00  0.00     0.006 A 
ENDBRANCH  53  74
BRANCH  65  82
ATOM     82  C   UNL A   1      47.188  27.423  25.782  1.00  0.00     0.057 A 
ATOM     83  C   UNL A   1      48.266  26.818  26.443  1.00  0.00     0.134 A 
ATOM     84  C   UNL A   1      47.284  27.557  24.389  1.00  0.00     0.134 A 
ATOM     85  F   UNL A   1      48.245  26.663  27.776  1.00  0.00    -0.206 F 
ATOM     86  C   UNL A   1      49.410  26.407  25.755  1.00  0.00     0.040 A 
ATOM     87  C   UNL A   1      48.409  27.119  23.687  1.00  0.00     0.040 A 
ATOM     88  F   UNL A   1      46.285  28.111  23.687  1.00  0.00    -0.206 F 
ATOM     89  C   UNL A   1      49.481  26.554  24.372  1.00  0.00     0.006 A 
ENDBRANCH  65  82
ENDBRANCH  39  40
ENDBRANCH  32  34
ENDBRANCH  31  32
ENDBRANCH  30  31
ENDBRANCH  29  30
ENDBRANCH  28  29
ENDBRANCH  27  28
ENDBRANCH   1  27
TORSDOF 20
ENDMDL
MODEL 3
REMARK VINA RESULT:     -10.9      4.597      9.695
REMARK SMILES Cc1nn(C)cc1CNC(=O)[C@H]1[C@@H]2CC[C@@H](C2)[C@@H]1C(=O)OCCOCCOCCOC(=O)c1ccc(-c2c3nc(c(-c4c(F)cccc4F)c4ccc([nH]4)c(-c4c(F)cccc4F)c4nc(c(-c5c(F)cccc5F)c5ccc2[nH]5)C=C4)C=C3)cc1
REMARK SMILES IDX 25 1 24 2 23 3 22 4 21 5 19 6 20 7 18 8 12 9 13 10 14 11
REMARK SMILES IDX 17 12 16 13 15 14 10 15 9 16 11 18 8 19 7 20 1 21 2 22 3 23
REMARK SMILES IDX 4 24 6 25 5 26 26 27 27 28 28 29 29 30 30 31 31 32 32 33
REMARK SMILES IDX 33 34 34 35 86 36 35 37 85 38 36 39 37 40 38 41 79 42 39 43
REMARK SMILES IDX 84 44 78 45 80 46 40 47 83 48 77 49 76 50 41 52 67 53 50 54
REMARK SMILES IDX 66 55 51 56 54 57 65 58 81 59 52 60 53 61 64 63 82 64 55 65
REMARK SMILES IDX 42 66 43 67 48 68 44 69 45 70 47 71 49 72 46 73 68 74 69 75
REMARK SMILES IDX 74 76 70 77 71 78 73 79 75 80 72 81 56 82 57 83 62 84 58 85
REMARK SMILES IDX 59 86 61 87 63 88 60 89
REMARK H PARENT 9 17 80 51 54 62
REMARK Flexibility Score: inf
ROOT
ATOM      1  C   UNL A   1      34.431  33.387  28.176  1.00  0.00     0.188 C 
ENDROOT
BRANCH   1   2
ATOM      2  O   UNL A   1      34.675  31.989  28.104  1.00  0.00    -0.376 OA
BRANCH   2   3
ATOM      3  C   UNL A   1      33.856  31.153  27.302  1.00  0.00     0.202 C 
BRANCH   3   4
ATOM      4  C   UNL A   1      34.140  29.645  27.333  1.00  0.00     0.261 C 
BRANCH   4   5
ATOM      5  O   UNL A   1      33.028  28.722  27.418  1.00  0.00    -0.463 OA
BRANCH   5   6
ATOM      6  C   UNL A   1      33.000  27.774  26.449  1.00  0.00     0.310 C 
ATOM      7  O   UNL A   1      33.919  26.992  26.229  1.00  0.00    -0.252 OA
BRANCH   6   8
ATOM      8  C   UNL A   1      31.744  27.731  25.612  1.00  0.00     0.115 C 
ATOM      9  C   UNL A   1      31.476  26.478  24.759  1.00  0.00     0.096 C 
ATOM     10  C   UNL A   1      30.749  27.100  23.516  1.00  0.00     0.002 C 
ATOM     11  C   UNL A   1      31.799  27.684  22.567  1.00  0.00     0.005 C 
ATOM     12  C   UNL A   1      30.130  28.398  24.062  1.00  0.00     0.009 C 
ATOM     13  C   UNL A   1      31.461  28.893  24.638  1.00  0.00     0.004 C 
ATOM     14  C   UNL A   1      32.350  28.864  23.375  1.00  0.00     0.005 C 
BRANCH   9  15
ATOM     15  C   UNL A   1      30.558  25.522  25.515  1.00  0.00     0.224 C 
ATOM     16  N   UNL A   1      30.482  24.214  25.150  1.00  0.00    -0.352 N 
ATOM     17  H   UNL A   1      29.978  23.644  25.774  1.00  0.00     0.163 HD
ATOM     18  O   UNL A   1      29.897  25.885  26.489  1.00  0.00    -0.275 OA
BRANCH  16  19
ATOM     19  C   UNL A   1      31.017  23.517  24.000  1.00  0.00     0.155 C 
BRANCH  19  20
ATOM     20  C   UNL A   1      32.399  23.034  24.279  1.00  0.00     0.012 A 
ATOM     21  C   UNL A   1      33.833  24.601  22.731  1.00  0.00     0.069 C 
ATOM     22  C   UNL A   1      33.623  23.542  23.750  1.00  0.00     0.064 A 
ATOM     23  N   UNL A   1      34.692  22.958  24.304  1.00  0.00    -0.178 NA
ATOM     24  N   UNL A   1      34.171  22.117  25.211  1.00  0.00    -0.275 N 
ATOM     25  C   UNL A   1      32.812  22.049  25.157  1.00  0.00     0.114 A 
ATOM     26  C   UNL A   1      35.037  21.446  26.148  1.00  0.00     0.173 C 
ENDBRANCH  19  20
ENDBRANCH  16  19
ENDBRANCH   9  15
ENDBRANCH   6   8
ENDBRANCH   5   6
ENDBRANCH   4   5
ENDBRANCH   3   4
ENDBRANCH   2   3
ENDBRANCH   1   2
BRANCH   1  27
ATOM     27  C   UNL A   1      34.775  34.173  29.440  1.00  0.00     0.188 C 
BRANCH  27  28
ATOM     28  O   UNL A   1      33.944  33.850  30.536  1.00  0.00    -0.376 OA
BRANCH  28  29
ATOM     29  C   UNL A   1      34.124  34.603  31.722  1.00  0.00     0.202 C 
BRANCH  29  30
ATOM     30  C   UNL A   1      34.300  33.678  32.933  1.00  0.00     0.261 C 
BRANCH  30  31
ATOM     31  O   UNL A   1      35.056  32.480  32.663  1.00  0.00    -0.460 OA
BRANCH  31  32
ATOM     32  C   UNL A   1      36.243  32.358  33.304  1.00  0.00     0.338 C 
ATOM     33  O   UNL A   1      36.463  32.612  34.477  1.00  0.00    -0.246 OA
BRANCH  32  34
ATOM     34  C   UNL A   1      37.176  31.600  32.430  1.00  0.00     0.060 A 
ATOM     35  C   UNL A   1      38.201  30.860  33.038  1.00  0.00     0.016 A 
ATOM     36  C   UNL A   1      37.025  31.569  31.041  1.00  0.00     0.016 A 
ATOM     37  C   UNL A   1      39.117  30.149  32.258  1.00  0.00     0.010 A 
ATOM     38  C   UNL A   1      37.950  30.864  30.259  1.00  0.00     0.010 A 
ATOM     39  C   UNL A   1      39.031  30.191  30.859  1.00  0.00    -0.014 A 
BRANCH  39  40
ATOM     40  C   UNL A   1      40.187  29.730  30.042  1.00  0.00     0.031 A 
ATOM     41  C   UNL A   1      41.319  30.697  29.799  1.00  0.00     0.074 A 
ATOM     42  C   UNL A   1      40.282  28.471  29.575  1.00  0.00     0.049 A 
ATOM     43  N   UNL A   1      42.441  30.525  29.145  1.00  0.00    -0.248 NA
ATOM     44  C   UNL A   1      41.162  32.044  30.372  1.00  0.00     0.031 C 
ATOM     45  C   UNL A   1      39.286  27.418  29.760  1.00  0.00     0.029 A 
ATOM     46  N   UNL A   1      41.279  27.867  28.846  1.00  0.00    -0.354 N 
ATOM     47  C   UNL A   1      43.117  31.735  29.229  1.00  0.00     0.074 A 
ATOM     48  C   UNL A   1      42.263  32.648  29.956  1.00  0.00     0.031 C 
ATOM     49  C   UNL A   1      39.723  26.295  29.162  1.00  0.00     0.029 A 
ATOM     50  C   UNL A   1      41.017  26.555  28.530  1.00  0.00     0.049 A 
ATOM     51  H   UNL A   1      42.102  28.332  28.574  1.00  0.00     0.167 HD
ATOM     52  C   UNL A   1      44.347  32.061  28.762  1.00  0.00     0.037 A 
ATOM     53  C   UNL A   1      41.735  25.670  27.809  1.00  0.00     0.037 A 
ATOM     54  C   UNL A   1      45.206  31.164  28.036  1.00  0.00     0.049 A 
ATOM     55  C   UNL A   1      43.072  26.078  27.237  1.00  0.00     0.074 A 
ATOM     56  C   UNL A   1      46.472  31.404  27.531  1.00  0.00     0.029 A 
ATOM     57  N   UNL A   1      44.885  29.856  27.703  1.00  0.00    -0.354 N 
ATOM     58  N   UNL A   1      43.713  27.216  27.349  1.00  0.00    -0.248 NA
ATOM     59  C   UNL A   1      43.789  25.066  26.445  1.00  0.00     0.031 C 
ATOM     60  C   UNL A   1      46.896  30.260  26.846  1.00  0.00     0.029 A 
ATOM     61  C   UNL A   1      45.921  29.286  26.979  1.00  0.00     0.049 A 
ATOM     62  H   UNL A   1      44.047  29.401  27.945  1.00  0.00     0.167 HD
ATOM     63  C   UNL A   1      44.918  27.045  26.674  1.00  0.00     0.074 A 
ATOM     64  C   UNL A   1      44.927  25.688  26.174  1.00  0.00     0.031 C 
ATOM     65  C   UNL A   1      45.927  27.932  26.486  1.00  0.00     0.037 A 
BRANCH  52  66
ATOM     66  C   UNL A   1      44.828  33.462  29.008  1.00  0.00     0.057 A 
ATOM     67  C   UNL A   1      45.591  33.799  30.133  1.00  0.00     0.134 A 
ATOM     68  C   UNL A   1      44.547  34.483  28.089  1.00  0.00     0.134 A 
ATOM     69  F   UNL A   1      45.880  32.873  31.061  1.00  0.00    -0.206 F 
ATOM     70  C   UNL A   1      46.038  35.104  30.349  1.00  0.00     0.040 A 
ATOM     71  C   UNL A   1      45.015  35.784  28.279  1.00  0.00     0.040 A 
ATOM     72  F   UNL A   1      43.824  34.229  26.988  1.00  0.00    -0.206 F 
ATOM     73  C   UNL A   1      45.756  36.099  29.415  1.00  0.00     0.006 A 
ENDBRANCH  52  66
BRANCH  53  74
ATOM     74  C   UNL A   1      41.216  24.297  27.571  1.00  0.00     0.057 A 
ATOM     75  C   UNL A   1      40.170  24.058  26.670  1.00  0.00     0.134 A 
ATOM     76  C   UNL A   1      41.712  23.198  28.282  1.00  0.00     0.134 A 
ATOM     77  F   UNL A   1      39.627  25.073  25.981  1.00  0.00    -0.206 F 
ATOM     78  C   UNL A   1      39.620  22.784  26.505  1.00  0.00     0.040 A 
ATOM     79  C   UNL A   1      41.193  21.914  28.104  1.00  0.00     0.040 A 
ATOM     80  F   UNL A   1      42.709  23.358  29.165  1.00  0.00    -0.206 F 
ATOM     81  C   UNL A   1      40.136  21.707  27.221  1.00  0.00     0.006 A 
ENDBRANCH  53  74
BRANCH  65  82
ATOM     82  C   UNL A   1      47.145  27.448  25.747  1.00  0.00     0.057 A 
ATOM     83  C   UNL A   1      47.302  27.627  24.366  1.00  0.00     0.134 A 
ATOM     84  C   UNL A   1      48.182  26.798  26.432  1.00  0.00     0.134 A 
ATOM     85  F   UNL A   1      46.346  28.234  23.646  1.00  0.00    -0.206 F 
ATOM     86  C   UNL A   1      48.421  27.140  23.687  1.00  0.00     0.040 A 
ATOM     87  C   UNL A   1      49.321  26.337  25.768  1.00  0.00     0.040 A 
ATOM     88  F   UNL A   1      48.109  26.606  27.756  1.00  0.00    -0.206 F 
ATOM     89  C   UNL A   1      49.436  26.495  24.390  1.00  0.00     0.006 A 
ENDBRANCH  65  82
ENDBRANCH  39  40
ENDBRANCH  32  34
ENDBRANCH  31  32
ENDBRANCH  30  31
ENDBRANCH  29  30
ENDBRANCH  28  29
ENDBRANCH  27  28
ENDBRANCH   1  27
TORSDOF 20
ENDMDL
