MODEL 1
REMARK VINA RESULT:     -10.2      0.000      0.000
REMARK SMILES C[C@H](Nc1ccc(F)cc1Br)[C@@H](C)C(=O)OCCOCCOCCOC(=O)c1ccc(-c2c3nc(c(-c4c(F)cccc4F)c4ccc([nH]4)c(-c4c(F)cccc4F)c4nc(c(-c5c(F)cccc5F)c5ccc2[nH]5)C=C4)C=C3)cc1
REMARK SMILES IDX 20 1 19 2 18 3 17 4 16 5 14 6 15 7 12 8 13 9 2 10 1 11 3 12
REMARK SMILES IDX 4 14 5 15 10 16 6 17 9 18 11 19 7 20 8 21 21 22 22 23 23 24
REMARK SMILES IDX 24 25 25 26 26 27 27 28 28 29 29 30 81 31 30 32 80 33 31 34
REMARK SMILES IDX 32 35 33 36 74 37 34 38 79 39 73 40 75 41 35 42 78 43 72 44
REMARK SMILES IDX 71 45 36 47 62 48 45 49 61 50 46 51 49 52 60 53 76 54 47 55
REMARK SMILES IDX 48 56 59 58 77 59 50 60 37 61 38 62 43 63 39 64 40 65 42 66
REMARK SMILES IDX 44 67 41 68 63 69 64 70 69 71 65 72 66 73 68 74 70 75 67 76
REMARK SMILES IDX 51 77 52 78 57 79 53 80 54 81 56 82 58 83 55 84
REMARK H PARENT 3 13 75 46 49 57
REMARK Flexibility Score: inf
ROOT
ATOM      1  C   UNL A   1      33.084  35.883  29.834  1.00  0.00     0.188 C 
ENDROOT
BRANCH   1   2
ATOM      2  O   UNL A   1      32.730  34.569  29.426  1.00  0.00    -0.376 OA
BRANCH   2   3
ATOM      3  C   UNL A   1      33.034  34.172  28.101  1.00  0.00     0.202 C 
BRANCH   3   4
ATOM      4  C   UNL A   1      34.104  33.085  27.928  1.00  0.00     0.261 C 
BRANCH   4   5
ATOM      5  O   UNL A   1      33.749  31.747  28.356  1.00  0.00    -0.463 OA
BRANCH   5   6
ATOM      6  C   UNL A   1      33.150  30.957  27.422  1.00  0.00     0.310 C 
ATOM      7  O   UNL A   1      32.234  31.332  26.697  1.00  0.00    -0.252 OA
BRANCH   6   8
ATOM      8  C   UNL A   1      33.619  29.500  27.430  1.00  0.00     0.118 C 
ATOM      9  C   UNL A   1      35.140  29.524  27.285  1.00  0.00     0.022 C 
BRANCH   8  10
ATOM     10  C   UNL A   1      32.910  28.536  26.444  1.00  0.00     0.090 C 
ATOM     11  C   UNL A   1      31.778  27.786  27.162  1.00  0.00     0.031 C 
BRANCH  10  12
ATOM     12  N   UNL A   1      33.847  27.508  25.945  1.00  0.00    -0.381 N 
ATOM     13  H   UNL A   1      34.555  27.164  26.537  1.00  0.00     0.160 HD
BRANCH  12  14
ATOM     14  C   UNL A   1      33.736  27.021  24.635  1.00  0.00     0.049 A 
ATOM     15  C   UNL A   1      33.685  27.892  23.539  1.00  0.00     0.030 A 
ATOM     16  C   UNL A   1      33.566  25.638  24.387  1.00  0.00     0.044 A 
ATOM     17  C   UNL A   1      33.478  27.404  22.244  1.00  0.00     0.041 A 
ATOM     18  C   UNL A   1      33.340  25.150  23.100  1.00  0.00     0.057 A 
ATOM     19  Br  UNL A   1      33.583  24.381  25.817  1.00  0.00    -0.048 Br
ATOM     20  C   UNL A   1      33.298  26.041  22.039  1.00  0.00     0.124 A 
ATOM     21  F   UNL A   1      33.079  25.583  20.800  1.00  0.00    -0.207 F 
ENDBRANCH  12  14
ENDBRANCH  10  12
ENDBRANCH   8  10
ENDBRANCH   6   8
ENDBRANCH   5   6
ENDBRANCH   4   5
ENDBRANCH   3   4
ENDBRANCH   2   3
ENDBRANCH   1   2
BRANCH   1  22
ATOM     22  C   UNL A   1      33.031  36.258  31.323  1.00  0.00     0.188 C 
BRANCH  22  23
ATOM     23  O   UNL A   1      34.257  35.966  31.981  1.00  0.00    -0.376 OA
BRANCH  23  24
ATOM     24  C   UNL A   1      34.088  35.261  33.205  1.00  0.00     0.202 C 
BRANCH  24  25
ATOM     25  C   UNL A   1      35.341  34.420  33.460  1.00  0.00     0.261 C 
BRANCH  25  26
ATOM     26  O   UNL A   1      35.923  33.858  32.263  1.00  0.00    -0.460 OA
BRANCH  26  27
ATOM     27  C   UNL A   1      35.429  32.672  31.847  1.00  0.00     0.338 C 
ATOM     28  O   UNL A   1      34.251  32.359  31.774  1.00  0.00    -0.246 OA
BRANCH  27  29
ATOM     29  C   UNL A   1      36.536  31.851  31.301  1.00  0.00     0.060 A 
ATOM     30  C   UNL A   1      37.420  31.236  32.196  1.00  0.00     0.016 A 
ATOM     31  C   UNL A   1      36.725  31.704  29.926  1.00  0.00     0.016 A 
ATOM     32  C   UNL A   1      38.501  30.483  31.723  1.00  0.00     0.010 A 
ATOM     33  C   UNL A   1      37.822  30.975  29.451  1.00  0.00     0.010 A 
ATOM     34  C   UNL A   1      38.731  30.378  30.345  1.00  0.00    -0.014 A 
BRANCH  34  35
ATOM     35  C   UNL A   1      40.007  29.809  29.835  1.00  0.00     0.031 A 
ATOM     36  C   UNL A   1      41.206  30.714  29.729  1.00  0.00     0.074 A 
ATOM     37  C   UNL A   1      40.119  28.517  29.475  1.00  0.00     0.049 A 
ATOM     38  N   UNL A   1      42.386  30.478  29.213  1.00  0.00    -0.248 NA
ATOM     39  C   UNL A   1      41.048  32.069  30.278  1.00  0.00     0.031 C 
ATOM     40  C   UNL A   1      39.065  27.512  29.584  1.00  0.00     0.029 A 
ATOM     41  N   UNL A   1      41.180  27.837  28.927  1.00  0.00    -0.354 N 
ATOM     42  C   UNL A   1      43.104  31.657  29.363  1.00  0.00     0.074 A 
ATOM     43  C   UNL A   1      42.223  32.612  29.998  1.00  0.00     0.031 C 
ATOM     44  C   UNL A   1      39.527  26.345  29.100  1.00  0.00     0.029 A 
ATOM     45  C   UNL A   1      40.892  26.531  28.607  1.00  0.00     0.049 A 
ATOM     46  H   UNL A   1      42.063  28.245  28.778  1.00  0.00     0.167 HD
ATOM     47  C   UNL A   1      44.385  31.922  29.007  1.00  0.00     0.037 A 
ATOM     48  C   UNL A   1      41.630  25.606  27.960  1.00  0.00     0.037 A 
ATOM     49  C   UNL A   1      45.267  30.977  28.374  1.00  0.00     0.049 A 
ATOM     50  C   UNL A   1      43.020  25.955  27.485  1.00  0.00     0.074 A 
ATOM     51  C   UNL A   1      46.583  31.157  27.984  1.00  0.00     0.029 A 
ATOM     52  N   UNL A   1      44.923  29.679  28.032  1.00  0.00    -0.354 N 
ATOM     53  N   UNL A   1      43.693  27.069  27.632  1.00  0.00    -0.248 NA
ATOM     54  C   UNL A   1      43.751  24.913  26.745  1.00  0.00     0.031 C 
ATOM     55  C   UNL A   1      47.017  29.987  27.353  1.00  0.00     0.029 A 
ATOM     56  C   UNL A   1      45.993  29.057  27.409  1.00  0.00     0.049 A 
ATOM     57  H   UNL A   1      44.049  29.261  28.206  1.00  0.00     0.167 HD
ATOM     58  C   UNL A   1      44.932  26.852  27.039  1.00  0.00     0.074 A 
ATOM     59  C   UNL A   1      44.923  25.495  26.537  1.00  0.00     0.031 C 
ATOM     60  C   UNL A   1      45.983  27.700  26.922  1.00  0.00     0.037 A 
BRANCH  47  61
ATOM     61  C   UNL A   1      44.897  33.310  29.259  1.00  0.00     0.057 A 
ATOM     62  C   UNL A   1      45.610  33.642  30.418  1.00  0.00     0.134 A 
ATOM     63  C   UNL A   1      44.701  34.322  28.310  1.00  0.00     0.134 A 
ATOM     64  F   UNL A   1      45.820  32.723  31.374  1.00  0.00    -0.206 F 
ATOM     65  C   UNL A   1      46.086  34.936  30.637  1.00  0.00     0.040 A 
ATOM     66  C   UNL A   1      45.197  35.611  28.504  1.00  0.00     0.040 A 
ATOM     67  F   UNL A   1      44.032  34.070  27.174  1.00  0.00    -0.206 F 
ATOM     68  C   UNL A   1      45.886  35.923  29.673  1.00  0.00     0.006 A 
ENDBRANCH  47  61
BRANCH  48  69
ATOM     69  C   UNL A   1      41.066  24.258  27.682  1.00  0.00     0.057 A 
ATOM     70  C   UNL A   1      41.517  23.125  28.368  1.00  0.00     0.134 A 
ATOM     71  C   UNL A   1      40.099  24.065  26.688  1.00  0.00     0.134 A 
ATOM     72  F   UNL A   1      42.467  23.238  29.308  1.00  0.00    -0.206 F 
ATOM     73  C   UNL A   1      41.043  21.846  28.063  1.00  0.00     0.040 A 
ATOM     74  C   UNL A   1      39.594  22.797  26.392  1.00  0.00     0.040 A 
ATOM     75  F   UNL A   1      39.632  25.107  25.985  1.00  0.00    -0.206 F 
ATOM     76  C   UNL A   1      40.074  21.682  27.076  1.00  0.00     0.006 A 
ENDBRANCH  48  69
BRANCH  60  77
ATOM     77  C   UNL A   1      47.235  27.180  26.271  1.00  0.00     0.057 A 
ATOM     78  C   UNL A   1      48.232  26.515  26.995  1.00  0.00     0.134 A 
ATOM     79  C   UNL A   1      47.419  27.301  24.886  1.00  0.00     0.134 A 
ATOM     80  F   UNL A   1      48.126  26.372  28.325  1.00  0.00    -0.206 F 
ATOM     81  C   UNL A   1      49.375  26.009  26.371  1.00  0.00     0.040 A 
ATOM     82  C   UNL A   1      48.542  26.775  24.246  1.00  0.00     0.040 A 
ATOM     83  F   UNL A   1      46.497  27.916  24.128  1.00  0.00    -0.206 F 
ATOM     84  C   UNL A   1      49.528  26.131  24.991  1.00  0.00     0.006 A 
ENDBRANCH  60  77
ENDBRANCH  34  35
ENDBRANCH  27  29
ENDBRANCH  26  27
ENDBRANCH  25  26
ENDBRANCH  24  25
ENDBRANCH  23  24
ENDBRANCH  22  23
ENDBRANCH   1  22
TORSDOF 20
ENDMDL
MODEL 2
REMARK VINA RESULT:     -10.0      5.056     10.136
REMARK SMILES C[C@H](Nc1ccc(F)cc1Br)[C@@H](C)C(=O)OCCOCCOCCOC(=O)c1ccc(-c2c3nc(c(-c4c(F)cccc4F)c4ccc([nH]4)c(-c4c(F)cccc4F)c4nc(c(-c5c(F)cccc5F)c5ccc2[nH]5)C=C4)C=C3)cc1
REMARK SMILES IDX 20 1 19 2 18 3 17 4 16 5 14 6 15 7 12 8 13 9 2 10 1 11 3 12
REMARK SMILES IDX 4 14 5 15 10 16 6 17 9 18 11 19 7 20 8 21 21 22 22 23 23 24
REMARK SMILES IDX 24 25 25 26 26 27 27 28 28 29 29 30 81 31 30 32 80 33 31 34
REMARK SMILES IDX 32 35 33 36 74 37 34 38 79 39 73 40 75 41 35 42 78 43 72 44
REMARK SMILES IDX 71 45 36 47 62 48 45 49 61 50 46 51 49 52 60 53 76 54 47 55
REMARK SMILES IDX 48 56 59 58 77 59 50 60 37 61 38 62 43 63 39 64 40 65 42 66
REMARK SMILES IDX 44 67 41 68 63 69 64 70 69 71 65 72 66 73 68 74 70 75 67 76
REMARK SMILES IDX 51 77 52 78 57 79 53 80 54 81 56 82 58 83 55 84
REMARK H PARENT 3 13 75 46 49 57
REMARK Flexibility Score: inf
ROOT
ATOM      1  C   UNL A   1      39.543  22.064  26.291  1.00  0.00     0.188 C 
ENDROOT
BRANCH   1   2
ATOM      2  O   UNL A   1      38.149  21.860  26.108  1.00  0.00    -0.376 OA
BRANCH   2   3
ATOM      3  C   UNL A   1      37.443  22.758  25.272  1.00  0.00     0.202 C 
BRANCH   3   4
ATOM      4  C   UNL A   1      36.632  22.147  24.120  1.00  0.00     0.261 C 
BRANCH   4   5
ATOM      5  O   UNL A   1      35.199  22.050  24.312  1.00  0.00    -0.463 OA
BRANCH   5   6
ATOM      6  C   UNL A   1      34.558  23.204  24.644  1.00  0.00     0.310 C 
ATOM      7  O   UNL A   1      34.557  24.210  23.943  1.00  0.00    -0.252 OA
BRANCH   6   8
ATOM      8  C   UNL A   1      33.933  23.202  26.042  1.00  0.00     0.118 C 
ATOM      9  C   UNL A   1      33.490  21.768  26.327  1.00  0.00     0.022 C 
BRANCH   8  10
ATOM     10  C   UNL A   1      32.836  24.263  26.315  1.00  0.00     0.090 C 
ATOM     11  C   UNL A   1      31.516  23.572  26.690  1.00  0.00     0.031 C 
BRANCH  10  12
ATOM     12  N   UNL A   1      32.563  25.066  25.104  1.00  0.00    -0.381 N 
ATOM     13  H   UNL A   1      32.388  24.613  24.247  1.00  0.00     0.160 HD
BRANCH  12  14
ATOM     14  C   UNL A   1      32.555  26.466  25.166  1.00  0.00     0.049 A 
ATOM     15  C   UNL A   1      33.667  27.178  25.634  1.00  0.00     0.030 A 
ATOM     16  C   UNL A   1      31.385  27.199  24.857  1.00  0.00     0.044 A 
ATOM     17  C   UNL A   1      33.618  28.569  25.784  1.00  0.00     0.041 A 
ATOM     18  C   UNL A   1      31.325  28.583  25.023  1.00  0.00     0.057 A 
ATOM     19  Br  UNL A   1      29.812  26.316  24.249  1.00  0.00    -0.048 Br
ATOM     20  C   UNL A   1      32.446  29.255  25.486  1.00  0.00     0.124 A 
ATOM     21  F   UNL A   1      32.398  30.583  25.652  1.00  0.00    -0.207 F 
ENDBRANCH  12  14
ENDBRANCH  10  12
ENDBRANCH   8  10
ENDBRANCH   6   8
ENDBRANCH   5   6
ENDBRANCH   4   5
ENDBRANCH   3   4
ENDBRANCH   2   3
ENDBRANCH   1   2
BRANCH   1  22
ATOM     22  C   UNL A   1      40.446  20.875  26.650  1.00  0.00     0.188 C 
BRANCH  22  23
ATOM     23  O   UNL A   1      41.415  20.627  25.640  1.00  0.00    -0.376 OA
BRANCH  23  24
ATOM     24  C   UNL A   1      42.736  20.481  26.146  1.00  0.00     0.202 C 
BRANCH  24  25
ATOM     25  C   UNL A   1      43.654  21.456  25.405  1.00  0.00     0.261 C 
BRANCH  25  26
ATOM     26  O   UNL A   1      42.997  22.671  24.982  1.00  0.00    -0.460 OA
BRANCH  26  27
ATOM     27  C   UNL A   1      43.731  23.804  25.023  1.00  0.00     0.338 C 
ATOM     28  O   UNL A   1      44.686  24.079  24.314  1.00  0.00    -0.246 OA
BRANCH  27  29
ATOM     29  C   UNL A   1      43.083  24.768  25.945  1.00  0.00     0.060 A 
ATOM     30  C   UNL A   1      43.489  26.108  25.909  1.00  0.00     0.016 A 
ATOM     31  C   UNL A   1      42.105  24.361  26.854  1.00  0.00     0.016 A 
ATOM     32  C   UNL A   1      42.930  27.043  26.787  1.00  0.00     0.010 A 
ATOM     33  C   UNL A   1      41.567  25.291  27.753  1.00  0.00     0.010 A 
ATOM     34  C   UNL A   1      41.991  26.633  27.742  1.00  0.00    -0.014 A 
BRANCH  34  35
ATOM     35  C   UNL A   1      41.586  27.548  28.842  1.00  0.00     0.031 A 
ATOM     36  C   UNL A   1      42.343  27.488  30.142  1.00  0.00     0.074 A 
ATOM     37  C   UNL A   1      40.573  28.423  28.706  1.00  0.00     0.049 A 
ATOM     38  N   UNL A   1      42.108  28.102  31.274  1.00  0.00    -0.248 NA
ATOM     39  C   UNL A   1      43.527  26.615  30.165  1.00  0.00     0.031 C 
ATOM     40  C   UNL A   1      39.794  28.637  27.489  1.00  0.00     0.029 A 
ATOM     41  N   UNL A   1      40.019  29.288  29.619  1.00  0.00    -0.354 N 
ATOM     42  C   UNL A   1      43.103  27.679  32.146  1.00  0.00     0.074 A 
ATOM     43  C   UNL A   1      43.932  26.742  31.420  1.00  0.00     0.031 C 
ATOM     44  C   UNL A   1      38.849  29.561  27.736  1.00  0.00     0.029 A 
ATOM     45  C   UNL A   1      38.927  29.972  29.138  1.00  0.00     0.049 A 
ATOM     46  H   UNL A   1      40.370  29.408  30.530  1.00  0.00     0.167 HD
ATOM     47  C   UNL A   1      43.311  28.039  33.436  1.00  0.00     0.037 A 
ATOM     48  C   UNL A   1      38.071  30.804  29.765  1.00  0.00     0.037 A 
ATOM     49  C   UNL A   1      42.490  28.970  34.165  1.00  0.00     0.049 A 
ATOM     50  C   UNL A   1      38.264  31.115  31.230  1.00  0.00     0.074 A 
ATOM     51  C   UNL A   1      42.631  29.399  35.473  1.00  0.00     0.029 A 
ATOM     52  N   UNL A   1      41.372  29.608  33.653  1.00  0.00    -0.354 N 
ATOM     53  N   UNL A   1      39.208  30.714  32.046  1.00  0.00    -0.248 NA
ATOM     54  C   UNL A   1      37.266  31.992  31.862  1.00  0.00     0.031 C 
ATOM     55  C   UNL A   1      41.564  30.253  35.772  1.00  0.00     0.029 A 
ATOM     56  C   UNL A   1      40.796  30.406  34.629  1.00  0.00     0.049 A 
ATOM     57  H   UNL A   1      41.036  29.511  32.732  1.00  0.00     0.167 HD
ATOM     58  C   UNL A   1      38.938  31.315  33.271  1.00  0.00     0.074 A 
ATOM     59  C   UNL A   1      37.748  32.117  33.090  1.00  0.00     0.031 C 
ATOM     60  C   UNL A   1      39.617  31.214  34.440  1.00  0.00     0.037 A 
BRANCH  47  61
ATOM     61  C   UNL A   1      44.456  27.390  34.156  1.00  0.00     0.057 A 
ATOM     62  C   UNL A   1      45.729  27.971  34.208  1.00  0.00     0.134 A 
ATOM     63  C   UNL A   1      44.271  26.178  34.836  1.00  0.00     0.134 A 
ATOM     64  F   UNL A   1      45.977  29.124  33.567  1.00  0.00    -0.206 F 
ATOM     65  C   UNL A   1      46.784  27.359  34.888  1.00  0.00     0.040 A 
ATOM     66  C   UNL A   1      45.309  25.572  35.543  1.00  0.00     0.040 A 
ATOM     67  F   UNL A   1      43.075  25.570  34.831  1.00  0.00    -0.206 F 
ATOM     68  C   UNL A   1      46.572  26.159  35.565  1.00  0.00     0.006 A 
ENDBRANCH  47  61
BRANCH  48  69
ATOM     69  C   UNL A   1      36.916  31.385  29.030  1.00  0.00     0.057 A 
ATOM     70  C   UNL A   1      36.917  32.721  28.613  1.00  0.00     0.134 A 
ATOM     71  C   UNL A   1      35.764  30.632  28.770  1.00  0.00     0.134 A 
ATOM     72  F   UNL A   1      37.976  33.506  28.862  1.00  0.00    -0.206 F 
ATOM     73  C   UNL A   1      35.808  33.294  27.984  1.00  0.00     0.040 A 
ATOM     74  C   UNL A   1      34.660  31.182  28.116  1.00  0.00     0.040 A 
ATOM     75  F   UNL A   1      35.694  29.348  29.152  1.00  0.00    -0.206 F 
ATOM     76  C   UNL A   1      34.678  32.520  27.729  1.00  0.00     0.006 A 
ENDBRANCH  48  69
BRANCH  60  77
ATOM     77  C   UNL A   1      39.127  32.023  35.608  1.00  0.00     0.057 A 
ATOM     78  C   UNL A   1      38.297  31.480  36.596  1.00  0.00     0.134 A 
ATOM     79  C   UNL A   1      39.537  33.354  35.773  1.00  0.00     0.134 A 
ATOM     80  F   UNL A   1      37.858  30.216  36.496  1.00  0.00    -0.206 F 
ATOM     81  C   UNL A   1      37.875  32.235  37.693  1.00  0.00     0.040 A 
ATOM     82  C   UNL A   1      39.146  34.110  36.880  1.00  0.00     0.040 A 
ATOM     83  F   UNL A   1      40.343  33.935  34.871  1.00  0.00    -0.206 F 
ATOM     84  C   UNL A   1      38.307  33.552  37.841  1.00  0.00     0.006 A 
ENDBRANCH  60  77
ENDBRANCH  34  35
ENDBRANCH  27  29
ENDBRANCH  26  27
ENDBRANCH  25  26
ENDBRANCH  24  25
ENDBRANCH  23  24
ENDBRANCH  22  23
ENDBRANCH   1  22
TORSDOF 20
ENDMDL
MODEL 3
REMARK VINA RESULT:     -10.0      3.303      5.890
REMARK SMILES C[C@H](Nc1ccc(F)cc1Br)[C@@H](C)C(=O)OCCOCCOCCOC(=O)c1ccc(-c2c3nc(c(-c4c(F)cccc4F)c4ccc([nH]4)c(-c4c(F)cccc4F)c4nc(c(-c5c(F)cccc5F)c5ccc2[nH]5)C=C4)C=C3)cc1
REMARK SMILES IDX 20 1 19 2 18 3 17 4 16 5 14 6 15 7 12 8 13 9 2 10 1 11 3 12
REMARK SMILES IDX 4 14 5 15 10 16 6 17 9 18 11 19 7 20 8 21 21 22 22 23 23 24
REMARK SMILES IDX 24 25 25 26 26 27 27 28 28 29 29 30 81 31 30 32 80 33 31 34
REMARK SMILES IDX 32 35 33 36 74 37 34 38 79 39 73 40 75 41 35 42 78 43 72 44
REMARK SMILES IDX 71 45 36 47 62 48 45 49 61 50 46 51 49 52 60 53 76 54 47 55
REMARK SMILES IDX 48 56 59 58 77 59 50 60 37 61 38 62 43 63 39 64 40 65 42 66
REMARK SMILES IDX 44 67 41 68 63 69 64 70 69 71 65 72 66 73 68 74 70 75 67 76
REMARK SMILES IDX 51 77 52 78 57 79 53 80 54 81 56 82 58 83 55 84
REMARK H PARENT 3 13 75 46 49 57
REMARK Flexibility Score: inf
ROOT
ATOM      1  C   UNL A   1      33.427  36.506  28.953  1.00  0.00     0.188 C 
ENDROOT
BRANCH   1   2
ATOM      2  O   UNL A   1      32.633  36.825  30.088  1.00  0.00    -0.376 OA
BRANCH   2   3
ATOM      3  C   UNL A   1      33.273  36.928  31.347  1.00  0.00     0.202 C 
BRANCH   3   4
ATOM      4  C   UNL A   1      32.781  35.990  32.457  1.00  0.00     0.261 C 
BRANCH   4   5
ATOM      5  O   UNL A   1      33.455  34.712  32.578  1.00  0.00    -0.463 OA
BRANCH   5   6
ATOM      6  C   UNL A   1      34.811  34.736  32.456  1.00  0.00     0.310 C 
ATOM      7  O   UNL A   1      35.539  35.504  33.074  1.00  0.00    -0.252 OA
BRANCH   6   8
ATOM      8  C   UNL A   1      35.365  33.806  31.374  1.00  0.00     0.118 C 
ATOM      9  C   UNL A   1      34.787  32.417  31.645  1.00  0.00     0.022 C 
BRANCH   8  10
ATOM     10  C   UNL A   1      36.902  33.815  31.169  1.00  0.00     0.090 C 
ATOM     11  C   UNL A   1      37.237  33.633  29.681  1.00  0.00     0.031 C 
BRANCH  10  12
ATOM     12  N   UNL A   1      37.538  32.690  31.886  1.00  0.00    -0.381 N 
ATOM     13  H   UNL A   1      37.289  31.764  31.661  1.00  0.00     0.160 HD
BRANCH  12  14
ATOM     14  C   UNL A   1      38.492  32.932  32.885  1.00  0.00     0.049 A 
ATOM     15  C   UNL A   1      39.033  34.211  33.075  1.00  0.00     0.030 A 
ATOM     16  C   UNL A   1      39.014  31.872  33.662  1.00  0.00     0.044 A 
ATOM     17  C   UNL A   1      40.053  34.426  34.009  1.00  0.00     0.041 A 
ATOM     18  C   UNL A   1      40.044  32.079  34.581  1.00  0.00     0.057 A 
ATOM     19  Br  UNL A   1      38.367  30.094  33.448  1.00  0.00    -0.048 Br
ATOM     20  C   UNL A   1      40.554  33.358  34.744  1.00  0.00     0.124 A 
ATOM     21  F   UNL A   1      41.545  33.566  35.621  1.00  0.00    -0.207 F 
ENDBRANCH  12  14
ENDBRANCH  10  12
ENDBRANCH   8  10
ENDBRANCH   6   8
ENDBRANCH   5   6
ENDBRANCH   4   5
ENDBRANCH   3   4
ENDBRANCH   2   3
ENDBRANCH   1   2
BRANCH   1  22
ATOM     22  C   UNL A   1      33.718  35.035  28.617  1.00  0.00     0.188 C 
BRANCH  22  23
ATOM     23  O   UNL A   1      32.523  34.308  28.366  1.00  0.00    -0.376 OA
BRANCH  23  24
ATOM     24  C   UNL A   1      32.720  33.155  27.556  1.00  0.00     0.202 C 
BRANCH  24  25
ATOM     25  C   UNL A   1      34.100  32.571  27.866  1.00  0.00     0.261 C 
BRANCH  25  26
ATOM     26  O   UNL A   1      34.057  31.308  28.566  1.00  0.00    -0.460 OA
BRANCH  26  27
ATOM     27  C   UNL A   1      34.516  30.228  27.898  1.00  0.00     0.338 C 
ATOM     28  O   UNL A   1      33.932  29.614  27.019  1.00  0.00    -0.246 OA
BRANCH  27  29
ATOM     29  C   UNL A   1      35.936  30.002  28.259  1.00  0.00     0.060 A 
ATOM     30  C   UNL A   1      36.907  30.085  27.253  1.00  0.00     0.016 A 
ATOM     31  C   UNL A   1      36.315  29.688  29.566  1.00  0.00     0.016 A 
ATOM     32  C   UNL A   1      38.253  29.842  27.543  1.00  0.00     0.010 A 
ATOM     33  C   UNL A   1      37.658  29.417  29.851  1.00  0.00     0.010 A 
ATOM     34  C   UNL A   1      38.634  29.469  28.838  1.00  0.00    -0.014 A 
BRANCH  34  35
ATOM     35  C   UNL A   1      40.006  28.958  29.103  1.00  0.00     0.031 A 
ATOM     36  C   UNL A   1      40.991  29.864  29.791  1.00  0.00     0.074 A 
ATOM     37  C   UNL A   1      40.385  27.715  28.750  1.00  0.00     0.049 A 
ATOM     38  N   UNL A   1      42.266  29.685  30.028  1.00  0.00    -0.248 NA
ATOM     39  C   UNL A   1      40.462  31.148  30.277  1.00  0.00     0.031 C 
ATOM     40  C   UNL A   1      39.524  26.708  28.137  1.00  0.00     0.029 A 
ATOM     41  N   UNL A   1      41.609  27.099  28.849  1.00  0.00    -0.354 N 
ATOM     42  C   UNL A   1      42.694  30.837  30.676  1.00  0.00     0.074 A 
ATOM     43  C   UNL A   1      41.549  31.716  30.776  1.00  0.00     0.031 C 
ATOM     44  C   UNL A   1      40.252  25.603  27.897  1.00  0.00     0.029 A 
ATOM     45  C   UNL A   1      41.638  25.839  28.298  1.00  0.00     0.049 A 
ATOM     46  H   UNL A   1      42.391  27.518  29.275  1.00  0.00     0.167 HD
ATOM     47  C   UNL A   1      43.928  31.137  31.147  1.00  0.00     0.037 A 
ATOM     48  C   UNL A   1      42.671  24.992  28.108  1.00  0.00     0.037 A 
ATOM     49  C   UNL A   1      45.072  30.268  31.050  1.00  0.00     0.049 A 
ATOM     50  C   UNL A   1      44.058  25.388  28.554  1.00  0.00     0.074 A 
ATOM     51  C   UNL A   1      46.360  30.487  31.506  1.00  0.00     0.029 A 
ATOM     52  N   UNL A   1      45.067  29.019  30.449  1.00  0.00    -0.354 N 
ATOM     53  N   UNL A   1      44.454  26.476  29.168  1.00  0.00    -0.248 NA
ATOM     54  C   UNL A   1      45.144  24.436  28.274  1.00  0.00     0.031 C 
ATOM     55  C   UNL A   1      47.150  29.396  31.131  1.00  0.00     0.029 A 
ATOM     56  C   UNL A   1      46.338  28.469  30.498  1.00  0.00     0.049 A 
ATOM     57  H   UNL A   1      44.279  28.586  30.049  1.00  0.00     0.167 HD
ATOM     58  C   UNL A   1      45.821  26.324  29.376  1.00  0.00     0.074 A 
ATOM     59  C   UNL A   1      46.186  25.034  28.833  1.00  0.00     0.031 C 
ATOM     60  C   UNL A   1      46.694  27.176  29.967  1.00  0.00     0.037 A 
BRANCH  47  61
ATOM     61  C   UNL A   1      44.116  32.485  31.780  1.00  0.00     0.057 A 
ATOM     62  C   UNL A   1      44.471  33.615  31.032  1.00  0.00     0.134 A 
ATOM     63  C   UNL A   1      43.905  32.659  33.154  1.00  0.00     0.134 A 
ATOM     64  F   UNL A   1      44.701  33.514  29.714  1.00  0.00    -0.206 F 
ATOM     65  C   UNL A   1      44.635  34.865  31.633  1.00  0.00     0.040 A 
ATOM     66  C   UNL A   1      44.038  33.909  33.760  1.00  0.00     0.040 A 
ATOM     67  F   UNL A   1      43.557  31.620  33.927  1.00  0.00    -0.206 F 
ATOM     68  C   UNL A   1      44.411  35.015  33.000  1.00  0.00     0.006 A 
ENDBRANCH  47  61
BRANCH  48  69
ATOM     69  C   UNL A   1      42.454  23.687  27.429  1.00  0.00     0.057 A 
ATOM     70  C   UNL A   1      42.190  22.522  28.158  1.00  0.00     0.134 A 
ATOM     71  C   UNL A   1      42.553  23.565  26.037  1.00  0.00     0.134 A 
ATOM     72  F   UNL A   1      42.116  22.565  29.497  1.00  0.00    -0.206 F 
ATOM     73  C   UNL A   1      42.055  21.280  27.532  1.00  0.00     0.040 A 
ATOM     74  C   UNL A   1      42.392  22.336  25.395  1.00  0.00     0.040 A 
ATOM     75  F   UNL A   1      42.814  24.641  25.280  1.00  0.00    -0.206 F 
ATOM     76  C   UNL A   1      42.150  21.187  26.145  1.00  0.00     0.006 A 
ENDBRANCH  48  69
BRANCH  60  77
ATOM     77  C   UNL A   1      48.123  26.730  30.107  1.00  0.00     0.057 A 
ATOM     78  C   UNL A   1      48.559  25.951  31.185  1.00  0.00     0.134 A 
ATOM     79  C   UNL A   1      49.065  27.043  29.118  1.00  0.00     0.134 A 
ATOM     80  F   UNL A   1      47.713  25.623  32.174  1.00  0.00    -0.206 F 
ATOM     81  C   UNL A   1      49.883  25.517  31.286  1.00  0.00     0.040 A 
ATOM     82  C   UNL A   1      50.384  26.592  29.191  1.00  0.00     0.040 A 
ATOM     83  F   UNL A   1      48.714  27.777  28.050  1.00  0.00    -0.206 F 
ATOM     84  C   UNL A   1      50.798  25.831  30.282  1.00  0.00     0.006 A 
ENDBRANCH  60  77
ENDBRANCH  34  35
ENDBRANCH  27  29
ENDBRANCH  26  27
ENDBRANCH  25  26
ENDBRANCH  24  25
ENDBRANCH  23  24
ENDBRANCH  22  23
ENDBRANCH   1  22
TORSDOF 20
ENDMDL
