MODEL 1
REMARK VINA RESULT:     -11.0      0.000      0.000
REMARK SMILES CC(C)Cc1cc2c(cc1Cl)C=C(C(=O)OCCOCCOCCOC(=O)c1ccc(-c3c4nc(c(-c5c(F)cccc5F)c5ccc([nH]5)c(-c5c(F)cccc5F)c5nc(c(-c6c(F)cccc6F)c6ccc3[nH]6)C=C5)C=C4)cc1)[C@@H](C(F)(F)F)O2
REMARK SMILES IDX 20 1 19 2 18 3 17 4 16 5 14 6 15 7 13 8 5 9 6 10 10 11 7 12
REMARK SMILES IDX 9 13 11 14 8 15 87 16 12 17 82 18 4 19 2 20 1 21 3 22 83 23
REMARK SMILES IDX 84 24 85 25 86 26 21 27 22 28 23 29 24 30 25 31 26 32 27 33
REMARK SMILES IDX 28 34 29 35 81 36 30 37 80 38 31 39 32 40 33 41 74 42 34 43
REMARK SMILES IDX 79 44 73 45 75 46 35 47 78 48 72 49 71 50 36 52 62 53 45 54
REMARK SMILES IDX 61 55 46 56 49 57 60 58 76 59 47 60 48 61 59 63 77 64 50 65
REMARK SMILES IDX 37 66 38 67 43 68 39 69 40 70 42 71 44 72 41 73 63 74 64 75
REMARK SMILES IDX 69 76 65 77 66 78 68 79 70 80 67 81 51 82 52 83 57 84 53 85
REMARK SMILES IDX 54 86 56 87 58 88 55 89
REMARK H PARENT 75 51 49 62
REMARK Flexibility Score: inf
ROOT
ATOM      1  C   UNL A   1      41.030  21.737  26.717  1.00  0.00     0.188 C 
ENDROOT
BRANCH   1   2
ATOM      2  O   UNL A   1      39.744  22.027  26.217  1.00  0.00    -0.376 OA
BRANCH   2   3
ATOM      3  C   UNL A   1      38.933  21.019  25.640  1.00  0.00     0.202 C 
BRANCH   3   4
ATOM      4  C   UNL A   1      37.473  21.230  25.213  1.00  0.00     0.261 C 
BRANCH   4   5
ATOM      5  O   UNL A   1      36.865  22.449  25.652  1.00  0.00    -0.460 OA
BRANCH   5   6
ATOM      6  C   UNL A   1      35.547  22.354  25.950  1.00  0.00     0.338 C 
ATOM      7  O   UNL A   1      35.051  21.848  26.943  1.00  0.00    -0.246 OA
BRANCH   6   8
ATOM      8  C   UNL A   1      34.767  23.120  24.963  1.00  0.00     0.087 C 
ATOM      9  C   UNL A   1      31.960  26.698  22.861  1.00  0.00    -0.025 A 
ATOM     10  C   UNL A   1      32.086  25.307  22.677  1.00  0.00     0.052 A 
ATOM     11  C   UNL A   1      32.925  27.355  23.639  1.00  0.00     0.045 A 
ATOM     12  C   UNL A   1      33.068  24.581  23.353  1.00  0.00     0.128 A 
ATOM     13  C   UNL A   1      33.874  26.622  24.357  1.00  0.00     0.032 A 
ATOM     14  Cl  UNL A   1      32.981  29.075  23.792  1.00  0.00    -0.084 Cl
ATOM     15  C   UNL A   1      33.907  25.231  24.255  1.00  0.00     0.019 A 
ATOM     16  O   UNL A   1      33.094  23.236  23.128  1.00  0.00    -0.475 OA
ATOM     17  C   UNL A   1      34.719  24.443  25.163  1.00  0.00     0.027 C 
ATOM     18  C   UNL A   1      34.098  22.425  23.809  1.00  0.00     0.316 C 
BRANCH   9  19
ATOM     19  C   UNL A   1      30.732  27.395  22.309  1.00  0.00     0.040 C 
BRANCH  19  20
ATOM     20  C   UNL A   1      29.748  27.850  23.419  1.00  0.00    -0.013 C 
ATOM     21  C   UNL A   1      28.899  29.062  23.025  1.00  0.00     0.008 C 
ATOM     22  C   UNL A   1      28.816  26.697  23.799  1.00  0.00     0.008 C 
ENDBRANCH  19  20
ENDBRANCH   9  19
BRANCH  18  23
ATOM     23  C   UNL A   1      33.418  21.105  24.201  1.00  0.00     0.430 C 
ATOM     24  F   UNL A   1      34.336  20.147  24.476  1.00  0.00    -0.167 F 
ATOM     25  F   UNL A   1      32.653  21.234  25.310  1.00  0.00    -0.167 F 
ATOM     26  F   UNL A   1      32.623  20.636  23.213  1.00  0.00    -0.167 F 
ENDBRANCH  18  23
ENDBRANCH   6   8
ENDBRANCH   5   6
ENDBRANCH   4   5
ENDBRANCH   3   4
ENDBRANCH   2   3
ENDBRANCH   1   2
BRANCH   1  27
ATOM     27  C   UNL A   1      41.782  20.470  26.259  1.00  0.00     0.188 C 
BRANCH  27  28
ATOM     28  O   UNL A   1      42.871  20.555  25.369  1.00  0.00    -0.376 OA
BRANCH  28  29
ATOM     29  C   UNL A   1      43.811  21.611  25.478  1.00  0.00     0.202 C 
BRANCH  29  30
ATOM     30  C   UNL A   1      44.136  22.591  24.340  1.00  0.00     0.261 C 
BRANCH  30  31
ATOM     31  O   UNL A   1      43.670  23.934  24.502  1.00  0.00    -0.460 OA
BRANCH  31  32
ATOM     32  C   UNL A   1      44.548  24.784  25.094  1.00  0.00     0.338 C 
ATOM     33  O   UNL A   1      45.681  25.051  24.732  1.00  0.00    -0.246 OA
BRANCH  32  34
ATOM     34  C   UNL A   1      43.845  25.513  26.166  1.00  0.00     0.060 A 
ATOM     35  C   UNL A   1      42.867  24.878  26.931  1.00  0.00     0.016 A 
ATOM     36  C   UNL A   1      44.176  26.855  26.400  1.00  0.00     0.016 A 
ATOM     37  C   UNL A   1      42.234  25.587  27.952  1.00  0.00     0.010 A 
ATOM     38  C   UNL A   1      43.535  27.565  27.416  1.00  0.00     0.010 A 
ATOM     39  C   UNL A   1      42.573  26.927  28.213  1.00  0.00    -0.014 A 
BRANCH  39  40
ATOM     40  C   UNL A   1      42.026  27.592  29.421  1.00  0.00     0.031 A 
ATOM     41  C   UNL A   1      42.680  27.471  30.762  1.00  0.00     0.074 A 
ATOM     42  C   UNL A   1      40.917  28.342  29.278  1.00  0.00     0.049 A 
ATOM     43  N   UNL A   1      42.409  28.119  31.868  1.00  0.00    -0.248 NA
ATOM     44  C   UNL A   1      43.769  26.494  30.884  1.00  0.00     0.031 C 
ATOM     45  C   UNL A   1      40.162  28.495  28.032  1.00  0.00     0.029 A 
ATOM     46  N   UNL A   1      40.244  29.127  30.177  1.00  0.00    -0.354 N 
ATOM     47  C   UNL A   1      43.314  27.654  32.813  1.00  0.00     0.074 A 
ATOM     48  C   UNL A   1      44.101  26.623  32.163  1.00  0.00     0.031 C 
ATOM     49  C   UNL A   1      39.153  29.355  28.236  1.00  0.00     0.029 A 
ATOM     50  C   UNL A   1      39.181  29.799  29.626  1.00  0.00     0.049 A 
ATOM     51  H   UNL A   1      40.499  29.202  31.125  1.00  0.00     0.167 HD
ATOM     52  C   UNL A   1      43.484  28.064  34.094  1.00  0.00     0.037 A 
ATOM     53  C   UNL A   1      38.334  30.688  30.175  1.00  0.00     0.037 A 
ATOM     54  C   UNL A   1      42.673  29.066  34.746  1.00  0.00     0.049 A 
ATOM     55  C   UNL A   1      38.524  31.097  31.609  1.00  0.00     0.074 A 
ATOM     56  C   UNL A   1      42.788  29.569  36.032  1.00  0.00     0.029 A 
ATOM     57  N   UNL A   1      41.583  29.702  34.170  1.00  0.00    -0.354 N 
ATOM     58  N   UNL A   1      39.447  30.726  32.462  1.00  0.00    -0.248 NA
ATOM     59  C   UNL A   1      37.560  32.066  32.147  1.00  0.00     0.031 C 
ATOM     60  C   UNL A   1      41.739  30.471  36.249  1.00  0.00     0.029 A 
ATOM     61  C   UNL A   1      41.003  30.574  35.080  1.00  0.00     0.049 A 
ATOM     62  H   UNL A   1      41.267  29.557  33.249  1.00  0.00     0.167 HD
ATOM     63  C   UNL A   1      39.194  31.441  33.627  1.00  0.00     0.074 A 
ATOM     64  C   UNL A   1      38.046  32.281  33.360  1.00  0.00     0.031 C 
ATOM     65  C   UNL A   1      39.857  31.406  34.809  1.00  0.00     0.037 A 
BRANCH  52  66
ATOM     66  C   UNL A   1      44.597  27.429  34.879  1.00  0.00     0.057 A 
ATOM     67  C   UNL A   1      45.912  27.901  34.780  1.00  0.00     0.134 A 
ATOM     68  C   UNL A   1      44.371  26.318  35.705  1.00  0.00     0.134 A 
ATOM     69  F   UNL A   1      46.202  28.950  33.998  1.00  0.00    -0.206 F 
ATOM     70  C   UNL A   1      46.961  27.294  35.475  1.00  0.00     0.040 A 
ATOM     71  C   UNL A   1      45.407  25.720  36.426  1.00  0.00     0.040 A 
ATOM     72  F   UNL A   1      43.135  25.817  35.848  1.00  0.00    -0.206 F 
ATOM     73  C   UNL A   1      46.707  26.206  36.308  1.00  0.00     0.006 A 
ENDBRANCH  52  66
BRANCH  53  74
ATOM     74  C   UNL A   1      37.252  31.288  29.358  1.00  0.00     0.057 A 
ATOM     75  C   UNL A   1      36.070  30.589  29.089  1.00  0.00     0.134 A 
ATOM     76  C   UNL A   1      37.362  32.591  28.856  1.00  0.00     0.134 A 
ATOM     77  F   UNL A   1      35.909  29.333  29.533  1.00  0.00    -0.206 F 
ATOM     78  C   UNL A   1      35.034  31.164  28.353  1.00  0.00     0.040 A 
ATOM     79  C   UNL A   1      36.322  33.188  28.144  1.00  0.00     0.040 A 
ATOM     80  F   UNL A   1      38.465  33.315  29.094  1.00  0.00    -0.206 F 
ATOM     81  C   UNL A   1      35.153  32.472  27.890  1.00  0.00     0.006 A 
ENDBRANCH  53  74
BRANCH  65  82
ATOM     82  C   UNL A   1      39.372  32.338  35.885  1.00  0.00     0.057 A 
ATOM     83  C   UNL A   1      39.899  33.632  35.997  1.00  0.00     0.134 A 
ATOM     84  C   UNL A   1      38.376  31.969  36.799  1.00  0.00     0.134 A 
ATOM     85  F   UNL A   1      40.861  34.050  35.161  1.00  0.00    -0.206 F 
ATOM     86  C   UNL A   1      39.445  34.525  36.968  1.00  0.00     0.040 A 
ATOM     87  C   UNL A   1      37.890  32.864  37.754  1.00  0.00     0.040 A 
ATOM     88  F   UNL A   1      37.815  30.750  36.739  1.00  0.00    -0.206 F 
ATOM     89  C   UNL A   1      38.429  34.147  37.842  1.00  0.00     0.006 A 
ENDBRANCH  65  82
ENDBRANCH  39  40
ENDBRANCH  32  34
ENDBRANCH  31  32
ENDBRANCH  30  31
ENDBRANCH  29  30
ENDBRANCH  28  29
ENDBRANCH  27  28
ENDBRANCH   1  27
TORSDOF 20
ENDMDL
MODEL 2
REMARK VINA RESULT:     -11.0      4.777      9.946
REMARK SMILES CC(C)Cc1cc2c(cc1Cl)C=C(C(=O)OCCOCCOCCOC(=O)c1ccc(-c3c4nc(c(-c5c(F)cccc5F)c5ccc([nH]5)c(-c5c(F)cccc5F)c5nc(c(-c6c(F)cccc6F)c6ccc3[nH]6)C=C5)C=C4)cc1)[C@@H](C(F)(F)F)O2
REMARK SMILES IDX 20 1 19 2 18 3 17 4 16 5 14 6 15 7 13 8 5 9 6 10 10 11 7 12
REMARK SMILES IDX 9 13 11 14 8 15 87 16 12 17 82 18 4 19 2 20 1 21 3 22 83 23
REMARK SMILES IDX 84 24 85 25 86 26 21 27 22 28 23 29 24 30 25 31 26 32 27 33
REMARK SMILES IDX 28 34 29 35 81 36 30 37 80 38 31 39 32 40 33 41 74 42 34 43
REMARK SMILES IDX 79 44 73 45 75 46 35 47 78 48 72 49 71 50 36 52 62 53 45 54
REMARK SMILES IDX 61 55 46 56 49 57 60 58 76 59 47 60 48 61 59 63 77 64 50 65
REMARK SMILES IDX 37 66 38 67 43 68 39 69 40 70 42 71 44 72 41 73 63 74 64 75
REMARK SMILES IDX 69 76 65 77 66 78 68 79 70 80 67 81 51 82 52 83 57 84 53 85
REMARK SMILES IDX 54 86 56 87 58 88 55 89
REMARK H PARENT 75 51 49 62
REMARK Flexibility Score: inf
ROOT
ATOM      1  C   UNL A   1      33.533  31.388  27.641  1.00  0.00     0.188 C 
ENDROOT
BRANCH   1   2
ATOM      2  O   UNL A   1      32.481  30.570  27.181  1.00  0.00    -0.376 OA
BRANCH   2   3
ATOM      3  C   UNL A   1      32.627  29.163  27.089  1.00  0.00     0.202 C 
BRANCH   3   4
ATOM      4  C   UNL A   1      33.269  28.442  25.896  1.00  0.00     0.261 C 
BRANCH   4   5
ATOM      5  O   UNL A   1      33.488  27.037  26.060  1.00  0.00    -0.460 OA
BRANCH   5   6
ATOM      6  C   UNL A   1      33.733  26.360  24.913  1.00  0.00     0.338 C 
ATOM      7  O   UNL A   1      34.032  26.831  23.829  1.00  0.00    -0.246 OA
BRANCH   6   8
ATOM      8  C   UNL A   1      33.759  24.914  25.196  1.00  0.00     0.087 C 
ATOM      9  C   UNL A   1      34.924  20.046  24.983  1.00  0.00    -0.025 A 
ATOM     10  C   UNL A   1      33.760  20.769  25.309  1.00  0.00     0.052 A 
ATOM     11  C   UNL A   1      36.133  20.750  24.871  1.00  0.00     0.045 A 
ATOM     12  C   UNL A   1      33.781  22.162  25.392  1.00  0.00     0.128 A 
ATOM     13  C   UNL A   1      36.143  22.147  24.902  1.00  0.00     0.032 A 
ATOM     14  Cl  UNL A   1      37.651  19.957  24.652  1.00  0.00    -0.084 Cl
ATOM     15  C   UNL A   1      34.956  22.852  25.107  1.00  0.00     0.019 A 
ATOM     16  O   UNL A   1      32.597  22.773  25.689  1.00  0.00    -0.475 OA
ATOM     17  C   UNL A   1      34.907  24.288  24.908  1.00  0.00     0.027 C 
ATOM     18  C   UNL A   1      32.559  24.228  25.788  1.00  0.00     0.316 C 
BRANCH   9  19
ATOM     19  C   UNL A   1      34.796  18.572  24.657  1.00  0.00     0.040 C 
BRANCH  19  20
ATOM     20  C   UNL A   1      33.392  18.195  24.113  1.00  0.00    -0.013 C 
ATOM     21  C   UNL A   1      33.437  17.301  22.870  1.00  0.00     0.008 C 
ATOM     22  C   UNL A   1      32.582  17.485  25.200  1.00  0.00     0.008 C 
ENDBRANCH  19  20
ENDBRANCH   9  19
BRANCH  18  23
ATOM     23  C   UNL A   1      31.228  24.684  25.171  1.00  0.00     0.430 C 
ATOM     24  F   UNL A   1      31.400  25.091  23.889  1.00  0.00    -0.167 F 
ATOM     25  F   UNL A   1      30.311  23.689  25.139  1.00  0.00    -0.167 F 
ATOM     26  F   UNL A   1      30.684  25.715  25.855  1.00  0.00    -0.167 F 
ENDBRANCH  18  23
ENDBRANCH   6   8
ENDBRANCH   5   6
ENDBRANCH   4   5
ENDBRANCH   3   4
ENDBRANCH   2   3
ENDBRANCH   1   2
BRANCH   1  27
ATOM     27  C   UNL A   1      33.281  32.874  27.974  1.00  0.00     0.188 C 
BRANCH  27  28
ATOM     28  O   UNL A   1      34.337  33.807  27.963  1.00  0.00    -0.376 OA
BRANCH  28  29
ATOM     29  C   UNL A   1      34.866  34.313  29.178  1.00  0.00     0.202 C 
BRANCH  29  30
ATOM     30  C   UNL A   1      34.570  33.709  30.560  1.00  0.00     0.261 C 
BRANCH  30  31
ATOM     31  O   UNL A   1      34.904  32.329  30.737  1.00  0.00    -0.460 OA
BRANCH  31  32
ATOM     32  C   UNL A   1      35.777  32.070  31.744  1.00  0.00     0.338 C 
ATOM     33  O   UNL A   1      35.597  32.224  32.940  1.00  0.00    -0.246 OA
BRANCH  32  34
ATOM     34  C   UNL A   1      36.945  31.366  31.183  1.00  0.00     0.060 A 
ATOM     35  C   UNL A   1      37.098  31.236  29.803  1.00  0.00     0.016 A 
ATOM     36  C   UNL A   1      37.897  30.829  32.061  1.00  0.00     0.016 A 
ATOM     37  C   UNL A   1      38.224  30.584  29.301  1.00  0.00     0.010 A 
ATOM     38  C   UNL A   1      39.018  30.170  31.556  1.00  0.00     0.010 A 
ATOM     39  C   UNL A   1      39.199  30.062  30.170  1.00  0.00    -0.014 A 
BRANCH  39  40
ATOM     40  C   UNL A   1      40.472  29.548  29.607  1.00  0.00     0.031 A 
ATOM     41  C   UNL A   1      40.619  28.138  29.126  1.00  0.00     0.074 A 
ATOM     42  C   UNL A   1      41.508  30.403  29.514  1.00  0.00     0.049 A 
ATOM     43  N   UNL A   1      41.613  27.595  28.469  1.00  0.00    -0.248 NA
ATOM     44  C   UNL A   1      39.517  27.216  29.428  1.00  0.00     0.031 C 
ATOM     45  C   UNL A   1      41.502  31.786  29.994  1.00  0.00     0.029 A 
ATOM     46  N   UNL A   1      42.756  30.241  28.970  1.00  0.00    -0.354 N 
ATOM     47  C   UNL A   1      41.246  26.273  28.248  1.00  0.00     0.074 A 
ATOM     48  C   UNL A   1      39.964  26.084  28.897  1.00  0.00     0.031 C 
ATOM     49  C   UNL A   1      42.675  32.360  29.688  1.00  0.00     0.029 A 
ATOM     50  C   UNL A   1      43.518  31.383  29.007  1.00  0.00     0.049 A 
ATOM     51  H   UNL A   1      43.074  29.391  28.590  1.00  0.00     0.167 HD
ATOM     52  C   UNL A   1      41.910  25.318  27.551  1.00  0.00     0.037 A 
ATOM     53  C   UNL A   1      44.752  31.621  28.528  1.00  0.00     0.037 A 
ATOM     54  C   UNL A   1      43.204  25.504  26.937  1.00  0.00     0.049 A 
ATOM     55  C   UNL A   1      45.479  30.532  27.791  1.00  0.00     0.074 A 
ATOM     56  C   UNL A   1      43.942  24.604  26.186  1.00  0.00     0.029 A 
ATOM     57  N   UNL A   1      43.964  26.662  27.023  1.00  0.00    -0.354 N 
ATOM     58  N   UNL A   1      45.080  29.318  27.500  1.00  0.00    -0.248 NA
ATOM     59  C   UNL A   1      46.825  30.857  27.302  1.00  0.00     0.031 C 
ATOM     60  C   UNL A   1      45.167  25.200  25.860  1.00  0.00     0.029 A 
ATOM     61  C   UNL A   1      45.170  26.492  26.359  1.00  0.00     0.049 A 
ATOM     62  H   UNL A   1      43.686  27.485  27.486  1.00  0.00     0.167 HD
ATOM     63  C   UNL A   1      46.111  28.747  26.765  1.00  0.00     0.074 A 
ATOM     64  C   UNL A   1      47.142  29.756  26.638  1.00  0.00     0.031 C 
ATOM     65  C   UNL A   1      46.194  27.500  26.239  1.00  0.00     0.037 A 
BRANCH  52  66
ATOM     66  C   UNL A   1      41.242  23.979  27.411  1.00  0.00     0.057 A 
ATOM     67  C   UNL A   1      41.720  22.857  28.102  1.00  0.00     0.134 A 
ATOM     68  C   UNL A   1      40.147  23.791  26.557  1.00  0.00     0.134 A 
ATOM     69  F   UNL A   1      42.772  22.962  28.926  1.00  0.00    -0.206 F 
ATOM     70  C   UNL A   1      41.131  21.600  27.950  1.00  0.00     0.040 A 
ATOM     71  C   UNL A   1      39.533  22.545  26.417  1.00  0.00     0.040 A 
ATOM     72  F   UNL A   1      39.637  24.823  25.867  1.00  0.00    -0.206 F 
ATOM     73  C   UNL A   1      40.029  21.444  27.112  1.00  0.00     0.006 A 
ENDBRANCH  52  66
BRANCH  53  74
ATOM     74  C   UNL A   1      45.368  32.961  28.691  1.00  0.00     0.057 A 
ATOM     75  C   UNL A   1      45.141  33.983  27.763  1.00  0.00     0.134 A 
ATOM     76  C   UNL A   1      46.172  33.258  29.798  1.00  0.00     0.134 A 
ATOM     77  F   UNL A   1      44.388  33.758  26.676  1.00  0.00    -0.206 F 
ATOM     78  C   UNL A   1      45.687  35.256  27.932  1.00  0.00     0.040 A 
ATOM     79  C   UNL A   1      46.700  34.534  29.995  1.00  0.00     0.040 A 
ATOM     80  F   UNL A   1      46.413  32.322  30.728  1.00  0.00    -0.206 F 
ATOM     81  C   UNL A   1      46.458  35.538  29.058  1.00  0.00     0.006 A 
ENDBRANCH  53  74
BRANCH  65  82
ATOM     82  C   UNL A   1      47.430  27.180  25.445  1.00  0.00     0.057 A 
ATOM     83  C   UNL A   1      47.504  27.503  24.082  1.00  0.00     0.134 A 
ATOM     84  C   UNL A   1      48.553  26.573  26.023  1.00  0.00     0.134 A 
ATOM     85  F   UNL A   1      46.465  28.079  23.461  1.00  0.00    -0.206 F 
ATOM     86  C   UNL A   1      48.651  27.244  23.331  1.00  0.00     0.040 A 
ATOM     87  C   UNL A   1      49.718  26.339  25.290  1.00  0.00     0.040 A 
ATOM     88  F   UNL A   1      48.557  26.253  27.327  1.00  0.00    -0.206 F 
ATOM     89  C   UNL A   1      49.767  26.672  23.937  1.00  0.00     0.006 A 
ENDBRANCH  65  82
ENDBRANCH  39  40
ENDBRANCH  32  34
ENDBRANCH  31  32
ENDBRANCH  30  31
ENDBRANCH  29  30
ENDBRANCH  28  29
ENDBRANCH  27  28
ENDBRANCH   1  27
TORSDOF 20
ENDMDL
MODEL 3
REMARK VINA RESULT:     -10.8      1.233      2.055
REMARK SMILES CC(C)Cc1cc2c(cc1Cl)C=C(C(=O)OCCOCCOCCOC(=O)c1ccc(-c3c4nc(c(-c5c(F)cccc5F)c5ccc([nH]5)c(-c5c(F)cccc5F)c5nc(c(-c6c(F)cccc6F)c6ccc3[nH]6)C=C5)C=C4)cc1)[C@@H](C(F)(F)F)O2
REMARK SMILES IDX 20 1 19 2 18 3 17 4 16 5 14 6 15 7 13 8 5 9 6 10 10 11 7 12
REMARK SMILES IDX 9 13 11 14 8 15 87 16 12 17 82 18 4 19 2 20 1 21 3 22 83 23
REMARK SMILES IDX 84 24 85 25 86 26 21 27 22 28 23 29 24 30 25 31 26 32 27 33
REMARK SMILES IDX 28 34 29 35 81 36 30 37 80 38 31 39 32 40 33 41 74 42 34 43
REMARK SMILES IDX 79 44 73 45 75 46 35 47 78 48 72 49 71 50 36 52 62 53 45 54
REMARK SMILES IDX 61 55 46 56 49 57 60 58 76 59 47 60 48 61 59 63 77 64 50 65
REMARK SMILES IDX 37 66 38 67 43 68 39 69 40 70 42 71 44 72 41 73 63 74 64 75
REMARK SMILES IDX 69 76 65 77 66 78 68 79 70 80 67 81 51 82 52 83 57 84 53 85
REMARK SMILES IDX 54 86 56 87 58 88 55 89
REMARK H PARENT 75 51 49 62
REMARK Flexibility Score: inf
ROOT
ATOM      1  C   UNL A   1      40.633  21.573  26.779  1.00  0.00     0.188 C 
ENDROOT
BRANCH   1   2
ATOM      2  O   UNL A   1      40.197  22.682  27.533  1.00  0.00    -0.376 OA
BRANCH   2   3
ATOM      3  C   UNL A   1      39.276  23.618  27.001  1.00  0.00     0.202 C 
BRANCH   3   4
ATOM      4  C   UNL A   1      38.188  23.267  25.976  1.00  0.00     0.261 C 
BRANCH   4   5
ATOM      5  O   UNL A   1      36.883  23.023  26.511  1.00  0.00    -0.460 OA
BRANCH   5   6
ATOM      6  C   UNL A   1      36.004  22.469  25.642  1.00  0.00     0.338 C 
ATOM      7  O   UNL A   1      36.071  21.362  25.133  1.00  0.00    -0.246 OA
BRANCH   6   8
ATOM      8  C   UNL A   1      34.825  23.342  25.516  1.00  0.00     0.087 C 
ATOM      9  C   UNL A   1      31.957  27.420  25.023  1.00  0.00    -0.025 A 
ATOM     10  C   UNL A   1      31.800  26.174  25.660  1.00  0.00     0.052 A 
ATOM     11  C   UNL A   1      33.034  27.582  24.137  1.00  0.00     0.045 A 
ATOM     12  C   UNL A   1      32.758  25.170  25.517  1.00  0.00     0.128 A 
ATOM     13  C   UNL A   1      34.020  26.596  24.036  1.00  0.00     0.032 A 
ATOM     14  Cl  UNL A   1      33.232  28.995  23.165  1.00  0.00    -0.084 Cl
ATOM     15  C   UNL A   1      33.907  25.415  24.771  1.00  0.00     0.019 A 
ATOM     16  O   UNL A   1      32.528  24.008  26.194  1.00  0.00    -0.475 OA
ATOM     17  C   UNL A   1      35.023  24.493  24.861  1.00  0.00     0.027 C 
ATOM     18  C   UNL A   1      33.496  22.922  26.083  1.00  0.00     0.316 C 
BRANCH   9  19
ATOM     19  C   UNL A   1      31.031  28.556  25.408  1.00  0.00     0.040 C 
BRANCH  19  20
ATOM     20  C   UNL A   1      31.531  29.349  26.644  1.00  0.00    -0.013 C 
ATOM     21  C   UNL A   1      32.602  28.610  27.453  1.00  0.00     0.008 C 
ATOM     22  C   UNL A   1      32.094  30.704  26.205  1.00  0.00     0.008 C 
ENDBRANCH  19  20
ENDBRANCH   9  19
BRANCH  18  23
ATOM     23  C   UNL A   1      33.603  22.273  27.471  1.00  0.00     0.430 C 
ATOM     24  F   UNL A   1      32.427  22.361  28.141  1.00  0.00    -0.167 F 
ATOM     25  F   UNL A   1      33.906  20.956  27.398  1.00  0.00    -0.167 F 
ATOM     26  F   UNL A   1      34.550  22.866  28.232  1.00  0.00    -0.167 F 
ENDBRANCH  18  23
ENDBRANCH   6   8
ENDBRANCH   5   6
ENDBRANCH   4   5
ENDBRANCH   3   4
ENDBRANCH   2   3
ENDBRANCH   1   2
BRANCH   1  27
ATOM     27  C   UNL A   1      41.763  21.728  25.739  1.00  0.00     0.188 C 
BRANCH  27  28
ATOM     28  O   UNL A   1      43.018  21.118  25.937  1.00  0.00    -0.376 OA
BRANCH  28  29
ATOM     29  C   UNL A   1      44.214  21.802  25.601  1.00  0.00     0.202 C 
BRANCH  29  30
ATOM     30  C   UNL A   1      44.355  22.739  24.392  1.00  0.00     0.261 C 
BRANCH  30  31
ATOM     31  O   UNL A   1      43.820  24.058  24.540  1.00  0.00    -0.460 OA
BRANCH  31  32
ATOM     32  C   UNL A   1      44.662  24.964  25.100  1.00  0.00     0.338 C 
ATOM     33  O   UNL A   1      45.770  25.289  24.707  1.00  0.00    -0.246 OA
BRANCH  32  34
ATOM     34  C   UNL A   1      43.943  25.668  26.178  1.00  0.00     0.060 A 
ATOM     35  C   UNL A   1      42.954  25.016  26.914  1.00  0.00     0.016 A 
ATOM     36  C   UNL A   1      44.271  27.005  26.448  1.00  0.00     0.016 A 
ATOM     37  C   UNL A   1      42.307  25.701  27.942  1.00  0.00     0.010 A 
ATOM     38  C   UNL A   1      43.615  27.691  27.471  1.00  0.00     0.010 A 
ATOM     39  C   UNL A   1      42.642  27.035  28.239  1.00  0.00    -0.014 A 
BRANCH  39  40
ATOM     40  C   UNL A   1      42.077  27.671  29.454  1.00  0.00     0.031 A 
ATOM     41  C   UNL A   1      42.725  27.540  30.796  1.00  0.00     0.074 A 
ATOM     42  C   UNL A   1      40.956  28.405  29.316  1.00  0.00     0.049 A 
ATOM     43  N   UNL A   1      42.438  28.166  31.911  1.00  0.00    -0.248 NA
ATOM     44  C   UNL A   1      43.830  26.579  30.909  1.00  0.00     0.031 C 
ATOM     45  C   UNL A   1      40.206  28.565  28.069  1.00  0.00     0.029 A 
ATOM     46  N   UNL A   1      40.266  29.165  30.224  1.00  0.00    -0.354 N 
ATOM     47  C   UNL A   1      43.346  27.701  32.854  1.00  0.00     0.074 A 
ATOM     48  C   UNL A   1      44.152  26.694  32.192  1.00  0.00     0.031 C 
ATOM     49  C   UNL A   1      39.181  29.405  28.281  1.00  0.00     0.029 A 
ATOM     50  C   UNL A   1      39.194  29.827  29.677  1.00  0.00     0.049 A 
ATOM     51  H   UNL A   1      40.514  29.229  31.174  1.00  0.00     0.167 HD
ATOM     52  C   UNL A   1      43.501  28.094  34.142  1.00  0.00     0.037 A 
ATOM     53  C   UNL A   1      38.330  30.693  30.236  1.00  0.00     0.037 A 
ATOM     54  C   UNL A   1      42.671  29.072  34.805  1.00  0.00     0.049 A 
ATOM     55  C   UNL A   1      38.506  31.083  31.676  1.00  0.00     0.074 A 
ATOM     56  C   UNL A   1      42.770  29.557  36.099  1.00  0.00     0.029 A 
ATOM     57  N   UNL A   1      41.573  29.699  34.233  1.00  0.00    -0.354 N 
ATOM     58  N   UNL A   1      39.430  30.714  32.529  1.00  0.00    -0.248 NA
ATOM     59  C   UNL A   1      37.522  32.027  32.224  1.00  0.00     0.031 C 
ATOM     60  C   UNL A   1      41.705  30.437  36.324  1.00  0.00     0.029 A 
ATOM     61  C   UNL A   1      40.973  30.546  35.153  1.00  0.00     0.049 A 
ATOM     62  H   UNL A   1      41.265  29.563  33.308  1.00  0.00     0.167 HD
ATOM     63  C   UNL A   1      39.159  31.406  33.703  1.00  0.00     0.074 A 
ATOM     64  C   UNL A   1      37.997  32.231  33.443  1.00  0.00     0.031 C 
ATOM     65  C   UNL A   1      39.815  31.364  34.889  1.00  0.00     0.037 A 
BRANCH  52  66
ATOM     66  C   UNL A   1      44.621  27.465  34.924  1.00  0.00     0.057 A 
ATOM     67  C   UNL A   1      45.923  27.977  34.860  1.00  0.00     0.134 A 
ATOM     68  C   UNL A   1      44.415  26.322  35.710  1.00  0.00     0.134 A 
ATOM     69  F   UNL A   1      46.195  29.059  34.117  1.00  0.00    -0.206 F 
ATOM     70  C   UNL A   1      46.978  27.378  35.551  1.00  0.00     0.040 A 
ATOM     71  C   UNL A   1      45.456  25.731  36.427  1.00  0.00     0.040 A 
ATOM     72  F   UNL A   1      43.192  25.782  35.817  1.00  0.00    -0.206 F 
ATOM     73  C   UNL A   1      46.744  26.256  36.344  1.00  0.00     0.006 A 
ENDBRANCH  52  66
BRANCH  53  74
ATOM     74  C   UNL A   1      37.242  31.288  29.422  1.00  0.00     0.057 A 
ATOM     75  C   UNL A   1      37.342  32.587  28.911  1.00  0.00     0.134 A 
ATOM     76  C   UNL A   1      36.090  30.556  29.108  1.00  0.00     0.134 A 
ATOM     77  F   UNL A   1      38.416  33.343  29.185  1.00  0.00    -0.206 F 
ATOM     78  C   UNL A   1      36.338  33.136  28.113  1.00  0.00     0.040 A 
ATOM     79  C   UNL A   1      35.092  31.082  28.287  1.00  0.00     0.040 A 
ATOM     80  F   UNL A   1      35.945  29.301  29.557  1.00  0.00    -0.206 F 
ATOM     81  C   UNL A   1      35.215  32.378  27.788  1.00  0.00     0.006 A 
ENDBRANCH  53  74
BRANCH  65  82
ATOM     82  C   UNL A   1      39.310  32.270  35.976  1.00  0.00     0.057 A 
ATOM     83  C   UNL A   1      38.324  31.829  36.870  1.00  0.00     0.134 A 
ATOM     84  C   UNL A   1      39.804  33.569  36.156  1.00  0.00     0.134 A 
ATOM     85  F   UNL A   1      37.800  30.600  36.754  1.00  0.00    -0.206 F 
ATOM     86  C   UNL A   1      37.860  32.640  37.906  1.00  0.00     0.040 A 
ATOM     87  C   UNL A   1      39.372  34.378  37.208  1.00  0.00     0.040 A 
ATOM     88  F   UNL A   1      40.761  34.050  35.346  1.00  0.00    -0.206 F 
ATOM     89  C   UNL A   1      38.393  33.915  38.085  1.00  0.00     0.006 A 
ENDBRANCH  65  82
ENDBRANCH  39  40
ENDBRANCH  32  34
ENDBRANCH  31  32
ENDBRANCH  30  31
ENDBRANCH  29  30
ENDBRANCH  28  29
ENDBRANCH  27  28
ENDBRANCH   1  27
TORSDOF 20
ENDMDL
