MODEL 1
REMARK VINA RESULT:     -12.7      0.000      0.000
REMARK SMILES CC[C@@](C)(NC(=O)c1cccc2ccccc12)C(=O)OCCOCCOCCOC(=O)c1ccc(-c2c3nc(c(-c4c(F)cccc4F)c4ccc([nH]4)c(-c4c(F)cccc4F)c4nc(c(-c5c(F)cccc5F)c5ccc2[nH]5)C=C4)C=C3)cc1
REMARK SMILES IDX 24 1 23 2 22 3 21 4 20 5 18 6 19 7 3 8 4 9 2 10 1 11 5 12
REMARK SMILES IDX 6 13 7 15 8 16 9 17 17 18 10 19 12 20 16 21 11 22 13 23
REMARK SMILES IDX 15 24 14 25 25 26 26 27 27 28 28 29 29 30 30 31 31 32 32 33
REMARK SMILES IDX 33 34 85 35 34 36 84 37 35 38 36 39 37 40 78 41 38 42 83 43
REMARK SMILES IDX 77 44 79 45 39 46 82 47 76 48 75 49 40 51 66 52 49 53 65 54
REMARK SMILES IDX 50 55 53 56 64 57 80 58 51 59 52 60 63 62 81 63 54 64 41 65
REMARK SMILES IDX 42 66 47 67 43 68 44 69 46 70 48 71 45 72 67 73 68 74 73 75
REMARK SMILES IDX 69 76 70 77 72 78 74 79 71 80 55 81 56 82 61 83 57 84 58 85
REMARK SMILES IDX 60 86 62 87 59 88
REMARK H PARENT 5 14 79 50 53 61
REMARK Flexibility Score: inf
ROOT
ATOM      1  C   UNL A   1      38.166  21.457  25.377  1.00  0.00     0.188 C 
ENDROOT
BRANCH   1   2
ATOM      2  O   UNL A   1      37.196  22.431  25.792  1.00  0.00    -0.376 OA
BRANCH   2   3
ATOM      3  C   UNL A   1      35.886  22.454  25.163  1.00  0.00     0.202 C 
BRANCH   3   4
ATOM      4  C   UNL A   1      35.617  23.285  23.871  1.00  0.00     0.261 C 
BRANCH   4   5
ATOM      5  O   UNL A   1      34.451  24.094  23.972  1.00  0.00    -0.462 OA
BRANCH   5   6
ATOM      6  C   UNL A   1      33.456  23.950  23.079  1.00  0.00     0.331 C 
ATOM      7  O   UNL A   1      33.542  24.255  21.899  1.00  0.00    -0.249 OA
BRANCH   6   8
ATOM      8  C   UNL A   1      32.302  23.144  23.739  1.00  0.00     0.135 C 
ATOM      9  C   UNL A   1      30.981  23.657  23.115  1.00  0.00     0.047 C 
BRANCH   8  10
ATOM     10  C   UNL A   1      32.341  21.606  23.327  1.00  0.00     0.037 C 
ATOM     11  C   UNL A   1      32.593  20.606  24.463  1.00  0.00     0.007 C 
ENDBRANCH   8  10
BRANCH   8  12
ATOM     12  N   UNL A   1      32.163  23.412  25.265  1.00  0.00    -0.336 N 
ATOM     13  C   UNL A   1      31.961  24.407  26.244  1.00  0.00     0.252 C 
ATOM     14  H   UNL A   1      32.253  22.549  25.730  1.00  0.00     0.165 HD
ATOM     15  O   UNL A   1      31.734  23.908  27.363  1.00  0.00    -0.269 OA
BRANCH  13  16
ATOM     16  C   UNL A   1      31.726  25.963  26.155  1.00  0.00     0.047 A 
ATOM     17  C   UNL A   1      32.983  26.532  26.528  1.00  0.00     0.014 A 
ATOM     18  C   UNL A   1      30.619  26.795  25.378  1.00  0.00    -0.006 A 
ATOM     19  C   UNL A   1      33.338  27.873  26.370  1.00  0.00     0.001 A 
ATOM     20  C   UNL A   1      31.380  28.373  25.041  1.00  0.00    -0.018 A 
ATOM     21  C   UNL A   1      28.946  26.528  24.472  1.00  0.00     0.009 A 
ATOM     22  C   UNL A   1      32.551  28.772  25.669  1.00  0.00     0.009 A 
ATOM     23  C   UNL A   1      30.730  29.435  23.775  1.00  0.00     0.009 A 
ATOM     24  C   UNL A   1      28.352  27.640  23.183  1.00  0.00     0.001 A 
ATOM     25  C   UNL A   1      29.278  29.087  22.857  1.00  0.00     0.001 A 
ENDBRANCH  13  16
ENDBRANCH   8  12
ENDBRANCH   6   8
ENDBRANCH   5   6
ENDBRANCH   4   5
ENDBRANCH   3   4
ENDBRANCH   2   3
ENDBRANCH   1   2
BRANCH   1  26
ATOM     26  C   UNL A   1      39.670  21.094  26.108  1.00  0.00     0.188 C 
BRANCH  26  27
ATOM     27  O   UNL A   1      40.378  19.785  26.229  1.00  0.00    -0.376 OA
BRANCH  27  28
ATOM     28  C   UNL A   1      41.794  19.249  26.130  1.00  0.00     0.202 C 
BRANCH  28  29
ATOM     29  C   UNL A   1      43.364  20.103  25.616  1.00  0.00     0.261 C 
BRANCH  29  30
ATOM     30  O   UNL A   1      43.364  22.065  25.022  1.00  0.00    -0.460 OA
BRANCH  30  31
ATOM     31  C   UNL A   1      43.686  23.496  25.093  1.00  0.00     0.338 C 
ATOM     32  O   UNL A   1      44.454  23.924  24.212  1.00  0.00    -0.246 OA
BRANCH  31  33
ATOM     33  C   UNL A   1      43.202  24.646  26.066  1.00  0.00     0.060 A 
ATOM     34  C   UNL A   1      43.566  25.998  26.124  1.00  0.00     0.016 A 
ATOM     35  C   UNL A   1      42.276  24.293  27.076  1.00  0.00     0.016 A 
ATOM     36  C   UNL A   1      43.053  26.941  27.056  1.00  0.00     0.010 A 
ATOM     37  C   UNL A   1      41.774  25.213  28.046  1.00  0.00     0.010 A 
ATOM     38  C   UNL A   1      42.166  26.556  28.054  1.00  0.00    -0.014 A 
BRANCH  38  39
ATOM     39  C   UNL A   1      41.755  27.506  29.139  1.00  0.00     0.031 A 
ATOM     40  C   UNL A   1      42.507  27.522  30.451  1.00  0.00     0.074 A 
ATOM     41  C   UNL A   1      40.733  28.375  28.987  1.00  0.00     0.049 A 
ATOM     42  N   UNL A   1      42.256  28.187  31.554  1.00  0.00    -0.248 NA
ATOM     43  C   UNL A   1      43.712  26.685  30.518  1.00  0.00     0.031 C 
ATOM     44  C   UNL A   1      39.959  28.565  27.764  1.00  0.00     0.029 A 
ATOM     45  N   UNL A   1      40.164  29.258  29.882  1.00  0.00    -0.354 N 
ATOM     46  C   UNL A   1      43.257  27.834  32.453  1.00  0.00     0.074 A 
ATOM     47  C   UNL A   1      44.124  26.901  31.761  1.00  0.00     0.031 C 
ATOM     48  C   UNL A   1      39.001  29.482  27.991  1.00  0.00     0.029 A 
ATOM     49  C   UNL A   1      39.064  29.919  29.388  1.00  0.00     0.049 A 
ATOM     50  H   UNL A   1      40.515  29.402  30.791  1.00  0.00     0.167 HD
ATOM     51  C   UNL A   1      43.438  28.234  33.738  1.00  0.00     0.037 A 
ATOM     52  C   UNL A   1      38.185  30.750  29.988  1.00  0.00     0.037 A 
ATOM     53  C   UNL A   1      42.581  29.152  34.449  1.00  0.00     0.049 A 
ATOM     54  C   UNL A   1      38.346  31.106  31.446  1.00  0.00     0.074 A 
ATOM     55  C   UNL A   1      42.695  29.601  35.756  1.00  0.00     0.029 A 
ATOM     56  N   UNL A   1      41.451  29.754  33.923  1.00  0.00    -0.354 N 
ATOM     57  N   UNL A   1      39.285  30.750  32.287  1.00  0.00    -0.248 NA
ATOM     58  C   UNL A   1      37.318  31.980  32.037  1.00  0.00     0.031 C 
ATOM     59  C   UNL A   1      41.606  30.438  36.034  1.00  0.00     0.029 A 
ATOM     60  C   UNL A   1      40.846  30.552  34.884  1.00  0.00     0.049 A 
ATOM     61  H   UNL A   1      41.125  29.634  33.002  1.00  0.00     0.167 HD
ATOM     62  C   UNL A   1      38.981  31.379  33.490  1.00  0.00     0.074 A 
ATOM     63  C   UNL A   1      37.775  32.147  33.270  1.00  0.00     0.031 C 
ATOM     64  C   UNL A   1      39.650  31.326  34.669  1.00  0.00     0.037 A 
BRANCH  51  65
ATOM     65  C   UNL A   1      44.593  27.638  34.494  1.00  0.00     0.057 A 
ATOM     66  C   UNL A   1      44.484  26.429  35.189  1.00  0.00     0.134 A 
ATOM     67  C   UNL A   1      45.849  28.262  34.478  1.00  0.00     0.134 A 
ATOM     68  F   UNL A   1      43.309  25.783  35.250  1.00  0.00    -0.206 F 
ATOM     69  C   UNL A   1      45.576  25.871  35.860  1.00  0.00     0.040 A 
ATOM     70  C   UNL A   1      46.953  27.702  35.124  1.00  0.00     0.040 A 
ATOM     71  F   UNL A   1      46.028  29.416  33.818  1.00  0.00    -0.206 F 
ATOM     72  C   UNL A   1      46.816  26.505  35.823  1.00  0.00     0.006 A 
ENDBRANCH  51  65
BRANCH  52  73
ATOM     73  C   UNL A   1      37.031  31.295  29.221  1.00  0.00     0.057 A 
ATOM     74  C   UNL A   1      35.904  30.511  28.946  1.00  0.00     0.134 A 
ATOM     75  C   UNL A   1      37.044  32.600  28.715  1.00  0.00     0.134 A 
ATOM     76  F   UNL A   1      35.847  29.239  29.367  1.00  0.00    -0.206 F 
ATOM     77  C   UNL A   1      34.835  31.004  28.195  1.00  0.00     0.040 A 
ATOM     78  C   UNL A   1      35.971  33.115  27.985  1.00  0.00     0.040 A 
ATOM     79  F   UNL A   1      38.101  33.398  28.930  1.00  0.00    -0.206 F 
ATOM     80  C   UNL A   1      34.864  32.313  27.720  1.00  0.00     0.006 A 
ENDBRANCH  52  73
BRANCH  64  81
ATOM     81  C   UNL A   1      39.123  32.161  35.803  1.00  0.00     0.057 A 
ATOM     82  C   UNL A   1      39.481  33.504  35.971  1.00  0.00     0.134 A 
ATOM     83  C   UNL A   1      38.230  31.613  36.735  1.00  0.00     0.134 A 
ATOM     84  F   UNL A   1      40.340  34.090  35.123  1.00  0.00    -0.206 F 
ATOM     85  C   UNL A   1      38.996  34.262  37.040  1.00  0.00     0.040 A 
ATOM     86  C   UNL A   1      37.720  32.367  37.793  1.00  0.00     0.040 A 
ATOM     87  F   UNL A   1      37.837  30.335  36.630  1.00  0.00    -0.206 F 
ATOM     88  C   UNL A   1      38.110  33.695  37.953  1.00  0.00     0.006 A 
ENDBRANCH  64  81
ENDBRANCH  38  39
ENDBRANCH  31  33
ENDBRANCH  30  31
ENDBRANCH  29  30
ENDBRANCH  28  29
ENDBRANCH  27  28
ENDBRANCH  26  27
ENDBRANCH   1  26
TORSDOF 20
ENDMDL
MODEL 2
REMARK VINA RESULT:     -12.6      1.093      3.074
REMARK SMILES CC[C@@](C)(NC(=O)c1cccc2ccccc12)C(=O)OCCOCCOCCOC(=O)c1ccc(-c2c3nc(c(-c4c(F)cccc4F)c4ccc([nH]4)c(-c4c(F)cccc4F)c4nc(c(-c5c(F)cccc5F)c5ccc2[nH]5)C=C4)C=C3)cc1
REMARK SMILES IDX 24 1 23 2 22 3 21 4 20 5 18 6 19 7 3 8 4 9 2 10 1 11 5 12
REMARK SMILES IDX 6 13 7 15 8 16 9 17 17 18 10 19 12 20 16 21 11 22 13 23
REMARK SMILES IDX 15 24 14 25 25 26 26 27 27 28 28 29 29 30 30 31 31 32 32 33
REMARK SMILES IDX 33 34 85 35 34 36 84 37 35 38 36 39 37 40 78 41 38 42 83 43
REMARK SMILES IDX 77 44 79 45 39 46 82 47 76 48 75 49 40 51 66 52 49 53 65 54
REMARK SMILES IDX 50 55 53 56 64 57 80 58 51 59 52 60 63 62 81 63 54 64 41 65
REMARK SMILES IDX 42 66 47 67 43 68 44 69 46 70 48 71 45 72 67 73 68 74 73 75
REMARK SMILES IDX 69 76 70 77 72 78 74 79 71 80 55 81 56 82 61 83 57 84 58 85
REMARK SMILES IDX 60 86 62 87 59 88
REMARK H PARENT 5 14 79 50 53 61
REMARK Flexibility Score: inf
ROOT
ATOM      1  C   UNL A   1      37.806  22.454  25.751  1.00  0.00     0.188 C 
ENDROOT
BRANCH   1   2
ATOM      2  O   UNL A   1      37.186  23.614  25.175  1.00  0.00    -0.376 OA
BRANCH   2   3
ATOM      3  C   UNL A   1      35.809  23.935  25.512  1.00  0.00     0.202 C 
BRANCH   3   4
ATOM      4  C   UNL A   1      34.905  24.762  24.546  1.00  0.00     0.261 C 
BRANCH   4   5
ATOM      5  O   UNL A   1      34.245  25.839  25.201  1.00  0.00    -0.462 OA
BRANCH   5   6
ATOM      6  C   UNL A   1      33.637  26.793  24.474  1.00  0.00     0.331 C 
ATOM      7  O   UNL A   1      33.587  26.799  23.253  1.00  0.00    -0.249 OA
BRANCH   6   8
ATOM      8  C   UNL A   1      32.844  27.725  25.432  1.00  0.00     0.135 C 
ATOM      9  C   UNL A   1      33.709  27.906  26.702  1.00  0.00     0.047 C 
BRANCH   8  10
ATOM     10  C   UNL A   1      32.714  29.202  24.849  1.00  0.00     0.037 C 
ATOM     11  C   UNL A   1      31.355  29.889  25.038  1.00  0.00     0.007 C 
ENDBRANCH   8  10
BRANCH   8  12
ATOM     12  N   UNL A   1      31.511  27.097  25.931  1.00  0.00    -0.336 N 
ATOM     13  C   UNL A   1      30.720  25.930  25.934  1.00  0.00     0.252 C 
ATOM     14  H   UNL A   1      31.030  27.785  26.447  1.00  0.00     0.165 HD
ATOM     15  O   UNL A   1      29.778  26.017  26.745  1.00  0.00    -0.269 OA
BRANCH  13  16
ATOM     16  C   UNL A   1      30.930  24.494  25.319  1.00  0.00     0.047 A 
ATOM     17  C   UNL A   1      30.608  24.651  23.936  1.00  0.00     0.014 A 
ATOM     18  C   UNL A   1      31.766  23.255  25.857  1.00  0.00    -0.006 A 
ATOM     19  C   UNL A   1      30.872  23.713  22.936  1.00  0.00     0.001 A 
ATOM     20  C   UNL A   1      32.230  22.343  24.396  1.00  0.00    -0.018 A 
ATOM     21  C   UNL A   1      32.643  22.658  27.459  1.00  0.00     0.009 A 
ATOM     22  C   UNL A   1      31.639  22.582  23.162  1.00  0.00     0.009 A 
ATOM     23  C   UNL A   1      33.573  21.182  24.446  1.00  0.00     0.009 A 
ATOM     24  C   UNL A   1      34.013  21.486  27.436  1.00  0.00     0.001 A 
ATOM     25  C   UNL A   1      34.455  20.770  25.903  1.00  0.00     0.001 A 
ENDBRANCH  13  16
ENDBRANCH   8  12
ENDBRANCH   6   8
ENDBRANCH   5   6
ENDBRANCH   4   5
ENDBRANCH   3   4
ENDBRANCH   2   3
ENDBRANCH   1   2
BRANCH   1  26
ATOM     26  C   UNL A   1      39.371  22.327  26.433  1.00  0.00     0.188 C 
BRANCH  26  27
ATOM     27  O   UNL A   1      40.047  21.149  27.053  1.00  0.00    -0.376 OA
BRANCH  27  28
ATOM     28  C   UNL A   1      41.044  20.078  26.657  1.00  0.00     0.202 C 
BRANCH  28  29
ATOM     29  C   UNL A   1      42.656  20.222  25.741  1.00  0.00     0.261 C 
BRANCH  29  30
ATOM     30  O   UNL A   1      43.344  22.034  25.074  1.00  0.00    -0.460 OA
BRANCH  30  31
ATOM     31  C   UNL A   1      43.691  23.458  25.155  1.00  0.00     0.338 C 
ATOM     32  O   UNL A   1      44.483  23.875  24.290  1.00  0.00    -0.246 OA
BRANCH  31  33
ATOM     33  C   UNL A   1      43.209  24.615  26.123  1.00  0.00     0.060 A 
ATOM     34  C   UNL A   1      43.570  25.968  26.169  1.00  0.00     0.016 A 
ATOM     35  C   UNL A   1      42.288  24.267  27.140  1.00  0.00     0.016 A 
ATOM     36  C   UNL A   1      43.061  26.916  27.098  1.00  0.00     0.010 A 
ATOM     37  C   UNL A   1      41.790  25.193  28.106  1.00  0.00     0.010 A 
ATOM     38  C   UNL A   1      42.179  26.536  28.103  1.00  0.00    -0.014 A 
BRANCH  38  39
ATOM     39  C   UNL A   1      41.772  27.493  29.183  1.00  0.00     0.031 A 
ATOM     40  C   UNL A   1      42.521  27.509  30.497  1.00  0.00     0.074 A 
ATOM     41  C   UNL A   1      40.757  28.368  29.026  1.00  0.00     0.049 A 
ATOM     42  N   UNL A   1      42.271  28.179  31.597  1.00  0.00    -0.248 NA
ATOM     43  C   UNL A   1      43.720  26.663  30.571  1.00  0.00     0.031 C 
ATOM     44  C   UNL A   1      39.987  28.559  27.800  1.00  0.00     0.029 A 
ATOM     45  N   UNL A   1      40.191  29.258  29.916  1.00  0.00    -0.354 N 
ATOM     46  C   UNL A   1      43.268  27.823  32.500  1.00  0.00     0.074 A 
ATOM     47  C   UNL A   1      44.130  26.881  31.814  1.00  0.00     0.031 C 
ATOM     48  C   UNL A   1      39.034  29.483  28.021  1.00  0.00     0.029 A 
ATOM     49  C   UNL A   1      39.096  29.925  29.416  1.00  0.00     0.049 A 
ATOM     50  H   UNL A   1      40.540  29.403  30.826  1.00  0.00     0.167 HD
ATOM     51  C   UNL A   1      43.448  28.225  33.784  1.00  0.00     0.037 A 
ATOM     52  C   UNL A   1      38.222  30.764  30.012  1.00  0.00     0.037 A 
ATOM     53  C   UNL A   1      42.596  29.152  34.490  1.00  0.00     0.049 A 
ATOM     54  C   UNL A   1      38.382  31.124  31.469  1.00  0.00     0.074 A 
ATOM     55  C   UNL A   1      42.709  29.605  35.796  1.00  0.00     0.029 A 
ATOM     56  N   UNL A   1      41.471  29.760  33.958  1.00  0.00    -0.354 N 
ATOM     57  N   UNL A   1      39.316  30.764  32.313  1.00  0.00    -0.248 NA
ATOM     58  C   UNL A   1      37.358  32.008  32.054  1.00  0.00     0.031 C 
ATOM     59  C   UNL A   1      41.625  30.450  36.068  1.00  0.00     0.029 A 
ATOM     60  C   UNL A   1      40.869  30.566  34.915  1.00  0.00     0.049 A 
ATOM     61  H   UNL A   1      41.146  29.639  33.037  1.00  0.00     0.167 HD
ATOM     62  C   UNL A   1      39.013  31.400  33.513  1.00  0.00     0.074 A 
ATOM     63  C   UNL A   1      37.813  32.175  33.288  1.00  0.00     0.031 C 
ATOM     64  C   UNL A   1      39.679  31.347  34.694  1.00  0.00     0.037 A 
BRANCH  51  65
ATOM     65  C   UNL A   1      44.597  27.625  34.545  1.00  0.00     0.057 A 
ATOM     66  C   UNL A   1      44.479  26.416  35.241  1.00  0.00     0.134 A 
ATOM     67  C   UNL A   1      45.856  28.242  34.534  1.00  0.00     0.134 A 
ATOM     68  F   UNL A   1      43.301  25.776  35.297  1.00  0.00    -0.206 F 
ATOM     69  C   UNL A   1      45.565  25.853  35.917  1.00  0.00     0.040 A 
ATOM     70  C   UNL A   1      46.954  27.677  35.186  1.00  0.00     0.040 A 
ATOM     71  F   UNL A   1      46.043  29.395  33.875  1.00  0.00    -0.206 F 
ATOM     72  C   UNL A   1      46.809  26.482  35.884  1.00  0.00     0.006 A 
ENDBRANCH  51  65
BRANCH  52  73
ATOM     73  C   UNL A   1      37.074  31.314  29.240  1.00  0.00     0.057 A 
ATOM     74  C   UNL A   1      35.946  30.534  28.955  1.00  0.00     0.134 A 
ATOM     75  C   UNL A   1      37.093  32.621  28.739  1.00  0.00     0.134 A 
ATOM     76  F   UNL A   1      35.885  29.260  29.372  1.00  0.00    -0.206 F 
ATOM     77  C   UNL A   1      34.883  31.031  28.199  1.00  0.00     0.040 A 
ATOM     78  C   UNL A   1      36.025  33.140  28.004  1.00  0.00     0.040 A 
ATOM     79  F   UNL A   1      38.150  33.415  28.962  1.00  0.00    -0.206 F 
ATOM     80  C   UNL A   1      34.917  32.342  27.729  1.00  0.00     0.006 A 
ENDBRANCH  52  73
BRANCH  64  81
ATOM     81  C   UNL A   1      39.154  32.189  35.824  1.00  0.00     0.057 A 
ATOM     82  C   UNL A   1      38.274  31.682  36.788  1.00  0.00     0.134 A 
ATOM     83  C   UNL A   1      39.550  33.528  35.956  1.00  0.00     0.134 A 
ATOM     84  F   UNL A   1      37.846  30.413  36.716  1.00  0.00    -0.206 F 
ATOM     85  C   UNL A   1      37.782  32.482  37.823  1.00  0.00     0.040 A 
ATOM     86  C   UNL A   1      39.085  34.330  37.000  1.00  0.00     0.040 A 
ATOM     87  F   UNL A   1      40.399  34.077  35.075  1.00  0.00    -0.206 F 
ATOM     88  C   UNL A   1      38.190  33.810  37.932  1.00  0.00     0.006 A 
ENDBRANCH  64  81
ENDBRANCH  38  39
ENDBRANCH  31  33
ENDBRANCH  30  31
ENDBRANCH  29  30
ENDBRANCH  28  29
ENDBRANCH  27  28
ENDBRANCH  26  27
ENDBRANCH   1  26
TORSDOF 20
ENDMDL
MODEL 3
REMARK VINA RESULT:     -12.5      0.977      2.036
REMARK SMILES CC[C@@](C)(NC(=O)c1cccc2ccccc12)C(=O)OCCOCCOCCOC(=O)c1ccc(-c2c3nc(c(-c4c(F)cccc4F)c4ccc([nH]4)c(-c4c(F)cccc4F)c4nc(c(-c5c(F)cccc5F)c5ccc2[nH]5)C=C4)C=C3)cc1
REMARK SMILES IDX 24 1 23 2 22 3 21 4 20 5 18 6 19 7 3 8 4 9 2 10 1 11 5 12
REMARK SMILES IDX 6 13 7 15 8 16 9 17 17 18 10 19 12 20 16 21 11 22 13 23
REMARK SMILES IDX 15 24 14 25 25 26 26 27 27 28 28 29 29 30 30 31 31 32 32 33
REMARK SMILES IDX 33 34 85 35 34 36 84 37 35 38 36 39 37 40 78 41 38 42 83 43
REMARK SMILES IDX 77 44 79 45 39 46 82 47 76 48 75 49 40 51 66 52 49 53 65 54
REMARK SMILES IDX 50 55 53 56 64 57 80 58 51 59 52 60 63 62 81 63 54 64 41 65
REMARK SMILES IDX 42 66 47 67 43 68 44 69 46 70 48 71 45 72 67 73 68 74 73 75
REMARK SMILES IDX 69 76 70 77 72 78 74 79 71 80 55 81 56 82 61 83 57 84 58 85
REMARK SMILES IDX 60 86 62 87 59 88
REMARK H PARENT 5 14 79 50 53 61
REMARK Flexibility Score: inf
ROOT
ATOM      1  C   UNL A   1      38.214  22.265  25.848  1.00  0.00     0.188 C 
ENDROOT
BRANCH   1   2
ATOM      2  O   UNL A   1      37.697  23.602  25.752  1.00  0.00    -0.376 OA
BRANCH   2   3
ATOM      3  C   UNL A   1      36.301  23.811  25.409  1.00  0.00     0.202 C 
BRANCH   3   4
ATOM      4  C   UNL A   1      35.173  23.703  26.481  1.00  0.00     0.261 C 
BRANCH   4   5
ATOM      5  O   UNL A   1      34.603  22.400  26.548  1.00  0.00    -0.462 OA
BRANCH   5   6
ATOM      6  C   UNL A   1      33.363  22.187  26.075  1.00  0.00     0.331 C 
ATOM      7  O   UNL A   1      32.352  22.689  26.545  1.00  0.00    -0.249 OA
BRANCH   6   8
ATOM      8  C   UNL A   1      33.463  21.404  24.736  1.00  0.00     0.135 C 
ATOM      9  C   UNL A   1      34.742  20.537  24.817  1.00  0.00     0.047 C 
BRANCH   8  10
ATOM     10  C   UNL A   1      32.292  20.336  24.585  1.00  0.00     0.037 C 
ATOM     11  C   UNL A   1      32.644  18.886  24.942  1.00  0.00     0.007 C 
ENDBRANCH   8  10
BRANCH   8  12
ATOM     12  N   UNL A   1      33.673  22.327  23.501  1.00  0.00    -0.336 N 
ATOM     13  C   UNL A   1      33.316  23.558  22.912  1.00  0.00     0.252 C 
ATOM     14  H   UNL A   1      34.301  21.875  22.892  1.00  0.00     0.165 HD
ATOM     15  O   UNL A   1      34.039  23.823  21.932  1.00  0.00    -0.269 OA
BRANCH  13  16
ATOM     16  C   UNL A   1      32.382  24.737  23.381  1.00  0.00     0.047 A 
ATOM     17  C   UNL A   1      31.058  24.218  23.239  1.00  0.00     0.014 A 
ATOM     18  C   UNL A   1      32.699  26.008  24.279  1.00  0.00    -0.006 A 
ATOM     19  C   UNL A   1      29.902  24.808  23.753  1.00  0.00     0.001 A 
ATOM     20  C   UNL A   1      31.147  26.427  25.051  1.00  0.00    -0.018 A 
ATOM     21  C   UNL A   1      34.206  26.966  24.990  1.00  0.00     0.009 A 
ATOM     22  C   UNL A   1      29.942  25.893  24.614  1.00  0.00     0.009 A 
ATOM     23  C   UNL A   1      31.108  27.444  26.507  1.00  0.00     0.009 A 
ATOM     24  C   UNL A   1      34.100  27.970  26.483  1.00  0.00     0.001 A 
ATOM     25  C   UNL A   1      32.529  28.183  27.220  1.00  0.00     0.001 A 
ENDBRANCH  13  16
ENDBRANCH   8  12
ENDBRANCH   6   8
ENDBRANCH   5   6
ENDBRANCH   4   5
ENDBRANCH   3   4
ENDBRANCH   2   3
ENDBRANCH   1   2
BRANCH   1  26
ATOM     26  C   UNL A   1      39.719  21.763  26.486  1.00  0.00     0.188 C 
BRANCH  26  27
ATOM     27  O   UNL A   1      40.264  20.385  26.669  1.00  0.00    -0.376 OA
BRANCH  27  28
ATOM     28  C   UNL A   1      41.495  19.591  26.274  1.00  0.00     0.202 C 
BRANCH  28  29
ATOM     29  C   UNL A   1      43.111  20.166  25.559  1.00  0.00     0.261 C 
BRANCH  29  30
ATOM     30  O   UNL A   1      43.374  22.105  24.943  1.00  0.00    -0.460 OA
BRANCH  30  31
ATOM     31  C   UNL A   1      43.746  23.519  25.064  1.00  0.00     0.338 C 
ATOM     32  O   UNL A   1      44.566  23.939  24.227  1.00  0.00    -0.246 OA
BRANCH  31  33
ATOM     33  C   UNL A   1      43.264  24.664  26.046  1.00  0.00     0.060 A 
ATOM     34  C   UNL A   1      43.627  26.015  26.111  1.00  0.00     0.016 A 
ATOM     35  C   UNL A   1      42.340  24.304  27.056  1.00  0.00     0.016 A 
ATOM     36  C   UNL A   1      43.116  26.952  27.051  1.00  0.00     0.010 A 
ATOM     37  C   UNL A   1      41.840  25.217  28.033  1.00  0.00     0.010 A 
ATOM     38  C   UNL A   1      42.231  26.560  28.048  1.00  0.00    -0.014 A 
BRANCH  38  39
ATOM     39  C   UNL A   1      41.822  27.503  29.140  1.00  0.00     0.031 A 
ATOM     40  C   UNL A   1      42.575  27.508  30.452  1.00  0.00     0.074 A 
ATOM     41  C   UNL A   1      40.803  28.375  28.995  1.00  0.00     0.049 A 
ATOM     42  N   UNL A   1      42.326  28.166  31.560  1.00  0.00    -0.248 NA
ATOM     43  C   UNL A   1      43.779  26.668  30.513  1.00  0.00     0.031 C 
ATOM     44  C   UNL A   1      40.029  28.576  27.774  1.00  0.00     0.029 A 
ATOM     45  N   UNL A   1      40.236  29.253  29.896  1.00  0.00    -0.354 N 
ATOM     46  C   UNL A   1      43.326  27.804  32.456  1.00  0.00     0.074 A 
ATOM     47  C   UNL A   1      44.191  26.874  31.758  1.00  0.00     0.031 C 
ATOM     48  C   UNL A   1      39.073  29.493  28.007  1.00  0.00     0.029 A 
ATOM     49  C   UNL A   1      39.137  29.920  29.407  1.00  0.00     0.049 A 
ATOM     50  H   UNL A   1      40.587  29.390  30.807  1.00  0.00     0.167 HD
ATOM     51  C   UNL A   1      43.508  28.193  33.744  1.00  0.00     0.037 A 
ATOM     52  C   UNL A   1      38.260  30.749  30.014  1.00  0.00     0.037 A 
ATOM     53  C   UNL A   1      42.653  29.108  34.462  1.00  0.00     0.049 A 
ATOM     54  C   UNL A   1      38.422  31.094  31.475  1.00  0.00     0.074 A 
ATOM     55  C   UNL A   1      42.768  29.548  35.773  1.00  0.00     0.029 A 
ATOM     56  N   UNL A   1      41.524  29.717  33.941  1.00  0.00    -0.354 N 
ATOM     57  N   UNL A   1      39.360  30.729  32.312  1.00  0.00    -0.248 NA
ATOM     58  C   UNL A   1      37.396  31.966  32.072  1.00  0.00     0.031 C 
ATOM     59  C   UNL A   1      41.681  30.384  36.057  1.00  0.00     0.029 A 
ATOM     60  C   UNL A   1      40.921  30.509  34.908  1.00  0.00     0.049 A 
ATOM     61  H   UNL A   1      41.198  29.604  33.019  1.00  0.00     0.167 HD
ATOM     62  C   UNL A   1      39.058  31.350  33.520  1.00  0.00     0.074 A 
ATOM     63  C   UNL A   1      37.854  32.122  33.307  1.00  0.00     0.031 C 
ATOM     64  C   UNL A   1      39.727  31.287  34.699  1.00  0.00     0.037 A 
BRANCH  51  65
ATOM     65  C   UNL A   1      44.662  27.590  34.496  1.00  0.00     0.057 A 
ATOM     66  C   UNL A   1      44.549  26.376  35.183  1.00  0.00     0.134 A 
ATOM     67  C   UNL A   1      45.920  28.210  34.483  1.00  0.00     0.134 A 
ATOM     68  F   UNL A   1      43.374  25.733  35.241  1.00  0.00    -0.206 F 
ATOM     69  C   UNL A   1      45.640  25.811  35.850  1.00  0.00     0.040 A 
ATOM     70  C   UNL A   1      47.022  27.643  35.125  1.00  0.00     0.040 A 
ATOM     71  F   UNL A   1      46.101  29.368  33.831  1.00  0.00    -0.206 F 
ATOM     72  C   UNL A   1      46.882  26.442  35.816  1.00  0.00     0.006 A 
ENDBRANCH  51  65
BRANCH  52  73
ATOM     73  C   UNL A   1      37.107  31.301  29.251  1.00  0.00     0.057 A 
ATOM     74  C   UNL A   1      35.970  30.528  28.986  1.00  0.00     0.134 A 
ATOM     75  C   UNL A   1      37.130  32.604  28.740  1.00  0.00     0.134 A 
ATOM     76  F   UNL A   1      35.904  29.258  29.413  1.00  0.00    -0.206 F 
ATOM     77  C   UNL A   1      34.902  31.027  28.239  1.00  0.00     0.040 A 
ATOM     78  C   UNL A   1      36.058  33.126  28.014  1.00  0.00     0.040 A 
ATOM     79  F   UNL A   1      38.196  33.392  28.945  1.00  0.00    -0.206 F 
ATOM     80  C   UNL A   1      34.941  32.334  27.758  1.00  0.00     0.006 A 
ENDBRANCH  52  73
BRANCH  64  81
ATOM     81  C   UNL A   1      39.202  32.114  35.839  1.00  0.00     0.057 A 
ATOM     82  C   UNL A   1      39.612  33.436  36.054  1.00  0.00     0.134 A 
ATOM     83  C   UNL A   1      38.259  31.582  36.730  1.00  0.00     0.134 A 
ATOM     84  F   UNL A   1      40.520  34.006  35.247  1.00  0.00    -0.206 F 
ATOM     85  C   UNL A   1      39.127  34.187  37.128  1.00  0.00     0.040 A 
ATOM     86  C   UNL A   1      37.749  32.330  37.792  1.00  0.00     0.040 A 
ATOM     87  F   UNL A   1      37.814  30.325  36.579  1.00  0.00    -0.206 F 
ATOM     88  C   UNL A   1      38.190  33.635  37.999  1.00  0.00     0.006 A 
ENDBRANCH  64  81
ENDBRANCH  38  39
ENDBRANCH  31  33
ENDBRANCH  30  31
ENDBRANCH  29  30
ENDBRANCH  28  29
ENDBRANCH  27  28
ENDBRANCH  26  27
ENDBRANCH   1  26
TORSDOF 20
ENDMDL
