MODEL 1
REMARK VINA RESULT:     -11.9      0.000      0.000
REMARK SMILES Cc1ccccc1NC(=S)NN1C(=O)CS[C@H]1c1ccccc1C(=O)OCCOCCOCCOC(=O)c1ccc(-c2c3nc(c(-c4c(F)cccc4F)c4ccc([nH]4)c(-c4c(F)cccc4F)c4nc(c(-c5c(F)cccc5F)c5ccc2[nH]5)C=C4)C=C3)cc1
REMARK SMILES IDX 29 1 28 2 27 3 26 4 24 5 25 6 23 7 18 8 19 9 20 10 22 11
REMARK SMILES IDX 21 12 17 13 12 14 13 15 14 16 15 17 16 18 11 19 9 21 10 22
REMARK SMILES IDX 8 23 7 25 1 26 2 27 3 28 4 29 6 30 5 31 30 32 31 33 32 34
REMARK SMILES IDX 33 35 34 36 35 37 36 38 37 39 38 40 39 41 91 42 40 43 90 44
REMARK SMILES IDX 41 45 42 46 43 47 84 48 44 49 89 50 83 51 85 52 45 53 88 54
REMARK SMILES IDX 82 55 81 56 46 58 72 59 55 60 71 61 56 62 59 63 70 64 86 65
REMARK SMILES IDX 57 66 58 67 69 69 87 70 60 71 47 72 48 73 53 74 49 75 50 76
REMARK SMILES IDX 52 77 54 78 51 79 73 80 74 81 79 82 75 83 76 84 78 85 80 86
REMARK SMILES IDX 77 87 61 88 62 89 67 90 63 91 64 92 66 93 68 94 65 95
REMARK H PARENT 11 20 8 24 85 57 59 68
REMARK Flexibility Score: inf
ROOT
ATOM      1  O   UNL A   1      36.398  22.490  25.615  1.00  0.00    -0.376 OA
ENDROOT
BRANCH   1   2
ATOM      2  C   UNL A   1      36.811  21.191  25.274  1.00  0.00     0.202 C 
BRANCH   2   3
ATOM      3  C   UNL A   1      38.317  20.911  25.073  1.00  0.00     0.261 C 
BRANCH   3   4
ATOM      4  O   UNL A   1      39.644  20.945  26.097  1.00  0.00    -0.460 OA
BRANCH   4   5
ATOM      5  C   UNL A   1      40.868  20.968  27.099  1.00  0.00     0.338 C 
ATOM      6  O   UNL A   1      40.554  21.220  28.242  1.00  0.00    -0.246 OA
BRANCH   5   7
ATOM      7  C   UNL A   1      42.595  20.213  26.751  1.00  0.00     0.066 A 
ATOM      8  C   UNL A   1      43.892  20.987  25.914  1.00  0.00     0.001 A 
ATOM      9  C   UNL A   1      44.568  20.207  24.951  1.00  0.00     0.008 A 
ATOM     10  C   UNL A   1      44.229  18.849  24.820  1.00  0.00     0.000 A 
ATOM     11  C   UNL A   1      42.469  18.830  26.599  1.00  0.00     0.016 A 
ATOM     12  C   UNL A   1      43.253  18.190  25.620  1.00  0.00     0.001 A 
BRANCH   8  13
ATOM     13  C   UNL A   1      44.412  22.829  25.876  1.00  0.00     0.197 C 
ATOM     14  N   UNL A   1      45.167  23.907  27.039  1.00  0.00    -0.236 N 
ATOM     15  C   UNL A   1      45.870  24.983  26.532  1.00  0.00     0.252 C 
ATOM     16  O   UNL A   1      46.611  25.716  27.179  1.00  0.00    -0.272 OA
ATOM     17  C   UNL A   1      45.485  25.241  25.104  1.00  0.00     0.174 C 
ATOM     18  S   UNL A   1      45.069  23.648  24.277  1.00  0.00    -0.120 SA
BRANCH  14  19
ATOM     19  N   UNL A   1      45.285  23.795  28.637  1.00  0.00    -0.270 N 
ATOM     20  H   UNL A   1      46.225  23.865  28.924  1.00  0.00     0.191 HD
BRANCH  19  21
ATOM     21  C   UNL A   1      44.450  23.627  29.728  1.00  0.00     0.189 C 
ATOM     22  S   UNL A   1      42.839  23.051  29.891  1.00  0.00    -0.039 S 
BRANCH  21  23
ATOM     23  N   UNL A   1      44.379  24.456  30.749  1.00  0.00    -0.331 N 
ATOM     24  H   UNL A   1      44.159  25.374  30.471  1.00  0.00     0.169 HD
BRANCH  23  25
ATOM     25  C   UNL A   1      44.536  24.349  32.081  1.00  0.00     0.043 A 
ATOM     26  C   UNL A   1      45.385  26.674  32.056  1.00  0.00     0.046 C 
ATOM     27  C   UNL A   1      44.625  25.560  32.713  1.00  0.00    -0.028 A 
ATOM     28  C   UNL A   1      43.858  25.632  33.854  1.00  0.00     0.005 A 
ATOM     29  C   UNL A   1      43.429  24.444  34.481  1.00  0.00     0.000 A 
ATOM     30  C   UNL A   1      44.327  23.178  32.733  1.00  0.00     0.026 A 
ATOM     31  C   UNL A   1      43.829  23.204  34.001  1.00  0.00     0.002 A 
ENDBRANCH  23  25
ENDBRANCH  21  23
ENDBRANCH  19  21
ENDBRANCH  14  19
ENDBRANCH   8  13
ENDBRANCH   5   7
ENDBRANCH   4   5
ENDBRANCH   3   4
ENDBRANCH   2   3
ENDBRANCH   1   2
BRANCH   1  32
ATOM     32  C   UNL A   1      36.463  23.304  24.481  1.00  0.00     0.188 C 
BRANCH  32  33
ATOM     33  C   UNL A   1      35.122  23.436  23.835  1.00  0.00     0.188 C 
BRANCH  33  34
ATOM     34  O   UNL A   1      34.349  24.619  24.049  1.00  0.00    -0.376 OA
BRANCH  34  35
ATOM     35  C   UNL A   1      33.025  24.843  23.650  1.00  0.00     0.202 C 
BRANCH  35  36
ATOM     36  C   UNL A   1      33.088  25.707  22.456  1.00  0.00     0.261 C 
BRANCH  36  37
ATOM     37  O   UNL A   1      32.680  27.130  22.732  1.00  0.00    -0.460 OA
BRANCH  37  38
ATOM     38  C   UNL A   1      33.228  28.233  23.365  1.00  0.00     0.338 C 
ATOM     39  O   UNL A   1      33.975  28.956  22.697  1.00  0.00    -0.246 OA
BRANCH  38  40
ATOM     40  C   UNL A   1      33.144  28.542  24.869  1.00  0.00     0.060 A 
ATOM     41  C   UNL A   1      33.019  29.834  25.262  1.00  0.00     0.016 A 
ATOM     42  C   UNL A   1      33.498  27.723  25.936  1.00  0.00     0.016 A 
ATOM     43  C   UNL A   1      33.646  30.183  26.489  1.00  0.00     0.010 A 
ATOM     44  C   UNL A   1      34.410  28.174  27.049  1.00  0.00     0.010 A 
ATOM     45  C   UNL A   1      34.766  29.491  27.400  1.00  0.00    -0.014 A 
BRANCH  45  46
ATOM     46  C   UNL A   1      36.162  30.340  28.571  1.00  0.00     0.031 A 
ATOM     47  C   UNL A   1      36.403  32.169  28.492  1.00  0.00     0.074 A 
ATOM     48  C   UNL A   1      37.246  29.567  29.525  1.00  0.00     0.049 A 
ATOM     49  N   UNL A   1      36.882  32.808  29.483  1.00  0.00    -0.248 NA
ATOM     50  C   UNL A   1      35.905  33.412  27.651  1.00  0.00     0.031 C 
ATOM     51  C   UNL A   1      38.006  29.644  30.859  1.00  0.00     0.029 A 
ATOM     52  N   UNL A   1      37.748  28.127  29.423  1.00  0.00    -0.354 N 
ATOM     53  C   UNL A   1      36.034  33.910  29.753  1.00  0.00     0.074 A 
ATOM     54  C   UNL A   1      35.541  34.359  28.524  1.00  0.00     0.031 C 
ATOM     55  C   UNL A   1      38.902  28.647  31.145  1.00  0.00     0.029 A 
ATOM     56  C   UNL A   1      38.971  27.822  30.000  1.00  0.00     0.049 A 
ATOM     57  H   UNL A   1      37.219  27.437  28.961  1.00  0.00     0.167 HD
ATOM     58  C   UNL A   1      35.788  34.165  31.058  1.00  0.00     0.037 A 
ATOM     59  C   UNL A   1      40.068  27.626  29.231  1.00  0.00     0.037 A 
ATOM     60  C   UNL A   1      36.785  33.399  31.807  1.00  0.00     0.049 A 
ATOM     61  C   UNL A   1      40.700  29.045  29.277  1.00  0.00     0.074 A 
ATOM     62  C   UNL A   1      36.851  32.519  32.842  1.00  0.00     0.029 A 
ATOM     63  N   UNL A   1      38.054  33.350  31.256  1.00  0.00    -0.354 N 
ATOM     64  N   UNL A   1      40.016  30.187  29.257  1.00  0.00    -0.248 NA
ATOM     65  C   UNL A   1      42.007  29.192  29.914  1.00  0.00     0.031 C 
ATOM     66  C   UNL A   1      38.168  31.896  32.784  1.00  0.00     0.029 A 
ATOM     67  C   UNL A   1      38.842  32.296  31.621  1.00  0.00     0.049 A 
ATOM     68  H   UNL A   1      38.374  34.042  30.633  1.00  0.00     0.167 HD
ATOM     69  C   UNL A   1      40.619  31.091  30.142  1.00  0.00     0.074 A 
ATOM     70  C   UNL A   1      41.887  30.411  30.461  1.00  0.00     0.031 C 
ATOM     71  C   UNL A   1      40.139  32.167  30.896  1.00  0.00     0.037 A 
BRANCH  58  72
ATOM     72  C   UNL A   1      34.673  34.976  31.693  1.00  0.00     0.057 A 
ATOM     73  C   UNL A   1      34.960  35.553  32.939  1.00  0.00     0.134 A 
ATOM     74  C   UNL A   1      33.335  35.173  31.272  1.00  0.00     0.134 A 
ATOM     75  F   UNL A   1      36.192  35.495  33.458  1.00  0.00    -0.206 F 
ATOM     76  C   UNL A   1      34.030  36.250  33.714  1.00  0.00     0.040 A 
ATOM     77  C   UNL A   1      32.370  35.850  32.062  1.00  0.00     0.040 A 
ATOM     78  F   UNL A   1      32.889  34.716  30.094  1.00  0.00    -0.206 F 
ATOM     79  C   UNL A   1      32.727  36.403  33.284  1.00  0.00     0.006 A 
ENDBRANCH  58  72
BRANCH  59  80
ATOM     80  C   UNL A   1      39.775  26.625  28.135  1.00  0.00     0.057 A 
ATOM     81  C   UNL A   1      40.417  26.753  26.861  1.00  0.00     0.134 A 
ATOM     82  C   UNL A   1      39.213  25.384  28.396  1.00  0.00     0.134 A 
ATOM     83  F   UNL A   1      40.978  27.920  26.493  1.00  0.00    -0.206 F 
ATOM     84  C   UNL A   1      40.684  25.655  26.024  1.00  0.00     0.040 A 
ATOM     85  C   UNL A   1      39.446  24.275  27.546  1.00  0.00     0.040 A 
ATOM     86  F   UNL A   1      38.701  25.149  29.611  1.00  0.00    -0.206 F 
ATOM     87  C   UNL A   1      40.275  24.391  26.417  1.00  0.00     0.006 A 
ENDBRANCH  59  80
BRANCH  71  88
ATOM     88  C   UNL A   1      40.984  33.456  30.859  1.00  0.00     0.057 A 
ATOM     89  C   UNL A   1      40.897  34.388  29.824  1.00  0.00     0.134 A 
ATOM     90  C   UNL A   1      41.874  33.862  31.900  1.00  0.00     0.134 A 
ATOM     91  F   UNL A   1      39.945  34.346  28.884  1.00  0.00    -0.206 F 
ATOM     92  C   UNL A   1      41.763  35.472  29.716  1.00  0.00     0.040 A 
ATOM     93  C   UNL A   1      42.633  35.020  31.869  1.00  0.00     0.040 A 
ATOM     94  F   UNL A   1      42.076  33.215  33.051  1.00  0.00    -0.206 F 
ATOM     95  C   UNL A   1      42.635  35.794  30.739  1.00  0.00     0.006 A 
ENDBRANCH  71  88
ENDBRANCH  45  46
ENDBRANCH  38  40
ENDBRANCH  37  38
ENDBRANCH  36  37
ENDBRANCH  35  36
ENDBRANCH  34  35
ENDBRANCH  33  34
ENDBRANCH  32  33
ENDBRANCH   1  32
TORSDOF 22
ENDMDL
MODEL 2
REMARK VINA RESULT:     -11.6      4.941     11.637
REMARK SMILES Cc1ccccc1NC(=S)NN1C(=O)CS[C@H]1c1ccccc1C(=O)OCCOCCOCCOC(=O)c1ccc(-c2c3nc(c(-c4c(F)cccc4F)c4ccc([nH]4)c(-c4c(F)cccc4F)c4nc(c(-c5c(F)cccc5F)c5ccc2[nH]5)C=C4)C=C3)cc1
REMARK SMILES IDX 29 1 28 2 27 3 26 4 24 5 25 6 23 7 18 8 19 9 20 10 22 11
REMARK SMILES IDX 21 12 17 13 12 14 13 15 14 16 15 17 16 18 11 19 9 21 10 22
REMARK SMILES IDX 8 23 7 25 1 26 2 27 3 28 4 29 6 30 5 31 30 32 31 33 32 34
REMARK SMILES IDX 33 35 34 36 35 37 36 38 37 39 38 40 39 41 91 42 40 43 90 44
REMARK SMILES IDX 41 45 42 46 43 47 84 48 44 49 89 50 83 51 85 52 45 53 88 54
REMARK SMILES IDX 82 55 81 56 46 58 72 59 55 60 71 61 56 62 59 63 70 64 86 65
REMARK SMILES IDX 57 66 58 67 69 69 87 70 60 71 47 72 48 73 53 74 49 75 50 76
REMARK SMILES IDX 52 77 54 78 51 79 73 80 74 81 79 82 75 83 76 84 78 85 80 86
REMARK SMILES IDX 77 87 61 88 62 89 67 90 63 91 64 92 66 93 68 94 65 95
REMARK H PARENT 11 20 8 24 85 57 59 68
REMARK Flexibility Score: inf
ROOT
ATOM      1  O   UNL A   1      32.722  30.460  27.322  1.00  0.00    -0.376 OA
ENDROOT
BRANCH   1   2
ATOM      2  C   UNL A   1      31.804  30.209  26.287  1.00  0.00     0.202 C 
BRANCH   2   3
ATOM      3  C   UNL A   1      32.293  29.501  25.005  1.00  0.00     0.261 C 
BRANCH   3   4
ATOM      4  O   UNL A   1      31.508  28.708  23.753  1.00  0.00    -0.460 OA
BRANCH   4   5
ATOM      5  C   UNL A   1      30.733  27.950  22.601  1.00  0.00     0.338 C 
ATOM      6  O   UNL A   1      30.042  28.678  21.922  1.00  0.00    -0.246 OA
BRANCH   5   7
ATOM      7  C   UNL A   1      31.151  26.195  21.957  1.00  0.00     0.066 A 
ATOM      8  C   UNL A   1      31.349  24.779  22.925  1.00  0.00     0.001 A 
ATOM      9  C   UNL A   1      32.461  23.964  22.621  1.00  0.00     0.008 A 
ATOM     10  C   UNL A   1      33.251  24.285  21.504  1.00  0.00     0.000 A 
ATOM     11  C   UNL A   1      31.942  26.302  20.810  1.00  0.00     0.016 A 
ATOM     12  C   UNL A   1      32.989  25.378  20.629  1.00  0.00     0.001 A 
BRANCH   8  13
ATOM     13  C   UNL A   1      30.459  24.249  24.535  1.00  0.00     0.197 C 
ATOM     14  N   UNL A   1      30.680  22.930  25.673  1.00  0.00    -0.236 N 
ATOM     15  C   UNL A   1      30.235  23.135  26.965  1.00  0.00     0.252 C 
ATOM     16  O   UNL A   1      30.478  22.410  27.924  1.00  0.00    -0.272 OA
ATOM     17  C   UNL A   1      29.273  24.286  27.016  1.00  0.00     0.174 C 
ATOM     18  S   UNL A   1      29.738  25.540  25.749  1.00  0.00    -0.120 SA
BRANCH  14  19
ATOM     19  N   UNL A   1      31.438  21.523  25.502  1.00  0.00    -0.270 N 
ATOM     20  H   UNL A   1      30.832  20.773  25.704  1.00  0.00     0.191 HD
BRANCH  19  21
ATOM     21  C   UNL A   1      32.694  21.060  25.153  1.00  0.00     0.189 C 
ATOM     22  S   UNL A   1      33.373  19.484  25.050  1.00  0.00    -0.039 S 
BRANCH  21  23
ATOM     23  N   UNL A   1      33.825  21.651  25.476  1.00  0.00    -0.331 N 
ATOM     24  H   UNL A   1      34.127  21.411  26.383  1.00  0.00     0.169 HD
BRANCH  23  25
ATOM     25  C   UNL A   1      34.668  22.504  24.867  1.00  0.00     0.043 A 
ATOM     26  C   UNL A   1      33.769  24.275  26.344  1.00  0.00     0.046 C 
ATOM     27  C   UNL A   1      34.901  23.642  25.590  1.00  0.00    -0.028 A 
ATOM     28  C   UNL A   1      36.232  23.991  25.636  1.00  0.00     0.005 A 
ATOM     29  C   UNL A   1      37.121  23.473  24.672  1.00  0.00     0.000 A 
ATOM     30  C   UNL A   1      35.420  22.126  23.802  1.00  0.00     0.026 A 
ATOM     31  C   UNL A   1      36.658  22.670  23.637  1.00  0.00     0.002 A 
ENDBRANCH  23  25
ENDBRANCH  21  23
ENDBRANCH  19  21
ENDBRANCH  14  19
ENDBRANCH   8  13
ENDBRANCH   5   7
ENDBRANCH   4   5
ENDBRANCH   3   4
ENDBRANCH   2   3
ENDBRANCH   1   2
BRANCH   1  32
ATOM     32  C   UNL A   1      34.020  30.289  26.834  1.00  0.00     0.188 C 
BRANCH  32  33
ATOM     33  C   UNL A   1      34.740  29.218  27.587  1.00  0.00     0.188 C 
BRANCH  33  34
ATOM     34  O   UNL A   1      35.841  29.567  28.431  1.00  0.00    -0.376 OA
BRANCH  34  35
ATOM     35  C   UNL A   1      36.829  30.525  28.171  1.00  0.00     0.202 C 
BRANCH  35  36
ATOM     36  C   UNL A   1      36.978  31.318  29.407  1.00  0.00     0.261 C 
BRANCH  36  37
ATOM     37  O   UNL A   1      37.652  30.559  30.519  1.00  0.00    -0.460 OA
BRANCH  37  38
ATOM     38  C   UNL A   1      38.675  29.633  30.635  1.00  0.00     0.338 C 
ATOM     39  O   UNL A   1      38.354  28.451  30.791  1.00  0.00    -0.246 OA
BRANCH  38  40
ATOM     40  C   UNL A   1      40.172  29.959  30.772  1.00  0.00     0.060 A 
ATOM     41  C   UNL A   1      40.749  30.766  29.848  1.00  0.00     0.016 A 
ATOM     42  C   UNL A   1      41.131  29.293  31.529  1.00  0.00     0.016 A 
ATOM     43  C   UNL A   1      42.107  30.491  29.531  1.00  0.00     0.010 A 
ATOM     44  C   UNL A   1      42.445  28.823  30.959  1.00  0.00     0.010 A 
ATOM     45  C   UNL A   1      43.070  29.232  29.765  1.00  0.00    -0.014 A 
BRANCH  45  46
ATOM     46  C   UNL A   1      44.592  28.563  28.635  1.00  0.00     0.031 A 
ATOM     47  C   UNL A   1      45.444  29.740  27.496  1.00  0.00     0.074 A 
ATOM     48  C   UNL A   1      45.102  27.014  28.493  1.00  0.00     0.049 A 
ATOM     49  N   UNL A   1      46.650  29.545  27.137  1.00  0.00    -0.248 NA
ATOM     50  C   UNL A   1      45.301  31.227  26.976  1.00  0.00     0.031 C 
ATOM     51  C   UNL A   1      46.343  26.124  28.312  1.00  0.00     0.029 A 
ATOM     52  N   UNL A   1      44.331  25.726  28.784  1.00  0.00    -0.354 N 
ATOM     53  C   UNL A   1      47.377  30.741  27.347  1.00  0.00     0.074 A 
ATOM     54  C   UNL A   1      46.504  31.802  27.089  1.00  0.00     0.031 C 
ATOM     55  C   UNL A   1      46.152  24.771  28.202  1.00  0.00     0.029 A 
ATOM     56  C   UNL A   1      44.755  24.560  28.168  1.00  0.00     0.049 A 
ATOM     57  H   UNL A   1      43.556  25.726  29.391  1.00  0.00     0.167 HD
ATOM     58  C   UNL A   1      48.619  30.599  27.864  1.00  0.00     0.037 A 
ATOM     59  C   UNL A   1      44.061  24.034  27.132  1.00  0.00     0.037 A 
ATOM     60  C   UNL A   1      48.950  29.181  27.718  1.00  0.00     0.049 A 
ATOM     61  C   UNL A   1      44.843  24.638  25.933  1.00  0.00     0.074 A 
ATOM     62  C   UNL A   1      49.414  28.144  28.464  1.00  0.00     0.029 A 
ATOM     63  N   UNL A   1      48.527  28.575  26.547  1.00  0.00    -0.354 N 
ATOM     64  N   UNL A   1      45.350  25.869  25.893  1.00  0.00    -0.248 NA
ATOM     65  C   UNL A   1      45.549  23.719  25.042  1.00  0.00     0.031 C 
ATOM     66  C   UNL A   1      49.137  26.925  27.715  1.00  0.00     0.029 A 
ATOM     67  C   UNL A   1      48.370  27.220  26.578  1.00  0.00     0.049 A 
ATOM     68  H   UNL A   1      48.350  29.097  25.731  1.00  0.00     0.167 HD
ATOM     69  C   UNL A   1      46.601  25.823  25.265  1.00  0.00     0.074 A 
ATOM     70  C   UNL A   1      46.620  24.457  24.713  1.00  0.00     0.031 C 
ATOM     71  C   UNL A   1      47.758  26.603  25.365  1.00  0.00     0.037 A 
BRANCH  58  72
ATOM     72  C   UNL A   1      49.501  31.620  28.558  1.00  0.00     0.057 A 
ATOM     73  C   UNL A   1      49.475  31.609  29.961  1.00  0.00     0.134 A 
ATOM     74  C   UNL A   1      50.290  32.664  28.015  1.00  0.00     0.134 A 
ATOM     75  F   UNL A   1      48.810  30.660  30.630  1.00  0.00    -0.206 F 
ATOM     76  C   UNL A   1      50.144  32.534  30.766  1.00  0.00     0.040 A 
ATOM     77  C   UNL A   1      50.949  33.630  28.817  1.00  0.00     0.040 A 
ATOM     78  F   UNL A   1      50.454  32.812  26.693  1.00  0.00    -0.206 F 
ATOM     79  C   UNL A   1      50.886  33.553  30.202  1.00  0.00     0.006 A 
ENDBRANCH  58  72
BRANCH  59  80
ATOM     80  C   UNL A   1      42.597  23.899  27.489  1.00  0.00     0.057 A 
ATOM     81  C   UNL A   1      41.644  24.826  26.958  1.00  0.00     0.134 A 
ATOM     82  C   UNL A   1      42.064  22.723  27.998  1.00  0.00     0.134 A 
ATOM     83  F   UNL A   1      42.046  26.008  26.458  1.00  0.00    -0.206 F 
ATOM     84  C   UNL A   1      40.295  24.495  26.735  1.00  0.00     0.040 A 
ATOM     85  C   UNL A   1      40.700  22.389  27.809  1.00  0.00     0.040 A 
ATOM     86  F   UNL A   1      42.899  21.757  28.402  1.00  0.00    -0.206 F 
ATOM     87  C   UNL A   1      39.844  23.231  27.079  1.00  0.00     0.006 A 
ENDBRANCH  59  80
BRANCH  71  88
ATOM     88  C   UNL A   1      48.418  27.017  24.034  1.00  0.00     0.057 A 
ATOM     89  C   UNL A   1      47.740  27.729  23.043  1.00  0.00     0.134 A 
ATOM     90  C   UNL A   1      49.790  26.786  23.713  1.00  0.00     0.134 A 
ATOM     91  F   UNL A   1      46.535  28.279  23.236  1.00  0.00    -0.206 F 
ATOM     92  C   UNL A   1      48.287  27.971  21.786  1.00  0.00     0.040 A 
ATOM     93  C   UNL A   1      50.385  27.157  22.519  1.00  0.00     0.040 A 
ATOM     94  F   UNL A   1      50.695  26.219  24.516  1.00  0.00    -0.206 F 
ATOM     95  C   UNL A   1      49.613  27.687  21.518  1.00  0.00     0.006 A 
ENDBRANCH  71  88
ENDBRANCH  45  46
ENDBRANCH  38  40
ENDBRANCH  37  38
ENDBRANCH  36  37
ENDBRANCH  35  36
ENDBRANCH  34  35
ENDBRANCH  33  34
ENDBRANCH  32  33
ENDBRANCH   1  32
TORSDOF 22
ENDMDL
MODEL 3
REMARK VINA RESULT:     -11.4      4.498     12.143
REMARK SMILES Cc1ccccc1NC(=S)NN1C(=O)CS[C@H]1c1ccccc1C(=O)OCCOCCOCCOC(=O)c1ccc(-c2c3nc(c(-c4c(F)cccc4F)c4ccc([nH]4)c(-c4c(F)cccc4F)c4nc(c(-c5c(F)cccc5F)c5ccc2[nH]5)C=C4)C=C3)cc1
REMARK SMILES IDX 29 1 28 2 27 3 26 4 24 5 25 6 23 7 18 8 19 9 20 10 22 11
REMARK SMILES IDX 21 12 17 13 12 14 13 15 14 16 15 17 16 18 11 19 9 21 10 22
REMARK SMILES IDX 8 23 7 25 1 26 2 27 3 28 4 29 6 30 5 31 30 32 31 33 32 34
REMARK SMILES IDX 33 35 34 36 35 37 36 38 37 39 38 40 39 41 91 42 40 43 90 44
REMARK SMILES IDX 41 45 42 46 43 47 84 48 44 49 89 50 83 51 85 52 45 53 88 54
REMARK SMILES IDX 82 55 81 56 46 58 72 59 55 60 71 61 56 62 59 63 70 64 86 65
REMARK SMILES IDX 57 66 58 67 69 69 87 70 60 71 47 72 48 73 53 74 49 75 50 76
REMARK SMILES IDX 52 77 54 78 51 79 73 80 74 81 79 82 75 83 76 84 78 85 80 86
REMARK SMILES IDX 77 87 61 88 62 89 67 90 63 91 64 92 66 93 68 94 65 95
REMARK H PARENT 11 20 8 24 85 57 59 68
REMARK Flexibility Score: inf
ROOT
ATOM      1  O   UNL A   1      36.920  31.163  28.392  1.00  0.00    -0.376 OA
ENDROOT
BRANCH   1   2
ATOM      2  C   UNL A   1      36.258  29.972  28.049  1.00  0.00     0.202 C 
BRANCH   2   3
ATOM      3  C   UNL A   1      34.810  30.043  27.517  1.00  0.00     0.261 C 
BRANCH   3   4
ATOM      4  O   UNL A   1      33.913  29.079  26.479  1.00  0.00    -0.460 OA
BRANCH   4   5
ATOM      5  C   UNL A   1      33.106  28.154  25.480  1.00  0.00     0.338 C 
ATOM      6  O   UNL A   1      33.665  27.109  25.230  1.00  0.00    -0.246 OA
BRANCH   5   7
ATOM      7  C   UNL A   1      31.246  28.342  25.059  1.00  0.00     0.066 A 
ATOM      8  C   UNL A   1      30.176  27.068  24.597  1.00  0.00     0.001 A 
ATOM      9  C   UNL A   1      29.326  27.332  23.501  1.00  0.00     0.008 A 
ATOM     10  C   UNL A   1      29.322  28.622  22.942  1.00  0.00     0.000 A 
ATOM     11  C   UNL A   1      31.029  29.599  24.490  1.00  0.00     0.016 A 
ATOM     12  C   UNL A   1      30.109  29.704  23.428  1.00  0.00     0.001 A 
BRANCH   8  13
ATOM     13  C   UNL A   1      30.122  25.237  25.154  1.00  0.00     0.197 C 
ATOM     14  N   UNL A   1      31.148  23.842  24.858  1.00  0.00    -0.236 N 
ATOM     15  C   UNL A   1      31.130  22.839  25.807  1.00  0.00     0.252 C 
ATOM     16  O   UNL A   1      31.915  21.897  25.860  1.00  0.00    -0.272 OA
ATOM     17  C   UNL A   1      29.918  22.961  26.684  1.00  0.00     0.174 C 
ATOM     18  S   UNL A   1      29.473  24.738  26.883  1.00  0.00    -0.120 SA
BRANCH  14  19
ATOM     19  N   UNL A   1      32.224  23.570  23.697  1.00  0.00    -0.270 N 
ATOM     20  H   UNL A   1      32.577  24.418  23.341  1.00  0.00     0.191 HD
BRANCH  19  21
ATOM     21  C   UNL A   1      32.800  22.490  23.052  1.00  0.00     0.189 C 
ATOM     22  S   UNL A   1      32.151  21.049  22.374  1.00  0.00    -0.039 S 
BRANCH  21  23
ATOM     23  N   UNL A   1      33.955  21.951  23.381  1.00  0.00    -0.331 N 
ATOM     24  H   UNL A   1      34.227  21.239  22.758  1.00  0.00     0.169 HD
BRANCH  23  25
ATOM     25  C   UNL A   1      34.854  22.138  24.365  1.00  0.00     0.043 A 
ATOM     26  C   UNL A   1      34.486  19.775  25.001  1.00  0.00     0.046 C 
ATOM     27  C   UNL A   1      35.379  20.970  24.846  1.00  0.00    -0.028 A 
ATOM     28  C   UNL A   1      36.746  21.016  25.003  1.00  0.00     0.005 A 
ATOM     29  C   UNL A   1      37.396  22.265  25.081  1.00  0.00     0.000 A 
ATOM     30  C   UNL A   1      35.383  23.361  24.625  1.00  0.00     0.026 A 
ATOM     31  C   UNL A   1      36.667  23.447  25.070  1.00  0.00     0.002 A 
ENDBRANCH  23  25
ENDBRANCH  21  23
ENDBRANCH  19  21
ENDBRANCH  14  19
ENDBRANCH   8  13
ENDBRANCH   5   7
ENDBRANCH   4   5
ENDBRANCH   3   4
ENDBRANCH   2   3
ENDBRANCH   1   2
BRANCH   1  32
ATOM     32  C   UNL A   1      35.971  32.149  28.676  1.00  0.00     0.188 C 
BRANCH  32  33
ATOM     33  C   UNL A   1      35.907  32.428  30.143  1.00  0.00     0.188 C 
BRANCH  33  34
ATOM     34  O   UNL A   1      36.901  33.259  30.746  1.00  0.00    -0.376 OA
BRANCH  34  35
ATOM     35  C   UNL A   1      38.287  33.193  30.550  1.00  0.00     0.202 C 
BRANCH  35  36
ATOM     36  C   UNL A   1      38.905  33.347  31.881  1.00  0.00     0.261 C 
BRANCH  36  37
ATOM     37  O   UNL A   1      39.037  32.046  32.627  1.00  0.00    -0.460 OA
BRANCH  37  38
ATOM     38  C   UNL A   1      38.353  30.844  32.689  1.00  0.00     0.338 C 
ATOM     39  O   UNL A   1      37.304  30.822  33.341  1.00  0.00    -0.246 OA
BRANCH  38  40
ATOM     40  C   UNL A   1      38.869  29.487  32.179  1.00  0.00     0.060 A 
ATOM     41  C   UNL A   1      39.984  28.961  32.743  1.00  0.00     0.016 A 
ATOM     42  C   UNL A   1      38.552  28.840  30.989  1.00  0.00     0.016 A 
ATOM     43  C   UNL A   1      40.826  28.203  31.885  1.00  0.00     0.010 A 
ATOM     44  C   UNL A   1      39.597  28.315  30.038  1.00  0.00     0.010 A 
ATOM     45  C   UNL A   1      40.960  28.069  30.294  1.00  0.00    -0.014 A 
BRANCH  45  46
ATOM     46  C   UNL A   1      42.591  27.703  29.177  1.00  0.00     0.031 A 
ATOM     47  C   UNL A   1      43.590  26.189  29.524  1.00  0.00     0.074 A 
ATOM     48  C   UNL A   1      43.246  28.686  28.044  1.00  0.00     0.049 A 
ATOM     49  N   UNL A   1      44.301  25.654  28.615  1.00  0.00    -0.248 NA
ATOM     50  C   UNL A   1      43.667  25.015  30.580  1.00  0.00     0.031 C 
ATOM     51  C   UNL A   1      43.973  28.713  26.690  1.00  0.00     0.029 A 
ATOM     52  N   UNL A   1      43.084  30.199  27.886  1.00  0.00    -0.354 N 
ATOM     53  C   UNL A   1      44.008  24.269  28.577  1.00  0.00     0.074 A 
ATOM     54  C   UNL A   1      43.747  23.870  29.892  1.00  0.00     0.031 C 
ATOM     55  C   UNL A   1      44.359  29.931  26.192  1.00  0.00     0.029 A 
ATOM     56  C   UNL A   1      44.062  30.889  27.188  1.00  0.00     0.049 A 
ATOM     57  H   UNL A   1      42.309  30.668  28.270  1.00  0.00     0.167 HD
ATOM     58  C   UNL A   1      43.901  23.716  27.347  1.00  0.00     0.037 A 
ATOM     59  C   UNL A   1      44.966  31.656  27.841  1.00  0.00     0.037 A 
ATOM     60  C   UNL A   1      44.479  24.692  26.423  1.00  0.00     0.049 A 
ATOM     61  C   UNL A   1      46.144  30.652  27.974  1.00  0.00     0.074 A 
ATOM     62  C   UNL A   1      44.169  25.329  25.262  1.00  0.00     0.029 A 
ATOM     63  N   UNL A   1      45.602  25.365  26.872  1.00  0.00    -0.354 N 
ATOM     64  N   UNL A   1      46.014  29.349  28.217  1.00  0.00    -0.248 NA
ATOM     65  C   UNL A   1      47.393  30.964  27.280  1.00  0.00     0.031 C 
ATOM     66  C   UNL A   1      45.092  26.449  25.132  1.00  0.00     0.029 A 
ATOM     67  C   UNL A   1      45.866  26.574  26.295  1.00  0.00     0.049 A 
ATOM     68  H   UNL A   1      46.184  24.989  27.572  1.00  0.00     0.167 HD
ATOM     69  C   UNL A   1      46.950  28.649  27.445  1.00  0.00     0.074 A 
ATOM     70  C   UNL A   1      47.807  29.735  26.938  1.00  0.00     0.031 C 
ATOM     71  C   UNL A   1      46.980  27.360  26.901  1.00  0.00     0.037 A 
BRANCH  58  72
ATOM     72  C   UNL A   1      43.243  22.416  26.924  1.00  0.00     0.057 A 
ATOM     73  C   UNL A   1      43.988  21.599  26.059  1.00  0.00     0.134 A 
ATOM     74  C   UNL A   1      41.941  21.925  27.185  1.00  0.00     0.134 A 
ATOM     75  F   UNL A   1      45.253  21.900  25.747  1.00  0.00    -0.206 F 
ATOM     76  C   UNL A   1      43.509  20.417  25.491  1.00  0.00     0.040 A 
ATOM     77  C   UNL A   1      41.428  20.744  26.590  1.00  0.00     0.040 A 
ATOM     78  F   UNL A   1      41.097  22.560  28.011  1.00  0.00    -0.206 F 
ATOM     79  C   UNL A   1      42.224  19.979  25.749  1.00  0.00     0.006 A 
ENDBRANCH  58  72
BRANCH  59  80
ATOM     80  C   UNL A   1      44.268  32.610  28.785  1.00  0.00     0.057 A 
ATOM     81  C   UNL A   1      43.667  33.806  28.276  1.00  0.00     0.134 A 
ATOM     82  C   UNL A   1      43.850  32.226  30.051  1.00  0.00     0.134 A 
ATOM     83  F   UNL A   1      44.013  34.283  27.066  1.00  0.00    -0.206 F 
ATOM     84  C   UNL A   1      42.562  34.427  28.885  1.00  0.00     0.040 A 
ATOM     85  C   UNL A   1      42.758  32.862  30.693  1.00  0.00     0.040 A 
ATOM     86  F   UNL A   1      44.276  31.056  30.546  1.00  0.00    -0.206 F 
ATOM     87  C   UNL A   1      42.046  33.892  30.055  1.00  0.00     0.006 A 
ENDBRANCH  59  80
BRANCH  71  88
ATOM     88  C   UNL A   1      48.294  26.574  27.081  1.00  0.00     0.057 A 
ATOM     89  C   UNL A   1      48.680  26.013  28.300  1.00  0.00     0.134 A 
ATOM     90  C   UNL A   1      49.204  26.279  26.021  1.00  0.00     0.134 A 
ATOM     91  F   UNL A   1      47.863  25.936  29.358  1.00  0.00    -0.206 F 
ATOM     92  C   UNL A   1      49.930  25.435  28.498  1.00  0.00     0.040 A 
ATOM     93  C   UNL A   1      50.385  25.573  26.180  1.00  0.00     0.040 A 
ATOM     94  F   UNL A   1      49.037  26.604  24.736  1.00  0.00    -0.206 F 
ATOM     95  C   UNL A   1      50.789  25.212  27.437  1.00  0.00     0.006 A 
ENDBRANCH  71  88
ENDBRANCH  45  46
ENDBRANCH  38  40
ENDBRANCH  37  38
ENDBRANCH  36  37
ENDBRANCH  35  36
ENDBRANCH  34  35
ENDBRANCH  33  34
ENDBRANCH  32  33
ENDBRANCH   1  32
TORSDOF 22
ENDMDL
