MODEL 1
REMARK VINA RESULT:      -9.8      0.000      0.000
REMARK SMILES O=C(OCCOCCOCCOC(=O)[C@H]1CCCCN1C(=O)CCl)c1ccc(-c2c3nc(c(-c4c(F)cccc4F)c4ccc([nH]4)c(-c4c(F)cccc4F)c4nc(c(-c5c(F)cccc5F)c5ccc2[nH]5)C=C4)C=C3)cc1
REMARK SMILES IDX 7 1 6 2 5 3 4 4 3 5 2 6 1 7 25 8 26 9 78 10 27 11 77 12
REMARK SMILES IDX 28 13 29 14 30 15 71 16 31 17 76 18 70 19 72 20 32 21 75 22
REMARK SMILES IDX 69 23 68 24 33 26 59 27 42 28 58 29 43 30 46 31 57 32 73 33
REMARK SMILES IDX 44 34 45 35 56 37 74 38 47 39 34 40 35 41 40 42 36 43 37 44
REMARK SMILES IDX 39 45 41 46 38 47 60 48 61 49 66 50 62 51 63 52 65 53 67 54
REMARK SMILES IDX 64 55 48 56 49 57 54 58 50 59 51 60 53 61 55 62 52 63 8 64
REMARK SMILES IDX 9 65 10 66 11 67 12 68 13 69 14 70 15 71 16 72 20 73 17 74
REMARK SMILES IDX 19 75 18 76 21 77 22 78 23 79 24 80
REMARK H PARENT 72 25 46 36
REMARK Flexibility Score: inf
ROOT
ATOM      1  C   UNL A   1      41.564  20.908  27.063  1.00  0.00     0.188 C 
ENDROOT
BRANCH   1   2
ATOM      2  O   UNL A   1      42.885  21.401  26.832  1.00  0.00    -0.376 OA
BRANCH   2   3
ATOM      3  C   UNL A   1      43.559  20.783  25.738  1.00  0.00     0.202 C 
BRANCH   3   4
ATOM      4  C   UNL A   1      44.239  21.771  24.767  1.00  0.00     0.261 C 
BRANCH   4   5
ATOM      5  O   UNL A   1      43.683  23.108  24.780  1.00  0.00    -0.460 OA
BRANCH   5   6
ATOM      6  C   UNL A   1      44.208  24.302  25.134  1.00  0.00     0.338 C 
ATOM      7  O   UNL A   1      45.321  24.617  24.730  1.00  0.00    -0.246 OA
BRANCH   6   8
ATOM      8  C   UNL A   1      43.526  25.231  26.076  1.00  0.00     0.060 A 
ATOM      9  C   UNL A   1      43.838  26.580  26.205  1.00  0.00     0.016 A 
ATOM     10  C   UNL A   1      42.437  24.740  26.809  1.00  0.00     0.016 A 
ATOM     11  C   UNL A   1      43.206  27.402  27.126  1.00  0.00     0.010 A 
ATOM     12  C   UNL A   1      41.743  25.575  27.689  1.00  0.00     0.010 A 
ATOM     13  C   UNL A   1      42.163  26.902  27.891  1.00  0.00    -0.014 A 
BRANCH  13  14
ATOM     14  C   UNL A   1      41.644  27.710  29.015  1.00  0.00     0.031 A 
ATOM     15  C   UNL A   1      42.355  27.587  30.329  1.00  0.00     0.074 A 
ATOM     16  C   UNL A   1      40.625  28.575  28.854  1.00  0.00     0.049 A 
ATOM     17  N   UNL A   1      42.065  28.117  31.486  1.00  0.00    -0.248 NA
ATOM     18  C   UNL A   1      43.568  26.748  30.338  1.00  0.00     0.031 C 
ATOM     19  C   UNL A   1      39.947  28.873  27.592  1.00  0.00     0.029 A 
ATOM     20  N   UNL A   1      39.967  29.356  29.767  1.00  0.00    -0.354 N 
ATOM     21  C   UNL A   1      43.050  27.665  32.353  1.00  0.00     0.074 A 
ATOM     22  C   UNL A   1      43.888  26.747  31.620  1.00  0.00     0.031 C 
ATOM     23  C   UNL A   1      38.924  29.712  27.820  1.00  0.00     0.029 A 
ATOM     24  C   UNL A   1      38.887  30.029  29.239  1.00  0.00     0.049 A 
ATOM     25  H   UNL A   1      40.239  29.431  30.710  1.00  0.00     0.167 HD
ATOM     26  C   UNL A   1      43.268  28.023  33.638  1.00  0.00     0.037 A 
ATOM     27  C   UNL A   1      37.974  30.807  29.846  1.00  0.00     0.037 A 
ATOM     28  C   UNL A   1      42.436  28.955  34.342  1.00  0.00     0.049 A 
ATOM     29  C   UNL A   1      38.155  31.091  31.311  1.00  0.00     0.074 A 
ATOM     30  C   UNL A   1      42.540  29.398  35.645  1.00  0.00     0.029 A 
ATOM     31  N   UNL A   1      41.333  29.588  33.784  1.00  0.00    -0.354 N 
ATOM     32  N   UNL A   1      39.097  30.670  32.123  1.00  0.00    -0.248 NA
ATOM     33  C   UNL A   1      37.174  31.984  31.937  1.00  0.00     0.031 C 
ATOM     34  C   UNL A   1      41.468  30.261  35.892  1.00  0.00     0.029 A 
ATOM     35  C   UNL A   1      40.731  30.404  34.723  1.00  0.00     0.049 A 
ATOM     36  H   UNL A   1      41.024  29.473  32.856  1.00  0.00     0.167 HD
ATOM     37  C   UNL A   1      38.863  31.301  33.337  1.00  0.00     0.074 A 
ATOM     38  C   UNL A   1      37.680  32.120  33.155  1.00  0.00     0.031 C 
ATOM     39  C   UNL A   1      39.571  31.227  34.491  1.00  0.00     0.037 A 
BRANCH  26  40
ATOM     40  C   UNL A   1      44.425  27.362  34.326  1.00  0.00     0.057 A 
ATOM     41  C   UNL A   1      44.279  26.163  35.044  1.00  0.00     0.134 A 
ATOM     42  C   UNL A   1      45.677  27.986  34.364  1.00  0.00     0.134 A 
ATOM     43  F   UNL A   1      43.095  25.532  35.079  1.00  0.00    -0.206 F 
ATOM     44  C   UNL A   1      45.318  25.644  35.819  1.00  0.00     0.040 A 
ATOM     45  C   UNL A   1      46.733  27.458  35.110  1.00  0.00     0.040 A 
ATOM     46  F   UNL A   1      45.883  29.138  33.708  1.00  0.00    -0.206 F 
ATOM     47  C   UNL A   1      46.549  26.295  35.853  1.00  0.00     0.006 A 
ENDBRANCH  26  40
BRANCH  27  48
ATOM     48  C   UNL A   1      36.847  31.402  29.080  1.00  0.00     0.057 A 
ATOM     49  C   UNL A   1      36.875  32.739  28.666  1.00  0.00     0.134 A 
ATOM     50  C   UNL A   1      35.702  30.658  28.770  1.00  0.00     0.134 A 
ATOM     51  F   UNL A   1      37.937  33.509  28.944  1.00  0.00    -0.206 F 
ATOM     52  C   UNL A   1      35.795  33.324  28.001  1.00  0.00     0.040 A 
ATOM     53  C   UNL A   1      34.624  31.223  28.084  1.00  0.00     0.040 A 
ATOM     54  F   UNL A   1      35.611  29.372  29.139  1.00  0.00    -0.206 F 
ATOM     55  C   UNL A   1      34.664  32.564  27.708  1.00  0.00     0.006 A 
ENDBRANCH  27  48
BRANCH  39  56
ATOM     56  C   UNL A   1      39.133  32.118  35.614  1.00  0.00     0.057 A 
ATOM     57  C   UNL A   1      39.554  33.448  35.720  1.00  0.00     0.134 A 
ATOM     58  C   UNL A   1      38.231  31.640  36.574  1.00  0.00     0.134 A 
ATOM     59  F   UNL A   1      40.429  33.958  34.840  1.00  0.00    -0.206 F 
ATOM     60  C   UNL A   1      39.108  34.268  36.757  1.00  0.00     0.040 A 
ATOM     61  C   UNL A   1      37.752  32.459  37.593  1.00  0.00     0.040 A 
ATOM     62  F   UNL A   1      37.784  30.376  36.520  1.00  0.00    -0.206 F 
ATOM     63  C   UNL A   1      38.197  33.775  37.691  1.00  0.00     0.006 A 
ENDBRANCH  39  56
ENDBRANCH  13  14
ENDBRANCH   6   8
ENDBRANCH   5   6
ENDBRANCH   4   5
ENDBRANCH   3   4
ENDBRANCH   2   3
ENDBRANCH   1   2
BRANCH   1  64
ATOM     64  C   UNL A   1      40.547  21.550  26.116  1.00  0.00     0.188 C 
BRANCH  64  65
ATOM     65  O   UNL A   1      39.314  22.022  26.646  1.00  0.00    -0.376 OA
BRANCH  65  66
ATOM     66  C   UNL A   1      38.966  23.375  26.414  1.00  0.00     0.202 C 
BRANCH  66  67
ATOM     67  C   UNL A   1      37.540  23.638  25.906  1.00  0.00     0.261 C 
BRANCH  67  68
ATOM     68  O   UNL A   1      36.525  22.694  26.330  1.00  0.00    -0.462 OA
BRANCH  68  69
ATOM     69  C   UNL A   1      36.122  21.843  25.342  1.00  0.00     0.328 C 
ATOM     70  O   UNL A   1      36.638  21.828  24.226  1.00  0.00    -0.250 OA
BRANCH  69  71
ATOM     71  C   UNL A   1      34.827  21.042  25.656  1.00  0.00     0.195 C 
ATOM     72  C   UNL A   1      34.010  21.811  26.714  1.00  0.00     0.037 C 
ATOM     73  N   UNL A   1      33.852  20.536  24.650  1.00  0.00    -0.328 N 
ATOM     74  C   UNL A   1      33.191  22.935  26.073  1.00  0.00     0.005 C 
ATOM     75  C   UNL A   1      33.084  21.570  23.954  1.00  0.00     0.120 C 
ATOM     76  C   UNL A   1      32.289  22.402  24.961  1.00  0.00     0.022 C 
BRANCH  73  77
ATOM     77  C   UNL A   1      33.360  19.237  24.854  1.00  0.00     0.238 C 
ATOM     78  O   UNL A   1      32.262  19.051  25.391  1.00  0.00    -0.273 OA
BRANCH  77  79
ATOM     79  C   UNL A   1      34.183  18.033  24.423  1.00  0.00     0.209 C 
ATOM     80  Cl  UNL A   1      33.371  17.158  23.116  1.00  0.00    -0.116 Cl
ENDBRANCH  77  79
ENDBRANCH  73  77
ENDBRANCH  69  71
ENDBRANCH  68  69
ENDBRANCH  67  68
ENDBRANCH  66  67
ENDBRANCH  65  66
ENDBRANCH  64  65
ENDBRANCH   1  64
TORSDOF 19
ENDMDL
MODEL 2
REMARK VINA RESULT:      -9.4      1.601      2.029
REMARK SMILES O=C(OCCOCCOCCOC(=O)[C@H]1CCCCN1C(=O)CCl)c1ccc(-c2c3nc(c(-c4c(F)cccc4F)c4ccc([nH]4)c(-c4c(F)cccc4F)c4nc(c(-c5c(F)cccc5F)c5ccc2[nH]5)C=C4)C=C3)cc1
REMARK SMILES IDX 7 1 6 2 5 3 4 4 3 5 2 6 1 7 25 8 26 9 78 10 27 11 77 12
REMARK SMILES IDX 28 13 29 14 30 15 71 16 31 17 76 18 70 19 72 20 32 21 75 22
REMARK SMILES IDX 69 23 68 24 33 26 59 27 42 28 58 29 43 30 46 31 57 32 73 33
REMARK SMILES IDX 44 34 45 35 56 37 74 38 47 39 34 40 35 41 40 42 36 43 37 44
REMARK SMILES IDX 39 45 41 46 38 47 60 48 61 49 66 50 62 51 63 52 65 53 67 54
REMARK SMILES IDX 64 55 48 56 49 57 54 58 50 59 51 60 53 61 55 62 52 63 8 64
REMARK SMILES IDX 9 65 10 66 11 67 12 68 13 69 14 70 15 71 16 72 20 73 17 74
REMARK SMILES IDX 19 75 18 76 21 77 22 78 23 79 24 80
REMARK H PARENT 72 25 46 36
REMARK Flexibility Score: inf
ROOT
ATOM      1  C   UNL A   1      40.088  21.438  26.533  1.00  0.00     0.188 C 
ENDROOT
BRANCH   1   2
ATOM      2  O   UNL A   1      41.143  21.297  25.580  1.00  0.00    -0.376 OA
BRANCH   2   3
ATOM      3  C   UNL A   1      42.395  20.911  26.143  1.00  0.00     0.202 C 
BRANCH   3   4
ATOM      4  C   UNL A   1      43.625  21.522  25.441  1.00  0.00     0.261 C 
BRANCH   4   5
ATOM      5  O   UNL A   1      43.377  22.784  24.777  1.00  0.00    -0.460 OA
BRANCH   5   6
ATOM      6  C   UNL A   1      43.878  24.024  24.975  1.00  0.00     0.338 C 
ATOM      7  O   UNL A   1      44.917  24.353  24.414  1.00  0.00    -0.246 OA
BRANCH   6   8
ATOM      8  C   UNL A   1      43.267  24.995  25.924  1.00  0.00     0.060 A 
ATOM      9  C   UNL A   1      43.739  26.286  26.132  1.00  0.00     0.016 A 
ATOM     10  C   UNL A   1      42.085  24.619  26.576  1.00  0.00     0.016 A 
ATOM     11  C   UNL A   1      43.166  27.144  27.057  1.00  0.00     0.010 A 
ATOM     12  C   UNL A   1      41.453  25.501  27.458  1.00  0.00     0.010 A 
ATOM     13  C   UNL A   1      42.026  26.753  27.743  1.00  0.00    -0.014 A 
BRANCH  13  14
ATOM     14  C   UNL A   1      41.551  27.575  28.876  1.00  0.00     0.031 A 
ATOM     15  C   UNL A   1      42.295  27.446  30.173  1.00  0.00     0.074 A 
ATOM     16  C   UNL A   1      40.544  28.458  28.738  1.00  0.00     0.049 A 
ATOM     17  N   UNL A   1      42.044  27.987  31.334  1.00  0.00    -0.248 NA
ATOM     18  C   UNL A   1      43.492  26.586  30.154  1.00  0.00     0.031 C 
ATOM     19  C   UNL A   1      39.838  28.761  27.493  1.00  0.00     0.029 A 
ATOM     20  N   UNL A   1      39.923  29.254  29.663  1.00  0.00    -0.354 N 
ATOM     21  C   UNL A   1      43.043  27.521  32.177  1.00  0.00     0.074 A 
ATOM     22  C   UNL A   1      43.846  26.586  31.426  1.00  0.00     0.031 C 
ATOM     23  C   UNL A   1      38.836  29.620  27.743  1.00  0.00     0.029 A 
ATOM     24  C   UNL A   1      38.842  29.944  29.161  1.00  0.00     0.049 A 
ATOM     25  H   UNL A   1      40.222  29.329  30.599  1.00  0.00     0.167 HD
ATOM     26  C   UNL A   1      43.301  27.882  33.454  1.00  0.00     0.037 A 
ATOM     27  C   UNL A   1      37.958  30.741  29.788  1.00  0.00     0.037 A 
ATOM     28  C   UNL A   1      42.505  28.831  34.175  1.00  0.00     0.049 A 
ATOM     29  C   UNL A   1      38.183  31.028  31.246  1.00  0.00     0.074 A 
ATOM     30  C   UNL A   1      42.651  29.278  35.472  1.00  0.00     0.029 A 
ATOM     31  N   UNL A   1      41.398  29.481  33.643  1.00  0.00    -0.354 N 
ATOM     32  N   UNL A   1      39.139  30.595  32.035  1.00  0.00    -0.248 NA
ATOM     33  C   UNL A   1      37.234  31.941  31.893  1.00  0.00     0.031 C 
ATOM     34  C   UNL A   1      41.600  30.161  35.742  1.00  0.00     0.029 A 
ATOM     35  C   UNL A   1      40.836  30.312  34.593  1.00  0.00     0.049 A 
ATOM     36  H   UNL A   1      41.063  29.367  32.724  1.00  0.00     0.167 HD
ATOM     37  C   UNL A   1      38.948  31.235  33.251  1.00  0.00     0.074 A 
ATOM     38  C   UNL A   1      37.775  32.073  33.096  1.00  0.00     0.031 C 
ATOM     39  C   UNL A   1      39.684  31.154  34.387  1.00  0.00     0.037 A 
BRANCH  26  40
ATOM     40  C   UNL A   1      44.465  27.204  34.115  1.00  0.00     0.057 A 
ATOM     41  C   UNL A   1      44.321  25.997  34.820  1.00  0.00     0.134 A 
ATOM     42  C   UNL A   1      45.722  27.818  34.140  1.00  0.00     0.134 A 
ATOM     43  F   UNL A   1      43.133  25.375  34.868  1.00  0.00    -0.206 F 
ATOM     44  C   UNL A   1      45.368  25.461  35.572  1.00  0.00     0.040 A 
ATOM     45  C   UNL A   1      46.785  27.273  34.862  1.00  0.00     0.040 A 
ATOM     46  F   UNL A   1      45.926  28.976  33.495  1.00  0.00    -0.206 F 
ATOM     47  C   UNL A   1      46.604  26.102  35.594  1.00  0.00     0.006 A 
ENDBRANCH  26  40
BRANCH  27  48
ATOM     48  C   UNL A   1      36.823  31.351  29.048  1.00  0.00     0.057 A 
ATOM     49  C   UNL A   1      36.841  32.699  28.671  1.00  0.00     0.134 A 
ATOM     50  C   UNL A   1      35.677  30.611  28.728  1.00  0.00     0.134 A 
ATOM     51  F   UNL A   1      37.903  33.466  28.961  1.00  0.00    -0.206 F 
ATOM     52  C   UNL A   1      35.753  33.298  28.032  1.00  0.00     0.040 A 
ATOM     53  C   UNL A   1      34.591  31.191  28.068  1.00  0.00     0.040 A 
ATOM     54  F   UNL A   1      35.595  29.315  29.062  1.00  0.00    -0.206 F 
ATOM     55  C   UNL A   1      34.622  32.542  27.728  1.00  0.00     0.006 A 
ENDBRANCH  27  48
BRANCH  39  56
ATOM     56  C   UNL A   1      39.291  32.058  35.516  1.00  0.00     0.057 A 
ATOM     57  C   UNL A   1      39.732  33.383  35.601  1.00  0.00     0.134 A 
ATOM     58  C   UNL A   1      38.412  31.598  36.506  1.00  0.00     0.134 A 
ATOM     59  F   UNL A   1      40.587  33.875  34.691  1.00  0.00    -0.206 F 
ATOM     60  C   UNL A   1      39.329  34.215  36.645  1.00  0.00     0.040 A 
ATOM     61  C   UNL A   1      37.975  32.430  37.533  1.00  0.00     0.040 A 
ATOM     62  F   UNL A   1      37.948  30.339  36.473  1.00  0.00    -0.206 F 
ATOM     63  C   UNL A   1      38.440  33.741  37.609  1.00  0.00     0.006 A 
ENDBRANCH  39  56
ENDBRANCH  13  14
ENDBRANCH   6   8
ENDBRANCH   5   6
ENDBRANCH   4   5
ENDBRANCH   3   4
ENDBRANCH   2   3
ENDBRANCH   1   2
BRANCH   1  64
ATOM     64  C   UNL A   1      38.900  22.209  25.953  1.00  0.00     0.188 C 
BRANCH  64  65
ATOM     65  O   UNL A   1      37.657  21.536  25.785  1.00  0.00    -0.376 OA
BRANCH  65  66
ATOM     66  C   UNL A   1      37.096  21.491  24.486  1.00  0.00     0.202 C 
BRANCH  66  67
ATOM     67  C   UNL A   1      35.762  22.227  24.289  1.00  0.00     0.261 C 
BRANCH  67  68
ATOM     68  O   UNL A   1      34.933  22.374  25.470  1.00  0.00    -0.462 OA
BRANCH  68  69
ATOM     69  C   UNL A   1      33.764  21.672  25.409  1.00  0.00     0.328 C 
ATOM     70  O   UNL A   1      33.698  20.470  25.654  1.00  0.00    -0.250 OA
BRANCH  69  71
ATOM     71  C   UNL A   1      32.563  22.452  24.803  1.00  0.00     0.195 C 
ATOM     72  C   UNL A   1      31.319  22.213  25.682  1.00  0.00     0.037 C 
ATOM     73  N   UNL A   1      32.558  23.898  24.443  1.00  0.00    -0.328 N 
ATOM     74  C   UNL A   1      31.325  23.125  26.913  1.00  0.00     0.005 C 
ATOM     75  C   UNL A   1      32.630  24.822  25.577  1.00  0.00     0.120 C 
ATOM     76  C   UNL A   1      31.444  24.595  26.515  1.00  0.00     0.022 C 
BRANCH  73  77
ATOM     77  C   UNL A   1      31.940  24.238  23.228  1.00  0.00     0.238 C 
ATOM     78  O   UNL A   1      30.724  24.086  23.071  1.00  0.00    -0.273 OA
BRANCH  77  79
ATOM     79  C   UNL A   1      32.769  24.792  22.080  1.00  0.00     0.209 C 
ATOM     80  Cl  UNL A   1      32.591  26.549  21.974  1.00  0.00    -0.116 Cl
ENDBRANCH  77  79
ENDBRANCH  73  77
ENDBRANCH  69  71
ENDBRANCH  68  69
ENDBRANCH  67  68
ENDBRANCH  66  67
ENDBRANCH  65  66
ENDBRANCH  64  65
ENDBRANCH   1  64
TORSDOF 19
ENDMDL
MODEL 3
REMARK VINA RESULT:      -9.4      3.387      8.271
REMARK SMILES O=C(OCCOCCOCCOC(=O)[C@H]1CCCCN1C(=O)CCl)c1ccc(-c2c3nc(c(-c4c(F)cccc4F)c4ccc([nH]4)c(-c4c(F)cccc4F)c4nc(c(-c5c(F)cccc5F)c5ccc2[nH]5)C=C4)C=C3)cc1
REMARK SMILES IDX 7 1 6 2 5 3 4 4 3 5 2 6 1 7 25 8 26 9 78 10 27 11 77 12
REMARK SMILES IDX 28 13 29 14 30 15 71 16 31 17 76 18 70 19 72 20 32 21 75 22
REMARK SMILES IDX 69 23 68 24 33 26 59 27 42 28 58 29 43 30 46 31 57 32 73 33
REMARK SMILES IDX 44 34 45 35 56 37 74 38 47 39 34 40 35 41 40 42 36 43 37 44
REMARK SMILES IDX 39 45 41 46 38 47 60 48 61 49 66 50 62 51 63 52 65 53 67 54
REMARK SMILES IDX 64 55 48 56 49 57 54 58 50 59 51 60 53 61 55 62 52 63 8 64
REMARK SMILES IDX 9 65 10 66 11 67 12 68 13 69 14 70 15 71 16 72 20 73 17 74
REMARK SMILES IDX 19 75 18 76 21 77 22 78 23 79 24 80
REMARK H PARENT 72 25 46 36
REMARK Flexibility Score: inf
ROOT
ATOM      1  C   UNL A   1      33.758  29.828  27.303  1.00  0.00     0.188 C 
ENDROOT
BRANCH   1   2
ATOM      2  O   UNL A   1      33.196  30.816  26.437  1.00  0.00    -0.376 OA
BRANCH   2   3
ATOM      3  C   UNL A   1      31.791  31.004  26.595  1.00  0.00     0.202 C 
BRANCH   3   4
ATOM      4  C   UNL A   1      31.361  32.475  26.775  1.00  0.00     0.261 C 
BRANCH   4   5
ATOM      5  O   UNL A   1      32.457  33.412  26.905  1.00  0.00    -0.460 OA
BRANCH   5   6
ATOM      6  C   UNL A   1      33.012  34.011  27.982  1.00  0.00     0.338 C 
ATOM      7  O   UNL A   1      32.563  35.079  28.379  1.00  0.00    -0.246 OA
BRANCH   6   8
ATOM      8  C   UNL A   1      34.219  33.471  28.667  1.00  0.00     0.060 A 
ATOM      9  C   UNL A   1      35.525  33.791  28.315  1.00  0.00     0.016 A 
ATOM     10  C   UNL A   1      34.025  32.666  29.798  1.00  0.00     0.016 A 
ATOM     11  C   UNL A   1      36.622  33.232  28.953  1.00  0.00     0.010 A 
ATOM     12  C   UNL A   1      35.122  32.152  30.495  1.00  0.00     0.010 A 
ATOM     13  C   UNL A   1      36.431  32.392  30.039  1.00  0.00    -0.014 A 
BRANCH  13  14
ATOM     14  C   UNL A   1      37.582  31.632  30.571  1.00  0.00     0.031 A 
ATOM     15  C   UNL A   1      37.997  31.921  31.983  1.00  0.00     0.074 A 
ATOM     16  C   UNL A   1      38.189  30.670  29.852  1.00  0.00     0.049 A 
ATOM     17  N   UNL A   1      39.010  31.459  32.664  1.00  0.00    -0.248 NA
ATOM     18  C   UNL A   1      37.146  32.862  32.733  1.00  0.00     0.031 C 
ATOM     19  C   UNL A   1      37.785  30.215  28.521  1.00  0.00     0.029 A 
ATOM     20  N   UNL A   1      39.291  29.907  30.133  1.00  0.00    -0.354 N 
ATOM     21  C   UNL A   1      38.920  32.064  33.911  1.00  0.00     0.074 A 
ATOM     22  C   UNL A   1      37.815  32.992  33.864  1.00  0.00     0.031 C 
ATOM     23  C   UNL A   1      38.668  29.308  28.070  1.00  0.00     0.029 A 
ATOM     24  C   UNL A   1      39.686  29.101  29.088  1.00  0.00     0.049 A 
ATOM     25  H   UNL A   1      39.757  29.931  31.000  1.00  0.00     0.167 HD
ATOM     26  C   UNL A   1      39.661  31.828  35.015  1.00  0.00     0.037 A 
ATOM     27  C   UNL A   1      40.756  28.295  28.975  1.00  0.00     0.037 A 
ATOM     28  C   UNL A   1      40.740  30.884  35.046  1.00  0.00     0.049 A 
ATOM     29  C   UNL A   1      41.651  28.144  30.173  1.00  0.00     0.074 A 
ATOM     30  C   UNL A   1      41.575  30.556  36.095  1.00  0.00     0.029 A 
ATOM     31  N   UNL A   1      41.131  30.113  33.958  1.00  0.00    -0.354 N 
ATOM     32  N   UNL A   1      41.552  28.709  31.355  1.00  0.00    -0.248 NA
ATOM     33  C   UNL A   1      42.782  27.219  30.041  1.00  0.00     0.031 C 
ATOM     34  C   UNL A   1      42.506  29.623  35.626  1.00  0.00     0.029 A 
ATOM     35  C   UNL A   1      42.210  29.323  34.303  1.00  0.00     0.049 A 
ATOM     36  H   UNL A   1      40.701  30.127  33.073  1.00  0.00     0.167 HD
ATOM     37  C   UNL A   1      42.564  28.158  32.127  1.00  0.00     0.074 A 
ATOM     38  C   UNL A   1      43.273  27.225  31.273  1.00  0.00     0.031 C 
ATOM     39  C   UNL A   1      42.868  28.384  33.428  1.00  0.00     0.037 A 
BRANCH  26  40
ATOM     40  C   UNL A   1      39.324  32.642  36.229  1.00  0.00     0.057 A 
ATOM     41  C   UNL A   1      39.970  33.855  36.516  1.00  0.00     0.134 A 
ATOM     42  C   UNL A   1      38.420  32.153  37.180  1.00  0.00     0.134 A 
ATOM     43  F   UNL A   1      40.876  34.361  35.665  1.00  0.00    -0.206 F 
ATOM     44  C   UNL A   1      39.773  34.520  37.728  1.00  0.00     0.040 A 
ATOM     45  C   UNL A   1      38.191  32.827  38.381  1.00  0.00     0.040 A 
ATOM     46  F   UNL A   1      37.775  30.997  36.974  1.00  0.00    -0.206 F 
ATOM     47  C   UNL A   1      38.881  34.004  38.664  1.00  0.00     0.006 A 
ENDBRANCH  26  40
BRANCH  27  48
ATOM     48  C   UNL A   1      41.017  27.544  27.719  1.00  0.00     0.057 A 
ATOM     49  C   UNL A   1      40.526  26.247  27.532  1.00  0.00     0.134 A 
ATOM     50  C   UNL A   1      41.791  28.092  26.688  1.00  0.00     0.134 A 
ATOM     51  F   UNL A   1      39.791  25.660  28.488  1.00  0.00    -0.206 F 
ATOM     52  C   UNL A   1      40.819  25.509  26.383  1.00  0.00     0.040 A 
ATOM     53  C   UNL A   1      42.072  27.375  25.522  1.00  0.00     0.040 A 
ATOM     54  F   UNL A   1      42.292  29.330  26.805  1.00  0.00    -0.206 F 
ATOM     55  C   UNL A   1      41.595  26.075  25.372  1.00  0.00     0.006 A 
ENDBRANCH  27  48
BRANCH  39  56
ATOM     56  C   UNL A   1      43.960  27.549  34.026  1.00  0.00     0.057 A 
ATOM     57  C   UNL A   1      43.712  26.303  34.611  1.00  0.00     0.134 A 
ATOM     58  C   UNL A   1      45.290  27.986  33.961  1.00  0.00     0.134 A 
ATOM     59  F   UNL A   1      42.458  25.837  34.716  1.00  0.00    -0.206 F 
ATOM     60  C   UNL A   1      44.748  25.529  35.133  1.00  0.00     0.040 A 
ATOM     61  C   UNL A   1      46.336  27.207  34.447  1.00  0.00     0.040 A 
ATOM     62  F   UNL A   1      45.592  29.169  33.403  1.00  0.00    -0.206 F 
ATOM     63  C   UNL A   1      46.066  25.977  35.042  1.00  0.00     0.006 A 
ENDBRANCH  39  56
ENDBRANCH  13  14
ENDBRANCH   6   8
ENDBRANCH   5   6
ENDBRANCH   4   5
ENDBRANCH   3   4
ENDBRANCH   2   3
ENDBRANCH   1   2
BRANCH   1  64
ATOM     64  C   UNL A   1      34.324  28.643  26.518  1.00  0.00     0.188 C 
BRANCH  64  65
ATOM     65  O   UNL A   1      33.537  27.464  26.385  1.00  0.00    -0.376 OA
BRANCH  65  66
ATOM     66  C   UNL A   1      32.324  27.553  25.660  1.00  0.00     0.202 C 
BRANCH  66  67
ATOM     67  C   UNL A   1      32.421  27.372  24.137  1.00  0.00     0.261 C 
BRANCH  67  68
ATOM     68  O   UNL A   1      33.709  26.950  23.624  1.00  0.00    -0.462 OA
BRANCH  68  69
ATOM     69  C   UNL A   1      33.647  25.836  22.838  1.00  0.00     0.328 C 
ATOM     70  O   UNL A   1      33.660  25.887  21.611  1.00  0.00    -0.250 OA
BRANCH  69  71
ATOM     71  C   UNL A   1      33.345  24.514  23.599  1.00  0.00     0.195 C 
ATOM     72  C   UNL A   1      33.955  23.336  22.814  1.00  0.00     0.037 C 
ATOM     73  N   UNL A   1      33.626  24.257  25.040  1.00  0.00    -0.328 N 
ATOM     74  C   UNL A   1      35.452  23.192  23.104  1.00  0.00     0.005 C 
ATOM     75  C   UNL A   1      35.044  24.174  25.392  1.00  0.00     0.120 C 
ATOM     76  C   UNL A   1      35.718  23.052  24.602  1.00  0.00     0.022 C 
BRANCH  73  77
ATOM     77  C   UNL A   1      32.627  23.582  25.761  1.00  0.00     0.238 C 
ATOM     78  O   UNL A   1      31.520  24.099  25.949  1.00  0.00    -0.273 OA
BRANCH  77  79
ATOM     79  C   UNL A   1      32.902  22.199  26.331  1.00  0.00     0.209 C 
ATOM     80  Cl  UNL A   1      33.527  22.319  27.982  1.00  0.00    -0.116 Cl
ENDBRANCH  77  79
ENDBRANCH  73  77
ENDBRANCH  69  71
ENDBRANCH  68  69
ENDBRANCH  67  68
ENDBRANCH  66  67
ENDBRANCH  65  66
ENDBRANCH  64  65
ENDBRANCH   1  64
TORSDOF 19
ENDMDL
