MODEL 1
REMARK VINA RESULT:      -9.6      0.000      0.000
REMARK SMILES C=CCN(CC(=O)OCCOCCOCCOC(=O)c1ccc(-c2c3nc(c(-c4c(F)cccc4F)c4ccc([nH]4)c(-c4c(F)cccc4F)c4nc(c(-c5c(F)cccc5F)c5ccc2[nH]5)C=C4)C=C3)cc1)S(=O)(=O)c1ccccc1OC
REMARK SMILES IDX 12 1 11 2 10 3 9 4 8 5 6 6 7 7 5 8 4 9 3 10 2 11 1 12 74 13
REMARK SMILES IDX 75 14 76 15 77 16 78 17 82 18 79 19 81 20 80 21 83 22 84 23
REMARK SMILES IDX 13 24 14 25 15 26 16 27 17 28 18 29 19 30 20 31 21 32 73 33
REMARK SMILES IDX 22 34 72 35 23 36 24 37 25 38 66 39 26 40 71 41 65 42 67 43
REMARK SMILES IDX 27 44 70 45 64 46 63 47 28 49 54 50 37 51 53 52 38 53 41 54
REMARK SMILES IDX 52 55 68 56 39 57 40 58 51 60 69 61 42 62 29 63 30 64 35 65
REMARK SMILES IDX 31 66 32 67 34 68 36 69 33 70 55 71 56 72 61 73 57 74 58 75
REMARK SMILES IDX 60 76 62 77 59 78 43 79 44 80 49 81 45 82 46 83 48 84 50 85
REMARK SMILES IDX 47 86
REMARK H PARENT 67 48 41 59
REMARK Flexibility Score: inf
ROOT
ATOM      1  C   UNL A   1      38.156  21.496  25.390  1.00  0.00     0.188 C 
ENDROOT
BRANCH   1   2
ATOM      2  O   UNL A   1      36.862  21.948  25.773  1.00  0.00    -0.376 OA
BRANCH   2   3
ATOM      3  C   UNL A   1      36.465  23.257  25.373  1.00  0.00     0.202 C 
BRANCH   3   4
ATOM      4  C   UNL A   1      35.861  23.381  23.965  1.00  0.00     0.261 C 
BRANCH   4   5
ATOM      5  O   UNL A   1      34.838  22.391  23.693  1.00  0.00    -0.462 OA
BRANCH   5   6
ATOM      6  C   UNL A   1      33.568  22.839  23.483  1.00  0.00     0.321 C 
ATOM      7  O   UNL A   1      32.778  22.295  22.718  1.00  0.00    -0.251 OA
BRANCH   6   8
ATOM      8  C   UNL A   1      33.225  24.131  24.236  1.00  0.00     0.225 C 
BRANCH   8   9
ATOM      9  N   UNL A   1      32.245  24.000  25.370  1.00  0.00    -0.183 NA
BRANCH   9  10
ATOM     10  C   UNL A   1      33.086  23.948  26.659  1.00  0.00     0.130 C 
BRANCH  10  11
ATOM     11  C   UNL A   1      33.122  22.654  27.412  1.00  0.00    -0.018 C 
ATOM     12  C   UNL A   1      33.540  21.479  26.924  1.00  0.00     0.005 C 
ENDBRANCH  10  11
ENDBRANCH   9  10
BRANCH   9  13
ATOM     13  S   UNL A   1      30.909  25.075  25.445  1.00  0.00     0.247 S 
ATOM     14  O   UNL A   1      30.335  25.005  24.110  1.00  0.00    -0.207 OA
ATOM     15  O   UNL A   1      30.126  24.679  26.598  1.00  0.00    -0.207 OA
BRANCH  13  16
ATOM     16  C   UNL A   1      31.175  26.836  25.608  1.00  0.00     0.124 A 
ATOM     17  C   UNL A   1      31.437  27.244  26.945  1.00  0.00     0.026 A 
ATOM     18  C   UNL A   1      31.263  27.809  24.622  1.00  0.00     0.138 A 
ATOM     19  C   UNL A   1      31.811  28.550  27.274  1.00  0.00     0.002 A 
ATOM     20  C   UNL A   1      31.694  29.114  24.948  1.00  0.00     0.048 A 
ATOM     21  C   UNL A   1      31.964  29.486  26.266  1.00  0.00     0.004 A 
BRANCH  18  22
ATOM     22  O   UNL A   1      30.968  27.603  23.311  1.00  0.00    -0.495 OA
ATOM     23  C   UNL A   1      30.839  28.865  22.652  1.00  0.00     0.278 C 
ENDBRANCH  18  22
ENDBRANCH  13  16
ENDBRANCH   9  13
ENDBRANCH   8   9
ENDBRANCH   6   8
ENDBRANCH   5   6
ENDBRANCH   4   5
ENDBRANCH   3   4
ENDBRANCH   2   3
ENDBRANCH   1   2
BRANCH   1  24
ATOM     24  C   UNL A   1      39.361  22.019  26.182  1.00  0.00     0.188 C 
BRANCH  24  25
ATOM     25  O   UNL A   1      40.069  20.975  26.829  1.00  0.00    -0.376 OA
BRANCH  25  26
ATOM     26  C   UNL A   1      40.863  20.167  25.976  1.00  0.00     0.202 C 
BRANCH  26  27
ATOM     27  C   UNL A   1      42.331  20.594  25.963  1.00  0.00     0.261 C 
BRANCH  27  28
ATOM     28  O   UNL A   1      42.576  21.825  26.671  1.00  0.00    -0.460 OA
BRANCH  28  29
ATOM     29  C   UNL A   1      42.832  22.921  25.922  1.00  0.00     0.338 C 
ATOM     30  O   UNL A   1      43.349  22.962  24.823  1.00  0.00    -0.246 OA
BRANCH  29  31
ATOM     31  C   UNL A   1      42.381  24.105  26.680  1.00  0.00     0.060 A 
ATOM     32  C   UNL A   1      43.083  25.307  26.592  1.00  0.00     0.016 A 
ATOM     33  C   UNL A   1      41.285  23.997  27.537  1.00  0.00     0.016 A 
ATOM     34  C   UNL A   1      42.699  26.393  27.385  1.00  0.00     0.010 A 
ATOM     35  C   UNL A   1      40.905  25.093  28.326  1.00  0.00     0.010 A 
ATOM     36  C   UNL A   1      41.631  26.297  28.285  1.00  0.00    -0.014 A 
BRANCH  36  37
ATOM     37  C   UNL A   1      41.375  27.381  29.281  1.00  0.00     0.031 A 
ATOM     38  C   UNL A   1      42.252  27.481  30.503  1.00  0.00     0.074 A 
ATOM     39  C   UNL A   1      40.422  28.318  29.102  1.00  0.00     0.049 A 
ATOM     40  N   UNL A   1      42.102  28.208  31.583  1.00  0.00    -0.248 NA
ATOM     41  C   UNL A   1      43.467  26.651  30.503  1.00  0.00     0.031 C 
ATOM     42  C   UNL A   1      39.560  28.443  27.928  1.00  0.00     0.029 A 
ATOM     43  N   UNL A   1      40.019  29.350  29.920  1.00  0.00    -0.354 N 
ATOM     44  C   UNL A   1      43.168  27.879  32.413  1.00  0.00     0.074 A 
ATOM     45  C   UNL A   1      43.963  26.896  31.707  1.00  0.00     0.031 C 
ATOM     46  C   UNL A   1      38.739  29.494  28.096  1.00  0.00     0.029 A 
ATOM     47  C   UNL A   1      38.958  30.068  29.423  1.00  0.00     0.049 A 
ATOM     48  H   UNL A   1      40.451  29.554  30.781  1.00  0.00     0.167 HD
ATOM     49  C   UNL A   1      43.459  28.347  33.651  1.00  0.00     0.037 A 
ATOM     50  C   UNL A   1      38.210  31.040  29.987  1.00  0.00     0.037 A 
ATOM     51  C   UNL A   1      42.706  29.360  34.343  1.00  0.00     0.049 A 
ATOM     52  C   UNL A   1      38.493  31.483  31.400  1.00  0.00     0.074 A 
ATOM     53  C   UNL A   1      42.925  29.886  35.606  1.00  0.00     0.029 A 
ATOM     54  N   UNL A   1      41.598  30.012  33.828  1.00  0.00    -0.354 N 
ATOM     55  N   UNL A   1      39.450  31.105  32.212  1.00  0.00    -0.248 NA
ATOM     56  C   UNL A   1      37.571  32.471  31.983  1.00  0.00     0.031 C 
ATOM     57  C   UNL A   1      41.924  30.826  35.870  1.00  0.00     0.029 A 
ATOM     58  C   UNL A   1      41.112  30.922  34.753  1.00  0.00     0.049 A 
ATOM     59  H   UNL A   1      41.212  29.853  32.936  1.00  0.00     0.167 HD
ATOM     60  C   UNL A   1      39.256  31.820  33.390  1.00  0.00     0.074 A 
ATOM     61  C   UNL A   1      38.103  32.668  33.182  1.00  0.00     0.031 C 
ATOM     62  C   UNL A   1      39.969  31.773  34.541  1.00  0.00     0.037 A 
BRANCH  49  63
ATOM     63  C   UNL A   1      44.621  27.724  34.368  1.00  0.00     0.057 A 
ATOM     64  C   UNL A   1      45.921  28.236  34.275  1.00  0.00     0.134 A 
ATOM     65  C   UNL A   1      44.421  26.609  35.193  1.00  0.00     0.134 A 
ATOM     66  F   UNL A   1      46.180  29.292  33.490  1.00  0.00    -0.206 F 
ATOM     67  C   UNL A   1      46.985  27.647  34.960  1.00  0.00     0.040 A 
ATOM     68  C   UNL A   1      45.471  26.028  35.902  1.00  0.00     0.040 A 
ATOM     69  F   UNL A   1      43.198  26.074  35.330  1.00  0.00    -0.206 F 
ATOM     70  C   UNL A   1      46.760  26.543  35.782  1.00  0.00     0.006 A 
ENDBRANCH  49  63
BRANCH  50  71
ATOM     71  C   UNL A   1      37.065  31.628  29.243  1.00  0.00     0.057 A 
ATOM     72  C   UNL A   1      37.138  32.913  28.694  1.00  0.00     0.134 A 
ATOM     73  C   UNL A   1      35.855  30.936  29.103  1.00  0.00     0.134 A 
ATOM     74  F   UNL A   1      38.257  33.641  28.825  1.00  0.00    -0.206 F 
ATOM     75  C   UNL A   1      36.047  33.493  28.044  1.00  0.00     0.040 A 
ATOM     76  C   UNL A   1      34.766  31.492  28.431  1.00  0.00     0.040 A 
ATOM     77  F   UNL A   1      35.716  29.704  29.616  1.00  0.00    -0.206 F 
ATOM     78  C   UNL A   1      34.858  32.779  27.905  1.00  0.00     0.006 A 
ENDBRANCH  50  71
BRANCH  62  79
ATOM     79  C   UNL A   1      39.552  32.686  35.658  1.00  0.00     0.057 A 
ATOM     80  C   UNL A   1      40.065  33.983  35.784  1.00  0.00     0.134 A 
ATOM     81  C   UNL A   1      38.594  32.277  36.594  1.00  0.00     0.134 A 
ATOM     82  F   UNL A   1      40.994  34.435  34.928  1.00  0.00    -0.206 F 
ATOM     83  C   UNL A   1      39.653  34.834  36.813  1.00  0.00     0.040 A 
ATOM     84  C   UNL A   1      38.158  33.127  37.613  1.00  0.00     0.040 A 
ATOM     85  F   UNL A   1      38.056  31.050  36.526  1.00  0.00    -0.206 F 
ATOM     86  C   UNL A   1      38.691  34.408  37.726  1.00  0.00     0.006 A 
ENDBRANCH  62  79
ENDBRANCH  36  37
ENDBRANCH  29  31
ENDBRANCH  28  29
ENDBRANCH  27  28
ENDBRANCH  26  27
ENDBRANCH  25  26
ENDBRANCH  24  25
ENDBRANCH   1  24
TORSDOF 23
ENDMDL
MODEL 2
REMARK VINA RESULT:      -9.3      1.482      6.345
REMARK SMILES C=CCN(CC(=O)OCCOCCOCCOC(=O)c1ccc(-c2c3nc(c(-c4c(F)cccc4F)c4ccc([nH]4)c(-c4c(F)cccc4F)c4nc(c(-c5c(F)cccc5F)c5ccc2[nH]5)C=C4)C=C3)cc1)S(=O)(=O)c1ccccc1OC
REMARK SMILES IDX 12 1 11 2 10 3 9 4 8 5 6 6 7 7 5 8 4 9 3 10 2 11 1 12 74 13
REMARK SMILES IDX 75 14 76 15 77 16 78 17 82 18 79 19 81 20 80 21 83 22 84 23
REMARK SMILES IDX 13 24 14 25 15 26 16 27 17 28 18 29 19 30 20 31 21 32 73 33
REMARK SMILES IDX 22 34 72 35 23 36 24 37 25 38 66 39 26 40 71 41 65 42 67 43
REMARK SMILES IDX 27 44 70 45 64 46 63 47 28 49 54 50 37 51 53 52 38 53 41 54
REMARK SMILES IDX 52 55 68 56 39 57 40 58 51 60 69 61 42 62 29 63 30 64 35 65
REMARK SMILES IDX 31 66 32 67 34 68 36 69 33 70 55 71 56 72 61 73 57 74 58 75
REMARK SMILES IDX 60 76 62 77 59 78 43 79 44 80 49 81 45 82 46 83 48 84 50 85
REMARK SMILES IDX 47 86
REMARK H PARENT 67 48 41 59
REMARK Flexibility Score: inf
ROOT
ATOM      1  C   UNL A   1      37.189  21.810  25.649  1.00  0.00     0.188 C 
ENDROOT
BRANCH   1   2
ATOM      2  O   UNL A   1      35.842  21.846  26.109  1.00  0.00    -0.376 OA
BRANCH   2   3
ATOM      3  C   UNL A   1      34.823  22.172  25.168  1.00  0.00     0.202 C 
BRANCH   3   4
ATOM      4  C   UNL A   1      33.683  21.151  25.024  1.00  0.00     0.261 C 
BRANCH   4   5
ATOM      5  O   UNL A   1      32.387  21.767  24.825  1.00  0.00    -0.462 OA
BRANCH   5   6
ATOM      6  C   UNL A   1      32.063  22.162  23.560  1.00  0.00     0.321 C 
ATOM      7  O   UNL A   1      32.259  21.469  22.566  1.00  0.00    -0.251 OA
BRANCH   6   8
ATOM      8  C   UNL A   1      31.492  23.583  23.472  1.00  0.00     0.225 C 
BRANCH   8   9
ATOM      9  N   UNL A   1      31.886  24.527  24.575  1.00  0.00    -0.183 NA
BRANCH   9  10
ATOM     10  C   UNL A   1      33.152  25.253  24.085  1.00  0.00     0.130 C 
BRANCH  10  11
ATOM     11  C   UNL A   1      33.296  25.479  22.611  1.00  0.00    -0.018 C 
ATOM     12  C   UNL A   1      32.981  26.606  21.960  1.00  0.00     0.005 C 
ENDBRANCH  10  11
ENDBRANCH   9  10
BRANCH   9  13
ATOM     13  S   UNL A   1      30.696  25.566  25.248  1.00  0.00     0.247 S 
ATOM     14  O   UNL A   1      29.738  25.736  24.167  1.00  0.00    -0.207 OA
ATOM     15  O   UNL A   1      30.285  24.964  26.500  1.00  0.00    -0.207 OA
BRANCH  13  16
ATOM     16  C   UNL A   1      31.092  27.269  25.622  1.00  0.00     0.124 A 
ATOM     17  C   UNL A   1      31.586  27.455  26.942  1.00  0.00     0.026 A 
ATOM     18  C   UNL A   1      31.082  28.379  24.789  1.00  0.00     0.138 A 
ATOM     19  C   UNL A   1      32.086  28.680  27.394  1.00  0.00     0.002 A 
ATOM     20  C   UNL A   1      31.638  29.601  25.228  1.00  0.00     0.048 A 
ATOM     21  C   UNL A   1      32.134  29.755  26.523  1.00  0.00     0.004 A 
BRANCH  18  22
ATOM     22  O   UNL A   1      30.572  28.390  23.529  1.00  0.00    -0.495 OA
ATOM     23  C   UNL A   1      30.096  29.703  23.223  1.00  0.00     0.278 C 
ENDBRANCH  18  22
ENDBRANCH  13  16
ENDBRANCH   9  13
ENDBRANCH   8   9
ENDBRANCH   6   8
ENDBRANCH   5   6
ENDBRANCH   4   5
ENDBRANCH   3   4
ENDBRANCH   2   3
ENDBRANCH   1   2
BRANCH   1  24
ATOM     24  C   UNL A   1      38.067  23.040  25.906  1.00  0.00     0.188 C 
BRANCH  24  25
ATOM     25  O   UNL A   1      39.161  22.747  26.758  1.00  0.00    -0.376 OA
BRANCH  25  26
ATOM     26  C   UNL A   1      40.062  21.768  26.266  1.00  0.00     0.202 C 
BRANCH  26  27
ATOM     27  C   UNL A   1      41.477  22.316  26.077  1.00  0.00     0.261 C 
BRANCH  27  28
ATOM     28  O   UNL A   1      41.791  23.411  26.959  1.00  0.00    -0.460 OA
BRANCH  28  29
ATOM     29  C   UNL A   1      42.032  24.610  26.384  1.00  0.00     0.338 C 
ATOM     30  O   UNL A   1      42.500  24.822  25.284  1.00  0.00    -0.246 OA
BRANCH  29  31
ATOM     31  C   UNL A   1      41.634  25.661  27.342  1.00  0.00     0.060 A 
ATOM     32  C   UNL A   1      42.422  26.801  27.504  1.00  0.00     0.016 A 
ATOM     33  C   UNL A   1      40.499  25.479  28.132  1.00  0.00     0.016 A 
ATOM     34  C   UNL A   1      42.083  27.745  28.479  1.00  0.00     0.010 A 
ATOM     35  C   UNL A   1      40.164  26.432  29.105  1.00  0.00     0.010 A 
ATOM     36  C   UNL A   1      40.975  27.562  29.315  1.00  0.00    -0.014 A 
BRANCH  36  37
ATOM     37  C   UNL A   1      40.754  28.457  30.492  1.00  0.00     0.031 A 
ATOM     38  C   UNL A   1      39.664  29.497  30.431  1.00  0.00     0.074 A 
ATOM     39  C   UNL A   1      41.455  28.333  31.637  1.00  0.00     0.049 A 
ATOM     40  N   UNL A   1      39.417  30.497  31.241  1.00  0.00    -0.248 NA
ATOM     41  C   UNL A   1      38.722  29.390  29.307  1.00  0.00     0.031 C 
ATOM     42  C   UNL A   1      42.463  27.312  31.912  1.00  0.00     0.029 A 
ATOM     43  N   UNL A   1      41.420  29.084  32.791  1.00  0.00    -0.354 N 
ATOM     44  C   UNL A   1      38.331  31.170  30.693  1.00  0.00     0.074 A 
ATOM     45  C   UNL A   1      37.960  30.459  29.487  1.00  0.00     0.031 C 
ATOM     46  C   UNL A   1      42.944  27.493  33.154  1.00  0.00     0.029 A 
ATOM     47  C   UNL A   1      42.338  28.691  33.734  1.00  0.00     0.049 A 
ATOM     48  H   UNL A   1      40.795  29.832  32.927  1.00  0.00     0.167 HD
ATOM     49  C   UNL A   1      37.701  32.281  31.146  1.00  0.00     0.037 A 
ATOM     50  C   UNL A   1      42.695  29.257  34.907  1.00  0.00     0.037 A 
ATOM     51  C   UNL A   1      38.027  32.969  32.368  1.00  0.00     0.049 A 
ATOM     52  C   UNL A   1      42.046  30.544  35.350  1.00  0.00     0.074 A 
ATOM     53  C   UNL A   1      37.446  34.109  32.897  1.00  0.00     0.029 A 
ATOM     54  N   UNL A   1      39.011  32.574  33.259  1.00  0.00    -0.354 N 
ATOM     55  N   UNL A   1      41.080  31.223  34.782  1.00  0.00    -0.248 NA
ATOM     56  C   UNL A   1      42.559  31.156  36.586  1.00  0.00     0.031 C 
ATOM     57  C   UNL A   1      38.107  34.427  34.088  1.00  0.00     0.029 A 
ATOM     58  C   UNL A   1      39.066  33.458  34.325  1.00  0.00     0.049 A 
ATOM     59  H   UNL A   1      39.587  31.782  33.151  1.00  0.00     0.167 HD
ATOM     60  C   UNL A   1      40.858  32.328  35.599  1.00  0.00     0.074 A 
ATOM     61  C   UNL A   1      41.777  32.219  36.711  1.00  0.00     0.031 C 
ATOM     62  C   UNL A   1      39.974  33.342  35.437  1.00  0.00     0.037 A 
BRANCH  49  63
ATOM     63  C   UNL A   1      36.620  32.862  30.282  1.00  0.00     0.057 A 
ATOM     64  C   UNL A   1      36.900  33.611  29.134  1.00  0.00     0.134 A 
ATOM     65  C   UNL A   1      35.272  32.633  30.595  1.00  0.00     0.134 A 
ATOM     66  F   UNL A   1      38.168  33.879  28.789  1.00  0.00    -0.206 F 
ATOM     67  C   UNL A   1      35.876  34.132  28.339  1.00  0.00     0.040 A 
ATOM     68  C   UNL A   1      34.243  33.126  29.795  1.00  0.00     0.040 A 
ATOM     69  F   UNL A   1      34.938  31.917  31.679  1.00  0.00    -0.206 F 
ATOM     70  C   UNL A   1      34.544  33.884  28.665  1.00  0.00     0.006 A 
ENDBRANCH  49  63
BRANCH  50  71
ATOM     71  C   UNL A   1      43.774  28.652  35.731  1.00  0.00     0.057 A 
ATOM     72  C   UNL A   1      43.494  27.664  36.683  1.00  0.00     0.134 A 
ATOM     73  C   UNL A   1      45.103  29.079  35.620  1.00  0.00     0.134 A 
ATOM     74  F   UNL A   1      42.235  27.237  36.863  1.00  0.00    -0.206 F 
ATOM     75  C   UNL A   1      44.493  27.132  37.500  1.00  0.00     0.040 A 
ATOM     76  C   UNL A   1      46.117  28.535  36.409  1.00  0.00     0.040 A 
ATOM     77  F   UNL A   1      45.436  30.029  34.734  1.00  0.00    -0.206 F 
ATOM     78  C   UNL A   1      45.811  27.563  37.359  1.00  0.00     0.006 A 
ENDBRANCH  50  71
BRANCH  62  79
ATOM     79  C   UNL A   1      39.927  34.401  36.501  1.00  0.00     0.057 A 
ATOM     80  C   UNL A   1      40.628  35.607  36.377  1.00  0.00     0.134 A 
ATOM     81  C   UNL A   1      39.135  34.229  37.644  1.00  0.00     0.134 A 
ATOM     82  F   UNL A   1      41.414  35.832  35.314  1.00  0.00    -0.206 F 
ATOM     83  C   UNL A   1      40.559  36.596  37.362  1.00  0.00     0.040 A 
ATOM     84  C   UNL A   1      39.040  35.220  38.623  1.00  0.00     0.040 A 
ATOM     85  F   UNL A   1      38.431  33.101  37.821  1.00  0.00    -0.206 F 
ATOM     86  C   UNL A   1      39.757  36.406  38.485  1.00  0.00     0.006 A 
ENDBRANCH  62  79
ENDBRANCH  36  37
ENDBRANCH  29  31
ENDBRANCH  28  29
ENDBRANCH  27  28
ENDBRANCH  26  27
ENDBRANCH  25  26
ENDBRANCH  24  25
ENDBRANCH   1  24
TORSDOF 23
ENDMDL
MODEL 3
REMARK VINA RESULT:      -9.3      3.342      8.871
REMARK SMILES C=CCN(CC(=O)OCCOCCOCCOC(=O)c1ccc(-c2c3nc(c(-c4c(F)cccc4F)c4ccc([nH]4)c(-c4c(F)cccc4F)c4nc(c(-c5c(F)cccc5F)c5ccc2[nH]5)C=C4)C=C3)cc1)S(=O)(=O)c1ccccc1OC
REMARK SMILES IDX 12 1 11 2 10 3 9 4 8 5 6 6 7 7 5 8 4 9 3 10 2 11 1 12 74 13
REMARK SMILES IDX 75 14 76 15 77 16 78 17 82 18 79 19 81 20 80 21 83 22 84 23
REMARK SMILES IDX 13 24 14 25 15 26 16 27 17 28 18 29 19 30 20 31 21 32 73 33
REMARK SMILES IDX 22 34 72 35 23 36 24 37 25 38 66 39 26 40 71 41 65 42 67 43
REMARK SMILES IDX 27 44 70 45 64 46 63 47 28 49 54 50 37 51 53 52 38 53 41 54
REMARK SMILES IDX 52 55 68 56 39 57 40 58 51 60 69 61 42 62 29 63 30 64 35 65
REMARK SMILES IDX 31 66 32 67 34 68 36 69 33 70 55 71 56 72 61 73 57 74 58 75
REMARK SMILES IDX 60 76 62 77 59 78 43 79 44 80 49 81 45 82 46 83 48 84 50 85
REMARK SMILES IDX 47 86
REMARK H PARENT 67 48 41 59
REMARK Flexibility Score: inf
ROOT
ATOM      1  C   UNL A   1      33.583  32.559  28.018  1.00  0.00     0.188 C 
ENDROOT
BRANCH   1   2
ATOM      2  O   UNL A   1      34.404  31.522  28.544  1.00  0.00    -0.376 OA
BRANCH   2   3
ATOM      3  C   UNL A   1      34.928  30.558  27.635  1.00  0.00     0.202 C 
BRANCH   3   4
ATOM      4  C   UNL A   1      33.894  29.736  26.849  1.00  0.00     0.261 C 
BRANCH   4   5
ATOM      5  O   UNL A   1      32.797  29.264  27.670  1.00  0.00    -0.462 OA
BRANCH   5   6
ATOM      6  C   UNL A   1      31.945  28.352  27.120  1.00  0.00     0.321 C 
ATOM      7  O   UNL A   1      31.123  27.717  27.773  1.00  0.00    -0.251 OA
BRANCH   6   8
ATOM      8  C   UNL A   1      32.148  28.132  25.615  1.00  0.00     0.225 C 
BRANCH   8   9
ATOM      9  N   UNL A   1      32.058  26.710  25.132  1.00  0.00    -0.183 NA
BRANCH   9  10
ATOM     10  C   UNL A   1      31.369  26.769  23.756  1.00  0.00     0.130 C 
BRANCH  10  11
ATOM     11  C   UNL A   1      29.959  26.272  23.664  1.00  0.00    -0.018 C 
ATOM     12  C   UNL A   1      29.137  26.066  24.700  1.00  0.00     0.005 C 
ENDBRANCH  10  11
ENDBRANCH   9  10
BRANCH   9  13
ATOM     13  S   UNL A   1      33.464  25.726  25.173  1.00  0.00     0.247 S 
ATOM     14  O   UNL A   1      33.606  25.272  23.798  1.00  0.00    -0.207 OA
ATOM     15  O   UNL A   1      34.505  26.521  25.791  1.00  0.00    -0.207 OA
BRANCH  13  16
ATOM     16  C   UNL A   1      33.447  24.165  26.045  1.00  0.00     0.124 A 
ATOM     17  C   UNL A   1      34.654  23.426  25.899  1.00  0.00     0.026 A 
ATOM     18  C   UNL A   1      32.487  23.644  26.902  1.00  0.00     0.138 A 
ATOM     19  C   UNL A   1      34.906  22.249  26.609  1.00  0.00     0.002 A 
ATOM     20  C   UNL A   1      32.766  22.485  27.660  1.00  0.00     0.048 A 
ATOM     21  C   UNL A   1      33.965  21.787  27.513  1.00  0.00     0.004 A 
BRANCH  18  22
ATOM     22  O   UNL A   1      31.254  24.183  27.093  1.00  0.00    -0.495 OA
ATOM     23  C   UNL A   1      30.258  23.203  26.791  1.00  0.00     0.278 C 
ENDBRANCH  18  22
ENDBRANCH  13  16
ENDBRANCH   9  13
ENDBRANCH   8   9
ENDBRANCH   6   8
ENDBRANCH   5   6
ENDBRANCH   4   5
ENDBRANCH   3   4
ENDBRANCH   2   3
ENDBRANCH   1   2
BRANCH   1  24
ATOM     24  C   UNL A   1      33.778  33.977  28.568  1.00  0.00     0.188 C 
BRANCH  24  25
ATOM     25  O   UNL A   1      32.553  34.682  28.673  1.00  0.00    -0.376 OA
BRANCH  25  26
ATOM     26  C   UNL A   1      32.677  36.088  28.813  1.00  0.00     0.202 C 
BRANCH  26  27
ATOM     27  C   UNL A   1      33.372  36.489  30.114  1.00  0.00     0.261 C 
BRANCH  27  28
ATOM     28  O   UNL A   1      32.460  36.934  31.137  1.00  0.00    -0.460 OA
BRANCH  28  29
ATOM     29  C   UNL A   1      32.273  36.108  32.191  1.00  0.00     0.338 C 
ATOM     30  O   UNL A   1      31.316  36.065  32.938  1.00  0.00    -0.246 OA
BRANCH  29  31
ATOM     31  C   UNL A   1      33.464  35.243  32.306  1.00  0.00     0.060 A 
ATOM     32  C   UNL A   1      33.321  33.874  32.536  1.00  0.00     0.016 A 
ATOM     33  C   UNL A   1      34.737  35.812  32.248  1.00  0.00     0.016 A 
ATOM     34  C   UNL A   1      34.457  33.082  32.733  1.00  0.00     0.010 A 
ATOM     35  C   UNL A   1      35.871  35.009  32.443  1.00  0.00     0.010 A 
ATOM     36  C   UNL A   1      35.742  33.637  32.724  1.00  0.00    -0.014 A 
BRANCH  36  37
ATOM     37  C   UNL A   1      36.923  32.828  33.156  1.00  0.00     0.031 A 
ATOM     38  C   UNL A   1      37.512  33.060  34.525  1.00  0.00     0.074 A 
ATOM     39  C   UNL A   1      37.451  31.853  32.391  1.00  0.00     0.049 A 
ATOM     40  N   UNL A   1      38.636  32.622  35.036  1.00  0.00    -0.248 NA
ATOM     41  C   UNL A   1      36.721  33.894  35.443  1.00  0.00     0.031 C 
ATOM     42  C   UNL A   1      36.940  31.416  31.093  1.00  0.00     0.029 A 
ATOM     43  N   UNL A   1      38.549  31.047  32.603  1.00  0.00    -0.354 N 
ATOM     44  C   UNL A   1      38.715  33.174  36.310  1.00  0.00     0.074 A 
ATOM     45  C   UNL A   1      37.520  33.971  36.497  1.00  0.00     0.031 C 
ATOM     46  C   UNL A   1      37.714  30.421  30.629  1.00  0.00     0.029 A 
ATOM     47  C   UNL A   1      38.824  30.201  31.556  1.00  0.00     0.049 A 
ATOM     48  H   UNL A   1      39.086  31.077  33.427  1.00  0.00     0.167 HD
ATOM     49  C   UNL A   1      39.692  33.038  37.238  1.00  0.00     0.037 A 
ATOM     50  C   UNL A   1      39.874  29.382  31.337  1.00  0.00     0.037 A 
ATOM     51  C   UNL A   1      40.860  32.211  37.084  1.00  0.00     0.049 A 
ATOM     52  C   UNL A   1      40.997  29.313  32.341  1.00  0.00     0.074 A 
ATOM     53  C   UNL A   1      41.907  32.022  37.972  1.00  0.00     0.029 A 
ATOM     54  N   UNL A   1      41.131  31.422  35.978  1.00  0.00    -0.354 N 
ATOM     55  N   UNL A   1      41.106  29.906  33.504  1.00  0.00    -0.248 NA
ATOM     56  C   UNL A   1      42.156  28.478  31.985  1.00  0.00     0.031 C 
ATOM     57  C   UNL A   1      42.831  31.152  37.384  1.00  0.00     0.029 A 
ATOM     58  C   UNL A   1      42.336  30.760  36.153  1.00  0.00     0.049 A 
ATOM     59  H   UNL A   1      40.553  31.344  35.185  1.00  0.00     0.167 HD
ATOM     60  C   UNL A   1      42.332  29.503  34.025  1.00  0.00     0.074 A 
ATOM     61  C   UNL A   1      42.922  28.600  33.060  1.00  0.00     0.031 C 
ATOM     62  C   UNL A   1      42.916  29.854  35.196  1.00  0.00     0.037 A 
BRANCH  49  63
ATOM     63  C   UNL A   1      39.568  33.849  38.495  1.00  0.00     0.057 A 
ATOM     64  C   UNL A   1      40.151  35.114  38.631  1.00  0.00     0.134 A 
ATOM     65  C   UNL A   1      38.819  33.360  39.575  1.00  0.00     0.134 A 
ATOM     66  F   UNL A   1      40.893  35.630  37.640  1.00  0.00    -0.206 F 
ATOM     67  C   UNL A   1      40.013  35.855  39.806  1.00  0.00     0.040 A 
ATOM     68  C   UNL A   1      38.653  34.103  40.743  1.00  0.00     0.040 A 
ATOM     69  F   UNL A   1      38.230  32.158  39.505  1.00  0.00    -0.206 F 
ATOM     70  C   UNL A   1      39.256  35.352  40.864  1.00  0.00     0.006 A 
ENDBRANCH  49  63
BRANCH  50  71
ATOM     71  C   UNL A   1      39.960  28.598  30.076  1.00  0.00     0.057 A 
ATOM     72  C   UNL A   1      40.655  29.086  28.963  1.00  0.00     0.134 A 
ATOM     73  C   UNL A   1      39.312  27.364  29.940  1.00  0.00     0.134 A 
ATOM     74  F   UNL A   1      41.267  30.278  29.019  1.00  0.00    -0.206 F 
ATOM     75  C   UNL A   1      40.691  28.382  27.758  1.00  0.00     0.040 A 
ATOM     76  C   UNL A   1      39.364  26.636  28.751  1.00  0.00     0.040 A 
ATOM     77  F   UNL A   1      38.621  26.846  30.966  1.00  0.00    -0.206 F 
ATOM     78  C   UNL A   1      40.050  27.149  27.652  1.00  0.00     0.006 A 
ENDBRANCH  50  71
BRANCH  62  79
ATOM     79  C   UNL A   1      44.246  29.238  35.524  1.00  0.00     0.057 A 
ATOM     80  C   UNL A   1      45.454  29.849  35.166  1.00  0.00     0.134 A 
ATOM     81  C   UNL A   1      44.318  28.038  36.243  1.00  0.00     0.134 A 
ATOM     82  F   UNL A   1      45.457  30.994  34.466  1.00  0.00    -0.206 F 
ATOM     83  C   UNL A   1      46.687  29.279  35.496  1.00  0.00     0.040 A 
ATOM     84  C   UNL A   1      45.544  27.472  36.599  1.00  0.00     0.040 A 
ATOM     85  F   UNL A   1      43.199  27.404  36.624  1.00  0.00    -0.206 F 
ATOM     86  C   UNL A   1      46.733  28.091  36.221  1.00  0.00     0.006 A 
ENDBRANCH  62  79
ENDBRANCH  36  37
ENDBRANCH  29  31
ENDBRANCH  28  29
ENDBRANCH  27  28
ENDBRANCH  26  27
ENDBRANCH  25  26
ENDBRANCH  24  25
ENDBRANCH   1  24
TORSDOF 23
ENDMDL
