MODEL 1
REMARK VINA RESULT:     -11.8      0.000      0.000
REMARK SMILES CCOC(=O)c1cccc(Nc2c(-c3ccc(C(=O)OCCOCCOCCOC(=O)c4ccc(-c5c6nc(c(-c7c(F)cccc7F)c7ccc([nH]7)c(-c7c(F)cccc7F)c7nc(c(-c8c(F)cccc8F)c8ccc5[nH]8)C=C7)C=C6)cc4)cc3)nc3cnccn23)c1
REMARK SMILES IDX 22 1 21 2 20 3 18 4 19 5 17 6 14 7 15 8 87 9 16 10 86 11
REMARK SMILES IDX 13 12 12 13 94 14 88 15 89 16 93 17 90 18 92 19 91 20 11 21
REMARK SMILES IDX 10 23 6 24 7 25 95 26 8 27 9 28 4 29 5 30 3 31 2 32 1 33
REMARK SMILES IDX 23 34 24 35 25 36 26 37 27 38 28 39 29 40 30 41 31 42 32 43
REMARK SMILES IDX 33 44 85 45 34 46 84 47 35 48 36 49 37 50 78 51 38 52 83 53
REMARK SMILES IDX 77 54 79 55 39 56 82 57 76 58 75 59 40 61 66 62 49 63 65 64
REMARK SMILES IDX 50 65 53 66 64 67 80 68 51 69 52 70 63 72 81 73 54 74 41 75
REMARK SMILES IDX 42 76 47 77 43 78 44 79 46 80 48 81 45 82 67 83 68 84 73 85
REMARK SMILES IDX 69 86 70 87 72 88 74 89 71 90 55 91 56 92 61 93 57 94 58 95
REMARK SMILES IDX 60 96 62 97 59 98
REMARK H PARENT 11 22 79 60 53 71
REMARK Flexibility Score: inf
ROOT
ATOM      1  C   UNL A   1      39.489  22.408  26.828  1.00  0.00     0.202 C 
ENDROOT
BRANCH   1   2
ATOM      2  C   UNL A   1      38.495  21.949  25.751  1.00  0.00     0.261 C 
BRANCH   2   3
ATOM      3  O   UNL A   1      37.495  22.907  25.383  1.00  0.00    -0.460 OA
BRANCH   3   4
ATOM      4  C   UNL A   1      36.362  22.381  24.853  1.00  0.00     0.338 C 
ATOM      5  O   UNL A   1      36.039  21.205  24.839  1.00  0.00    -0.246 OA
BRANCH   4   6
ATOM      6  C   UNL A   1      35.442  23.463  24.437  1.00  0.00     0.060 A 
ATOM      7  C   UNL A   1      33.570  25.455  23.827  1.00  0.00     0.004 A 
ATOM      8  C   UNL A   1      34.232  25.477  25.058  1.00  0.00     0.011 A 
ATOM      9  C   UNL A   1      33.900  24.471  22.879  1.00  0.00     0.011 A 
ATOM     10  C   UNL A   1      35.157  24.475  25.366  1.00  0.00     0.016 A 
ATOM     11  C   UNL A   1      34.845  23.483  23.174  1.00  0.00     0.016 A 
BRANCH   7  12
ATOM     12  C   UNL A   1      32.395  26.275  23.610  1.00  0.00     0.114 A 
ATOM     13  C   UNL A   1      31.067  25.995  23.926  1.00  0.00     0.143 A 
ATOM     14  N   UNL A   1      30.377  27.101  23.444  1.00  0.00    -0.283 N 
ATOM     15  N   UNL A   1      32.519  27.449  22.898  1.00  0.00    -0.225 NA
ATOM     16  C   UNL A   1      31.291  27.888  22.790  1.00  0.00     0.157 A 
ATOM     17  C   UNL A   1      29.056  27.523  23.510  1.00  0.00     0.115 A 
ATOM     18  C   UNL A   1      30.840  29.070  22.113  1.00  0.00     0.158 A 
ATOM     19  C   UNL A   1      28.709  28.656  22.871  1.00  0.00     0.129 A 
ATOM     20  N   UNL A   1      29.588  29.443  22.144  1.00  0.00    -0.259 NA
BRANCH  13  21
ATOM     21  N   UNL A   1      30.486  24.966  24.609  1.00  0.00    -0.339 N 
ATOM     22  H   UNL A   1      29.504  24.987  24.679  1.00  0.00     0.168 HD
BRANCH  21  23
ATOM     23  C   UNL A   1      31.136  23.868  25.229  1.00  0.00     0.040 A 
ATOM     24  C   UNL A   1      32.031  21.608  25.069  1.00  0.00     0.062 A 
ATOM     25  C   UNL A   1      32.399  21.635  26.415  1.00  0.00     0.016 A 
ATOM     26  C   UNL A   1      31.427  22.722  24.468  1.00  0.00     0.041 A 
ATOM     27  C   UNL A   1      32.164  22.781  27.166  1.00  0.00     0.003 A 
ATOM     28  C   UNL A   1      31.528  23.879  26.578  1.00  0.00     0.026 A 
BRANCH  24  29
ATOM     29  C   UNL A   1      32.182  20.331  24.347  1.00  0.00     0.338 C 
ATOM     30  O   UNL A   1      32.336  20.279  23.139  1.00  0.00    -0.246 OA
BRANCH  29  31
ATOM     31  O   UNL A   1      32.059  19.288  25.201  1.00  0.00    -0.462 OA
BRANCH  31  32
ATOM     32  C   UNL A   1      33.145  18.344  25.145  1.00  0.00     0.230 C 
ATOM     33  C   UNL A   1      32.693  16.945  25.534  1.00  0.00     0.049 C 
ENDBRANCH  31  32
ENDBRANCH  29  31
ENDBRANCH  24  29
ENDBRANCH  21  23
ENDBRANCH  13  21
ENDBRANCH   7  12
ENDBRANCH   4   6
ENDBRANCH   3   4
ENDBRANCH   2   3
ENDBRANCH   1   2
BRANCH   1  34
ATOM     34  O   UNL A   1      40.418  21.528  27.438  1.00  0.00    -0.376 OA
BRANCH  34  35
ATOM     35  C   UNL A   1      40.753  20.298  26.825  1.00  0.00     0.188 C 
BRANCH  35  36
ATOM     36  C   UNL A   1      42.227  19.865  26.683  1.00  0.00     0.188 C 
BRANCH  36  37
ATOM     37  O   UNL A   1      42.811  19.836  25.404  1.00  0.00    -0.376 OA
BRANCH  37  38
ATOM     38  C   UNL A   1      44.128  20.314  25.190  1.00  0.00     0.202 C 
BRANCH  38  39
ATOM     39  C   UNL A   1      44.531  21.775  24.912  1.00  0.00     0.261 C 
BRANCH  39  40
ATOM     40  O   UNL A   1      43.766  22.814  25.523  1.00  0.00    -0.460 OA
BRANCH  40  41
ATOM     41  C   UNL A   1      44.261  24.067  25.360  1.00  0.00     0.338 C 
ATOM     42  O   UNL A   1      45.061  24.449  24.530  1.00  0.00    -0.246 OA
BRANCH  41  43
ATOM     43  C   UNL A   1      43.534  24.981  26.261  1.00  0.00     0.060 A 
ATOM     44  C   UNL A   1      43.886  26.337  26.266  1.00  0.00     0.016 A 
ATOM     45  C   UNL A   1      42.550  24.493  27.122  1.00  0.00     0.016 A 
ATOM     46  C   UNL A   1      43.262  27.213  27.153  1.00  0.00     0.010 A 
ATOM     47  C   UNL A   1      41.942  25.369  28.024  1.00  0.00     0.010 A 
ATOM     48  C   UNL A   1      42.314  26.725  28.061  1.00  0.00    -0.014 A 
BRANCH  48  49
ATOM     49  C   UNL A   1      41.836  27.594  29.163  1.00  0.00     0.031 A 
ATOM     50  C   UNL A   1      42.554  27.545  30.482  1.00  0.00     0.074 A 
ATOM     51  C   UNL A   1      40.788  28.418  28.993  1.00  0.00     0.049 A 
ATOM     52  N   UNL A   1      42.275  28.155  31.605  1.00  0.00    -0.248 NA
ATOM     53  C   UNL A   1      43.746  26.683  30.542  1.00  0.00     0.031 C 
ATOM     54  C   UNL A   1      40.035  28.587  27.752  1.00  0.00     0.029 A 
ATOM     55  N   UNL A   1      40.171  29.262  29.882  1.00  0.00    -0.354 N 
ATOM     56  C   UNL A   1      43.256  27.753  32.504  1.00  0.00     0.074 A 
ATOM     57  C   UNL A   1      44.110  26.815  31.808  1.00  0.00     0.031 C 
ATOM     58  C   UNL A   1      39.046  29.474  27.962  1.00  0.00     0.029 A 
ATOM     59  C   UNL A   1      39.078  29.906  29.358  1.00  0.00     0.049 A 
ATOM     60  H   UNL A   1      40.483  29.393  30.807  1.00  0.00     0.167 HD
ATOM     61  C   UNL A   1      43.433  28.136  33.790  1.00  0.00     0.037 A 
ATOM     62  C   UNL A   1      38.190  30.731  29.949  1.00  0.00     0.037 A 
ATOM     63  C   UNL A   1      42.577  29.064  34.482  1.00  0.00     0.049 A 
ATOM     64  C   UNL A   1      38.355  31.076  31.406  1.00  0.00     0.074 A 
ATOM     65  C   UNL A   1      42.672  29.519  35.786  1.00  0.00     0.029 A 
ATOM     66  N   UNL A   1      41.462  29.675  33.925  1.00  0.00    -0.354 N 
ATOM     67  N   UNL A   1      39.290  30.702  32.247  1.00  0.00    -0.248 NA
ATOM     68  C   UNL A   1      37.339  31.959  31.998  1.00  0.00     0.031 C 
ATOM     69  C   UNL A   1      41.583  30.360  36.035  1.00  0.00     0.029 A 
ATOM     70  C   UNL A   1      40.843  30.477  34.870  1.00  0.00     0.049 A 
ATOM     71  H   UNL A   1      41.157  29.555  32.998  1.00  0.00     0.167 HD
ATOM     72  C   UNL A   1      38.996  31.328  33.452  1.00  0.00     0.074 A 
ATOM     73  C   UNL A   1      37.799  32.115  33.232  1.00  0.00     0.031 C 
ATOM     74  C   UNL A   1      39.657  31.262  34.634  1.00  0.00     0.037 A 
BRANCH  61  75
ATOM     75  C   UNL A   1      44.575  27.516  34.543  1.00  0.00     0.057 A 
ATOM     76  C   UNL A   1      44.435  26.321  35.261  1.00  0.00     0.134 A 
ATOM     77  C   UNL A   1      45.839  28.119  34.536  1.00  0.00     0.134 A 
ATOM     78  F   UNL A   1      43.247  25.698  35.328  1.00  0.00    -0.206 F 
ATOM     79  C   UNL A   1      45.505  25.762  35.964  1.00  0.00     0.040 A 
ATOM     80  C   UNL A   1      46.922  27.556  35.212  1.00  0.00     0.040 A 
ATOM     81  F   UNL A   1      46.044  29.265  33.868  1.00  0.00    -0.206 F 
ATOM     82  C   UNL A   1      46.755  26.378  35.934  1.00  0.00     0.006 A 
ENDBRANCH  61  75
BRANCH  62  83
ATOM     83  C   UNL A   1      37.055  31.285  29.168  1.00  0.00     0.057 A 
ATOM     84  C   UNL A   1      37.076  32.599  28.690  1.00  0.00     0.134 A 
ATOM     85  C   UNL A   1      35.910  30.522  28.906  1.00  0.00     0.134 A 
ATOM     86  F   UNL A   1      38.133  33.388  28.931  1.00  0.00    -0.206 F 
ATOM     87  C   UNL A   1      35.995  33.142  27.993  1.00  0.00     0.040 A 
ATOM     88  C   UNL A   1      34.833  31.043  28.187  1.00  0.00     0.040 A 
ATOM     89  F   UNL A   1      35.824  29.256  29.341  1.00  0.00    -0.206 F 
ATOM     90  C   UNL A   1      34.870  32.360  27.735  1.00  0.00     0.006 A 
ENDBRANCH  62  83
BRANCH  74  91
ATOM     91  C   UNL A   1      39.131  32.094  35.769  1.00  0.00     0.057 A 
ATOM     92  C   UNL A   1      38.248  31.576  36.726  1.00  0.00     0.134 A 
ATOM     93  C   UNL A   1      39.550  33.421  35.932  1.00  0.00     0.134 A 
ATOM     94  F   UNL A   1      37.799  30.316  36.625  1.00  0.00    -0.206 F 
ATOM     95  C   UNL A   1      37.782  32.355  37.786  1.00  0.00     0.040 A 
ATOM     96  C   UNL A   1      39.114  34.201  37.005  1.00  0.00     0.040 A 
ATOM     97  F   UNL A   1      40.404  33.978  35.059  1.00  0.00    -0.206 F 
ATOM     98  C   UNL A   1      38.222  33.669  37.932  1.00  0.00     0.006 A 
ENDBRANCH  74  91
ENDBRANCH  48  49
ENDBRANCH  41  43
ENDBRANCH  40  41
ENDBRANCH  39  40
ENDBRANCH  38  39
ENDBRANCH  37  38
ENDBRANCH  36  37
ENDBRANCH  35  36
ENDBRANCH  34  35
ENDBRANCH   1  34
TORSDOF 23
ENDMDL
MODEL 2
REMARK VINA RESULT:     -11.5      0.872      5.835
REMARK SMILES CCOC(=O)c1cccc(Nc2c(-c3ccc(C(=O)OCCOCCOCCOC(=O)c4ccc(-c5c6nc(c(-c7c(F)cccc7F)c7ccc([nH]7)c(-c7c(F)cccc7F)c7nc(c(-c8c(F)cccc8F)c8ccc5[nH]8)C=C7)C=C6)cc4)cc3)nc3cnccn23)c1
REMARK SMILES IDX 22 1 21 2 20 3 18 4 19 5 17 6 14 7 15 8 87 9 16 10 86 11
REMARK SMILES IDX 13 12 12 13 94 14 88 15 89 16 93 17 90 18 92 19 91 20 11 21
REMARK SMILES IDX 10 23 6 24 7 25 95 26 8 27 9 28 4 29 5 30 3 31 2 32 1 33
REMARK SMILES IDX 23 34 24 35 25 36 26 37 27 38 28 39 29 40 30 41 31 42 32 43
REMARK SMILES IDX 33 44 85 45 34 46 84 47 35 48 36 49 37 50 78 51 38 52 83 53
REMARK SMILES IDX 77 54 79 55 39 56 82 57 76 58 75 59 40 61 66 62 49 63 65 64
REMARK SMILES IDX 50 65 53 66 64 67 80 68 51 69 52 70 63 72 81 73 54 74 41 75
REMARK SMILES IDX 42 76 47 77 43 78 44 79 46 80 48 81 45 82 67 83 68 84 73 85
REMARK SMILES IDX 69 86 70 87 72 88 74 89 71 90 55 91 56 92 61 93 57 94 58 95
REMARK SMILES IDX 60 96 62 97 59 98
REMARK H PARENT 11 22 79 60 53 71
REMARK Flexibility Score: inf
ROOT
ATOM      1  C   UNL A   1      38.794  23.993  26.892  1.00  0.00     0.202 C 
ENDROOT
BRANCH   1   2
ATOM      2  C   UNL A   1      37.844  23.476  25.802  1.00  0.00     0.261 C 
BRANCH   2   3
ATOM      3  O   UNL A   1      36.638  24.229  25.624  1.00  0.00    -0.460 OA
BRANCH   3   4
ATOM      4  C   UNL A   1      35.719  23.659  24.803  1.00  0.00     0.338 C 
ATOM      5  O   UNL A   1      35.597  22.471  24.558  1.00  0.00    -0.246 OA
BRANCH   4   6
ATOM      6  C   UNL A   1      34.731  24.670  24.363  1.00  0.00     0.060 A 
ATOM      7  C   UNL A   1      32.722  26.502  23.693  1.00  0.00     0.004 A 
ATOM      8  C   UNL A   1      33.280  26.519  24.975  1.00  0.00     0.011 A 
ATOM      9  C   UNL A   1      33.223  25.609  22.731  1.00  0.00     0.011 A 
ATOM     10  C   UNL A   1      34.273  25.595  25.313  1.00  0.00     0.016 A 
ATOM     11  C   UNL A   1      34.237  24.702  23.057  1.00  0.00     0.016 A 
BRANCH   7  12
ATOM     12  C   UNL A   1      31.492  27.216  23.418  1.00  0.00     0.114 A 
ATOM     13  C   UNL A   1      30.178  26.789  23.600  1.00  0.00     0.143 A 
ATOM     14  N   UNL A   1      29.420  27.850  23.119  1.00  0.00    -0.283 N 
ATOM     15  N   UNL A   1      31.553  28.438  22.782  1.00  0.00    -0.225 NA
ATOM     16  C   UNL A   1      30.300  28.761  22.590  1.00  0.00     0.157 A 
ATOM     17  C   UNL A   1      28.062  28.137  23.091  1.00  0.00     0.115 A 
ATOM     18  C   UNL A   1      29.787  29.933  21.940  1.00  0.00     0.158 A 
ATOM     19  C   UNL A   1      27.655  29.269  22.485  1.00  0.00     0.129 A 
ATOM     20  N   UNL A   1      28.506  30.180  21.880  1.00  0.00    -0.259 NA
BRANCH  13  21
ATOM     21  N   UNL A   1      29.651  25.669  24.175  1.00  0.00    -0.339 N 
ATOM     22  H   UNL A   1      28.679  25.544  24.078  1.00  0.00     0.168 HD
BRANCH  21  23
ATOM     23  C   UNL A   1      30.345  24.662  24.895  1.00  0.00     0.040 A 
ATOM     24  C   UNL A   1      31.590  22.568  24.884  1.00  0.00     0.062 A 
ATOM     25  C   UNL A   1      31.711  22.608  26.274  1.00  0.00     0.016 A 
ATOM     26  C   UNL A   1      30.935  23.597  24.191  1.00  0.00     0.041 A 
ATOM     27  C   UNL A   1      31.177  23.681  26.976  1.00  0.00     0.003 A 
ATOM     28  C   UNL A   1      30.491  24.690  26.291  1.00  0.00     0.026 A 
BRANCH  24  29
ATOM     29  C   UNL A   1      32.057  21.352  24.193  1.00  0.00     0.338 C 
ATOM     30  O   UNL A   1      32.446  21.365  23.038  1.00  0.00    -0.246 OA
BRANCH  29  31
ATOM     31  O   UNL A   1      31.923  20.271  24.997  1.00  0.00    -0.462 OA
BRANCH  31  32
ATOM     32  C   UNL A   1      33.122  19.489  25.147  1.00  0.00     0.230 C 
ATOM     33  C   UNL A   1      32.818  18.001  25.217  1.00  0.00     0.049 C 
ENDBRANCH  31  32
ENDBRANCH  29  31
ENDBRANCH  24  29
ENDBRANCH  21  23
ENDBRANCH  13  21
ENDBRANCH   7  12
ENDBRANCH   4   6
ENDBRANCH   3   4
ENDBRANCH   2   3
ENDBRANCH   1   2
BRANCH   1  34
ATOM     34  O   UNL A   1      39.899  23.240  27.366  1.00  0.00    -0.376 OA
BRANCH  34  35
ATOM     35  C   UNL A   1      40.305  22.062  26.699  1.00  0.00     0.188 C 
BRANCH  35  36
ATOM     36  C   UNL A   1      41.782  21.618  26.714  1.00  0.00     0.188 C 
BRANCH  36  37
ATOM     37  O   UNL A   1      42.426  21.339  25.496  1.00  0.00    -0.376 OA
BRANCH  37  38
ATOM     38  C   UNL A   1      43.805  21.609  25.317  1.00  0.00     0.202 C 
BRANCH  38  39
ATOM     39  C   UNL A   1      44.408  22.878  24.685  1.00  0.00     0.261 C 
BRANCH  39  40
ATOM     40  O   UNL A   1      43.689  24.105  24.815  1.00  0.00    -0.460 OA
BRANCH  40  41
ATOM     41  C   UNL A   1      44.432  25.171  25.204  1.00  0.00     0.338 C 
ATOM     42  O   UNL A   1      45.469  25.572  24.718  1.00  0.00    -0.246 OA
BRANCH  41  43
ATOM     43  C   UNL A   1      43.686  25.911  26.240  1.00  0.00     0.060 A 
ATOM     44  C   UNL A   1      44.012  27.255  26.468  1.00  0.00     0.016 A 
ATOM     45  C   UNL A   1      42.709  25.272  27.003  1.00  0.00     0.016 A 
ATOM     46  C   UNL A   1      43.370  27.962  27.483  1.00  0.00     0.010 A 
ATOM     47  C   UNL A   1      42.082  25.977  28.033  1.00  0.00     0.010 A 
ATOM     48  C   UNL A   1      42.429  27.315  28.294  1.00  0.00    -0.014 A 
BRANCH  48  49
ATOM     49  C   UNL A   1      41.932  27.982  29.521  1.00  0.00     0.031 A 
ATOM     50  C   UNL A   1      40.689  28.822  29.430  1.00  0.00     0.074 A 
ATOM     51  C   UNL A   1      42.567  27.838  30.697  1.00  0.00     0.049 A 
ATOM     52  N   UNL A   1      40.110  29.555  30.346  1.00  0.00    -0.248 NA
ATOM     53  C   UNL A   1      40.012  28.843  28.123  1.00  0.00     0.031 C 
ATOM     54  C   UNL A   1      43.755  27.019  30.923  1.00  0.00     0.029 A 
ATOM     55  N   UNL A   1      42.298  28.392  31.923  1.00  0.00    -0.354 N 
ATOM     56  C   UNL A   1      39.002  30.121  29.728  1.00  0.00     0.074 A 
ATOM     57  C   UNL A   1      39.014  29.682  28.350  1.00  0.00     0.031 C 
ATOM     58  C   UNL A   1      44.123  27.133  32.212  1.00  0.00     0.029 A 
ATOM     59  C   UNL A   1      43.216  28.060  32.888  1.00  0.00     0.049 A 
ATOM     60  H   UNL A   1      41.522  28.974  32.094  1.00  0.00     0.167 HD
ATOM     61  C   UNL A   1      38.056  30.929  30.263  1.00  0.00     0.037 A 
ATOM     62  C   UNL A   1      43.323  28.477  34.165  1.00  0.00     0.037 A 
ATOM     63  C   UNL A   1      38.051  31.370  31.634  1.00  0.00     0.049 A 
ATOM     64  C   UNL A   1      42.308  29.446  34.716  1.00  0.00     0.074 A 
ATOM     65  C   UNL A   1      37.136  32.188  32.274  1.00  0.00     0.029 A 
ATOM     66  N   UNL A   1      39.013  31.033  32.574  1.00  0.00    -0.354 N 
ATOM     67  N   UNL A   1      41.258  29.969  34.131  1.00  0.00    -0.248 NA
ATOM     68  C   UNL A   1      42.496  29.882  36.108  1.00  0.00     0.031 C 
ATOM     69  C   UNL A   1      37.576  32.392  33.585  1.00  0.00     0.029 A 
ATOM     70  C   UNL A   1      38.731  31.653  33.781  1.00  0.00     0.049 A 
ATOM     71  H   UNL A   1      39.782  30.442  32.409  1.00  0.00     0.167 HD
ATOM     72  C   UNL A   1      40.642  30.766  35.088  1.00  0.00     0.074 A 
ATOM     73  C   UNL A   1      41.432  30.651  36.297  1.00  0.00     0.031 C 
ATOM     74  C   UNL A   1      39.522  31.522  34.979  1.00  0.00     0.037 A 
BRANCH  61  75
ATOM     75  C   UNL A   1      36.972  31.420  29.348  1.00  0.00     0.057 A 
ATOM     76  C   UNL A   1      36.972  32.717  28.818  1.00  0.00     0.134 A 
ATOM     77  C   UNL A   1      35.918  30.574  28.981  1.00  0.00     0.134 A 
ATOM     78  F   UNL A   1      37.941  33.588  29.142  1.00  0.00    -0.206 F 
ATOM     79  C   UNL A   1      35.950  33.161  27.975  1.00  0.00     0.040 A 
ATOM     80  C   UNL A   1      34.905  30.998  28.119  1.00  0.00     0.040 A 
ATOM     81  F   UNL A   1      35.854  29.318  29.452  1.00  0.00    -0.206 F 
ATOM     82  C   UNL A   1      34.917  32.297  27.619  1.00  0.00     0.006 A 
ENDBRANCH  61  75
BRANCH  62  83
ATOM     83  C   UNL A   1      44.439  27.992  35.016  1.00  0.00     0.057 A 
ATOM     84  C   UNL A   1      45.664  28.666  35.059  1.00  0.00     0.134 A 
ATOM     85  C   UNL A   1      44.317  26.828  35.785  1.00  0.00     0.134 A 
ATOM     86  F   UNL A   1      45.852  29.772  34.325  1.00  0.00    -0.206 F 
ATOM     87  C   UNL A   1      46.733  28.194  35.822  1.00  0.00     0.040 A 
ATOM     88  C   UNL A   1      45.369  26.359  36.574  1.00  0.00     0.040 A 
ATOM     89  F   UNL A   1      43.170  26.132  35.785  1.00  0.00    -0.206 F 
ATOM     90  C   UNL A   1      46.585  27.038  36.588  1.00  0.00     0.006 A 
ENDBRANCH  62  83
BRANCH  74  91
ATOM     91  C   UNL A   1      39.056  32.251  36.208  1.00  0.00     0.057 A 
ATOM     92  C   UNL A   1      39.442  33.569  36.484  1.00  0.00     0.134 A 
ATOM     93  C   UNL A   1      38.173  31.637  37.106  1.00  0.00     0.134 A 
ATOM     94  F   UNL A   1      40.294  34.213  35.671  1.00  0.00    -0.206 F 
ATOM     95  C   UNL A   1      38.986  34.241  37.620  1.00  0.00     0.040 A 
ATOM     96  C   UNL A   1      37.687  32.308  38.230  1.00  0.00     0.040 A 
ATOM     97  F   UNL A   1      37.754  30.380  36.898  1.00  0.00    -0.206 F 
ATOM     98  C   UNL A   1      38.100  33.612  38.492  1.00  0.00     0.006 A 
ENDBRANCH  74  91
ENDBRANCH  48  49
ENDBRANCH  41  43
ENDBRANCH  40  41
ENDBRANCH  39  40
ENDBRANCH  38  39
ENDBRANCH  37  38
ENDBRANCH  36  37
ENDBRANCH  35  36
ENDBRANCH  34  35
ENDBRANCH   1  34
TORSDOF 23
ENDMDL
MODEL 3
REMARK VINA RESULT:     -11.1      4.660      9.780
REMARK SMILES CCOC(=O)c1cccc(Nc2c(-c3ccc(C(=O)OCCOCCOCCOC(=O)c4ccc(-c5c6nc(c(-c7c(F)cccc7F)c7ccc([nH]7)c(-c7c(F)cccc7F)c7nc(c(-c8c(F)cccc8F)c8ccc5[nH]8)C=C7)C=C6)cc4)cc3)nc3cnccn23)c1
REMARK SMILES IDX 22 1 21 2 20 3 18 4 19 5 17 6 14 7 15 8 87 9 16 10 86 11
REMARK SMILES IDX 13 12 12 13 94 14 88 15 89 16 93 17 90 18 92 19 91 20 11 21
REMARK SMILES IDX 10 23 6 24 7 25 95 26 8 27 9 28 4 29 5 30 3 31 2 32 1 33
REMARK SMILES IDX 23 34 24 35 25 36 26 37 27 38 28 39 29 40 30 41 31 42 32 43
REMARK SMILES IDX 33 44 85 45 34 46 84 47 35 48 36 49 37 50 78 51 38 52 83 53
REMARK SMILES IDX 77 54 79 55 39 56 82 57 76 58 75 59 40 61 66 62 49 63 65 64
REMARK SMILES IDX 50 65 53 66 64 67 80 68 51 69 52 70 63 72 81 73 54 74 41 75
REMARK SMILES IDX 42 76 47 77 43 78 44 79 46 80 48 81 45 82 67 83 68 84 73 85
REMARK SMILES IDX 69 86 70 87 72 88 74 89 71 90 55 91 56 92 61 93 57 94 58 95
REMARK SMILES IDX 60 96 62 97 59 98
REMARK H PARENT 11 22 79 60 53 71
REMARK Flexibility Score: inf
ROOT
ATOM      1  C   UNL A   1      32.386  28.521  27.388  1.00  0.00     0.202 C 
ENDROOT
BRANCH   1   2
ATOM      2  C   UNL A   1      32.346  27.296  26.461  1.00  0.00     0.261 C 
BRANCH   2   3
ATOM      3  O   UNL A   1      31.551  26.197  26.922  1.00  0.00    -0.460 OA
BRANCH   3   4
ATOM      4  C   UNL A   1      30.763  25.622  25.979  1.00  0.00     0.338 C 
ATOM      5  O   UNL A   1      29.975  26.188  25.241  1.00  0.00    -0.246 OA
BRANCH   4   6
ATOM      6  C   UNL A   1      31.115  24.193  25.822  1.00  0.00     0.060 A 
ATOM      7  C   UNL A   1      31.997  21.548  25.565  1.00  0.00     0.004 A 
ATOM      8  C   UNL A   1      32.181  22.228  26.773  1.00  0.00     0.011 A 
ATOM      9  C   UNL A   1      31.311  22.176  24.513  1.00  0.00     0.011 A 
ATOM     10  C   UNL A   1      31.751  23.552  26.895  1.00  0.00     0.016 A 
ATOM     11  C   UNL A   1      30.855  23.492  24.641  1.00  0.00     0.016 A 
BRANCH   7  12
ATOM     12  C   UNL A   1      32.705  20.310  25.305  1.00  0.00     0.114 A 
ATOM     13  C   UNL A   1      33.997  20.132  24.814  1.00  0.00     0.143 A 
ATOM     14  N   UNL A   1      34.121  18.751  24.714  1.00  0.00    -0.283 N 
ATOM     15  N   UNL A   1      32.030  19.114  25.424  1.00  0.00    -0.225 NA
ATOM     16  C   UNL A   1      32.897  18.217  25.028  1.00  0.00     0.157 A 
ATOM     17  C   UNL A   1      35.165  17.893  24.398  1.00  0.00     0.115 A 
ATOM     18  C   UNL A   1      32.706  16.799  24.926  1.00  0.00     0.158 A 
ATOM     19  C   UNL A   1      34.918  16.570  24.346  1.00  0.00     0.129 A 
ATOM     20  N   UNL A   1      33.680  15.997  24.589  1.00  0.00    -0.259 NA
BRANCH  13  21
ATOM     21  N   UNL A   1      35.004  21.014  24.546  1.00  0.00    -0.339 N 
ATOM     22  H   UNL A   1      35.885  20.624  24.348  1.00  0.00     0.168 HD
BRANCH  21  23
ATOM     23  C   UNL A   1      34.923  22.431  24.518  1.00  0.00     0.040 A 
ATOM     24  C   UNL A   1      34.227  24.462  23.367  1.00  0.00     0.062 A 
ATOM     25  C   UNL A   1      34.760  25.249  24.389  1.00  0.00     0.016 A 
ATOM     26  C   UNL A   1      34.283  23.062  23.437  1.00  0.00     0.041 A 
ATOM     27  C   UNL A   1      35.350  24.637  25.487  1.00  0.00     0.003 A 
ATOM     28  C   UNL A   1      35.439  23.242  25.542  1.00  0.00     0.026 A 
BRANCH  24  29
ATOM     29  C   UNL A   1      33.728  25.152  22.164  1.00  0.00     0.338 C 
ATOM     30  O   UNL A   1      33.062  24.585  21.315  1.00  0.00    -0.246 OA
BRANCH  29  31
ATOM     31  O   UNL A   1      34.168  26.432  22.136  1.00  0.00    -0.462 OA
BRANCH  31  32
ATOM     32  C   UNL A   1      33.122  27.421  22.125  1.00  0.00     0.230 C 
ATOM     33  C   UNL A   1      33.455  28.602  23.022  1.00  0.00     0.049 C 
ENDBRANCH  31  32
ENDBRANCH  29  31
ENDBRANCH  24  29
ENDBRANCH  21  23
ENDBRANCH  13  21
ENDBRANCH   7  12
ENDBRANCH   4   6
ENDBRANCH   3   4
ENDBRANCH   2   3
ENDBRANCH   1   2
BRANCH   1  34
ATOM     34  O   UNL A   1      32.177  29.843  26.920  1.00  0.00    -0.376 OA
BRANCH  34  35
ATOM     35  C   UNL A   1      33.268  30.722  26.735  1.00  0.00     0.188 C 
BRANCH  35  36
ATOM     36  C   UNL A   1      34.039  31.285  27.947  1.00  0.00     0.188 C 
BRANCH  36  37
ATOM     37  O   UNL A   1      34.234  32.674  28.049  1.00  0.00    -0.376 OA
BRANCH  37  38
ATOM     38  C   UNL A   1      33.891  33.377  29.230  1.00  0.00     0.202 C 
BRANCH  38  39
ATOM     39  C   UNL A   1      34.713  33.423  30.532  1.00  0.00     0.261 C 
BRANCH  39  40
ATOM     40  O   UNL A   1      34.540  32.366  31.477  1.00  0.00    -0.460 OA
BRANCH  40  41
ATOM     41  C   UNL A   1      35.557  32.211  32.362  1.00  0.00     0.338 C 
ATOM     42  O   UNL A   1      35.569  32.503  33.540  1.00  0.00    -0.246 OA
BRANCH  41  43
ATOM     43  C   UNL A   1      36.637  31.448  31.708  1.00  0.00     0.060 A 
ATOM     44  C   UNL A   1      37.616  30.851  32.512  1.00  0.00     0.016 A 
ATOM     45  C   UNL A   1      36.704  31.365  30.317  1.00  0.00     0.016 A 
ATOM     46  C   UNL A   1      38.685  30.178  31.920  1.00  0.00     0.010 A 
ATOM     47  C   UNL A   1      37.786  30.709  29.727  1.00  0.00     0.010 A 
ATOM     48  C   UNL A   1      38.794  30.138  30.525  1.00  0.00    -0.014 A 
BRANCH  48  49
ATOM     49  C   UNL A   1      40.044  29.647  29.899  1.00  0.00     0.031 A 
ATOM     50  C   UNL A   1      41.196  30.600  29.748  1.00  0.00     0.074 A 
ATOM     51  C   UNL A   1      40.159  28.374  29.480  1.00  0.00     0.049 A 
ATOM     52  N   UNL A   1      42.356  30.421  29.170  1.00  0.00    -0.248 NA
ATOM     53  C   UNL A   1      41.008  31.943  30.321  1.00  0.00     0.031 C 
ATOM     54  C   UNL A   1      39.132  27.344  29.608  1.00  0.00     0.029 A 
ATOM     55  N   UNL A   1      41.200  27.740  28.850  1.00  0.00    -0.354 N 
ATOM     56  C   UNL A   1      43.036  31.624  29.311  1.00  0.00     0.074 A 
ATOM     57  C   UNL A   1      42.144  32.538  29.990  1.00  0.00     0.031 C 
ATOM     58  C   UNL A   1      39.589  26.204  29.060  1.00  0.00     0.029 A 
ATOM     59  C   UNL A   1      40.925  26.437  28.515  1.00  0.00     0.049 A 
ATOM     60  H   UNL A   1      42.061  28.177  28.656  1.00  0.00     0.167 HD
ATOM     61  C   UNL A   1      44.293  31.937  28.917  1.00  0.00     0.037 A 
ATOM     62  C   UNL A   1      41.661  25.544  27.823  1.00  0.00     0.037 A 
ATOM     63  C   UNL A   1      45.176  31.026  28.235  1.00  0.00     0.049 A 
ATOM     64  C   UNL A   1      43.024  25.942  27.317  1.00  0.00     0.074 A 
ATOM     65  C   UNL A   1      46.470  31.246  27.795  1.00  0.00     0.029 A 
ATOM     66  N   UNL A   1      44.851  29.723  27.888  1.00  0.00    -0.354 N 
ATOM     67  N   UNL A   1      43.665  27.076  27.463  1.00  0.00    -0.248 NA
ATOM     68  C   UNL A   1      43.765  24.931  26.547  1.00  0.00     0.031 C 
ATOM     69  C   UNL A   1      46.906  30.095  27.132  1.00  0.00     0.029 A 
ATOM     70  C   UNL A   1      45.909  29.137  27.211  1.00  0.00     0.049 A 
ATOM     71  H   UNL A   1      43.996  29.280  28.093  1.00  0.00     0.167 HD
ATOM     72  C   UNL A   1      44.894  26.906  26.836  1.00  0.00     0.074 A 
ATOM     73  C   UNL A   1      44.913  25.554  26.316  1.00  0.00     0.031 C 
ATOM     74  C   UNL A   1      45.917  27.787  26.706  1.00  0.00     0.037 A 
BRANCH  61  75
ATOM     75  C   UNL A   1      44.769  33.336  29.179  1.00  0.00     0.057 A 
ATOM     76  C   UNL A   1      44.547  34.382  28.273  1.00  0.00     0.134 A 
ATOM     77  C   UNL A   1      45.448  33.643  30.364  1.00  0.00     0.134 A 
ATOM     78  F   UNL A   1      43.920  34.157  27.108  1.00  0.00    -0.206 F 
ATOM     79  C   UNL A   1      45.005  35.677  28.528  1.00  0.00     0.040 A 
ATOM     80  C   UNL A   1      45.886  34.939  30.642  1.00  0.00     0.040 A 
ATOM     81  F   UNL A   1      45.694  32.690  31.276  1.00  0.00    -0.206 F 
ATOM     82  C   UNL A   1      45.671  35.959  29.719  1.00  0.00     0.006 A 
ENDBRANCH  61  75
BRANCH  62  83
ATOM     83  C   UNL A   1      41.126  24.185  27.556  1.00  0.00     0.057 A 
ATOM     84  C   UNL A   1      40.105  23.978  26.622  1.00  0.00     0.134 A 
ATOM     85  C   UNL A   1      41.604  23.065  28.247  1.00  0.00     0.134 A 
ATOM     86  F   UNL A   1      39.588  25.015  25.947  1.00  0.00    -0.206 F 
ATOM     87  C   UNL A   1      39.566  22.711  26.396  1.00  0.00     0.040 A 
ATOM     88  C   UNL A   1      41.093  21.788  28.012  1.00  0.00     0.040 A 
ATOM     89  F   UNL A   1      42.579  23.196  29.159  1.00  0.00    -0.206 F 
ATOM     90  C   UNL A   1      40.065  21.609  27.089  1.00  0.00     0.006 A 
ENDBRANCH  62  83
BRANCH  74  91
ATOM     91  C   UNL A   1      47.160  27.307  26.012  1.00  0.00     0.057 A 
ATOM     92  C   UNL A   1      47.329  27.415  24.626  1.00  0.00     0.134 A 
ATOM     93  C   UNL A   1      48.223  26.768  26.750  1.00  0.00     0.134 A 
ATOM     94  F   UNL A   1      46.347  27.912  23.858  1.00  0.00    -0.206 F 
ATOM     95  C   UNL A   1      48.497  26.982  23.997  1.00  0.00     0.040 A 
ATOM     96  C   UNL A   1      49.408  26.359  26.136  1.00  0.00     0.040 A 
ATOM     97  F   UNL A   1      48.134  26.645  28.084  1.00  0.00    -0.206 F 
ATOM     98  C   UNL A   1      49.544  26.459  24.754  1.00  0.00     0.006 A 
ENDBRANCH  74  91
ENDBRANCH  48  49
ENDBRANCH  41  43
ENDBRANCH  40  41
ENDBRANCH  39  40
ENDBRANCH  38  39
ENDBRANCH  37  38
ENDBRANCH  36  37
ENDBRANCH  35  36
ENDBRANCH  34  35
ENDBRANCH   1  34
TORSDOF 23
ENDMDL
