MODEL 1
REMARK VINA RESULT:     -10.7      0.000      0.000
REMARK SMILES C[C@H]1[C@H](C(=O)OCCOCCOCCOC(=O)c2ccc(-c3c4nc(c(-c5c(F)cccc5F)c5ccc([nH]5)c(-c5c(F)cccc5F)c5nc(c(-c6c(F)cccc6F)c6ccc3[nH]6)C=C5)C=C4)cc2)CCN1C(=O)NCc1ccncc1
REMARK SMILES IDX 10 1 9 2 8 3 7 4 6 5 4 6 5 7 3 8 1 9 2 10 74 11 72 12 73 13
REMARK SMILES IDX 75 14 76 15 77 16 78 18 79 19 80 20 84 21 81 22 83 23 82 24
REMARK SMILES IDX 11 25 12 26 13 27 14 28 15 29 16 30 17 31 18 32 19 33 71 34
REMARK SMILES IDX 20 35 70 36 21 37 22 38 23 39 64 40 24 41 69 42 63 43 65 44
REMARK SMILES IDX 25 45 68 46 62 47 61 48 26 50 52 51 35 52 51 53 36 54 39 55
REMARK SMILES IDX 50 56 66 57 37 58 38 59 49 61 67 62 40 63 27 64 28 65 33 66
REMARK SMILES IDX 29 67 30 68 32 69 34 70 31 71 53 72 54 73 59 74 55 75 56 76
REMARK SMILES IDX 58 77 60 78 57 79 41 80 42 81 47 82 43 83 44 84 46 85 48 86
REMARK SMILES IDX 45 87
REMARK H PARENT 77 17 65 49 39 60
REMARK Flexibility Score: inf
ROOT
ATOM      1  C   UNL A   1      39.235  21.627  25.917  1.00  0.00     0.188 C 
ENDROOT
BRANCH   1   2
ATOM      2  O   UNL A   1      37.838  21.504  25.773  1.00  0.00    -0.376 OA
BRANCH   2   3
ATOM      3  C   UNL A   1      37.024  22.656  25.641  1.00  0.00     0.202 C 
BRANCH   3   4
ATOM      4  C   UNL A   1      36.661  23.244  24.270  1.00  0.00     0.261 C 
BRANCH   4   5
ATOM      5  O   UNL A   1      35.396  23.932  24.169  1.00  0.00    -0.463 OA
BRANCH   5   6
ATOM      6  C   UNL A   1      34.493  23.373  23.326  1.00  0.00     0.311 C 
ATOM      7  O   UNL A   1      34.570  23.443  22.102  1.00  0.00    -0.252 OA
BRANCH   6   8
ATOM      8  C   UNL A   1      33.312  22.671  23.979  1.00  0.00     0.123 C 
ATOM      9  C   UNL A   1      33.184  21.536  26.214  1.00  0.00     0.032 C 
ATOM     10  C   UNL A   1      32.951  22.868  25.474  1.00  0.00     0.098 C 
ATOM     11  N   UNL A   1      31.528  23.195  25.510  1.00  0.00    -0.321 N 
ATOM     12  C   UNL A   1      32.044  23.042  23.216  1.00  0.00     0.039 C 
ATOM     13  C   UNL A   1      30.927  22.886  24.225  1.00  0.00     0.122 C 
BRANCH  11  14
ATOM     14  C   UNL A   1      30.746  23.708  26.495  1.00  0.00     0.317 C 
ATOM     15  O   UNL A   1      30.666  23.150  27.596  1.00  0.00    -0.249 OA
ATOM     16  N   UNL A   1      30.015  24.828  26.384  1.00  0.00    -0.334 N 
ATOM     17  H   UNL A   1      29.421  24.938  27.162  1.00  0.00     0.165 HD
BRANCH  16  18
ATOM     18  C   UNL A   1      29.847  25.923  25.447  1.00  0.00     0.153 C 
BRANCH  18  19
ATOM     19  C   UNL A   1      30.928  26.972  25.537  1.00  0.00    -0.026 A 
ATOM     20  C   UNL A   1      31.085  27.995  24.599  1.00  0.00     0.025 A 
ATOM     21  C   UNL A   1      31.778  26.979  26.648  1.00  0.00     0.025 A 
ATOM     22  C   UNL A   1      32.102  28.925  24.784  1.00  0.00     0.111 A 
ATOM     23  C   UNL A   1      32.763  27.948  26.745  1.00  0.00     0.111 A 
ATOM     24  N   UNL A   1      32.951  28.920  25.833  1.00  0.00    -0.265 NA
ENDBRANCH  18  19
ENDBRANCH  16  18
ENDBRANCH  11  14
ENDBRANCH   6   8
ENDBRANCH   5   6
ENDBRANCH   4   5
ENDBRANCH   3   4
ENDBRANCH   2   3
ENDBRANCH   1   2
BRANCH   1  25
ATOM     25  C   UNL A   1      40.126  20.387  26.020  1.00  0.00     0.188 C 
BRANCH  25  26
ATOM     26  O   UNL A   1      40.786  20.013  27.207  1.00  0.00    -0.376 OA
BRANCH  26  27
ATOM     27  C   UNL A   1      42.204  19.970  27.223  1.00  0.00     0.202 C 
BRANCH  27  28
ATOM     28  C   UNL A   1      42.995  20.745  26.165  1.00  0.00     0.261 C 
BRANCH  28  29
ATOM     29  O   UNL A   1      43.413  22.050  26.590  1.00  0.00    -0.460 OA
BRANCH  29  30
ATOM     30  C   UNL A   1      43.082  23.068  25.757  1.00  0.00     0.338 C 
ATOM     31  O   UNL A   1      42.960  23.022  24.538  1.00  0.00    -0.246 OA
BRANCH  30  32
ATOM     32  C   UNL A   1      42.633  24.211  26.567  1.00  0.00     0.060 A 
ATOM     33  C   UNL A   1      43.205  25.475  26.338  1.00  0.00     0.016 A 
ATOM     34  C   UNL A   1      41.660  24.036  27.547  1.00  0.00     0.016 A 
ATOM     35  C   UNL A   1      42.796  26.576  27.088  1.00  0.00     0.010 A 
ATOM     36  C   UNL A   1      41.281  25.129  28.321  1.00  0.00     0.010 A 
ATOM     37  C   UNL A   1      41.856  26.397  28.106  1.00  0.00    -0.014 A 
BRANCH  37  38
ATOM     38  C   UNL A   1      41.584  27.466  29.090  1.00  0.00     0.031 A 
ATOM     39  C   UNL A   1      42.364  27.454  30.371  1.00  0.00     0.074 A 
ATOM     40  C   UNL A   1      40.615  28.374  28.883  1.00  0.00     0.049 A 
ATOM     41  N   UNL A   1      42.141  28.098  31.485  1.00  0.00    -0.248 NA
ATOM     42  C   UNL A   1      43.547  26.579  30.400  1.00  0.00     0.031 C 
ATOM     43  C   UNL A   1      39.843  28.527  27.653  1.00  0.00     0.029 A 
ATOM     44  N   UNL A   1      40.090  29.314  29.734  1.00  0.00    -0.354 N 
ATOM     45  C   UNL A   1      43.134  27.679  32.360  1.00  0.00     0.074 A 
ATOM     46  C   UNL A   1      43.954  26.722  31.651  1.00  0.00     0.031 C 
ATOM     47  C   UNL A   1      38.913  29.479  27.841  1.00  0.00     0.029 A 
ATOM     48  C   UNL A   1      38.990  29.955  29.221  1.00  0.00     0.049 A 
ATOM     49  H   UNL A   1      40.465  29.508  30.623  1.00  0.00     0.167 HD
ATOM     50  C   UNL A   1      43.333  28.057  33.644  1.00  0.00     0.037 A 
ATOM     51  C   UNL A   1      38.114  30.788  29.820  1.00  0.00     0.037 A 
ATOM     52  C   UNL A   1      42.504  29.008  34.334  1.00  0.00     0.049 A 
ATOM     53  C   UNL A   1      38.299  31.126  31.278  1.00  0.00     0.074 A 
ATOM     54  C   UNL A   1      42.620  29.468  35.633  1.00  0.00     0.029 A 
ATOM     55  N   UNL A   1      41.398  29.636  33.781  1.00  0.00    -0.354 N 
ATOM     56  N   UNL A   1      39.233  30.726  32.109  1.00  0.00    -0.248 NA
ATOM     57  C   UNL A   1      37.305  32.022  31.886  1.00  0.00     0.031 C 
ATOM     58  C   UNL A   1      41.551  30.333  35.883  1.00  0.00     0.029 A 
ATOM     59  C   UNL A   1      40.810  30.464  34.720  1.00  0.00     0.049 A 
ATOM     60  H   UNL A   1      41.081  29.513  32.857  1.00  0.00     0.167 HD
ATOM     61  C   UNL A   1      38.966  31.356  33.318  1.00  0.00     0.074 A 
ATOM     62  C   UNL A   1      37.778  32.159  33.118  1.00  0.00     0.031 C 
ATOM     63  C   UNL A   1      39.646  31.283  34.489  1.00  0.00     0.037 A 
BRANCH  50  64
ATOM     64  C   UNL A   1      44.459  27.407  34.392  1.00  0.00     0.057 A 
ATOM     65  C   UNL A   1      45.740  27.971  34.447  1.00  0.00     0.134 A 
ATOM     66  C   UNL A   1      44.249  26.211  35.089  1.00  0.00     0.134 A 
ATOM     67  F   UNL A   1      46.013  29.105  33.786  1.00  0.00    -0.206 F 
ATOM     68  C   UNL A   1      46.778  27.354  35.148  1.00  0.00     0.040 A 
ATOM     69  C   UNL A   1      45.270  25.601  35.819  1.00  0.00     0.040 A 
ATOM     70  F   UNL A   1      43.044  25.619  35.079  1.00  0.00    -0.206 F 
ATOM     71  C   UNL A   1      46.541  26.170  35.844  1.00  0.00     0.006 A 
ENDBRANCH  50  64
BRANCH  51  72
ATOM     72  C   UNL A   1      36.962  31.334  29.058  1.00  0.00     0.057 A 
ATOM     73  C   UNL A   1      36.954  32.663  28.616  1.00  0.00     0.134 A 
ATOM     74  C   UNL A   1      35.835  30.554  28.771  1.00  0.00     0.134 A 
ATOM     75  F   UNL A   1      37.994  33.468  28.881  1.00  0.00    -0.206 F 
ATOM     76  C   UNL A   1      35.861  33.201  27.934  1.00  0.00     0.040 A 
ATOM     77  C   UNL A   1      34.748  31.070  28.065  1.00  0.00     0.040 A 
ATOM     78  F   UNL A   1      35.779  29.274  29.165  1.00  0.00    -0.206 F 
ATOM     79  C   UNL A   1      34.756  32.401  27.652  1.00  0.00     0.006 A 
ENDBRANCH  51  72
BRANCH  63  80
ATOM     80  C   UNL A   1      39.183  32.144  35.628  1.00  0.00     0.057 A 
ATOM     81  C   UNL A   1      38.342  31.660  36.637  1.00  0.00     0.134 A 
ATOM     82  C   UNL A   1      39.672  33.451  35.762  1.00  0.00     0.134 A 
ATOM     83  F   UNL A   1      37.832  30.422  36.562  1.00  0.00    -0.206 F 
ATOM     84  C   UNL A   1      38.000  32.448  37.737  1.00  0.00     0.040 A 
ATOM     85  C   UNL A   1      39.360  34.237  36.871  1.00  0.00     0.040 A 
ATOM     86  F   UNL A   1      40.490  33.971  34.835  1.00  0.00    -0.206 F 
ATOM     87  C   UNL A   1      38.521  33.736  37.862  1.00  0.00     0.006 A 
ENDBRANCH  63  80
ENDBRANCH  37  38
ENDBRANCH  30  32
ENDBRANCH  29  30
ENDBRANCH  28  29
ENDBRANCH  27  28
ENDBRANCH  26  27
ENDBRANCH  25  26
ENDBRANCH   1  25
TORSDOF 20
ENDMDL
MODEL 2
REMARK VINA RESULT:     -10.6      3.877      8.999
REMARK SMILES C[C@H]1[C@H](C(=O)OCCOCCOCCOC(=O)c2ccc(-c3c4nc(c(-c5c(F)cccc5F)c5ccc([nH]5)c(-c5c(F)cccc5F)c5nc(c(-c6c(F)cccc6F)c6ccc3[nH]6)C=C5)C=C4)cc2)CCN1C(=O)NCc1ccncc1
REMARK SMILES IDX 10 1 9 2 8 3 7 4 6 5 4 6 5 7 3 8 1 9 2 10 74 11 72 12 73 13
REMARK SMILES IDX 75 14 76 15 77 16 78 18 79 19 80 20 84 21 81 22 83 23 82 24
REMARK SMILES IDX 11 25 12 26 13 27 14 28 15 29 16 30 17 31 18 32 19 33 71 34
REMARK SMILES IDX 20 35 70 36 21 37 22 38 23 39 64 40 24 41 69 42 63 43 65 44
REMARK SMILES IDX 25 45 68 46 62 47 61 48 26 50 52 51 35 52 51 53 36 54 39 55
REMARK SMILES IDX 50 56 66 57 37 58 38 59 49 61 67 62 40 63 27 64 28 65 33 66
REMARK SMILES IDX 29 67 30 68 32 69 34 70 31 71 53 72 54 73 59 74 55 75 56 76
REMARK SMILES IDX 58 77 60 78 57 79 41 80 42 81 47 82 43 83 44 84 46 85 48 86
REMARK SMILES IDX 45 87
REMARK H PARENT 77 17 65 49 39 60
REMARK Flexibility Score: inf
ROOT
ATOM      1  C   UNL A   1      35.278  32.883  28.289  1.00  0.00     0.188 C 
ENDROOT
BRANCH   1   2
ATOM      2  O   UNL A   1      34.482  31.722  28.229  1.00  0.00    -0.376 OA
BRANCH   2   3
ATOM      3  C   UNL A   1      33.437  31.614  27.279  1.00  0.00     0.202 C 
BRANCH   3   4
ATOM      4  C   UNL A   1      32.495  30.402  27.240  1.00  0.00     0.261 C 
BRANCH   4   5
ATOM      5  O   UNL A   1      33.066  29.144  26.820  1.00  0.00    -0.463 OA
BRANCH   5   6
ATOM      6  C   UNL A   1      32.369  28.039  27.178  1.00  0.00     0.311 C 
ATOM      7  O   UNL A   1      31.643  27.982  28.169  1.00  0.00    -0.252 OA
BRANCH   6   8
ATOM      8  C   UNL A   1      32.566  26.810  26.305  1.00  0.00     0.123 C 
ATOM      9  C   UNL A   1      31.795  24.452  26.693  1.00  0.00     0.032 C 
ATOM     10  C   UNL A   1      31.427  25.795  26.029  1.00  0.00     0.098 C 
ATOM     11  N   UNL A   1      31.381  25.618  24.580  1.00  0.00    -0.321 N 
ATOM     12  C   UNL A   1      33.031  27.264  24.924  1.00  0.00     0.039 C 
ATOM     13  C   UNL A   1      32.589  26.161  23.987  1.00  0.00     0.122 C 
BRANCH  11  14
ATOM     14  C   UNL A   1      30.444  25.061  23.769  1.00  0.00     0.317 C 
ATOM     15  O   UNL A   1      30.647  23.970  23.220  1.00  0.00    -0.249 OA
ATOM     16  N   UNL A   1      29.250  25.609  23.496  1.00  0.00    -0.334 N 
ATOM     17  H   UNL A   1      28.790  25.108  22.783  1.00  0.00     0.165 HD
BRANCH  16  18
ATOM     18  C   UNL A   1      28.442  26.725  23.948  1.00  0.00     0.153 C 
BRANCH  18  19
ATOM     19  C   UNL A   1      28.705  28.010  23.201  1.00  0.00    -0.026 A 
ATOM     20  C   UNL A   1      29.965  28.373  22.720  1.00  0.00     0.025 A 
ATOM     21  C   UNL A   1      27.632  28.855  22.903  1.00  0.00     0.025 A 
ATOM     22  C   UNL A   1      30.099  29.570  22.026  1.00  0.00     0.111 A 
ATOM     23  C   UNL A   1      27.864  30.029  22.206  1.00  0.00     0.111 A 
ATOM     24  N   UNL A   1      29.077  30.412  21.765  1.00  0.00    -0.265 NA
ENDBRANCH  18  19
ENDBRANCH  16  18
ENDBRANCH  11  14
ENDBRANCH   6   8
ENDBRANCH   5   6
ENDBRANCH   4   5
ENDBRANCH   3   4
ENDBRANCH   2   3
ENDBRANCH   1   2
BRANCH   1  25
ATOM     25  C   UNL A   1      34.763  34.154  28.969  1.00  0.00     0.188 C 
BRANCH  25  26
ATOM     26  O   UNL A   1      34.505  35.348  28.267  1.00  0.00    -0.376 OA
BRANCH  26  27
ATOM     27  C   UNL A   1      33.473  36.208  28.725  1.00  0.00     0.202 C 
BRANCH  27  28
ATOM     28  C   UNL A   1      32.683  35.836  29.984  1.00  0.00     0.261 C 
BRANCH  28  29
ATOM     29  O   UNL A   1      32.693  36.850  30.999  1.00  0.00    -0.460 OA
BRANCH  29  30
ATOM     30  C   UNL A   1      32.623  36.397  32.276  1.00  0.00     0.338 C 
ATOM     31  O   UNL A   1      31.717  36.579  33.081  1.00  0.00    -0.246 OA
BRANCH  30  32
ATOM     32  C   UNL A   1      33.702  35.419  32.486  1.00  0.00     0.060 A 
ATOM     33  C   UNL A   1      33.372  34.126  32.928  1.00  0.00     0.016 A 
ATOM     34  C   UNL A   1      35.027  35.776  32.256  1.00  0.00     0.016 A 
ATOM     35  C   UNL A   1      34.372  33.178  33.133  1.00  0.00     0.010 A 
ATOM     36  C   UNL A   1      36.028  34.840  32.498  1.00  0.00     0.010 A 
ATOM     37  C   UNL A   1      35.708  33.545  32.951  1.00  0.00    -0.014 A 
BRANCH  37  38
ATOM     38  C   UNL A   1      36.809  32.668  33.399  1.00  0.00     0.031 A 
ATOM     39  C   UNL A   1      37.452  32.969  34.720  1.00  0.00     0.074 A 
ATOM     40  C   UNL A   1      37.276  31.680  32.617  1.00  0.00     0.049 A 
ATOM     41  N   UNL A   1      38.581  32.536  35.213  1.00  0.00    -0.248 NA
ATOM     42  C   UNL A   1      36.725  33.905  35.594  1.00  0.00     0.031 C 
ATOM     43  C   UNL A   1      36.689  31.250  31.351  1.00  0.00     0.029 A 
ATOM     44  N   UNL A   1      38.387  30.887  32.764  1.00  0.00    -0.354 N 
ATOM     45  C   UNL A   1      38.719  33.172  36.439  1.00  0.00     0.074 A 
ATOM     46  C   UNL A   1      37.564  34.026  36.611  1.00  0.00     0.031 C 
ATOM     47  C   UNL A   1      37.469  30.295  30.814  1.00  0.00     0.029 A 
ATOM     48  C   UNL A   1      38.636  30.095  31.671  1.00  0.00     0.049 A 
ATOM     49  H   UNL A   1      38.949  30.888  33.573  1.00  0.00     0.167 HD
ATOM     50  C   UNL A   1      39.727  33.057  37.334  1.00  0.00     0.037 A 
ATOM     51  C   UNL A   1      39.713  29.339  31.377  1.00  0.00     0.037 A 
ATOM     52  C   UNL A   1      40.870  32.205  37.144  1.00  0.00     0.049 A 
ATOM     53  C   UNL A   1      40.869  29.295  32.345  1.00  0.00     0.074 A 
ATOM     54  C   UNL A   1      41.946  32.007  37.990  1.00  0.00     0.029 A 
ATOM     55  N   UNL A   1      41.087  31.417  36.023  1.00  0.00    -0.354 N 
ATOM     56  N   UNL A   1      41.004  29.900  33.501  1.00  0.00    -0.248 NA
ATOM     57  C   UNL A   1      42.025  28.470  31.965  1.00  0.00     0.031 C 
ATOM     58  C   UNL A   1      42.842  31.142  37.355  1.00  0.00     0.029 A 
ATOM     59  C   UNL A   1      42.291  30.748  36.146  1.00  0.00     0.049 A 
ATOM     60  H   UNL A   1      40.475  31.344  35.256  1.00  0.00     0.167 HD
ATOM     61  C   UNL A   1      42.235  29.496  34.004  1.00  0.00     0.074 A 
ATOM     62  C   UNL A   1      42.812  28.599  33.026  1.00  0.00     0.031 C 
ATOM     63  C   UNL A   1      42.832  29.831  35.174  1.00  0.00     0.037 A 
BRANCH  50  64
ATOM     64  C   UNL A   1      39.658  33.904  38.569  1.00  0.00     0.057 A 
ATOM     65  C   UNL A   1      38.984  33.485  39.723  1.00  0.00     0.134 A 
ATOM     66  C   UNL A   1      40.300  35.148  38.612  1.00  0.00     0.134 A 
ATOM     67  F   UNL A   1      38.333  32.313  39.743  1.00  0.00    -0.206 F 
ATOM     68  C   UNL A   1      38.929  34.286  40.866  1.00  0.00     0.040 A 
ATOM     69  C   UNL A   1      40.278  35.943  39.758  1.00  0.00     0.040 A 
ATOM     70  F   UNL A   1      40.965  35.609  37.541  1.00  0.00    -0.206 F 
ATOM     71  C   UNL A   1      39.586  35.515  40.888  1.00  0.00     0.006 A 
ENDBRANCH  50  64
BRANCH  51  72
ATOM     72  C   UNL A   1      39.771  28.589  30.096  1.00  0.00     0.057 A 
ATOM     73  C   UNL A   1      39.202  27.315  29.979  1.00  0.00     0.134 A 
ATOM     74  C   UNL A   1      40.412  29.112  28.966  1.00  0.00     0.134 A 
ATOM     75  F   UNL A   1      38.595  26.748  31.033  1.00  0.00    -0.206 F 
ATOM     76  C   UNL A   1      39.285  26.582  28.793  1.00  0.00     0.040 A 
ATOM     77  C   UNL A   1      40.477  28.403  27.766  1.00  0.00     0.040 A 
ATOM     78  F   UNL A   1      40.978  30.328  29.011  1.00  0.00    -0.206 F 
ATOM     79  C   UNL A   1      39.919  27.129  27.680  1.00  0.00     0.006 A 
ENDBRANCH  51  72
BRANCH  63  80
ATOM     80  C   UNL A   1      44.139  29.174  35.511  1.00  0.00     0.057 A 
ATOM     81  C   UNL A   1      45.370  29.723  35.135  1.00  0.00     0.134 A 
ATOM     82  C   UNL A   1      44.159  28.024  36.314  1.00  0.00     0.134 A 
ATOM     83  F   UNL A   1      45.419  30.816  34.359  1.00  0.00    -0.206 F 
ATOM     84  C   UNL A   1      46.577  29.148  35.540  1.00  0.00     0.040 A 
ATOM     85  C   UNL A   1      45.358  27.459  36.748  1.00  0.00     0.040 A 
ATOM     86  F   UNL A   1      43.014  27.456  36.718  1.00  0.00    -0.206 F 
ATOM     87  C   UNL A   1      46.571  28.020  36.360  1.00  0.00     0.006 A 
ENDBRANCH  63  80
ENDBRANCH  37  38
ENDBRANCH  30  32
ENDBRANCH  29  30
ENDBRANCH  28  29
ENDBRANCH  27  28
ENDBRANCH  26  27
ENDBRANCH  25  26
ENDBRANCH   1  25
TORSDOF 20
ENDMDL
MODEL 3
REMARK VINA RESULT:     -10.6      5.052      7.757
REMARK SMILES C[C@H]1[C@H](C(=O)OCCOCCOCCOC(=O)c2ccc(-c3c4nc(c(-c5c(F)cccc5F)c5ccc([nH]5)c(-c5c(F)cccc5F)c5nc(c(-c6c(F)cccc6F)c6ccc3[nH]6)C=C5)C=C4)cc2)CCN1C(=O)NCc1ccncc1
REMARK SMILES IDX 10 1 9 2 8 3 7 4 6 5 4 6 5 7 3 8 1 9 2 10 74 11 72 12 73 13
REMARK SMILES IDX 75 14 76 15 77 16 78 18 79 19 80 20 84 21 81 22 83 23 82 24
REMARK SMILES IDX 11 25 12 26 13 27 14 28 15 29 16 30 17 31 18 32 19 33 71 34
REMARK SMILES IDX 20 35 70 36 21 37 22 38 23 39 64 40 24 41 69 42 63 43 65 44
REMARK SMILES IDX 25 45 68 46 62 47 61 48 26 50 52 51 35 52 51 53 36 54 39 55
REMARK SMILES IDX 50 56 66 57 37 58 38 59 49 61 67 62 40 63 27 64 28 65 33 66
REMARK SMILES IDX 29 67 30 68 32 69 34 70 31 71 53 72 54 73 59 74 55 75 56 76
REMARK SMILES IDX 58 77 60 78 57 79 41 80 42 81 47 82 43 83 44 84 46 85 48 86
REMARK SMILES IDX 45 87
REMARK H PARENT 77 17 65 49 39 60
REMARK Flexibility Score: inf
ROOT
ATOM      1  C   UNL A   1      40.938  21.569  27.242  1.00  0.00     0.188 C 
ENDROOT
BRANCH   1   2
ATOM      2  O   UNL A   1      39.728  22.096  26.748  1.00  0.00    -0.376 OA
BRANCH   2   3
ATOM      3  C   UNL A   1      39.361  23.437  27.021  1.00  0.00     0.202 C 
BRANCH   3   4
ATOM      4  C   UNL A   1      38.196  24.126  26.297  1.00  0.00     0.261 C 
BRANCH   4   5
ATOM      5  O   UNL A   1      37.020  23.327  26.045  1.00  0.00    -0.463 OA
BRANCH   5   6
ATOM      6  C   UNL A   1      36.500  23.433  24.798  1.00  0.00     0.311 C 
ATOM      7  O   UNL A   1      37.180  23.449  23.775  1.00  0.00    -0.252 OA
BRANCH   6   8
ATOM      8  C   UNL A   1      34.989  23.587  24.714  1.00  0.00     0.123 C 
ATOM      9  C   UNL A   1      33.446  23.032  22.813  1.00  0.00     0.032 C 
ATOM     10  C   UNL A   1      34.074  22.489  24.112  1.00  0.00     0.098 C 
ATOM     11  N   UNL A   1      33.018  22.255  25.095  1.00  0.00    -0.321 N 
ATOM     12  C   UNL A   1      34.445  23.826  26.119  1.00  0.00     0.039 C 
ATOM     13  C   UNL A   1      33.016  23.331  26.069  1.00  0.00     0.122 C 
BRANCH  11  14
ATOM     14  C   UNL A   1      32.110  21.253  25.220  1.00  0.00     0.317 C 
ATOM     15  O   UNL A   1      30.990  21.468  25.699  1.00  0.00    -0.249 OA
ATOM     16  N   UNL A   1      32.321  19.981  24.847  1.00  0.00    -0.334 N 
ATOM     17  H   UNL A   1      31.587  19.400  25.153  1.00  0.00     0.165 HD
BRANCH  16  18
ATOM     18  C   UNL A   1      33.319  19.217  24.123  1.00  0.00     0.153 C 
BRANCH  18  19
ATOM     19  C   UNL A   1      33.481  17.801  24.621  1.00  0.00    -0.026 A 
ATOM     20  C   UNL A   1      32.421  17.032  25.106  1.00  0.00     0.025 A 
ATOM     21  C   UNL A   1      34.736  17.189  24.531  1.00  0.00     0.025 A 
ATOM     22  C   UNL A   1      32.673  15.730  25.523  1.00  0.00     0.111 A 
ATOM     23  C   UNL A   1      34.889  15.885  24.973  1.00  0.00     0.111 A 
ATOM     24  N   UNL A   1      33.886  15.141  25.475  1.00  0.00    -0.265 NA
ENDBRANCH  18  19
ENDBRANCH  16  18
ENDBRANCH  11  14
ENDBRANCH   6   8
ENDBRANCH   5   6
ENDBRANCH   4   5
ENDBRANCH   3   4
ENDBRANCH   2   3
ENDBRANCH   1   2
BRANCH   1  25
ATOM     25  C   UNL A   1      41.510  20.263  26.687  1.00  0.00     0.188 C 
BRANCH  25  26
ATOM     26  O   UNL A   1      42.174  19.314  27.489  1.00  0.00    -0.376 OA
BRANCH  26  27
ATOM     27  C   UNL A   1      42.889  18.261  26.863  1.00  0.00     0.202 C 
BRANCH  27  28
ATOM     28  C   UNL A   1      43.401  18.442  25.431  1.00  0.00     0.261 C 
BRANCH  28  29
ATOM     29  O   UNL A   1      44.831  18.512  25.328  1.00  0.00    -0.460 OA
BRANCH  29  30
ATOM     30  C   UNL A   1      45.305  19.259  24.299  1.00  0.00     0.338 C 
ATOM     31  O   UNL A   1      45.601  18.873  23.174  1.00  0.00    -0.246 OA
BRANCH  30  32
ATOM     32  C   UNL A   1      45.173  20.681  24.653  1.00  0.00     0.060 A 
ATOM     33  C   UNL A   1      44.745  21.591  23.670  1.00  0.00     0.016 A 
ATOM     34  C   UNL A   1      45.475  21.114  25.940  1.00  0.00     0.016 A 
ATOM     35  C   UNL A   1      44.609  22.943  23.977  1.00  0.00     0.010 A 
ATOM     36  C   UNL A   1      45.376  22.471  26.235  1.00  0.00     0.010 A 
ATOM     37  C   UNL A   1      44.958  23.391  25.254  1.00  0.00    -0.014 A 
BRANCH  37  38
ATOM     38  C   UNL A   1      45.078  24.834  25.549  1.00  0.00     0.031 A 
ATOM     39  C   UNL A   1      46.436  25.462  25.436  1.00  0.00     0.074 A 
ATOM     40  C   UNL A   1      44.026  25.547  25.984  1.00  0.00     0.049 A 
ATOM     41  N   UNL A   1      46.860  26.613  25.884  1.00  0.00    -0.248 NA
ATOM     42  C   UNL A   1      47.458  24.668  24.735  1.00  0.00     0.031 C 
ATOM     43  C   UNL A   1      42.649  25.065  26.066  1.00  0.00     0.029 A 
ATOM     44  N   UNL A   1      43.969  26.826  26.479  1.00  0.00    -0.354 N 
ATOM     45  C   UNL A   1      48.206  26.668  25.551  1.00  0.00     0.074 A 
ATOM     46  C   UNL A   1      48.530  25.433  24.872  1.00  0.00     0.031 C 
ATOM     47  C   UNL A   1      41.887  26.025  26.620  1.00  0.00     0.029 A 
ATOM     48  C   UNL A   1      42.736  27.159  26.982  1.00  0.00     0.049 A 
ATOM     49  H   UNL A   1      44.737  27.443  26.474  1.00  0.00     0.167 HD
ATOM     50  C   UNL A   1      49.091  27.660  25.802  1.00  0.00     0.037 A 
ATOM     51  C   UNL A   1      42.355  28.233  27.702  1.00  0.00     0.037 A 
ATOM     52  C   UNL A   1      48.751  28.880  26.483  1.00  0.00     0.049 A 
ATOM     53  C   UNL A   1      43.377  29.286  28.051  1.00  0.00     0.074 A 
ATOM     54  C   UNL A   1      49.568  29.955  26.783  1.00  0.00     0.029 A 
ATOM     55  N   UNL A   1      47.490  29.181  26.978  1.00  0.00    -0.354 N 
ATOM     56  N   UNL A   1      44.651  29.336  27.744  1.00  0.00    -0.248 NA
ATOM     57  C   UNL A   1      42.912  30.426  28.855  1.00  0.00     0.031 C 
ATOM     58  C   UNL A   1      48.815  30.881  27.509  1.00  0.00     0.029 A 
ATOM     59  C   UNL A   1      47.513  30.415  27.601  1.00  0.00     0.049 A 
ATOM     60  H   UNL A   1      46.698  28.602  26.896  1.00  0.00     0.167 HD
ATOM     61  C   UNL A   1      45.127  30.529  28.275  1.00  0.00     0.074 A 
ATOM     62  C   UNL A   1      44.007  31.171  28.931  1.00  0.00     0.031 C 
ATOM     63  C   UNL A   1      46.377  31.052  28.219  1.00  0.00     0.037 A 
BRANCH  50  64
ATOM     64  C   UNL A   1      50.513  27.444  25.380  1.00  0.00     0.057 A 
ATOM     65  C   UNL A   1      50.949  27.696  24.073  1.00  0.00     0.134 A 
ATOM     66  C   UNL A   1      51.467  27.001  26.304  1.00  0.00     0.134 A 
ATOM     67  F   UNL A   1      50.083  28.104  23.134  1.00  0.00    -0.206 F 
ATOM     68  C   UNL A   1      52.277  27.490  23.694  1.00  0.00     0.040 A 
ATOM     69  C   UNL A   1      52.804  26.821  25.946  1.00  0.00     0.040 A 
ATOM     70  F   UNL A   1      51.117  26.742  27.574  1.00  0.00    -0.206 F 
ATOM     71  C   UNL A   1      53.210  27.060  24.636  1.00  0.00     0.006 A 
ENDBRANCH  50  64
BRANCH  51  72
ATOM     72  C   UNL A   1      40.952  28.356  28.175  1.00  0.00     0.057 A 
ATOM     73  C   UNL A   1      40.579  27.919  29.452  1.00  0.00     0.134 A 
ATOM     74  C   UNL A   1      39.947  28.890  27.360  1.00  0.00     0.134 A 
ATOM     75  F   UNL A   1      41.492  27.375  30.271  1.00  0.00    -0.206 F 
ATOM     76  C   UNL A   1      39.256  27.990  29.893  1.00  0.00     0.040 A 
ATOM     77  C   UNL A   1      38.626  28.995  27.798  1.00  0.00     0.040 A 
ATOM     78  F   UNL A   1      40.236  29.327  26.125  1.00  0.00    -0.206 F 
ATOM     79  C   UNL A   1      38.276  28.536  29.067  1.00  0.00     0.006 A 
ENDBRANCH  51  72
BRANCH  63  80
ATOM     80  C   UNL A   1      46.598  32.414  28.810  1.00  0.00     0.057 A 
ATOM     81  C   UNL A   1      47.056  32.595  30.120  1.00  0.00     0.134 A 
ATOM     82  C   UNL A   1      46.442  33.558  28.013  1.00  0.00     0.134 A 
ATOM     83  F   UNL A   1      47.215  31.543  30.936  1.00  0.00    -0.206 F 
ATOM     84  C   UNL A   1      47.346  33.867  30.619  1.00  0.00     0.040 A 
ATOM     85  C   UNL A   1      46.756  34.829  28.492  1.00  0.00     0.040 A 
ATOM     86  F   UNL A   1      46.016  33.451  26.745  1.00  0.00    -0.206 F 
ATOM     87  C   UNL A   1      47.209  34.986  29.799  1.00  0.00     0.006 A 
ENDBRANCH  63  80
ENDBRANCH  37  38
ENDBRANCH  30  32
ENDBRANCH  29  30
ENDBRANCH  28  29
ENDBRANCH  27  28
ENDBRANCH  26  27
ENDBRANCH  25  26
ENDBRANCH   1  25
TORSDOF 20
ENDMDL
