MODEL 1
REMARK VINA RESULT:     -11.5      0.000      0.000
REMARK SMILES CC[C@H]([NH2+][C@@H](C)c1c(C)noc1C)C(=O)OCCOCCOCCOC(=O)c1ccc(-c2c3nc(c(-c4c(F)cccc4F)c4ccc([nH]4)c(-c4c(F)cccc4F)c4nc(c(-c5c(F)cccc5F)c5ccc2[nH]5)C=C4)C=C3)cc1
REMARK SMILES IDX 20 1 19 2 18 3 17 4 16 5 14 6 15 7 3 8 2 9 1 10 4 11 5 14
REMARK SMILES IDX 6 15 7 16 8 17 12 18 9 19 10 20 11 21 13 22 21 23 22 24
REMARK SMILES IDX 23 25 24 26 25 27 26 28 27 29 28 30 29 31 81 32 30 33 80 34
REMARK SMILES IDX 31 35 32 36 33 37 74 38 34 39 79 40 73 41 75 42 35 43 78 44
REMARK SMILES IDX 72 45 71 46 36 48 62 49 45 50 61 51 46 52 49 53 60 54 76 55
REMARK SMILES IDX 47 56 48 57 59 59 77 60 50 61 37 62 38 63 43 64 39 65 40 66
REMARK SMILES IDX 42 67 44 68 41 69 63 70 64 71 69 72 65 73 66 74 68 75 70 76
REMARK SMILES IDX 67 77 51 78 52 79 57 80 53 81 54 82 56 83 58 84 55 85
REMARK H PARENT 4 12 4 13 75 47 49 58
REMARK Flexibility Score: inf
ROOT
ATOM      1  C   UNL A   1      34.489  32.968  27.949  1.00  0.00     0.188 C 
ENDROOT
BRANCH   1   2
ATOM      2  O   UNL A   1      33.827  31.463  28.074  1.00  0.00    -0.376 OA
BRANCH   2   3
ATOM      3  C   UNL A   1      33.439  30.428  26.974  1.00  0.00     0.202 C 
BRANCH   3   4
ATOM      4  C   UNL A   1      33.177  28.639  27.000  1.00  0.00     0.261 C 
BRANCH   4   5
ATOM      5  O   UNL A   1      33.516  27.585  25.894  1.00  0.00    -0.459 OA
BRANCH   5   6
ATOM      6  C   UNL A   1      33.376  27.720  24.525  1.00  0.00     0.364 C 
ATOM      7  O   UNL A   1      33.807  28.716  23.935  1.00  0.00    -0.245 OA
BRANCH   6   8
ATOM      8  C   UNL A   1      32.927  26.436  23.648  1.00  0.00     0.293 C 
BRANCH   8   9
ATOM      9  C   UNL A   1      31.642  25.838  24.230  1.00  0.00     0.074 C 
ATOM     10  C   UNL A   1      30.565  26.903  24.304  1.00  0.00     0.011 C 
ENDBRANCH   8   9
BRANCH   8  11
ATOM     11  N   UNL A   1      33.788  25.274  23.365  1.00  0.00    -0.328 N 
ATOM     12  H   UNL A   1      34.611  25.369  23.961  1.00  0.00     0.347 HD
ATOM     13  H   UNL A   1      33.921  25.329  22.356  1.00  0.00     0.347 HD
BRANCH  11  14
ATOM     14  C   UNL A   1      33.297  23.942  23.553  1.00  0.00     0.216 C 
ATOM     15  C   UNL A   1      33.494  23.216  22.216  1.00  0.00     0.081 C 
BRANCH  14  16
ATOM     16  C   UNL A   1      34.026  23.333  24.725  1.00  0.00     0.074 A 
ATOM     17  C   UNL A   1      33.065  22.354  25.959  1.00  0.00     0.090 A 
ATOM     18  C   UNL A   1      35.587  22.955  24.781  1.00  0.00     0.143 A 
ATOM     19  C   UNL A   1      32.129  23.336  27.081  1.00  0.00     0.071 C 
ATOM     20  N   UNL A   1      34.013  21.008  26.591  1.00  0.00    -0.085 NA
ATOM     21  O   UNL A   1      35.832  21.592  25.933  1.00  0.00    -0.361 OA
ATOM     22  C   UNL A   1      36.673  22.948  23.756  1.00  0.00     0.091 C 
ENDBRANCH  14  16
ENDBRANCH  11  14
ENDBRANCH   8  11
ENDBRANCH   6   8
ENDBRANCH   5   6
ENDBRANCH   4   5
ENDBRANCH   3   4
ENDBRANCH   2   3
ENDBRANCH   1   2
BRANCH   1  23
ATOM     23  C   UNL A   1      33.495  34.559  28.326  1.00  0.00     0.188 C 
BRANCH  23  24
ATOM     24  O   UNL A   1      32.795  34.725  30.308  1.00  0.00    -0.376 OA
BRANCH  24  25
ATOM     25  C   UNL A   1      33.726  35.645  31.440  1.00  0.00     0.202 C 
BRANCH  25  26
ATOM     26  C   UNL A   1      34.856  34.950  32.451  1.00  0.00     0.261 C 
BRANCH  26  27
ATOM     27  O   UNL A   1      35.894  33.971  31.992  1.00  0.00    -0.460 OA
BRANCH  27  28
ATOM     28  C   UNL A   1      35.494  32.674  31.728  1.00  0.00     0.338 C 
ATOM     29  O   UNL A   1      34.332  32.293  31.680  1.00  0.00    -0.246 OA
BRANCH  28  30
ATOM     30  C   UNL A   1      36.602  31.785  31.211  1.00  0.00     0.060 A 
ATOM     31  C   UNL A   1      37.407  31.037  32.111  1.00  0.00     0.016 A 
ATOM     32  C   UNL A   1      36.913  31.727  29.858  1.00  0.00     0.016 A 
ATOM     33  C   UNL A   1      38.413  30.163  31.669  1.00  0.00     0.010 A 
ATOM     34  C   UNL A   1      38.005  30.951  29.425  1.00  0.00     0.010 A 
ATOM     35  C   UNL A   1      38.759  30.164  30.322  1.00  0.00    -0.014 A 
BRANCH  35  36
ATOM     36  C   UNL A   1      40.052  29.582  29.876  1.00  0.00     0.031 A 
ATOM     37  C   UNL A   1      41.223  30.519  29.761  1.00  0.00     0.074 A 
ATOM     38  C   UNL A   1      40.183  28.288  29.537  1.00  0.00     0.049 A 
ATOM     39  N   UNL A   1      42.372  30.355  29.164  1.00  0.00    -0.248 NA
ATOM     40  C   UNL A   1      41.055  31.836  30.398  1.00  0.00     0.031 C 
ATOM     41  C   UNL A   1      39.155  27.263  29.696  1.00  0.00     0.029 A 
ATOM     42  N   UNL A   1      41.234  27.622  28.949  1.00  0.00    -0.354 N 
ATOM     43  C   UNL A   1      43.047  31.561  29.316  1.00  0.00     0.074 A 
ATOM     44  C   UNL A   1      42.174  32.449  30.049  1.00  0.00     0.031 C 
ATOM     45  C   UNL A   1      39.602  26.109  29.168  1.00  0.00     0.029 A 
ATOM     46  C   UNL A   1      40.926  26.330  28.587  1.00  0.00     0.049 A 
ATOM     47  H   UNL A   1      42.117  28.030  28.800  1.00  0.00     0.167 HD
ATOM     48  C   UNL A   1      44.281  31.897  28.872  1.00  0.00     0.037 A 
ATOM     49  C   UNL A   1      41.612  25.456  27.824  1.00  0.00     0.037 A 
ATOM     50  C   UNL A   1      45.124  30.999  28.128  1.00  0.00     0.049 A 
ATOM     51  C   UNL A   1      42.943  25.878  27.252  1.00  0.00     0.074 A 
ATOM     52  C   UNL A   1      46.391  31.223  27.620  1.00  0.00     0.029 A 
ATOM     53  N   UNL A   1      44.773  29.703  27.775  1.00  0.00    -0.354 N 
ATOM     54  N   UNL A   1      43.574  27.021  27.381  1.00  0.00    -0.248 NA
ATOM     55  C   UNL A   1      43.657  24.891  26.430  1.00  0.00     0.031 C 
ATOM     56  C   UNL A   1      46.777  30.088  26.901  1.00  0.00     0.029 A 
ATOM     57  C   UNL A   1      45.787  29.125  27.030  1.00  0.00     0.049 A 
ATOM     58  H   UNL A   1      43.928  29.261  28.016  1.00  0.00     0.167 HD
ATOM     59  C   UNL A   1      44.772  26.880  26.690  1.00  0.00     0.074 A 
ATOM     60  C   UNL A   1      44.783  25.534  26.154  1.00  0.00     0.031 C 
ATOM     61  C   UNL A   1      45.775  27.778  26.516  1.00  0.00     0.037 A 
BRANCH  48  62
ATOM     62  C   UNL A   1      44.757  33.299  29.132  1.00  0.00     0.057 A 
ATOM     63  C   UNL A   1      45.495  33.639  30.275  1.00  0.00     0.134 A 
ATOM     64  C   UNL A   1      44.474  34.327  28.222  1.00  0.00     0.134 A 
ATOM     65  F   UNL A   1      45.788  32.711  31.197  1.00  0.00    -0.206 F 
ATOM     66  C   UNL A   1      45.903  34.953  30.519  1.00  0.00     0.040 A 
ATOM     67  C   UNL A   1      44.909  35.636  28.437  1.00  0.00     0.040 A 
ATOM     68  F   UNL A   1      43.774  34.077  27.106  1.00  0.00    -0.206 F 
ATOM     69  C   UNL A   1      45.616  35.955  29.594  1.00  0.00     0.006 A 
ENDBRANCH  48  62
BRANCH  49  70
ATOM     70  C   UNL A   1      41.043  24.113  27.523  1.00  0.00     0.057 A 
ATOM     71  C   UNL A   1      39.994  23.955  26.609  1.00  0.00     0.134 A 
ATOM     72  C   UNL A   1      41.523  22.955  28.149  1.00  0.00     0.134 A 
ATOM     73  F   UNL A   1      39.471  25.026  25.992  1.00  0.00    -0.206 F 
ATOM     74  C   UNL A   1      39.434  22.705  26.341  1.00  0.00     0.040 A 
ATOM     75  C   UNL A   1      40.995  21.693  27.867  1.00  0.00     0.040 A 
ATOM     76  F   UNL A   1      42.525  23.030  29.038  1.00  0.00    -0.206 F 
ATOM     77  C   UNL A   1      39.940  21.567  26.966  1.00  0.00     0.006 A 
ENDBRANCH  49  70
BRANCH  61  78
ATOM     78  C   UNL A   1      46.993  27.313  25.766  1.00  0.00     0.057 A 
ATOM     79  C   UNL A   1      47.210  27.631  24.421  1.00  0.00     0.134 A 
ATOM     80  C   UNL A   1      47.984  26.570  26.423  1.00  0.00     0.134 A 
ATOM     81  F   UNL A   1      46.299  28.333  23.730  1.00  0.00    -0.206 F 
ATOM     82  C   UNL A   1      48.352  27.198  23.744  1.00  0.00     0.040 A 
ATOM     83  C   UNL A   1      49.148  26.165  25.769  1.00  0.00     0.040 A 
ATOM     84  F   UNL A   1      47.847  26.243  27.717  1.00  0.00    -0.206 F 
ATOM     85  C   UNL A   1      49.329  26.470  24.422  1.00  0.00     0.006 A 
ENDBRANCH  61  78
ENDBRANCH  35  36
ENDBRANCH  28  30
ENDBRANCH  27  28
ENDBRANCH  26  27
ENDBRANCH  25  26
ENDBRANCH  24  25
ENDBRANCH  23  24
ENDBRANCH   1  23
TORSDOF 21
ENDMDL
MODEL 2
REMARK VINA RESULT:     -11.5      4.911      7.687
REMARK SMILES CC[C@H]([NH2+][C@@H](C)c1c(C)noc1C)C(=O)OCCOCCOCCOC(=O)c1ccc(-c2c3nc(c(-c4c(F)cccc4F)c4ccc([nH]4)c(-c4c(F)cccc4F)c4nc(c(-c5c(F)cccc5F)c5ccc2[nH]5)C=C4)C=C3)cc1
REMARK SMILES IDX 20 1 19 2 18 3 17 4 16 5 14 6 15 7 3 8 2 9 1 10 4 11 5 14
REMARK SMILES IDX 6 15 7 16 8 17 12 18 9 19 10 20 11 21 13 22 21 23 22 24
REMARK SMILES IDX 23 25 24 26 25 27 26 28 27 29 28 30 29 31 81 32 30 33 80 34
REMARK SMILES IDX 31 35 32 36 33 37 74 38 34 39 79 40 73 41 75 42 35 43 78 44
REMARK SMILES IDX 72 45 71 46 36 48 62 49 45 50 61 51 46 52 49 53 60 54 76 55
REMARK SMILES IDX 47 56 48 57 59 59 77 60 50 61 37 62 38 63 43 64 39 65 40 66
REMARK SMILES IDX 42 67 44 68 41 69 63 70 64 71 69 72 65 73 66 74 68 75 70 76
REMARK SMILES IDX 67 77 51 78 52 79 57 80 53 81 54 82 56 83 58 84 55 85
REMARK H PARENT 4 12 4 13 75 47 49 58
REMARK Flexibility Score: inf
ROOT
ATOM      1  C   UNL A   1      35.171  31.003  28.069  1.00  0.00     0.188 C 
ENDROOT
BRANCH   1   2
ATOM      2  O   UNL A   1      34.296  30.150  26.962  1.00  0.00    -0.376 OA
BRANCH   2   3
ATOM      3  C   UNL A   1      33.829  28.662  26.963  1.00  0.00     0.202 C 
BRANCH   3   4
ATOM      4  C   UNL A   1      32.239  27.867  26.636  1.00  0.00     0.261 C 
BRANCH   4   5
ATOM      5  O   UNL A   1      31.686  26.515  27.200  1.00  0.00    -0.459 OA
BRANCH   5   6
ATOM      6  C   UNL A   1      31.199  25.437  26.485  1.00  0.00     0.364 C 
ATOM      7  O   UNL A   1      29.997  25.153  26.498  1.00  0.00    -0.245 OA
BRANCH   6   8
ATOM      8  C   UNL A   1      32.148  24.731  25.379  1.00  0.00     0.293 C 
BRANCH   8   9
ATOM      9  C   UNL A   1      33.463  24.293  26.033  1.00  0.00     0.074 C 
ATOM     10  C   UNL A   1      34.637  24.854  25.256  1.00  0.00     0.011 C 
ENDBRANCH   8   9
BRANCH   8  11
ATOM     11  N   UNL A   1      32.549  25.349  24.104  1.00  0.00    -0.328 N 
ATOM     12  H   UNL A   1      33.271  24.749  23.703  1.00  0.00     0.347 HD
ATOM     13  H   UNL A   1      32.813  26.294  24.380  1.00  0.00     0.347 HD
BRANCH  11  14
ATOM     14  C   UNL A   1      31.584  25.576  23.069  1.00  0.00     0.216 C 
ATOM     15  C   UNL A   1      30.579  24.421  23.154  1.00  0.00     0.081 C 
BRANCH  14  16
ATOM     16  C   UNL A   1      30.996  26.952  23.269  1.00  0.00     0.074 A 
ATOM     17  C   UNL A   1      31.762  28.383  22.392  1.00  0.00     0.090 A 
ATOM     18  C   UNL A   1      29.484  27.285  23.701  1.00  0.00     0.143 A 
ATOM     19  C   UNL A   1      33.265  28.946  23.116  1.00  0.00     0.071 C 
ATOM     20  N   UNL A   1      30.549  29.569  21.915  1.00  0.00    -0.085 NA
ATOM     21  O   UNL A   1      29.015  28.895  23.044  1.00  0.00    -0.361 OA
ATOM     22  C   UNL A   1      28.265  26.442  23.884  1.00  0.00     0.091 C 
ENDBRANCH  14  16
ENDBRANCH  11  14
ENDBRANCH   8  11
ENDBRANCH   6   8
ENDBRANCH   5   6
ENDBRANCH   4   5
ENDBRANCH   3   4
ENDBRANCH   2   3
ENDBRANCH   1   2
BRANCH   1  23
ATOM     23  C   UNL A   1      34.402  32.402  29.125  1.00  0.00     0.188 C 
BRANCH  23  24
ATOM     24  O   UNL A   1      35.336  34.282  28.930  1.00  0.00    -0.376 OA
BRANCH  24  25
ATOM     25  C   UNL A   1      34.391  35.622  28.375  1.00  0.00     0.202 C 
BRANCH  25  26
ATOM     26  C   UNL A   1      32.961  36.077  29.103  1.00  0.00     0.261 C 
BRANCH  26  27
ATOM     27  O   UNL A   1      32.334  35.336  30.246  1.00  0.00    -0.460 OA
BRANCH  27  28
ATOM     28  C   UNL A   1      32.591  35.782  31.529  1.00  0.00     0.338 C 
ATOM     29  O   UNL A   1      31.882  36.556  32.159  1.00  0.00    -0.246 OA
BRANCH  28  30
ATOM     30  C   UNL A   1      33.687  35.016  32.236  1.00  0.00     0.060 A 
ATOM     31  C   UNL A   1      35.031  35.472  32.189  1.00  0.00     0.016 A 
ATOM     32  C   UNL A   1      33.429  33.816  32.886  1.00  0.00     0.016 A 
ATOM     33  C   UNL A   1      36.069  34.817  32.871  1.00  0.00     0.010 A 
ATOM     34  C   UNL A   1      34.489  33.090  33.460  1.00  0.00     0.010 A 
ATOM     35  C   UNL A   1      35.812  33.583  33.460  1.00  0.00    -0.014 A 
BRANCH  35  36
ATOM     36  C   UNL A   1      36.931  32.677  33.830  1.00  0.00     0.031 A 
ATOM     37  C   UNL A   1      37.637  32.954  35.129  1.00  0.00     0.074 A 
ATOM     38  C   UNL A   1      37.345  31.677  33.033  1.00  0.00     0.049 A 
ATOM     39  N   UNL A   1      38.781  32.509  35.573  1.00  0.00    -0.248 NA
ATOM     40  C   UNL A   1      36.954  33.885  36.044  1.00  0.00     0.031 C 
ATOM     41  C   UNL A   1      36.686  31.248  31.802  1.00  0.00     0.029 A 
ATOM     42  N   UNL A   1      38.449  30.862  33.125  1.00  0.00    -0.354 N 
ATOM     43  C   UNL A   1      38.976  33.137  36.797  1.00  0.00     0.074 A 
ATOM     44  C   UNL A   1      37.840  34.002  37.019  1.00  0.00     0.031 C 
ATOM     45  C   UNL A   1      37.426  30.286  31.222  1.00  0.00     0.029 A 
ATOM     46  C   UNL A   1      38.637  30.072  32.014  1.00  0.00     0.049 A 
ATOM     47  H   UNL A   1      39.047  30.848  33.906  1.00  0.00     0.167 HD
ATOM     48  C   UNL A   1      40.017  33.009  37.653  1.00  0.00     0.037 A 
ATOM     49  C   UNL A   1      39.692  29.313  31.657  1.00  0.00     0.037 A 
ATOM     50  C   UNL A   1      41.146  32.153  37.400  1.00  0.00     0.049 A 
ATOM     51  C   UNL A   1      40.890  29.256  32.573  1.00  0.00     0.074 A 
ATOM     52  C   UNL A   1      42.264  31.940  38.186  1.00  0.00     0.029 A 
ATOM     53  N   UNL A   1      41.303  31.375  36.260  1.00  0.00    -0.354 N 
ATOM     54  N   UNL A   1      41.083  29.861  33.722  1.00  0.00    -0.248 NA
ATOM     55  C   UNL A   1      42.016  28.414  32.145  1.00  0.00     0.031 C 
ATOM     56  C   UNL A   1      43.128  31.089  37.491  1.00  0.00     0.029 A 
ATOM     57  C   UNL A   1      42.513  30.703  36.309  1.00  0.00     0.049 A 
ATOM     58  H   UNL A   1      40.651  31.312  35.526  1.00  0.00     0.167 HD
ATOM     59  C   UNL A   1      42.331  29.445  34.172  1.00  0.00     0.074 A 
ATOM     60  C   UNL A   1      42.843  28.526  33.175  1.00  0.00     0.031 C 
ATOM     61  C   UNL A   1      42.994  29.787  35.305  1.00  0.00     0.037 A 
BRANCH  48  62
ATOM     62  C   UNL A   1      40.003  33.849  38.899  1.00  0.00     0.057 A 
ATOM     63  C   UNL A   1      40.682  35.073  38.985  1.00  0.00     0.134 A 
ATOM     64  C   UNL A   1      39.297  33.427  40.035  1.00  0.00     0.134 A 
ATOM     65  F   UNL A   1      41.393  35.531  37.944  1.00  0.00    -0.206 F 
ATOM     66  C   UNL A   1      40.687  35.827  40.161  1.00  0.00     0.040 A 
ATOM     67  C   UNL A   1      39.263  34.190  41.203  1.00  0.00     0.040 A 
ATOM     68  F   UNL A   1      38.622  32.268  40.027  1.00  0.00    -0.206 F 
ATOM     69  C   UNL A   1      39.969  35.389  41.272  1.00  0.00     0.006 A 
ENDBRANCH  48  62
BRANCH  49  70
ATOM     70  C   UNL A   1      39.686  28.577  30.363  1.00  0.00     0.057 A 
ATOM     71  C   UNL A   1      40.259  29.128  29.210  1.00  0.00     0.134 A 
ATOM     72  C   UNL A   1      39.098  27.312  30.240  1.00  0.00     0.134 A 
ATOM     73  F   UNL A   1      40.819  30.347  29.252  1.00  0.00    -0.206 F 
ATOM     74  C   UNL A   1      40.234  28.459  27.984  1.00  0.00     0.040 A 
ATOM     75  C   UNL A   1      39.092  26.616  29.029  1.00  0.00     0.040 A 
ATOM     76  F   UNL A   1      38.527  26.723  31.302  1.00  0.00    -0.206 F 
ATOM     77  C   UNL A   1      39.655  27.195  27.893  1.00  0.00     0.006 A 
ENDBRANCH  49  70
BRANCH  61  78
ATOM     78  C   UNL A   1      44.317  29.118  35.558  1.00  0.00     0.057 A 
ATOM     79  C   UNL A   1      45.530  29.672  35.132  1.00  0.00     0.134 A 
ATOM     80  C   UNL A   1      44.374  27.918  36.280  1.00  0.00     0.134 A 
ATOM     81  F   UNL A   1      45.547  30.815  34.429  1.00  0.00    -0.206 F 
ATOM     82  C   UNL A   1      46.749  29.040  35.384  1.00  0.00     0.040 A 
ATOM     83  C   UNL A   1      45.588  27.297  36.574  1.00  0.00     0.040 A 
ATOM     84  F   UNL A   1      43.250  27.339  36.732  1.00  0.00    -0.206 F 
ATOM     85  C   UNL A   1      46.780  27.853  36.116  1.00  0.00     0.006 A 
ENDBRANCH  61  78
ENDBRANCH  35  36
ENDBRANCH  28  30
ENDBRANCH  27  28
ENDBRANCH  26  27
ENDBRANCH  25  26
ENDBRANCH  24  25
ENDBRANCH  23  24
ENDBRANCH   1  23
TORSDOF 21
ENDMDL
MODEL 3
REMARK VINA RESULT:     -10.9      2.030      3.660
REMARK SMILES CC[C@H]([NH2+][C@@H](C)c1c(C)noc1C)C(=O)OCCOCCOCCOC(=O)c1ccc(-c2c3nc(c(-c4c(F)cccc4F)c4ccc([nH]4)c(-c4c(F)cccc4F)c4nc(c(-c5c(F)cccc5F)c5ccc2[nH]5)C=C4)C=C3)cc1
REMARK SMILES IDX 20 1 19 2 18 3 17 4 16 5 14 6 15 7 3 8 2 9 1 10 4 11 5 14
REMARK SMILES IDX 6 15 7 16 8 17 12 18 9 19 10 20 11 21 13 22 21 23 22 24
REMARK SMILES IDX 23 25 24 26 25 27 26 28 27 29 28 30 29 31 81 32 30 33 80 34
REMARK SMILES IDX 31 35 32 36 33 37 74 38 34 39 79 40 73 41 75 42 35 43 78 44
REMARK SMILES IDX 72 45 71 46 36 48 62 49 45 50 61 51 46 52 49 53 60 54 76 55
REMARK SMILES IDX 47 56 48 57 59 59 77 60 50 61 37 62 38 63 43 64 39 65 40 66
REMARK SMILES IDX 42 67 44 68 41 69 63 70 64 71 69 72 65 73 66 74 68 75 70 76
REMARK SMILES IDX 67 77 51 78 52 79 57 80 53 81 54 82 56 83 58 84 55 85
REMARK H PARENT 4 12 4 13 75 47 49 58
REMARK Flexibility Score: inf
ROOT
ATOM      1  C   UNL A   1      29.893  28.246  22.752  1.00  0.00     0.188 C 
ENDROOT
BRANCH   1   2
ATOM      2  O   UNL A   1      29.253  26.834  23.311  1.00  0.00    -0.376 OA
BRANCH   2   3
ATOM      3  C   UNL A   1      29.930  25.622  24.022  1.00  0.00     0.202 C 
BRANCH   3   4
ATOM      4  C   UNL A   1      30.536  25.359  25.705  1.00  0.00     0.261 C 
BRANCH   4   5
ATOM      5  O   UNL A   1      31.823  25.938  26.383  1.00  0.00    -0.459 OA
BRANCH   5   6
ATOM      6  C   UNL A   1      33.105  25.975  25.870  1.00  0.00     0.364 C 
ATOM      7  O   UNL A   1      33.809  26.984  25.981  1.00  0.00    -0.245 OA
BRANCH   6   8
ATOM      8  C   UNL A   1      33.804  24.594  25.397  1.00  0.00     0.293 C 
BRANCH   8   9
ATOM      9  C   UNL A   1      33.821  24.523  23.866  1.00  0.00     0.074 C 
ATOM     10  C   UNL A   1      32.884  23.430  23.390  1.00  0.00     0.011 C 
ENDBRANCH   8   9
BRANCH   8  11
ATOM     11  N   UNL A   1      33.382  23.251  25.832  1.00  0.00    -0.328 N 
ATOM     12  H   UNL A   1      33.073  22.757  24.994  1.00  0.00     0.347 HD
ATOM     13  H   UNL A   1      32.688  23.451  26.551  1.00  0.00     0.347 HD
BRANCH  11  14
ATOM     14  C   UNL A   1      34.301  22.381  26.504  1.00  0.00     0.216 C 
ATOM     15  C   UNL A   1      33.557  21.828  27.726  1.00  0.00     0.081 C 
BRANCH  14  16
ATOM     16  C   UNL A   1      34.773  21.341  25.517  1.00  0.00     0.074 A 
ATOM     17  C   UNL A   1      36.585  21.051  25.330  1.00  0.00     0.090 A 
ATOM     18  C   UNL A   1      33.930  20.077  24.994  1.00  0.00     0.143 A 
ATOM     19  C   UNL A   1      37.416  22.286  24.390  1.00  0.00     0.071 C 
ATOM     20  N   UNL A   1      36.933  19.354  25.003  1.00  0.00    -0.085 NA
ATOM     21  O   UNL A   1      35.061  18.750  24.542  1.00  0.00    -0.361 OA
ATOM     22  C   UNL A   1      32.608  19.501  25.380  1.00  0.00     0.091 C 
ENDBRANCH  14  16
ENDBRANCH  11  14
ENDBRANCH   8  11
ENDBRANCH   6   8
ENDBRANCH   5   6
ENDBRANCH   4   5
ENDBRANCH   3   4
ENDBRANCH   2   3
ENDBRANCH   1   2
BRANCH   1  23
ATOM     23  C   UNL A   1      30.322  29.707  23.912  1.00  0.00     0.188 C 
BRANCH  23  24
ATOM     24  O   UNL A   1      32.158  29.526  24.932  1.00  0.00    -0.376 OA
BRANCH  24  25
ATOM     25  C   UNL A   1      32.356  30.362  26.434  1.00  0.00     0.202 C 
BRANCH  25  26
ATOM     26  C   UNL A   1      33.700  30.167  27.402  1.00  0.00     0.261 C 
BRANCH  26  27
ATOM     27  O   UNL A   1      34.779  31.197  27.548  1.00  0.00    -0.460 OA
BRANCH  27  28
ATOM     28  C   UNL A   1      35.499  31.223  28.729  1.00  0.00     0.338 C 
ATOM     29  O   UNL A   1      35.095  31.683  29.788  1.00  0.00    -0.246 OA
BRANCH  28  30
ATOM     30  C   UNL A   1      36.748  30.372  28.703  1.00  0.00     0.060 A 
ATOM     31  C   UNL A   1      37.306  29.870  29.909  1.00  0.00     0.016 A 
ATOM     32  C   UNL A   1      37.425  30.115  27.517  1.00  0.00     0.016 A 
ATOM     33  C   UNL A   1      38.435  29.037  29.924  1.00  0.00     0.010 A 
ATOM     34  C   UNL A   1      38.631  29.389  27.544  1.00  0.00     0.010 A 
ATOM     35  C   UNL A   1      39.142  28.843  28.741  1.00  0.00    -0.014 A 
BRANCH  35  36
ATOM     36  C   UNL A   1      40.534  28.323  28.773  1.00  0.00     0.031 A 
ATOM     37  C   UNL A   1      41.634  29.320  29.012  1.00  0.00     0.074 A 
ATOM     38  C   UNL A   1      40.828  27.030  28.551  1.00  0.00     0.049 A 
ATOM     39  N   UNL A   1      42.922  29.206  28.836  1.00  0.00    -0.248 NA
ATOM     40  C   UNL A   1      41.206  30.642  29.501  1.00  0.00     0.031 C 
ATOM     41  C   UNL A   1      39.851  25.953  28.404  1.00  0.00     0.029 A 
ATOM     42  N   UNL A   1      42.042  26.409  28.372  1.00  0.00    -0.354 N 
ATOM     43  C   UNL A   1      43.454  30.451  29.152  1.00  0.00     0.074 A 
ATOM     44  C   UNL A   1      42.349  31.307  29.516  1.00  0.00     0.031 C 
ATOM     45  C   UNL A   1      40.499  24.813  28.103  1.00  0.00     0.029 A 
ATOM     46  C   UNL A   1      41.930  25.094  27.983  1.00  0.00     0.049 A 
ATOM     47  H   UNL A   1      42.906  26.861  28.506  1.00  0.00     0.167 HD
ATOM     48  C   UNL A   1      44.749  30.844  29.127  1.00  0.00     0.037 A 
ATOM     49  C   UNL A   1      42.868  24.240  27.527  1.00  0.00     0.037 A 
ATOM     50  C   UNL A   1      45.831  29.976  28.742  1.00  0.00     0.049 A 
ATOM     51  C   UNL A   1      44.294  24.721  27.411  1.00  0.00     0.074 A 
ATOM     52  C   UNL A   1      47.183  30.258  28.673  1.00  0.00     0.029 A 
ATOM     53  N   UNL A   1      45.675  28.654  28.347  1.00  0.00    -0.354 N 
ATOM     54  N   UNL A   1      44.795  25.901  27.693  1.00  0.00    -0.248 NA
ATOM     55  C   UNL A   1      45.283  23.755  26.912  1.00  0.00     0.031 C 
ATOM     56  C   UNL A   1      47.836  29.128  28.170  1.00  0.00     0.029 A 
ATOM     57  C   UNL A   1      46.903  28.115  28.005  1.00  0.00     0.049 A 
ATOM     58  H   UNL A   1      44.818  28.172  28.314  1.00  0.00     0.167 HD
ATOM     59  C   UNL A   1      46.159  25.810  27.443  1.00  0.00     0.074 A 
ATOM     60  C   UNL A   1      46.407  24.453  26.998  1.00  0.00     0.031 C 
ATOM     61  C   UNL A   1      47.122  26.757  27.573  1.00  0.00     0.037 A 
BRANCH  48  62
ATOM     62  C   UNL A   1      45.050  32.276  29.471  1.00  0.00     0.057 A 
ATOM     63  C   UNL A   1      44.980  33.305  28.521  1.00  0.00     0.134 A 
ATOM     64  C   UNL A   1      45.413  32.634  30.776  1.00  0.00     0.134 A 
ATOM     65  F   UNL A   1      44.656  33.035  27.248  1.00  0.00    -0.206 F 
ATOM     66  C   UNL A   1      45.294  34.626  28.847  1.00  0.00     0.040 A 
ATOM     67  C   UNL A   1      45.693  33.957  31.124  1.00  0.00     0.040 A 
ATOM     68  F   UNL A   1      45.499  31.704  31.740  1.00  0.00    -0.206 F 
ATOM     69  C   UNL A   1      45.645  34.956  30.155  1.00  0.00     0.006 A 
ENDBRANCH  48  62
BRANCH  49  70
ATOM     70  C   UNL A   1      42.492  22.860  27.112  1.00  0.00     0.057 A 
ATOM     71  C   UNL A   1      42.223  21.864  28.059  1.00  0.00     0.134 A 
ATOM     72  C   UNL A   1      42.405  22.498  25.762  1.00  0.00     0.134 A 
ATOM     73  F   UNL A   1      42.312  22.138  29.369  1.00  0.00    -0.206 F 
ATOM     74  C   UNL A   1      41.898  20.559  27.681  1.00  0.00     0.040 A 
ATOM     75  C   UNL A   1      42.049  21.205  25.368  1.00  0.00     0.040 A 
ATOM     76  F   UNL A   1      42.651  23.399  24.800  1.00  0.00    -0.206 F 
ATOM     77  C   UNL A   1      41.803  20.229  26.331  1.00  0.00     0.006 A 
ENDBRANCH  49  70
BRANCH  61  78
ATOM     78  C   UNL A   1      48.539  26.342  27.288  1.00  0.00     0.057 A 
ATOM     79  C   UNL A   1      49.391  25.852  28.284  1.00  0.00     0.134 A 
ATOM     80  C   UNL A   1      49.040  26.395  25.979  1.00  0.00     0.134 A 
ATOM     81  F   UNL A   1      48.978  25.782  29.559  1.00  0.00    -0.206 F 
ATOM     82  C   UNL A   1      50.701  25.463  27.998  1.00  0.00     0.040 A 
ATOM     83  C   UNL A   1      50.333  25.971  25.673  1.00  0.00     0.040 A 
ATOM     84  F   UNL A   1      48.272  26.839  24.972  1.00  0.00    -0.206 F 
ATOM     85  C   UNL A   1      51.171  25.514  26.686  1.00  0.00     0.006 A 
ENDBRANCH  61  78
ENDBRANCH  35  36
ENDBRANCH  28  30
ENDBRANCH  27  28
ENDBRANCH  26  27
ENDBRANCH  25  26
ENDBRANCH  24  25
ENDBRANCH  23  24
ENDBRANCH   1  23
TORSDOF 21
ENDMDL
