MODEL 1
REMARK VINA RESULT:     -11.5      0.000      0.000
REMARK SMILES Cc1ccc(-c2c(C)sc(NC(=O)[C@H]3CC=CC[C@H]3C(=O)OCCOCCOCCOC(=O)c3ccc(-c4c5nc(c(-c6c(F)cccc6F)c6ccc([nH]6)c(-c6c(F)cccc6F)c6nc(c(-c7c(F)cccc7F)c7ccc4[nH]7)C=C6)C=C5)cc3)c2C(N)=O)cc1
REMARK SMILES IDX 26 1 25 2 24 3 23 4 22 5 20 6 21 7 19 8 14 9 15 10 16 11
REMARK SMILES IDX 18 12 17 13 12 14 11 15 13 17 10 18 6 19 7 20 88 21 8 22
REMARK SMILES IDX 9 23 5 24 1 25 2 26 3 27 93 28 4 29 92 30 89 31 90 32 91 33
REMARK SMILES IDX 27 36 28 37 29 38 30 39 31 40 32 41 33 42 34 43 35 44 87 45
REMARK SMILES IDX 36 46 86 47 37 48 38 49 39 50 80 51 40 52 85 53 79 54 81 55
REMARK SMILES IDX 41 56 84 57 78 58 77 59 42 61 68 62 51 63 67 64 52 65 55 66
REMARK SMILES IDX 66 67 82 68 53 69 54 70 65 72 83 73 56 74 43 75 44 76 49 77
REMARK SMILES IDX 45 78 46 79 48 80 50 81 47 82 69 83 70 84 75 85 71 86 72 87
REMARK SMILES IDX 74 88 76 89 73 90 57 91 58 92 63 93 59 94 60 95 62 96 64 97
REMARK SMILES IDX 61 98
REMARK H PARENT 11 16 90 34 90 35 81 60 55 71
REMARK Flexibility Score: inf
ROOT
ATOM      1  C   UNL A   1      30.618  28.687  25.007  1.00  0.00     0.188 C 
ENDROOT
BRANCH   1   2
ATOM      2  O   UNL A   1      29.934  27.486  24.727  1.00  0.00    -0.376 OA
BRANCH   2   3
ATOM      3  C   UNL A   1      29.618  27.340  23.348  1.00  0.00     0.202 C 
BRANCH   3   4
ATOM      4  C   UNL A   1      30.479  28.094  22.283  1.00  0.00     0.261 C 
BRANCH   4   5
ATOM      5  O   UNL A   1      32.144  27.966  22.002  1.00  0.00    -0.463 OA
BRANCH   5   6
ATOM      6  C   UNL A   1      33.284  27.176  22.431  1.00  0.00     0.310 C 
ATOM      7  O   UNL A   1      34.354  27.540  21.934  1.00  0.00    -0.252 OA
BRANCH   6   8
ATOM      8  C   UNL A   1      33.530  26.028  23.613  1.00  0.00     0.116 C 
ATOM      9  C   UNL A   1      33.059  25.669  25.109  1.00  0.00     0.097 C 
ATOM     10  C   UNL A   1      34.313  25.426  25.979  1.00  0.00     0.041 C 
ATOM     11  C   UNL A   1      35.384  24.629  25.291  1.00  0.00    -0.030 C 
ATOM     12  C   UNL A   1      34.244  24.761  23.053  1.00  0.00     0.043 C 
ATOM     13  C   UNL A   1      35.329  24.285  23.995  1.00  0.00    -0.030 C 
BRANCH   9  14
ATOM     14  C   UNL A   1      31.843  24.702  25.502  1.00  0.00     0.229 C 
ATOM     15  N   UNL A   1      31.332  23.601  24.870  1.00  0.00    -0.317 N 
ATOM     16  H   UNL A   1      30.390  23.675  24.592  1.00  0.00     0.170 HD
ATOM     17  O   UNL A   1      31.189  24.997  26.522  1.00  0.00    -0.274 OA
BRANCH  15  18
ATOM     18  C   UNL A   1      31.947  22.394  24.565  1.00  0.00     0.109 A 
ATOM     19  C   UNL A   1      32.788  20.236  24.455  1.00  0.00     0.010 A 
ATOM     20  C   UNL A   1      32.226  20.428  23.202  1.00  0.00     0.012 A 
ATOM     21  C   UNL A   1      32.745  21.471  25.260  1.00  0.00     0.082 A 
ATOM     22  C   UNL A   1      31.832  19.492  22.115  1.00  0.00     0.057 C 
ATOM     23  S   UNL A   1      32.198  22.091  22.908  1.00  0.00    -0.122 S 
BRANCH  19  24
ATOM     24  C   UNL A   1      33.408  18.949  24.745  1.00  0.00    -0.016 A 
ATOM     25  C   UNL A   1      35.336  15.135  25.263  1.00  0.00     0.044 C 
ATOM     26  C   UNL A   1      34.660  16.460  25.078  1.00  0.00    -0.051 A 
ATOM     27  C   UNL A   1      33.336  16.654  25.498  1.00  0.00     0.004 A 
ATOM     28  C   UNL A   1      35.360  17.525  24.506  1.00  0.00     0.004 A 
ATOM     29  C   UNL A   1      32.705  17.893  25.325  1.00  0.00     0.009 A 
ATOM     30  C   UNL A   1      34.743  18.761  24.358  1.00  0.00     0.009 A 
ENDBRANCH  19  24
BRANCH  21  31
ATOM     31  C   UNL A   1      33.445  21.577  26.555  1.00  0.00     0.252 C 
ATOM     32  N   UNL A   1      32.710  21.735  27.704  1.00  0.00    -0.365 N 
ATOM     33  O   UNL A   1      34.651  21.607  26.681  1.00  0.00    -0.269 OA
ATOM     34  H   UNL A   1      31.727  21.721  27.666  1.00  0.00     0.159 HD
ATOM     35  H   UNL A   1      33.167  21.863  28.566  1.00  0.00     0.159 HD
ENDBRANCH  21  31
ENDBRANCH  15  18
ENDBRANCH   9  14
ENDBRANCH   6   8
ENDBRANCH   5   6
ENDBRANCH   4   5
ENDBRANCH   3   4
ENDBRANCH   2   3
ENDBRANCH   1   2
BRANCH   1  36
ATOM     36  C   UNL A   1      31.613  28.564  26.173  1.00  0.00     0.188 C 
BRANCH  36  37
ATOM     37  O   UNL A   1      32.731  29.429  26.065  1.00  0.00    -0.376 OA
BRANCH  37  38
ATOM     38  C   UNL A   1      33.179  30.196  27.161  1.00  0.00     0.202 C 
BRANCH  38  39
ATOM     39  C   UNL A   1      32.510  31.568  27.141  1.00  0.00     0.261 C 
BRANCH  39  40
ATOM     40  O   UNL A   1      33.524  32.599  27.189  1.00  0.00    -0.460 OA
BRANCH  40  41
ATOM     41  C   UNL A   1      33.318  33.517  28.166  1.00  0.00     0.338 C 
ATOM     42  O   UNL A   1      32.480  34.406  28.131  1.00  0.00    -0.246 OA
BRANCH  41  43
ATOM     43  C   UNL A   1      34.506  33.503  29.067  1.00  0.00     0.060 A 
ATOM     44  C   UNL A   1      35.650  33.942  28.483  1.00  0.00     0.016 A 
ATOM     45  C   UNL A   1      34.643  32.758  30.248  1.00  0.00     0.016 A 
ATOM     46  C   UNL A   1      36.871  33.484  29.003  1.00  0.00     0.010 A 
ATOM     47  C   UNL A   1      35.920  32.300  30.726  1.00  0.00     0.010 A 
ATOM     48  C   UNL A   1      37.137  32.613  30.097  1.00  0.00    -0.014 A 
BRANCH  48  49
ATOM     49  C   UNL A   1      38.529  31.806  30.533  1.00  0.00     0.031 A 
ATOM     50  C   UNL A   1      38.752  30.541  29.780  1.00  0.00     0.074 A 
ATOM     51  C   UNL A   1      39.612  32.012  31.447  1.00  0.00     0.049 A 
ATOM     52  N   UNL A   1      39.420  29.533  30.245  1.00  0.00    -0.248 NA
ATOM     53  C   UNL A   1      38.166  30.285  28.471  1.00  0.00     0.031 C 
ATOM     54  C   UNL A   1      41.028  31.623  31.252  1.00  0.00     0.029 A 
ATOM     55  N   UNL A   1      39.807  32.754  32.646  1.00  0.00    -0.354 N 
ATOM     56  C   UNL A   1      39.645  28.701  29.181  1.00  0.00     0.074 A 
ATOM     57  C   UNL A   1      38.711  29.110  28.164  1.00  0.00     0.031 C 
ATOM     58  C   UNL A   1      41.791  31.966  32.320  1.00  0.00     0.029 A 
ATOM     59  C   UNL A   1      40.951  32.518  33.363  1.00  0.00     0.049 A 
ATOM     60  H   UNL A   1      39.141  33.413  32.950  1.00  0.00     0.167 HD
ATOM     61  C   UNL A   1      40.760  27.928  29.101  1.00  0.00     0.037 A 
ATOM     62  C   UNL A   1      41.014  32.435  34.734  1.00  0.00     0.037 A 
ATOM     63  C   UNL A   1      41.704  28.218  30.170  1.00  0.00     0.049 A 
ATOM     64  C   UNL A   1      41.574  31.081  35.040  1.00  0.00     0.074 A 
ATOM     65  C   UNL A   1      42.844  29.008  30.191  1.00  0.00     0.029 A 
ATOM     66  N   UNL A   1      41.404  27.942  31.502  1.00  0.00    -0.354 N 
ATOM     67  N   UNL A   1      41.529  30.124  34.159  1.00  0.00    -0.248 NA
ATOM     68  C   UNL A   1      42.238  30.680  36.271  1.00  0.00     0.031 C 
ATOM     69  C   UNL A   1      43.292  29.116  31.524  1.00  0.00     0.029 A 
ATOM     70  C   UNL A   1      42.418  28.401  32.325  1.00  0.00     0.049 A 
ATOM     71  H   UNL A   1      40.588  27.486  31.812  1.00  0.00     0.167 HD
ATOM     72  C   UNL A   1      42.265  29.068  34.592  1.00  0.00     0.074 A 
ATOM     73  C   UNL A   1      42.643  29.438  35.945  1.00  0.00     0.031 C 
ATOM     74  C   UNL A   1      42.505  28.034  33.736  1.00  0.00     0.037 A 
BRANCH  61  75
ATOM     75  C   UNL A   1      41.117  27.274  27.787  1.00  0.00     0.057 A 
ATOM     76  C   UNL A   1      40.878  25.916  27.530  1.00  0.00     0.134 A 
ATOM     77  C   UNL A   1      41.787  27.961  26.758  1.00  0.00     0.134 A 
ATOM     78  F   UNL A   1      40.143  25.156  28.350  1.00  0.00    -0.206 F 
ATOM     79  C   UNL A   1      41.402  25.257  26.413  1.00  0.00     0.040 A 
ATOM     80  C   UNL A   1      42.363  27.309  25.661  1.00  0.00     0.040 A 
ATOM     81  F   UNL A   1      41.933  29.293  26.809  1.00  0.00    -0.206 F 
ATOM     82  C   UNL A   1      42.186  25.942  25.496  1.00  0.00     0.006 A 
ENDBRANCH  61  75
BRANCH  62  83
ATOM     83  C   UNL A   1      40.017  33.159  35.620  1.00  0.00     0.057 A 
ATOM     84  C   UNL A   1      38.781  32.557  35.910  1.00  0.00     0.134 A 
ATOM     85  C   UNL A   1      40.322  34.282  36.404  1.00  0.00     0.134 A 
ATOM     86  F   UNL A   1      38.306  31.585  35.116  1.00  0.00    -0.206 F 
ATOM     87  C   UNL A   1      38.021  32.888  37.046  1.00  0.00     0.040 A 
ATOM     88  C   UNL A   1      39.618  34.570  37.595  1.00  0.00     0.040 A 
ATOM     89  F   UNL A   1      41.408  35.025  36.142  1.00  0.00    -0.206 F 
ATOM     90  C   UNL A   1      38.493  33.834  37.948  1.00  0.00     0.006 A 
ENDBRANCH  62  83
BRANCH  74  91
ATOM     91  C   UNL A   1      43.009  26.657  34.066  1.00  0.00     0.057 A 
ATOM     92  C   UNL A   1      44.311  26.202  33.837  1.00  0.00     0.134 A 
ATOM     93  C   UNL A   1      42.185  25.750  34.781  1.00  0.00     0.134 A 
ATOM     94  F   UNL A   1      45.245  26.965  33.263  1.00  0.00    -0.206 F 
ATOM     95  C   UNL A   1      44.746  24.936  34.246  1.00  0.00     0.040 A 
ATOM     96  C   UNL A   1      42.626  24.515  35.246  1.00  0.00     0.040 A 
ATOM     97  F   UNL A   1      40.913  26.022  35.101  1.00  0.00    -0.206 F 
ATOM     98  C   UNL A   1      43.910  24.096  34.968  1.00  0.00     0.006 A 
ENDBRANCH  74  91
ENDBRANCH  48  49
ENDBRANCH  41  43
ENDBRANCH  40  41
ENDBRANCH  39  40
ENDBRANCH  38  39
ENDBRANCH  37  38
ENDBRANCH  36  37
ENDBRANCH   1  36
TORSDOF 21
ENDMDL
MODEL 2
REMARK VINA RESULT:     -11.2      3.914      5.419
REMARK SMILES Cc1ccc(-c2c(C)sc(NC(=O)[C@H]3CC=CC[C@H]3C(=O)OCCOCCOCCOC(=O)c3ccc(-c4c5nc(c(-c6c(F)cccc6F)c6ccc([nH]6)c(-c6c(F)cccc6F)c6nc(c(-c7c(F)cccc7F)c7ccc4[nH]7)C=C6)C=C5)cc3)c2C(N)=O)cc1
REMARK SMILES IDX 26 1 25 2 24 3 23 4 22 5 20 6 21 7 19 8 14 9 15 10 16 11
REMARK SMILES IDX 18 12 17 13 12 14 11 15 13 17 10 18 6 19 7 20 88 21 8 22
REMARK SMILES IDX 9 23 5 24 1 25 2 26 3 27 93 28 4 29 92 30 89 31 90 32 91 33
REMARK SMILES IDX 27 36 28 37 29 38 30 39 31 40 32 41 33 42 34 43 35 44 87 45
REMARK SMILES IDX 36 46 86 47 37 48 38 49 39 50 80 51 40 52 85 53 79 54 81 55
REMARK SMILES IDX 41 56 84 57 78 58 77 59 42 61 68 62 51 63 67 64 52 65 55 66
REMARK SMILES IDX 66 67 82 68 53 69 54 70 65 72 83 73 56 74 43 75 44 76 49 77
REMARK SMILES IDX 45 78 46 79 48 80 50 81 47 82 69 83 70 84 75 85 71 86 72 87
REMARK SMILES IDX 74 88 76 89 73 90 57 91 58 92 63 93 59 94 60 95 62 96 64 97
REMARK SMILES IDX 61 98
REMARK H PARENT 11 16 90 34 90 35 81 60 55 71
REMARK Flexibility Score: inf
ROOT
ATOM      1  C   UNL A   1      30.254  31.079  25.020  1.00  0.00     0.188 C 
ENDROOT
BRANCH   1   2
ATOM      2  O   UNL A   1      29.452  31.833  24.141  1.00  0.00    -0.376 OA
BRANCH   2   3
ATOM      3  C   UNL A   1      28.606  31.024  23.334  1.00  0.00     0.202 C 
BRANCH   3   4
ATOM      4  C   UNL A   1      29.226  30.215  22.149  1.00  0.00     0.261 C 
BRANCH   4   5
ATOM      5  O   UNL A   1      30.829  29.703  21.958  1.00  0.00    -0.463 OA
BRANCH   5   6
ATOM      6  C   UNL A   1      31.819  28.880  22.629  1.00  0.00     0.310 C 
ATOM      7  O   UNL A   1      32.983  29.157  22.324  1.00  0.00    -0.252 OA
BRANCH   6   8
ATOM      8  C   UNL A   1      31.771  27.792  23.889  1.00  0.00     0.116 C 
ATOM      9  C   UNL A   1      30.740  27.194  24.972  1.00  0.00     0.097 C 
ATOM     10  C   UNL A   1      31.374  27.308  26.376  1.00  0.00     0.041 C 
ATOM     11  C   UNL A   1      32.833  26.951  26.414  1.00  0.00    -0.030 C 
ATOM     12  C   UNL A   1      33.024  26.867  23.907  1.00  0.00     0.043 C 
ATOM     13  C   UNL A   1      33.560  26.702  25.314  1.00  0.00    -0.030 C 
BRANCH   9  14
ATOM     14  C   UNL A   1      29.869  25.860  24.799  1.00  0.00     0.229 C 
ATOM     15  N   UNL A   1      30.201  24.630  24.301  1.00  0.00    -0.317 N 
ATOM     16  H   UNL A   1      29.689  24.343  23.510  1.00  0.00     0.170 HD
ATOM     17  O   UNL A   1      28.663  25.925  25.107  1.00  0.00    -0.274 OA
BRANCH  15  18
ATOM     18  C   UNL A   1      31.154  23.724  24.749  1.00  0.00     0.109 A 
ATOM     19  C   UNL A   1      33.042  22.476  25.254  1.00  0.00     0.010 A 
ATOM     20  C   UNL A   1      32.444  22.673  26.490  1.00  0.00     0.012 A 
ATOM     21  C   UNL A   1      32.202  22.998  24.160  1.00  0.00     0.082 A 
ATOM     22  C   UNL A   1      32.937  22.537  27.887  1.00  0.00     0.057 C 
ATOM     23  S   UNL A   1      30.799  22.945  26.220  1.00  0.00    -0.122 S 
BRANCH  19  24
ATOM     24  C   UNL A   1      34.289  21.723  25.202  1.00  0.00    -0.016 A 
ATOM     25  C   UNL A   1      38.069  19.707  24.785  1.00  0.00     0.044 C 
ATOM     26  C   UNL A   1      36.751  20.407  24.923  1.00  0.00    -0.051 A 
ATOM     27  C   UNL A   1      35.551  19.680  24.939  1.00  0.00     0.004 A 
ATOM     28  C   UNL A   1      36.712  21.796  25.067  1.00  0.00     0.004 A 
ATOM     29  C   UNL A   1      34.320  20.336  25.069  1.00  0.00     0.009 A 
ATOM     30  C   UNL A   1      35.492  22.443  25.223  1.00  0.00     0.009 A 
ENDBRANCH  19  24
BRANCH  21  31
ATOM     31  C   UNL A   1      32.528  22.744  22.743  1.00  0.00     0.252 C 
ATOM     32  N   UNL A   1      32.862  23.799  21.932  1.00  0.00    -0.365 N 
ATOM     33  O   UNL A   1      32.455  21.657  22.208  1.00  0.00    -0.269 OA
ATOM     34  H   UNL A   1      32.936  24.705  22.308  1.00  0.00     0.159 HD
ATOM     35  H   UNL A   1      33.027  23.650  20.973  1.00  0.00     0.159 HD
ENDBRANCH  21  31
ENDBRANCH  15  18
ENDBRANCH   9  14
ENDBRANCH   6   8
ENDBRANCH   5   6
ENDBRANCH   4   5
ENDBRANCH   3   4
ENDBRANCH   2   3
ENDBRANCH   1   2
BRANCH   1  36
ATOM     36  C   UNL A   1      30.973  31.935  26.077  1.00  0.00     0.188 C 
BRANCH  36  37
ATOM     37  O   UNL A   1      32.064  31.279  26.700  1.00  0.00    -0.376 OA
BRANCH  37  38
ATOM     38  C   UNL A   1      32.993  31.984  27.493  1.00  0.00     0.202 C 
BRANCH  38  39
ATOM     39  C   UNL A   1      34.159  31.070  27.861  1.00  0.00     0.261 C 
BRANCH  39  40
ATOM     40  O   UNL A   1      34.848  31.607  29.015  1.00  0.00    -0.460 OA
BRANCH  40  41
ATOM     41  C   UNL A   1      36.084  32.087  28.733  1.00  0.00     0.338 C 
ATOM     42  O   UNL A   1      36.317  33.138  28.158  1.00  0.00    -0.246 OA
BRANCH  41  43
ATOM     43  C   UNL A   1      37.056  30.964  28.880  1.00  0.00     0.060 A 
ATOM     44  C   UNL A   1      37.992  31.162  29.843  1.00  0.00     0.016 A 
ATOM     45  C   UNL A   1      37.329  29.974  27.924  1.00  0.00     0.016 A 
ATOM     46  C   UNL A   1      39.218  30.491  29.716  1.00  0.00     0.010 A 
ATOM     47  C   UNL A   1      38.612  29.329  27.828  1.00  0.00     0.010 A 
ATOM     48  C   UNL A   1      39.671  29.582  28.718  1.00  0.00    -0.014 A 
BRANCH  48  49
ATOM     49  C   UNL A   1      41.202  29.027  28.364  1.00  0.00     0.031 A 
ATOM     50  C   UNL A   1      41.345  27.548  28.466  1.00  0.00     0.074 A 
ATOM     51  C   UNL A   1      42.451  29.597  27.959  1.00  0.00     0.049 A 
ATOM     52  N   UNL A   1      42.460  26.948  28.737  1.00  0.00    -0.248 NA
ATOM     53  C   UNL A   1      40.216  26.634  28.348  1.00  0.00     0.031 C 
ATOM     54  C   UNL A   1      43.460  28.987  27.062  1.00  0.00     0.029 A 
ATOM     55  N   UNL A   1      43.064  30.879  28.051  1.00  0.00    -0.354 N 
ATOM     56  C   UNL A   1      42.257  25.621  28.463  1.00  0.00     0.074 A 
ATOM     57  C   UNL A   1      40.828  25.453  28.403  1.00  0.00     0.031 C 
ATOM     58  C   UNL A   1      44.532  29.801  26.890  1.00  0.00     0.029 A 
ATOM     59  C   UNL A   1      44.392  30.976  27.726  1.00  0.00     0.049 A 
ATOM     60  H   UNL A   1      42.552  31.668  28.340  1.00  0.00     0.167 HD
ATOM     61  C   UNL A   1      43.263  24.819  28.028  1.00  0.00     0.037 A 
ATOM     62  C   UNL A   1      45.315  31.729  28.413  1.00  0.00     0.037 A 
ATOM     63  C   UNL A   1      44.482  25.568  27.756  1.00  0.00     0.049 A 
ATOM     64  C   UNL A   1      46.380  30.775  28.854  1.00  0.00     0.074 A 
ATOM     65  C   UNL A   1      45.008  26.052  26.568  1.00  0.00     0.029 A 
ATOM     66  N   UNL A   1      45.195  26.193  28.776  1.00  0.00    -0.354 N 
ATOM     67  N   UNL A   1      46.146  29.497  28.925  1.00  0.00    -0.248 NA
ATOM     68  C   UNL A   1      47.750  31.116  29.208  1.00  0.00     0.031 C 
ATOM     69  C   UNL A   1      46.108  26.882  26.869  1.00  0.00     0.029 A 
ATOM     70  C   UNL A   1      46.248  26.918  28.246  1.00  0.00     0.049 A 
ATOM     71  H   UNL A   1      44.980  26.129  29.734  1.00  0.00     0.167 HD
ATOM     72  C   UNL A   1      47.306  28.831  29.157  1.00  0.00     0.074 A 
ATOM     73  C   UNL A   1      48.276  29.888  29.385  1.00  0.00     0.031 C 
ATOM     74  C   UNL A   1      47.314  27.470  29.078  1.00  0.00     0.037 A 
BRANCH  61  75
ATOM     75  C   UNL A   1      42.933  23.465  27.447  1.00  0.00     0.057 A 
ATOM     76  C   UNL A   1      42.583  23.286  26.100  1.00  0.00     0.134 A 
ATOM     77  C   UNL A   1      42.875  22.299  28.232  1.00  0.00     0.134 A 
ATOM     78  F   UNL A   1      42.708  24.265  25.198  1.00  0.00    -0.206 F 
ATOM     79  C   UNL A   1      42.064  22.083  25.610  1.00  0.00     0.040 A 
ATOM     80  C   UNL A   1      42.310  21.103  27.772  1.00  0.00     0.040 A 
ATOM     81  F   UNL A   1      43.337  22.299  29.491  1.00  0.00    -0.206 F 
ATOM     82  C   UNL A   1      41.883  20.999  26.455  1.00  0.00     0.006 A 
ENDBRANCH  61  75
BRANCH  62  83
ATOM     83  C   UNL A   1      44.907  32.964  29.195  1.00  0.00     0.057 A 
ATOM     84  C   UNL A   1      44.744  32.882  30.588  1.00  0.00     0.134 A 
ATOM     85  C   UNL A   1      44.928  34.270  28.681  1.00  0.00     0.134 A 
ATOM     86  F   UNL A   1      44.539  31.691  31.169  1.00  0.00    -0.206 F 
ATOM     87  C   UNL A   1      44.843  34.002  31.433  1.00  0.00     0.040 A 
ATOM     88  C   UNL A   1      45.115  35.395  29.518  1.00  0.00     0.040 A 
ATOM     89  F   UNL A   1      44.946  34.485  27.357  1.00  0.00    -0.206 F 
ATOM     90  C   UNL A   1      45.128  35.254  30.900  1.00  0.00     0.006 A 
ENDBRANCH  62  83
BRANCH  74  91
ATOM     91  C   UNL A   1      48.364  26.519  29.583  1.00  0.00     0.057 A 
ATOM     92  C   UNL A   1      49.378  25.954  28.804  1.00  0.00     0.134 A 
ATOM     93  C   UNL A   1      48.462  26.239  30.971  1.00  0.00     0.134 A 
ATOM     94  F   UNL A   1      49.491  26.194  27.495  1.00  0.00    -0.206 F 
ATOM     95  C   UNL A   1      50.379  25.143  29.349  1.00  0.00     0.040 A 
ATOM     96  C   UNL A   1      49.489  25.485  31.531  1.00  0.00     0.040 A 
ATOM     97  F   UNL A   1      47.586  26.706  31.870  1.00  0.00    -0.206 F 
ATOM     98  C   UNL A   1      50.448  24.921  30.717  1.00  0.00     0.006 A 
ENDBRANCH  74  91
ENDBRANCH  48  49
ENDBRANCH  41  43
ENDBRANCH  40  41
ENDBRANCH  39  40
ENDBRANCH  38  39
ENDBRANCH  37  38
ENDBRANCH  36  37
ENDBRANCH   1  36
TORSDOF 21
ENDMDL
MODEL 3
REMARK VINA RESULT:     -10.6      4.029      6.282
REMARK SMILES Cc1ccc(-c2c(C)sc(NC(=O)[C@H]3CC=CC[C@H]3C(=O)OCCOCCOCCOC(=O)c3ccc(-c4c5nc(c(-c6c(F)cccc6F)c6ccc([nH]6)c(-c6c(F)cccc6F)c6nc(c(-c7c(F)cccc7F)c7ccc4[nH]7)C=C6)C=C5)cc3)c2C(N)=O)cc1
REMARK SMILES IDX 26 1 25 2 24 3 23 4 22 5 20 6 21 7 19 8 14 9 15 10 16 11
REMARK SMILES IDX 18 12 17 13 12 14 11 15 13 17 10 18 6 19 7 20 88 21 8 22
REMARK SMILES IDX 9 23 5 24 1 25 2 26 3 27 93 28 4 29 92 30 89 31 90 32 91 33
REMARK SMILES IDX 27 36 28 37 29 38 30 39 31 40 32 41 33 42 34 43 35 44 87 45
REMARK SMILES IDX 36 46 86 47 37 48 38 49 39 50 80 51 40 52 85 53 79 54 81 55
REMARK SMILES IDX 41 56 84 57 78 58 77 59 42 61 68 62 51 63 67 64 52 65 55 66
REMARK SMILES IDX 66 67 82 68 53 69 54 70 65 72 83 73 56 74 43 75 44 76 49 77
REMARK SMILES IDX 45 78 46 79 48 80 50 81 47 82 69 83 70 84 75 85 71 86 72 87
REMARK SMILES IDX 74 88 76 89 73 90 57 91 58 92 63 93 59 94 60 95 62 96 64 97
REMARK SMILES IDX 61 98
REMARK H PARENT 11 16 90 34 90 35 81 60 55 71
REMARK Flexibility Score: inf
ROOT
ATOM      1  C   UNL A   1      36.313  30.389  27.831  1.00  0.00     0.188 C 
ENDROOT
BRANCH   1   2
ATOM      2  O   UNL A   1      35.557  29.323  27.304  1.00  0.00    -0.376 OA
BRANCH   2   3
ATOM      3  C   UNL A   1      34.167  29.445  27.574  1.00  0.00     0.202 C 
BRANCH   3   4
ATOM      4  C   UNL A   1      33.342  30.554  26.845  1.00  0.00     0.261 C 
BRANCH   4   5
ATOM      5  O   UNL A   1      31.896  30.383  25.979  1.00  0.00    -0.463 OA
BRANCH   5   6
ATOM      6  C   UNL A   1      31.254  29.459  25.061  1.00  0.00     0.310 C 
ATOM      7  O   UNL A   1      30.553  30.013  24.209  1.00  0.00    -0.252 OA
BRANCH   6   8
ATOM      8  C   UNL A   1      31.414  27.832  24.742  1.00  0.00     0.116 C 
ATOM      9  C   UNL A   1      31.753  26.836  23.524  1.00  0.00     0.097 C 
ATOM     10  C   UNL A   1      30.657  25.749  23.452  1.00  0.00     0.041 C 
ATOM     11  C   UNL A   1      30.237  25.220  24.794  1.00  0.00    -0.030 C 
ATOM     12  C   UNL A   1      31.510  26.990  26.050  1.00  0.00     0.043 C 
ATOM     13  C   UNL A   1      30.659  25.740  25.957  1.00  0.00    -0.030 C 
BRANCH   9  14
ATOM     14  C   UNL A   1      33.206  26.266  23.158  1.00  0.00     0.229 C 
ATOM     15  N   UNL A   1      34.091  25.526  23.891  1.00  0.00    -0.317 N 
ATOM     16  H   UNL A   1      34.964  25.952  24.054  1.00  0.00     0.170 HD
ATOM     17  O   UNL A   1      33.671  26.572  22.042  1.00  0.00    -0.274 OA
BRANCH  15  18
ATOM     18  C   UNL A   1      33.940  24.259  24.440  1.00  0.00     0.109 A 
ATOM     19  C   UNL A   1      33.895  22.001  24.966  1.00  0.00     0.010 A 
ATOM     20  C   UNL A   1      34.408  22.589  26.112  1.00  0.00     0.012 A 
ATOM     21  C   UNL A   1      33.479  23.015  23.980  1.00  0.00     0.082 A 
ATOM     22  C   UNL A   1      35.144  22.048  27.286  1.00  0.00     0.057 C 
ATOM     23  S   UNL A   1      33.878  24.193  26.141  1.00  0.00    -0.122 S 
BRANCH  19  24
ATOM     24  C   UNL A   1      33.741  20.551  24.943  1.00  0.00    -0.016 A 
ATOM     25  C   UNL A   1      33.413  16.278  24.550  1.00  0.00     0.044 C 
ATOM     26  C   UNL A   1      33.522  17.766  24.682  1.00  0.00    -0.051 A 
ATOM     27  C   UNL A   1      32.424  18.532  25.100  1.00  0.00     0.004 A 
ATOM     28  C   UNL A   1      34.737  18.401  24.412  1.00  0.00     0.004 A 
ATOM     29  C   UNL A   1      32.528  19.924  25.223  1.00  0.00     0.009 A 
ATOM     30  C   UNL A   1      34.847  19.779  24.559  1.00  0.00     0.009 A 
ENDBRANCH  19  24
BRANCH  21  31
ATOM     31  C   UNL A   1      32.732  22.650  22.760  1.00  0.00     0.252 C 
ATOM     32  N   UNL A   1      33.244  22.990  21.532  1.00  0.00    -0.365 N 
ATOM     33  O   UNL A   1      31.640  22.121  22.758  1.00  0.00    -0.269 OA
ATOM     34  H   UNL A   1      34.125  23.423  21.469  1.00  0.00     0.159 HD
ATOM     35  H   UNL A   1      32.728  22.802  20.715  1.00  0.00     0.159 HD
ENDBRANCH  21  31
ENDBRANCH  15  18
ENDBRANCH   9  14
ENDBRANCH   6   8
ENDBRANCH   5   6
ENDBRANCH   4   5
ENDBRANCH   3   4
ENDBRANCH   2   3
ENDBRANCH   1   2
BRANCH   1  36
ATOM     36  C   UNL A   1      36.062  30.633  29.329  1.00  0.00     0.188 C 
BRANCH  36  37
ATOM     37  O   UNL A   1      35.874  31.997  29.664  1.00  0.00    -0.376 OA
BRANCH  37  38
ATOM     38  C   UNL A   1      34.776  32.421  30.441  1.00  0.00     0.202 C 
BRANCH  38  39
ATOM     39  C   UNL A   1      35.154  32.416  31.920  1.00  0.00     0.261 C 
BRANCH  39  40
ATOM     40  O   UNL A   1      36.465  33.008  32.085  1.00  0.00    -0.460 OA
BRANCH  40  41
ATOM     41  C   UNL A   1      37.280  32.298  32.903  1.00  0.00     0.338 C 
ATOM     42  O   UNL A   1      37.017  31.973  34.051  1.00  0.00    -0.246 OA
BRANCH  41  43
ATOM     43  C   UNL A   1      38.654  32.331  32.323  1.00  0.00     0.060 A 
ATOM     44  C   UNL A   1      38.704  32.775  31.041  1.00  0.00     0.016 A 
ATOM     45  C   UNL A   1      39.770  31.622  32.793  1.00  0.00     0.016 A 
ATOM     46  C   UNL A   1      39.779  32.354  30.242  1.00  0.00     0.010 A 
ATOM     47  C   UNL A   1      40.837  31.202  31.923  1.00  0.00     0.010 A 
ATOM     48  C   UNL A   1      40.888  31.519  30.556  1.00  0.00    -0.014 A 
BRANCH  48  49
ATOM     49  C   UNL A   1      41.987  30.751  29.566  1.00  0.00     0.031 A 
ATOM     50  C   UNL A   1      41.921  29.264  29.633  1.00  0.00     0.074 A 
ATOM     51  C   UNL A   1      42.994  31.139  28.625  1.00  0.00     0.049 A 
ATOM     52  N   UNL A   1      42.928  28.486  29.389  1.00  0.00    -0.248 NA
ATOM     53  C   UNL A   1      40.730  28.543  30.062  1.00  0.00     0.031 C 
ATOM     54  C   UNL A   1      43.380  30.424  27.387  1.00  0.00     0.029 A 
ATOM     55  N   UNL A   1      43.779  32.304  28.396  1.00  0.00    -0.354 N 
ATOM     56  C   UNL A   1      42.413  27.222  29.273  1.00  0.00     0.074 A 
ATOM     57  C   UNL A   1      41.103  27.281  29.868  1.00  0.00     0.031 C 
ATOM     58  C   UNL A   1      44.375  31.068  26.727  1.00  0.00     0.029 A 
ATOM     59  C   UNL A   1      44.816  32.209  27.504  1.00  0.00     0.049 A 
ATOM     60  H   UNL A   1      43.585  33.149  28.862  1.00  0.00     0.167 HD
ATOM     61  C   UNL A   1      42.975  26.295  28.453  1.00  0.00     0.037 A 
ATOM     62  C   UNL A   1      46.056  32.777  27.680  1.00  0.00     0.037 A 
ATOM     63  C   UNL A   1      44.043  26.858  27.640  1.00  0.00     0.049 A 
ATOM     64  C   UNL A   1      47.039  31.648  27.619  1.00  0.00     0.074 A 
ATOM     65  C   UNL A   1      44.050  27.310  26.329  1.00  0.00     0.029 A 
ATOM     66  N   UNL A   1      45.228  27.316  28.211  1.00  0.00    -0.354 N 
ATOM     67  N   UNL A   1      46.660  30.420  27.824  1.00  0.00    -0.248 NA
ATOM     68  C   UNL A   1      48.456  31.755  27.308  1.00  0.00     0.031 C 
ATOM     69  C   UNL A   1      45.285  27.944  26.079  1.00  0.00     0.029 A 
ATOM     70  C   UNL A   1      46.032  27.892  27.243  1.00  0.00     0.049 A 
ATOM     71  H   UNL A   1      45.459  27.240  29.165  1.00  0.00     0.167 HD
ATOM     72  C   UNL A   1      47.677  29.572  27.526  1.00  0.00     0.074 A 
ATOM     73  C   UNL A   1      48.801  30.454  27.263  1.00  0.00     0.031 C 
ATOM     74  C   UNL A   1      47.431  28.232  27.490  1.00  0.00     0.037 A 
BRANCH  61  75
ATOM     75  C   UNL A   1      42.206  25.038  28.121  1.00  0.00     0.057 A 
ATOM     76  C   UNL A   1      42.450  23.813  28.759  1.00  0.00     0.134 A 
ATOM     77  C   UNL A   1      41.249  24.987  27.090  1.00  0.00     0.134 A 
ATOM     78  F   UNL A   1      43.235  23.717  29.838  1.00  0.00    -0.206 F 
ATOM     79  C   UNL A   1      41.905  22.606  28.307  1.00  0.00     0.040 A 
ATOM     80  C   UNL A   1      40.736  23.784  26.592  1.00  0.00     0.040 A 
ATOM     81  F   UNL A   1      40.810  26.114  26.511  1.00  0.00    -0.206 F 
ATOM     82  C   UNL A   1      41.081  22.581  27.192  1.00  0.00     0.006 A 
ENDBRANCH  61  75
BRANCH  62  83
ATOM     83  C   UNL A   1      46.247  34.021  28.527  1.00  0.00     0.057 A 
ATOM     84  C   UNL A   1      46.530  33.892  29.897  1.00  0.00     0.134 A 
ATOM     85  C   UNL A   1      46.424  35.313  28.008  1.00  0.00     0.134 A 
ATOM     86  F   UNL A   1      46.235  32.751  30.537  1.00  0.00    -0.206 F 
ATOM     87  C   UNL A   1      47.175  34.898  30.638  1.00  0.00     0.040 A 
ATOM     88  C   UNL A   1      47.148  36.303  28.713  1.00  0.00     0.040 A 
ATOM     89  F   UNL A   1      46.064  35.601  26.748  1.00  0.00    -0.206 F 
ATOM     90  C   UNL A   1      47.574  36.075  30.016  1.00  0.00     0.006 A 
ENDBRANCH  62  83
BRANCH  74  91
ATOM     91  C   UNL A   1      48.429  27.106  27.494  1.00  0.00     0.057 A 
ATOM     92  C   UNL A   1      48.696  26.274  28.584  1.00  0.00     0.134 A 
ATOM     93  C   UNL A   1      49.082  26.731  26.291  1.00  0.00     0.134 A 
ATOM     94  F   UNL A   1      48.092  26.426  29.766  1.00  0.00    -0.206 F 
ATOM     95  C   UNL A   1      49.574  25.187  28.500  1.00  0.00     0.040 A 
ATOM     96  C   UNL A   1      49.907  25.616  26.181  1.00  0.00     0.040 A 
ATOM     97  F   UNL A   1      48.933  27.405  25.143  1.00  0.00    -0.206 F 
ATOM     98  C   UNL A   1      50.167  24.844  27.294  1.00  0.00     0.006 A 
ENDBRANCH  74  91
ENDBRANCH  48  49
ENDBRANCH  41  43
ENDBRANCH  40  41
ENDBRANCH  39  40
ENDBRANCH  38  39
ENDBRANCH  37  38
ENDBRANCH  36  37
ENDBRANCH   1  36
TORSDOF 21
ENDMDL
