MODEL 1
REMARK VINA RESULT:     -10.7      0.000      0.000
REMARK SMILES CSc1nc(N)cc(Nc2cccc(C(=O)OCCOCCOCCOC(=O)c3ccc(-c4c5nc(c(-c6c(F)cccc6F)c6ccc([nH]6)c(-c6c(F)cccc6F)c6nc(c(-c7c(F)cccc7F)c7ccc4[nH]7)C=C6)C=C5)cc3)c2)n1
REMARK SMILES IDX 21 1 20 2 19 3 18 4 17 5 15 6 16 7 14 8 10 9 11 10 83 11
REMARK SMILES IDX 12 12 13 13 9 14 8 16 3 17 4 18 84 19 5 20 7 21 2 22 1 23
REMARK SMILES IDX 6 24 22 27 23 28 24 29 25 30 26 31 27 32 28 33 29 34 30 35
REMARK SMILES IDX 82 36 31 37 81 38 32 39 33 40 34 41 75 42 35 43 80 44 74 45
REMARK SMILES IDX 76 46 36 47 79 48 73 49 72 50 37 52 63 53 46 54 62 55 47 56
REMARK SMILES IDX 50 57 61 58 77 59 48 60 49 61 60 63 78 64 51 65 38 66 39 67
REMARK SMILES IDX 44 68 40 69 41 70 43 71 45 72 42 73 64 74 65 75 70 76 66 77
REMARK SMILES IDX 67 78 69 79 71 80 68 81 52 82 53 83 58 84 54 85 55 86 57 87
REMARK SMILES IDX 59 88 56 89
REMARK H PARENT 9 15 6 25 6 26 76 51 50 62
REMARK Flexibility Score: inf
ROOT
ATOM      1  C   UNL A   1      43.917  18.537  25.373  1.00  0.00     0.188 C 
ENDROOT
BRANCH   1   2
ATOM      2  O   UNL A   1      42.607  18.893  25.756  1.00  0.00    -0.376 OA
BRANCH   2   3
ATOM      3  C   UNL A   1      42.375  19.738  26.871  1.00  0.00     0.202 C 
BRANCH   3   4
ATOM      4  C   UNL A   1      41.044  20.448  27.164  1.00  0.00     0.261 C 
BRANCH   4   5
ATOM      5  O   UNL A   1      40.431  21.110  26.057  1.00  0.00    -0.460 OA
BRANCH   5   6
ATOM      6  C   UNL A   1      39.284  20.541  25.596  1.00  0.00     0.338 C 
ATOM      7  O   UNL A   1      39.107  19.364  25.326  1.00  0.00    -0.246 OA
BRANCH   6   8
ATOM      8  C   UNL A   1      38.184  21.524  25.695  1.00  0.00     0.062 A 
ATOM      9  C   UNL A   1      35.816  22.073  25.589  1.00  0.00     0.040 A 
ATOM     10  C   UNL A   1      36.139  23.414  25.830  1.00  0.00     0.026 A 
ATOM     11  C   UNL A   1      36.862  21.145  25.466  1.00  0.00     0.041 A 
ATOM     12  C   UNL A   1      37.470  23.805  26.019  1.00  0.00     0.003 A 
ATOM     13  C   UNL A   1      38.491  22.856  25.981  1.00  0.00     0.016 A 
BRANCH   9  14
ATOM     14  N   UNL A   1      34.471  21.646  25.639  1.00  0.00    -0.340 N 
ATOM     15  H   UNL A   1      34.218  21.008  26.343  1.00  0.00     0.168 HD
BRANCH  14  16
ATOM     16  C   UNL A   1      33.467  22.075  24.748  1.00  0.00     0.137 A 
ATOM     17  C   UNL A   1      31.806  23.585  24.241  1.00  0.00     0.191 A 
ATOM     18  N   UNL A   1      31.423  22.928  23.145  1.00  0.00    -0.206 NA
ATOM     19  N   UNL A   1      32.815  23.211  25.025  1.00  0.00    -0.205 NA
ATOM     20  C   UNL A   1      32.109  21.815  22.855  1.00  0.00     0.130 A 
ATOM     21  C   UNL A   1      33.126  21.323  23.650  1.00  0.00     0.093 A 
BRANCH  17  22
ATOM     22  S   UNL A   1      30.939  25.026  24.812  1.00  0.00    -0.090 SA
ATOM     23  C   UNL A   1      31.319  26.194  23.497  1.00  0.00     0.094 C 
ENDBRANCH  17  22
BRANCH  20  24
ATOM     24  N   UNL A   1      31.701  21.120  21.731  1.00  0.00    -0.383 N 
ATOM     25  H   UNL A   1      31.098  20.348  21.821  1.00  0.00     0.158 HD
ATOM     26  H   UNL A   1      32.016  21.398  20.839  1.00  0.00     0.158 HD
ENDBRANCH  20  24
ENDBRANCH  14  16
ENDBRANCH   9  14
ENDBRANCH   6   8
ENDBRANCH   5   6
ENDBRANCH   4   5
ENDBRANCH   3   4
ENDBRANCH   2   3
ENDBRANCH   1   2
BRANCH   1  27
ATOM     27  C   UNL A   1      44.543  19.131  24.093  1.00  0.00     0.188 C 
BRANCH  27  28
ATOM     28  O   UNL A   1      45.112  20.422  24.090  1.00  0.00    -0.376 OA
BRANCH  28  29
ATOM     29  C   UNL A   1      45.785  20.900  25.241  1.00  0.00     0.202 C 
BRANCH  29  30
ATOM     30  C   UNL A   1      45.566  22.310  25.807  1.00  0.00     0.261 C 
BRANCH  30  31
ATOM     31  O   UNL A   1      44.319  22.535  26.475  1.00  0.00    -0.460 OA
BRANCH  31  32
ATOM     32  C   UNL A   1      43.390  23.214  25.755  1.00  0.00     0.338 C 
ATOM     33  O   UNL A   1      42.927  22.924  24.669  1.00  0.00    -0.246 OA
BRANCH  32  34
ATOM     34  C   UNL A   1      42.882  24.330  26.572  1.00  0.00     0.060 A 
ATOM     35  C   UNL A   1      43.513  25.581  26.493  1.00  0.00     0.016 A 
ATOM     36  C   UNL A   1      41.813  24.123  27.441  1.00  0.00     0.016 A 
ATOM     37  C   UNL A   1      43.072  26.635  27.293  1.00  0.00     0.010 A 
ATOM     38  C   UNL A   1      41.392  25.170  28.258  1.00  0.00     0.010 A 
ATOM     39  C   UNL A   1      42.031  26.424  28.203  1.00  0.00    -0.014 A 
BRANCH  39  40
ATOM     40  C   UNL A   1      41.697  27.437  29.229  1.00  0.00     0.031 A 
ATOM     41  C   UNL A   1      42.460  27.419  30.522  1.00  0.00     0.074 A 
ATOM     42  C   UNL A   1      40.694  28.312  29.045  1.00  0.00     0.049 A 
ATOM     43  N   UNL A   1      42.237  28.074  31.631  1.00  0.00    -0.248 NA
ATOM     44  C   UNL A   1      43.630  26.527  30.571  1.00  0.00     0.031 C 
ATOM     45  C   UNL A   1      39.918  28.465  27.817  1.00  0.00     0.029 A 
ATOM     46  N   UNL A   1      40.142  29.221  29.913  1.00  0.00    -0.354 N 
ATOM     47  C   UNL A   1      43.218  27.653  32.519  1.00  0.00     0.074 A 
ATOM     48  C   UNL A   1      44.030  26.677  31.824  1.00  0.00     0.031 C 
ATOM     49  C   UNL A   1      38.972  29.400  28.016  1.00  0.00     0.029 A 
ATOM     50  C   UNL A   1      39.047  29.871  29.399  1.00  0.00     0.049 A 
ATOM     51  H   UNL A   1      40.496  29.389  30.815  1.00  0.00     0.167 HD
ATOM     52  C   UNL A   1      43.419  28.041  33.800  1.00  0.00     0.037 A 
ATOM     53  C   UNL A   1      38.185  30.719  29.994  1.00  0.00     0.037 A 
ATOM     54  C   UNL A   1      42.602  29.007  34.485  1.00  0.00     0.049 A 
ATOM     55  C   UNL A   1      38.370  31.063  31.449  1.00  0.00     0.074 A 
ATOM     56  C   UNL A   1      42.738  29.491  35.774  1.00  0.00     0.029 A 
ATOM     57  N   UNL A   1      41.485  29.624  33.940  1.00  0.00    -0.354 N 
ATOM     58  N   UNL A   1      39.310  30.682  32.279  1.00  0.00    -0.248 NA
ATOM     59  C   UNL A   1      37.365  31.951  32.054  1.00  0.00     0.031 C 
ATOM     60  C   UNL A   1      41.667  30.354  36.031  1.00  0.00     0.029 A 
ATOM     61  C   UNL A   1      40.903  30.459  34.879  1.00  0.00     0.049 A 
ATOM     62  H   UNL A   1      41.156  29.489  33.023  1.00  0.00     0.167 HD
ATOM     63  C   UNL A   1      39.037  31.314  33.487  1.00  0.00     0.074 A 
ATOM     64  C   UNL A   1      37.839  32.103  33.282  1.00  0.00     0.031 C 
ATOM     65  C   UNL A   1      39.721  31.256  34.656  1.00  0.00     0.037 A 
BRANCH  52  66
ATOM     66  C   UNL A   1      44.533  27.377  34.555  1.00  0.00     0.057 A 
ATOM     67  C   UNL A   1      44.338  26.206  35.299  1.00  0.00     0.134 A 
ATOM     68  C   UNL A   1      45.825  27.918  34.529  1.00  0.00     0.134 A 
ATOM     69  F   UNL A   1      43.122  25.644  35.378  1.00  0.00    -0.206 F 
ATOM     70  C   UNL A   1      45.379  25.616  36.017  1.00  0.00     0.040 A 
ATOM     71  C   UNL A   1      46.881  27.320  35.218  1.00  0.00     0.040 A 
ATOM     72  F   UNL A   1      46.083  29.035  33.833  1.00  0.00    -0.206 F 
ATOM     73  C   UNL A   1      46.657  26.171  35.973  1.00  0.00     0.006 A 
ENDBRANCH  52  66
BRANCH  53  74
ATOM     74  C   UNL A   1      37.058  31.301  29.220  1.00  0.00     0.057 A 
ATOM     75  C   UNL A   1      35.927  30.535  28.918  1.00  0.00     0.134 A 
ATOM     76  C   UNL A   1      37.089  32.619  28.751  1.00  0.00     0.134 A 
ATOM     77  F   UNL A   1      35.851  29.257  29.317  1.00  0.00    -0.206 F 
ATOM     78  C   UNL A   1      34.872  31.053  28.165  1.00  0.00     0.040 A 
ATOM     79  C   UNL A   1      36.030  33.159  28.019  1.00  0.00     0.040 A 
ATOM     80  F   UNL A   1      38.146  33.404  29.002  1.00  0.00    -0.206 F 
ATOM     81  C   UNL A   1      34.920  32.372  27.718  1.00  0.00     0.006 A 
ENDBRANCH  53  74
BRANCH  65  82
ATOM     82  C   UNL A   1      39.239  32.112  35.792  1.00  0.00     0.057 A 
ATOM     83  C   UNL A   1      39.646  33.442  35.950  1.00  0.00     0.134 A 
ATOM     84  C   UNL A   1      38.295  31.613  36.700  1.00  0.00     0.134 A 
ATOM     85  F   UNL A   1      40.556  33.978  35.123  1.00  0.00    -0.206 F 
ATOM     86  C   UNL A   1      39.144  34.240  36.980  1.00  0.00     0.040 A 
ATOM     87  C   UNL A   1      37.763  32.410  37.715  1.00  0.00     0.040 A 
ATOM     88  F   UNL A   1      37.853  30.350  36.598  1.00  0.00    -0.206 F 
ATOM     89  C   UNL A   1      38.191  33.727  37.859  1.00  0.00     0.006 A 
ENDBRANCH  65  82
ENDBRANCH  39  40
ENDBRANCH  32  34
ENDBRANCH  31  32
ENDBRANCH  30  31
ENDBRANCH  29  30
ENDBRANCH  28  29
ENDBRANCH  27  28
ENDBRANCH   1  27
TORSDOF 21
ENDMDL
MODEL 2
REMARK VINA RESULT:     -10.3      5.195     10.077
REMARK SMILES CSc1nc(N)cc(Nc2cccc(C(=O)OCCOCCOCCOC(=O)c3ccc(-c4c5nc(c(-c6c(F)cccc6F)c6ccc([nH]6)c(-c6c(F)cccc6F)c6nc(c(-c7c(F)cccc7F)c7ccc4[nH]7)C=C6)C=C5)cc3)c2)n1
REMARK SMILES IDX 21 1 20 2 19 3 18 4 17 5 15 6 16 7 14 8 10 9 11 10 83 11
REMARK SMILES IDX 12 12 13 13 9 14 8 16 3 17 4 18 84 19 5 20 7 21 2 22 1 23
REMARK SMILES IDX 6 24 22 27 23 28 24 29 25 30 26 31 27 32 28 33 29 34 30 35
REMARK SMILES IDX 82 36 31 37 81 38 32 39 33 40 34 41 75 42 35 43 80 44 74 45
REMARK SMILES IDX 76 46 36 47 79 48 73 49 72 50 37 52 63 53 46 54 62 55 47 56
REMARK SMILES IDX 50 57 61 58 77 59 48 60 49 61 60 63 78 64 51 65 38 66 39 67
REMARK SMILES IDX 44 68 40 69 41 70 43 71 45 72 42 73 64 74 65 75 70 76 66 77
REMARK SMILES IDX 67 78 69 79 71 80 68 81 52 82 53 83 58 84 54 85 55 86 57 87
REMARK SMILES IDX 59 88 56 89
REMARK H PARENT 9 15 6 25 6 26 76 51 50 62
REMARK Flexibility Score: inf
ROOT
ATOM      1  C   UNL A   1      33.584  31.019  27.644  1.00  0.00     0.188 C 
ENDROOT
BRANCH   1   2
ATOM      2  O   UNL A   1      33.560  30.138  26.543  1.00  0.00    -0.376 OA
BRANCH   2   3
ATOM      3  C   UNL A   1      32.770  28.960  26.566  1.00  0.00     0.202 C 
BRANCH   3   4
ATOM      4  C   UNL A   1      31.886  28.482  25.403  1.00  0.00     0.261 C 
BRANCH   4   5
ATOM      5  O   UNL A   1      31.993  27.098  25.065  1.00  0.00    -0.460 OA
BRANCH   5   6
ATOM      6  C   UNL A   1      31.757  26.227  26.082  1.00  0.00     0.338 C 
ATOM      7  O   UNL A   1      30.808  26.234  26.848  1.00  0.00    -0.246 OA
BRANCH   6   8
ATOM      8  C   UNL A   1      32.709  25.100  25.983  1.00  0.00     0.062 A 
ATOM      9  C   UNL A   1      33.204  22.723  26.139  1.00  0.00     0.040 A 
ATOM     10  C   UNL A   1      34.543  23.005  25.842  1.00  0.00     0.026 A 
ATOM     11  C   UNL A   1      32.306  23.795  26.262  1.00  0.00     0.041 A 
ATOM     12  C   UNL A   1      34.960  24.319  25.601  1.00  0.00     0.003 A 
ATOM     13  C   UNL A   1      34.038  25.364  25.642  1.00  0.00     0.016 A 
BRANCH   9  14
ATOM     14  N   UNL A   1      32.743  21.388  26.142  1.00  0.00    -0.340 N 
ATOM     15  H   UNL A   1      32.508  20.985  27.009  1.00  0.00     0.168 HD
BRANCH  14  16
ATOM     16  C   UNL A   1      32.598  20.594  24.987  1.00  0.00     0.137 A 
ATOM     17  C   UNL A   1      32.889  18.558  23.955  1.00  0.00     0.191 A 
ATOM     18  N   UNL A   1      32.464  19.000  22.770  1.00  0.00    -0.206 NA
ATOM     19  N   UNL A   1      32.939  19.302  25.058  1.00  0.00    -0.205 NA
ATOM     20  C   UNL A   1      32.087  20.284  22.721  1.00  0.00     0.130 A 
ATOM     21  C   UNL A   1      32.167  21.140  23.802  1.00  0.00     0.093 A 
BRANCH  17  22
ATOM     22  S   UNL A   1      33.511  16.907  24.163  1.00  0.00    -0.090 SA
ATOM     23  C   UNL A   1      32.582  16.375  25.609  1.00  0.00     0.094 C 
ENDBRANCH  17  22
BRANCH  20  24
ATOM     24  N   UNL A   1      31.665  20.751  21.489  1.00  0.00    -0.383 N 
ATOM     25  H   UNL A   1      31.737  21.709  21.274  1.00  0.00     0.158 HD
ATOM     26  H   UNL A   1      31.290  20.125  20.827  1.00  0.00     0.158 HD
ENDBRANCH  20  24
ENDBRANCH  14  16
ENDBRANCH   9  14
ENDBRANCH   6   8
ENDBRANCH   5   6
ENDBRANCH   4   5
ENDBRANCH   3   4
ENDBRANCH   2   3
ENDBRANCH   1   2
BRANCH   1  27
ATOM     27  C   UNL A   1      34.493  32.266  27.625  1.00  0.00     0.188 C 
BRANCH  27  28
ATOM     28  O   UNL A   1      33.999  33.535  27.993  1.00  0.00    -0.376 OA
BRANCH  28  29
ATOM     29  C   UNL A   1      34.571  34.225  29.090  1.00  0.00     0.202 C 
BRANCH  29  30
ATOM     30  C   UNL A   1      34.289  33.844  30.551  1.00  0.00     0.261 C 
BRANCH  30  31
ATOM     31  O   UNL A   1      34.499  32.470  30.896  1.00  0.00    -0.460 OA
BRANCH  31  32
ATOM     32  C   UNL A   1      35.355  32.257  31.928  1.00  0.00     0.338 C 
ATOM     33  O   UNL A   1      35.194  32.531  33.102  1.00  0.00    -0.246 OA
BRANCH  32  34
ATOM     34  C   UNL A   1      36.503  31.474  31.437  1.00  0.00     0.060 A 
ATOM     35  C   UNL A   1      37.433  30.970  32.357  1.00  0.00     0.016 A 
ATOM     36  C   UNL A   1      36.673  31.278  30.068  1.00  0.00     0.016 A 
ATOM     37  C   UNL A   1      38.548  30.264  31.905  1.00  0.00     0.010 A 
ATOM     38  C   UNL A   1      37.803  30.597  29.617  1.00  0.00     0.010 A 
ATOM     39  C   UNL A   1      38.754  30.104  30.531  1.00  0.00    -0.014 A 
BRANCH  39  40
ATOM     40  C   UNL A   1      40.035  29.578  30.007  1.00  0.00     0.031 A 
ATOM     41  C   UNL A   1      41.191  30.527  29.870  1.00  0.00     0.074 A 
ATOM     42  C   UNL A   1      40.151  28.303  29.601  1.00  0.00     0.049 A 
ATOM     43  N   UNL A   1      42.343  30.355  29.276  1.00  0.00    -0.248 NA
ATOM     44  C   UNL A   1      41.013  31.856  30.475  1.00  0.00     0.031 C 
ATOM     45  C   UNL A   1      39.122  27.274  29.733  1.00  0.00     0.029 A 
ATOM     46  N   UNL A   1      41.188  27.667  28.966  1.00  0.00    -0.354 N 
ATOM     47  C   UNL A   1      43.017  31.562  29.411  1.00  0.00     0.074 A 
ATOM     48  C   UNL A   1      42.140  32.461  30.130  1.00  0.00     0.031 C 
ATOM     49  C   UNL A   1      39.572  26.137  29.175  1.00  0.00     0.029 A 
ATOM     50  C   UNL A   1      40.898  26.375  28.604  1.00  0.00     0.049 A 
ATOM     51  H   UNL A   1      42.055  28.096  28.786  1.00  0.00     0.167 HD
ATOM     52  C   UNL A   1      44.252  31.892  28.968  1.00  0.00     0.037 A 
ATOM     53  C   UNL A   1      41.608  25.502  27.864  1.00  0.00     0.037 A 
ATOM     54  C   UNL A   1      45.115  30.994  28.248  1.00  0.00     0.049 A 
ATOM     55  C   UNL A   1      42.939  25.922  27.298  1.00  0.00     0.074 A 
ATOM     56  C   UNL A   1      46.398  31.220  27.779  1.00  0.00     0.029 A 
ATOM     57  N   UNL A   1      44.775  29.701  27.876  1.00  0.00    -0.354 N 
ATOM     58  N   UNL A   1      43.584  27.055  27.445  1.00  0.00    -0.248 NA
ATOM     59  C   UNL A   1      43.641  24.943  26.453  1.00  0.00     0.031 C 
ATOM     60  C   UNL A   1      46.809  30.087  27.071  1.00  0.00     0.029 A 
ATOM     61  C   UNL A   1      45.810  29.129  27.156  1.00  0.00     0.049 A 
ATOM     62  H   UNL A   1      43.924  29.256  28.093  1.00  0.00     0.167 HD
ATOM     63  C   UNL A   1      44.780  26.910  26.752  1.00  0.00     0.074 A 
ATOM     64  C   UNL A   1      44.771  25.579  26.180  1.00  0.00     0.031 C 
ATOM     65  C   UNL A   1      45.798  27.795  26.609  1.00  0.00     0.037 A 
BRANCH  52  66
ATOM     66  C   UNL A   1      44.717  33.299  29.206  1.00  0.00     0.057 A 
ATOM     67  C   UNL A   1      44.462  34.334  28.297  1.00  0.00     0.134 A 
ATOM     68  C   UNL A   1      45.426  33.623  30.370  1.00  0.00     0.134 A 
ATOM     69  F   UNL A   1      43.801  34.090  27.155  1.00  0.00    -0.206 F 
ATOM     70  C   UNL A   1      44.924  35.632  28.521  1.00  0.00     0.040 A 
ATOM     71  C   UNL A   1      45.867  34.922  30.619  1.00  0.00     0.040 A 
ATOM     72  F   UNL A   1      45.701  32.681  31.285  1.00  0.00    -0.206 F 
ATOM     73  C   UNL A   1      45.625  35.930  29.688  1.00  0.00     0.006 A 
ENDBRANCH  52  66
BRANCH  53  74
ATOM     74  C   UNL A   1      41.076  24.140  27.601  1.00  0.00     0.057 A 
ATOM     75  C   UNL A   1      41.600  23.026  28.268  1.00  0.00     0.134 A 
ATOM     76  C   UNL A   1      40.053  23.913  26.674  1.00  0.00     0.134 A 
ATOM     77  F   UNL A   1      42.601  23.176  29.148  1.00  0.00    -0.206 F 
ATOM     78  C   UNL A   1      41.138  21.735  28.011  1.00  0.00     0.040 A 
ATOM     79  C   UNL A   1      39.562  22.630  26.427  1.00  0.00     0.040 A 
ATOM     80  F   UNL A   1      39.511  24.937  25.999  1.00  0.00    -0.206 F 
ATOM     81  C   UNL A   1      40.109  21.535  27.091  1.00  0.00     0.006 A 
ENDBRANCH  53  74
BRANCH  65  82
ATOM     82  C   UNL A   1      47.019  27.341  25.862  1.00  0.00     0.057 A 
ATOM     83  C   UNL A   1      48.051  26.625  26.482  1.00  0.00     0.134 A 
ATOM     84  C   UNL A   1      47.127  27.566  24.483  1.00  0.00     0.134 A 
ATOM     85  F   UNL A   1      48.016  26.386  27.801  1.00  0.00    -0.206 F 
ATOM     86  C   UNL A   1      49.153  26.163  25.759  1.00  0.00     0.040 A 
ATOM     87  C   UNL A   1      48.208  27.083  23.745  1.00  0.00     0.040 A 
ATOM     88  F   UNL A   1      46.167  28.235  23.825  1.00  0.00    -0.206 F 
ATOM     89  C   UNL A   1      49.227  26.382  24.384  1.00  0.00     0.006 A 
ENDBRANCH  65  82
ENDBRANCH  39  40
ENDBRANCH  32  34
ENDBRANCH  31  32
ENDBRANCH  30  31
ENDBRANCH  29  30
ENDBRANCH  28  29
ENDBRANCH  27  28
ENDBRANCH   1  27
TORSDOF 21
ENDMDL
MODEL 3
REMARK VINA RESULT:     -10.3      1.884      6.578
REMARK SMILES CSc1nc(N)cc(Nc2cccc(C(=O)OCCOCCOCCOC(=O)c3ccc(-c4c5nc(c(-c6c(F)cccc6F)c6ccc([nH]6)c(-c6c(F)cccc6F)c6nc(c(-c7c(F)cccc7F)c7ccc4[nH]7)C=C6)C=C5)cc3)c2)n1
REMARK SMILES IDX 21 1 20 2 19 3 18 4 17 5 15 6 16 7 14 8 10 9 11 10 83 11
REMARK SMILES IDX 12 12 13 13 9 14 8 16 3 17 4 18 84 19 5 20 7 21 2 22 1 23
REMARK SMILES IDX 6 24 22 27 23 28 24 29 25 30 26 31 27 32 28 33 29 34 30 35
REMARK SMILES IDX 82 36 31 37 81 38 32 39 33 40 34 41 75 42 35 43 80 44 74 45
REMARK SMILES IDX 76 46 36 47 79 48 73 49 72 50 37 52 63 53 46 54 62 55 47 56
REMARK SMILES IDX 50 57 61 58 77 59 48 60 49 61 60 63 78 64 51 65 38 66 39 67
REMARK SMILES IDX 44 68 40 69 41 70 43 71 45 72 42 73 64 74 65 75 70 76 66 77
REMARK SMILES IDX 67 78 69 79 71 80 68 81 52 82 53 83 58 84 54 85 55 86 57 87
REMARK SMILES IDX 59 88 56 89
REMARK H PARENT 9 15 6 25 6 26 76 51 50 62
REMARK Flexibility Score: inf
ROOT
ATOM      1  C   UNL A   1      41.737  20.116  27.213  1.00  0.00     0.188 C 
ENDROOT
BRANCH   1   2
ATOM      2  O   UNL A   1      40.395  20.549  27.254  1.00  0.00    -0.376 OA
BRANCH   2   3
ATOM      3  C   UNL A   1      39.887  21.451  26.285  1.00  0.00     0.202 C 
BRANCH   3   4
ATOM      4  C   UNL A   1      38.488  21.357  25.657  1.00  0.00     0.261 C 
BRANCH   4   5
ATOM      5  O   UNL A   1      37.783  22.591  25.512  1.00  0.00    -0.460 OA
BRANCH   5   6
ATOM      6  C   UNL A   1      36.849  22.619  24.523  1.00  0.00     0.338 C 
ATOM      7  O   UNL A   1      37.034  22.423  23.334  1.00  0.00    -0.246 OA
BRANCH   6   8
ATOM      8  C   UNL A   1      35.504  22.688  25.133  1.00  0.00     0.062 A 
ATOM      9  C   UNL A   1      33.358  21.667  25.654  1.00  0.00     0.040 A 
ATOM     10  C   UNL A   1      32.952  22.872  26.242  1.00  0.00     0.026 A 
ATOM     11  C   UNL A   1      34.623  21.611  25.050  1.00  0.00     0.041 A 
ATOM     12  C   UNL A   1      33.819  23.970  26.291  1.00  0.00     0.003 A 
ATOM     13  C   UNL A   1      35.106  23.870  25.763  1.00  0.00     0.016 A 
BRANCH   9  14
ATOM     14  N   UNL A   1      32.580  20.500  25.819  1.00  0.00    -0.340 N 
ATOM     15  H   UNL A   1      32.001  20.442  26.612  1.00  0.00     0.168 HD
BRANCH  14  16
ATOM     16  C   UNL A   1      32.578  19.412  24.923  1.00  0.00     0.137 A 
ATOM     17  C   UNL A   1      32.961  17.174  24.552  1.00  0.00     0.191 A 
ATOM     18  N   UNL A   1      32.717  17.260  23.243  1.00  0.00    -0.206 NA
ATOM     19  N   UNL A   1      32.874  18.197  25.399  1.00  0.00    -0.205 NA
ATOM     20  C   UNL A   1      32.383  18.473  22.785  1.00  0.00     0.130 A 
ATOM     21  C   UNL A   1      32.332  19.598  23.584  1.00  0.00     0.093 A 
BRANCH  17  22
ATOM     22  S   UNL A   1      33.506  15.657  25.298  1.00  0.00    -0.090 SA
ATOM     23  C   UNL A   1      35.291  15.878  25.252  1.00  0.00     0.094 C 
ENDBRANCH  17  22
BRANCH  20  24
ATOM     24  N   UNL A   1      32.149  18.570  21.424  1.00  0.00    -0.383 N 
ATOM     25  H   UNL A   1      31.443  18.028  21.006  1.00  0.00     0.158 HD
ATOM     26  H   UNL A   1      32.692  19.181  20.874  1.00  0.00     0.158 HD
ENDBRANCH  20  24
ENDBRANCH  14  16
ENDBRANCH   9  14
ENDBRANCH   6   8
ENDBRANCH   5   6
ENDBRANCH   4   5
ENDBRANCH   3   4
ENDBRANCH   2   3
ENDBRANCH   1   2
BRANCH   1  27
ATOM     27  C   UNL A   1      42.341  19.575  25.900  1.00  0.00     0.188 C 
BRANCH  27  28
ATOM     28  O   UNL A   1      43.416  20.233  25.265  1.00  0.00    -0.376 OA
BRANCH  28  29
ATOM     29  C   UNL A   1      43.750  21.558  25.634  1.00  0.00     0.202 C 
BRANCH  29  30
ATOM     30  C   UNL A   1      44.053  22.657  24.605  1.00  0.00     0.261 C 
BRANCH  30  31
ATOM     31  O   UNL A   1      43.401  23.915  24.815  1.00  0.00    -0.460 OA
BRANCH  31  32
ATOM     32  C   UNL A   1      44.211  24.927  25.219  1.00  0.00     0.338 C 
ATOM     33  O   UNL A   1      45.275  25.269  24.740  1.00  0.00    -0.246 OA
BRANCH  32  34
ATOM     34  C   UNL A   1      43.523  25.689  26.276  1.00  0.00     0.060 A 
ATOM     35  C   UNL A   1      43.939  26.999  26.558  1.00  0.00     0.016 A 
ATOM     36  C   UNL A   1      42.501  25.090  27.009  1.00  0.00     0.016 A 
ATOM     37  C   UNL A   1      43.328  27.718  27.585  1.00  0.00     0.010 A 
ATOM     38  C   UNL A   1      41.911  25.801  28.053  1.00  0.00     0.010 A 
ATOM     39  C   UNL A   1      42.334  27.109  28.358  1.00  0.00    -0.014 A 
BRANCH  39  40
ATOM     40  C   UNL A   1      41.835  27.745  29.598  1.00  0.00     0.031 A 
ATOM     41  C   UNL A   1      40.601  28.598  29.514  1.00  0.00     0.074 A 
ATOM     42  C   UNL A   1      42.497  27.622  30.760  1.00  0.00     0.049 A 
ATOM     43  N   UNL A   1      40.078  29.395  30.407  1.00  0.00    -0.248 NA
ATOM     44  C   UNL A   1      39.868  28.551  28.239  1.00  0.00     0.031 C 
ATOM     45  C   UNL A   1      43.670  26.780  30.983  1.00  0.00     0.029 A 
ATOM     46  N   UNL A   1      42.284  28.235  31.970  1.00  0.00    -0.354 N 
ATOM     47  C   UNL A   1      38.972  29.969  29.794  1.00  0.00     0.074 A 
ATOM     48  C   UNL A   1      38.907  29.437  28.450  1.00  0.00     0.031 C 
ATOM     49  C   UNL A   1      44.089  26.946  32.250  1.00  0.00     0.029 A 
ATOM     50  C   UNL A   1      43.243  27.942  32.908  1.00  0.00     0.049 A 
ATOM     51  H   UNL A   1      41.520  28.828  32.147  1.00  0.00     0.167 HD
ATOM     52  C   UNL A   1      38.094  30.863  30.305  1.00  0.00     0.037 A 
ATOM     53  C   UNL A   1      43.434  28.451  34.140  1.00  0.00     0.037 A 
ATOM     54  C   UNL A   1      38.169  31.392  31.641  1.00  0.00     0.049 A 
ATOM     55  C   UNL A   1      42.502  29.517  34.654  1.00  0.00     0.074 A 
ATOM     56  C   UNL A   1      37.313  32.281  32.267  1.00  0.00     0.029 A 
ATOM     57  N   UNL A   1      39.171  31.091  32.553  1.00  0.00    -0.354 N 
ATOM     58  N   UNL A   1      41.444  30.040  34.082  1.00  0.00    -0.248 NA
ATOM     59  C   UNL A   1      42.795  30.071  35.985  1.00  0.00     0.031 C 
ATOM     60  C   UNL A   1      37.831  32.566  33.534  1.00  0.00     0.029 A 
ATOM     61  C   UNL A   1      38.973  31.803  33.724  1.00  0.00     0.049 A 
ATOM     62  H   UNL A   1      39.913  30.464  32.391  1.00  0.00     0.167 HD
ATOM     63  C   UNL A   1      40.923  30.949  34.996  1.00  0.00     0.074 A 
ATOM     64  C   UNL A   1      41.783  30.908  36.160  1.00  0.00     0.031 C 
ATOM     65  C   UNL A   1      39.826  31.738  34.885  1.00  0.00     0.037 A 
BRANCH  52  66
ATOM     66  C   UNL A   1      37.010  31.362  29.395  1.00  0.00     0.057 A 
ATOM     67  C   UNL A   1      35.889  30.585  29.072  1.00  0.00     0.134 A 
ATOM     68  C   UNL A   1      37.087  32.646  28.839  1.00  0.00     0.134 A 
ATOM     69  F   UNL A   1      35.760  29.341  29.558  1.00  0.00    -0.206 F 
ATOM     70  C   UNL A   1      34.903  31.054  28.203  1.00  0.00     0.040 A 
ATOM     71  C   UNL A   1      36.093  33.137  27.994  1.00  0.00     0.040 A 
ATOM     72  F   UNL A   1      38.131  33.444  29.111  1.00  0.00    -0.206 F 
ATOM     73  C   UNL A   1      35.001  32.337  27.666  1.00  0.00     0.006 A 
ENDBRANCH  52  66
BRANCH  53  74
ATOM     74  C   UNL A   1      44.561  27.970  34.980  1.00  0.00     0.057 A 
ATOM     75  C   UNL A   1      44.423  26.828  35.777  1.00  0.00     0.134 A 
ATOM     76  C   UNL A   1      45.788  28.641  35.023  1.00  0.00     0.134 A 
ATOM     77  F   UNL A   1      43.262  26.157  35.799  1.00  0.00    -0.206 F 
ATOM     78  C   UNL A   1      45.458  26.379  36.598  1.00  0.00     0.040 A 
ATOM     79  C   UNL A   1      46.841  28.188  35.820  1.00  0.00     0.040 A 
ATOM     80  F   UNL A   1      45.984  29.744  34.287  1.00  0.00    -0.206 F 
ATOM     81  C   UNL A   1      46.675  27.057  36.616  1.00  0.00     0.006 A 
ENDBRANCH  53  74
BRANCH  65  82
ATOM     82  C   UNL A   1      39.446  32.577  36.071  1.00  0.00     0.057 A 
ATOM     83  C   UNL A   1      38.530  32.138  37.035  1.00  0.00     0.134 A 
ATOM     84  C   UNL A   1      40.064  33.817  36.286  1.00  0.00     0.134 A 
ATOM     85  F   UNL A   1      37.893  30.968  36.884  1.00  0.00    -0.206 F 
ATOM     86  C   UNL A   1      38.231  32.909  38.161  1.00  0.00     0.040 A 
ATOM     87  C   UNL A   1      39.796  34.582  37.421  1.00  0.00     0.040 A 
ATOM     88  F   UNL A   1      40.961  34.292  35.407  1.00  0.00    -0.206 F 
ATOM     89  C   UNL A   1      38.874  34.129  38.361  1.00  0.00     0.006 A 
ENDBRANCH  65  82
ENDBRANCH  39  40
ENDBRANCH  32  34
ENDBRANCH  31  32
ENDBRANCH  30  31
ENDBRANCH  29  30
ENDBRANCH  28  29
ENDBRANCH  27  28
ENDBRANCH   1  27
TORSDOF 21
ENDMDL
