MODEL 1
REMARK VINA RESULT:     -11.5      0.000      0.000
REMARK SMILES COc1ccc(/C=C2/C(=O)N(c3ccccc3)C(=O)N=C2OCCOCCOCCOC(=O)c2ccc(-c3c4nc(c(-c5c(F)cccc5F)c5ccc([nH]5)c(-c5c(F)cccc5F)c5nc(c(-c6c(F)cccc6F)c6ccc3[nH]6)C=C5)C=C4)cc2)cc1C(=O)[O-]
REMARK SMILES IDX 27 1 26 2 25 3 24 4 23 5 22 6 21 7 7 8 8 9 9 10 10 11 11 12
REMARK SMILES IDX 20 13 18 14 19 15 6 16 3 17 4 18 89 19 5 20 88 21 2 22 1 23
REMARK SMILES IDX 90 24 91 25 92 26 12 27 13 28 17 29 14 30 16 31 15 32 28 33
REMARK SMILES IDX 29 34 30 35 31 36 32 37 33 38 34 39 35 40 87 41 36 42 86 43
REMARK SMILES IDX 37 44 38 45 39 46 80 47 40 48 85 49 79 50 81 51 41 52 84 53
REMARK SMILES IDX 78 54 77 55 42 57 68 58 51 59 67 60 52 61 55 62 66 63 82 64
REMARK SMILES IDX 53 65 54 66 65 68 83 69 56 70 43 71 44 72 49 73 45 74 46 75
REMARK SMILES IDX 48 76 50 77 47 78 69 79 70 80 75 81 71 82 72 83 74 84 76 85
REMARK SMILES IDX 73 86 57 87 58 88 63 89 59 90 60 91 62 92 64 93 61 94
REMARK H PARENT 81 56 55 67
REMARK Flexibility Score: inf
ROOT
ATOM      1  C   UNL A   1      32.199  29.297  26.196  1.00  0.00     0.188 C 
ENDROOT
BRANCH   1   2
ATOM      2  C   UNL A   1      32.854  27.993  26.695  1.00  0.00     0.188 C 
BRANCH   2   3
ATOM      3  O   UNL A   1      32.208  26.744  26.546  1.00  0.00    -0.376 OA
BRANCH   3   4
ATOM      4  C   UNL A   1      30.796  26.683  26.414  1.00  0.00     0.201 C 
BRANCH   4   5
ATOM      5  C   UNL A   1      30.159  25.355  26.027  1.00  0.00     0.260 C 
BRANCH   5   6
ATOM      6  O   UNL A   1      30.110  25.199  24.592  1.00  0.00    -0.475 OA
BRANCH   6   7
ATOM      7  C   UNL A   1      29.826  26.262  23.822  1.00  0.00     0.231 C 
ATOM      8  C   UNL A   1      32.277  26.440  23.042  1.00  0.00     0.027 C 
ATOM      9  C   UNL A   1      31.000  26.885  23.186  1.00  0.00     0.103 C 
ATOM     10  C   UNL A   1      30.723  28.283  22.680  1.00  0.00     0.272 C 
ATOM     11  O   UNL A   1      31.618  28.961  22.176  1.00  0.00    -0.268 OA
ATOM     12  N   UNL A   1      29.422  28.737  22.880  1.00  0.00    -0.226 N 
ATOM     13  N   UNL A   1      28.628  26.709  23.800  1.00  0.00    -0.156 NA
ATOM     14  C   UNL A   1      28.355  27.932  23.275  1.00  0.00     0.358 C 
ATOM     15  O   UNL A   1      27.185  28.301  23.209  1.00  0.00    -0.245 OA
BRANCH   8  16
ATOM     16  C   UNL A   1      33.058  25.223  23.421  1.00  0.00    -0.024 A 
ATOM     17  C   UNL A   1      34.452  22.794  23.992  1.00  0.00     0.127 A 
ATOM     18  C   UNL A   1      34.959  24.027  24.391  1.00  0.00     0.048 A 
ATOM     19  C   UNL A   1      33.185  22.750  23.409  1.00  0.00     0.040 A 
ATOM     20  C   UNL A   1      34.243  25.210  24.156  1.00  0.00     0.012 A 
ATOM     21  C   UNL A   1      32.529  23.960  23.077  1.00  0.00     0.022 A 
BRANCH  17  22
ATOM     22  O   UNL A   1      35.230  21.713  24.300  1.00  0.00    -0.496 OA
ATOM     23  C   UNL A   1      35.761  21.777  25.624  1.00  0.00     0.278 C 
ENDBRANCH  17  22
BRANCH  19  24
ATOM     24  C   UNL A   1      32.430  21.495  23.194  1.00  0.00     0.075 C 
ATOM     25  O   UNL A   1      32.042  21.076  22.117  1.00  0.00    -0.545 OA
ATOM     26  O   UNL A   1      32.078  20.895  24.343  1.00  0.00    -0.545 OA
ENDBRANCH  19  24
ENDBRANCH   8  16
BRANCH  12  27
ATOM     27  C   UNL A   1      29.115  30.098  22.603  1.00  0.00     0.054 A 
ATOM     28  C   UNL A   1      29.107  31.026  23.653  1.00  0.00     0.027 A 
ATOM     29  C   UNL A   1      28.723  30.494  21.322  1.00  0.00     0.027 A 
ATOM     30  C   UNL A   1      28.723  32.346  23.417  1.00  0.00     0.002 A 
ATOM     31  C   UNL A   1      28.299  31.807  21.103  1.00  0.00     0.002 A 
ATOM     32  C   UNL A   1      28.300  32.731  22.147  1.00  0.00     0.000 A 
ENDBRANCH  12  27
ENDBRANCH   6   7
ENDBRANCH   5   6
ENDBRANCH   4   5
ENDBRANCH   3   4
ENDBRANCH   2   3
ENDBRANCH   1   2
BRANCH   1  33
ATOM     33  O   UNL A   1      32.626  30.558  26.667  1.00  0.00    -0.376 OA
BRANCH  33  34
ATOM     34  C   UNL A   1      31.709  31.639  26.740  1.00  0.00     0.202 C 
BRANCH  34  35
ATOM     35  C   UNL A   1      32.196  33.069  26.992  1.00  0.00     0.261 C 
BRANCH  35  36
ATOM     36  O   UNL A   1      32.297  33.429  28.379  1.00  0.00    -0.460 OA
BRANCH  36  37
ATOM     37  C   UNL A   1      33.063  34.517  28.640  1.00  0.00     0.338 C 
ATOM     38  O   UNL A   1      32.737  35.688  28.547  1.00  0.00    -0.246 OA
BRANCH  37  39
ATOM     39  C   UNL A   1      34.339  34.098  29.260  1.00  0.00     0.060 A 
ATOM     40  C   UNL A   1      35.519  34.316  28.536  1.00  0.00     0.016 A 
ATOM     41  C   UNL A   1      34.380  33.477  30.510  1.00  0.00     0.016 A 
ATOM     42  C   UNL A   1      36.740  33.874  29.046  1.00  0.00     0.010 A 
ATOM     43  C   UNL A   1      35.604  33.014  31.009  1.00  0.00     0.010 A 
ATOM     44  C   UNL A   1      36.784  33.183  30.265  1.00  0.00    -0.014 A 
BRANCH  44  45
ATOM     45  C   UNL A   1      38.027  32.467  30.641  1.00  0.00     0.031 A 
ATOM     46  C   UNL A   1      38.787  32.942  31.851  1.00  0.00     0.074 A 
ATOM     47  C   UNL A   1      38.460  31.393  29.959  1.00  0.00     0.049 A 
ATOM     48  N   UNL A   1      39.857  32.441  32.412  1.00  0.00    -0.248 NA
ATOM     49  C   UNL A   1      38.268  34.152  32.507  1.00  0.00     0.031 C 
ATOM     50  C   UNL A   1      37.818  30.828  28.776  1.00  0.00     0.029 A 
ATOM     51  N   UNL A   1      39.528  30.562  30.194  1.00  0.00    -0.354 N 
ATOM     52  C   UNL A   1      40.156  33.288  33.471  1.00  0.00     0.074 A 
ATOM     53  C   UNL A   1      39.152  34.331  33.476  1.00  0.00     0.031 C 
ATOM     54  C   UNL A   1      38.469  29.705  28.424  1.00  0.00     0.029 A 
ATOM     55  C   UNL A   1      39.596  29.494  29.330  1.00  0.00     0.049 A 
ATOM     56  H   UNL A   1      40.182  30.715  30.913  1.00  0.00     0.167 HD
ATOM     57  C   UNL A   1      41.181  33.217  34.352  1.00  0.00     0.037 A 
ATOM     58  C   UNL A   1      40.465  28.464  29.290  1.00  0.00     0.037 A 
ATOM     59  C   UNL A   1      42.198  32.200  34.337  1.00  0.00     0.049 A 
ATOM     60  C   UNL A   1      41.601  28.406  30.282  1.00  0.00     0.074 A 
ATOM     61  C   UNL A   1      43.292  32.060  35.174  1.00  0.00     0.029 A 
ATOM     62  N   UNL A   1      42.252  31.153  33.429  1.00  0.00    -0.354 N 
ATOM     63  N   UNL A   1      41.864  29.200  31.291  1.00  0.00    -0.248 NA
ATOM     64  C   UNL A   1      42.573  27.314  30.113  1.00  0.00     0.031 C 
ATOM     65  C   UNL A   1      44.035  30.956  34.741  1.00  0.00     0.029 A 
ATOM     66  C   UNL A   1      43.373  30.376  33.671  1.00  0.00     0.049 A 
ATOM     67  H   UNL A   1      41.591  30.987  32.719  1.00  0.00     0.167 HD
ATOM     68  C   UNL A   1      43.025  28.705  31.876  1.00  0.00     0.074 A 
ATOM     69  C   UNL A   1      43.393  27.518  31.133  1.00  0.00     0.031 C 
ATOM     70  C   UNL A   1      43.732  29.196  32.924  1.00  0.00     0.037 A 
BRANCH  57  71
ATOM     71  C   UNL A   1      41.282  34.318  35.366  1.00  0.00     0.057 A 
ATOM     72  C   UNL A   1      40.677  34.227  36.626  1.00  0.00     0.134 A 
ATOM     73  C   UNL A   1      41.987  35.492  35.069  1.00  0.00     0.134 A 
ATOM     74  F   UNL A   1      39.969  33.138  36.963  1.00  0.00    -0.206 F 
ATOM     75  C   UNL A   1      40.744  35.278  37.543  1.00  0.00     0.040 A 
ATOM     76  C   UNL A   1      42.083  36.537  35.988  1.00  0.00     0.040 A 
ATOM     77  F   UNL A   1      42.590  35.642  33.880  1.00  0.00    -0.206 F 
ATOM     78  C   UNL A   1      41.453  36.436  37.225  1.00  0.00     0.006 A 
ENDBRANCH  57  71
BRANCH  58  79
ATOM     79  C   UNL A   1      40.303  27.384  28.282  1.00  0.00     0.057 A 
ATOM     80  C   UNL A   1      39.555  26.235  28.573  1.00  0.00     0.134 A 
ATOM     81  C   UNL A   1      40.918  27.448  27.026  1.00  0.00     0.134 A 
ATOM     82  F   UNL A   1      38.965  26.100  29.770  1.00  0.00    -0.206 F 
ATOM     83  C   UNL A   1      39.441  25.184  27.661  1.00  0.00     0.040 A 
ATOM     84  C   UNL A   1      40.787  26.418  26.093  1.00  0.00     0.040 A 
ATOM     85  F   UNL A   1      41.655  28.516  26.687  1.00  0.00    -0.206 F 
ATOM     86  C   UNL A   1      40.053  25.277  26.414  1.00  0.00     0.006 A 
ENDBRANCH  58  79
BRANCH  70  87
ATOM     87  C   UNL A   1      44.971  28.455  33.336  1.00  0.00     0.057 A 
ATOM     88  C   UNL A   1      44.927  27.385  34.241  1.00  0.00     0.134 A 
ATOM     89  C   UNL A   1      46.217  28.779  32.783  1.00  0.00     0.134 A 
ATOM     90  F   UNL A   1      43.768  27.027  34.813  1.00  0.00    -0.206 F 
ATOM     91  C   UNL A   1      46.078  26.681  34.597  1.00  0.00     0.040 A 
ATOM     92  C   UNL A   1      47.371  28.065  33.111  1.00  0.00     0.040 A 
ATOM     93  F   UNL A   1      46.331  29.784  31.902  1.00  0.00    -0.206 F 
ATOM     94  C   UNL A   1      47.305  27.016  34.026  1.00  0.00     0.006 A 
ENDBRANCH  70  87
ENDBRANCH  44  45
ENDBRANCH  37  39
ENDBRANCH  36  37
ENDBRANCH  35  36
ENDBRANCH  34  35
ENDBRANCH  33  34
ENDBRANCH   1  33
TORSDOF 20
ENDMDL
MODEL 2
REMARK VINA RESULT:     -11.3      4.261      7.744
REMARK SMILES COc1ccc(/C=C2/C(=O)N(c3ccccc3)C(=O)N=C2OCCOCCOCCOC(=O)c2ccc(-c3c4nc(c(-c5c(F)cccc5F)c5ccc([nH]5)c(-c5c(F)cccc5F)c5nc(c(-c6c(F)cccc6F)c6ccc3[nH]6)C=C5)C=C4)cc2)cc1C(=O)[O-]
REMARK SMILES IDX 27 1 26 2 25 3 24 4 23 5 22 6 21 7 7 8 8 9 9 10 10 11 11 12
REMARK SMILES IDX 20 13 18 14 19 15 6 16 3 17 4 18 89 19 5 20 88 21 2 22 1 23
REMARK SMILES IDX 90 24 91 25 92 26 12 27 13 28 17 29 14 30 16 31 15 32 28 33
REMARK SMILES IDX 29 34 30 35 31 36 32 37 33 38 34 39 35 40 87 41 36 42 86 43
REMARK SMILES IDX 37 44 38 45 39 46 80 47 40 48 85 49 79 50 81 51 41 52 84 53
REMARK SMILES IDX 78 54 77 55 42 57 68 58 51 59 67 60 52 61 55 62 66 63 82 64
REMARK SMILES IDX 53 65 54 66 65 68 83 69 56 70 43 71 44 72 49 73 45 74 46 75
REMARK SMILES IDX 48 76 50 77 47 78 69 79 70 80 75 81 71 82 72 83 74 84 76 85
REMARK SMILES IDX 73 86 57 87 58 88 63 89 59 90 60 91 62 92 64 93 61 94
REMARK H PARENT 81 56 55 67
REMARK Flexibility Score: inf
ROOT
ATOM      1  C   UNL A   1      32.396  29.371  26.913  1.00  0.00     0.188 C 
ENDROOT
BRANCH   1   2
ATOM      2  C   UNL A   1      32.856  27.903  27.021  1.00  0.00     0.188 C 
BRANCH   2   3
ATOM      3  O   UNL A   1      31.924  26.851  27.168  1.00  0.00    -0.376 OA
BRANCH   3   4
ATOM      4  C   UNL A   1      30.759  26.812  26.357  1.00  0.00     0.201 C 
BRANCH   4   5
ATOM      5  C   UNL A   1      30.123  25.460  26.061  1.00  0.00     0.260 C 
BRANCH   5   6
ATOM      6  O   UNL A   1      29.980  25.252  24.640  1.00  0.00    -0.475 OA
BRANCH   6   7
ATOM      7  C   UNL A   1      29.635  26.284  23.852  1.00  0.00     0.231 C 
ATOM      8  C   UNL A   1      32.046  26.507  22.969  1.00  0.00     0.027 C 
ATOM      9  C   UNL A   1      30.764  26.920  23.153  1.00  0.00     0.103 C 
ATOM     10  C   UNL A   1      30.427  28.295  22.620  1.00  0.00     0.272 C 
ATOM     11  O   UNL A   1      31.281  28.983  22.061  1.00  0.00    -0.268 OA
ATOM     12  N   UNL A   1      29.122  28.719  22.860  1.00  0.00    -0.226 N 
ATOM     13  N   UNL A   1      28.424  26.697  23.868  1.00  0.00    -0.156 NA
ATOM     14  C   UNL A   1      28.096  27.896  23.321  1.00  0.00     0.358 C 
ATOM     15  O   UNL A   1      26.913  28.230  23.292  1.00  0.00    -0.245 OA
BRANCH   8  16
ATOM     16  C   UNL A   1      32.877  25.324  23.349  1.00  0.00    -0.024 A 
ATOM     17  C   UNL A   1      34.371  22.956  23.921  1.00  0.00     0.127 A 
ATOM     18  C   UNL A   1      34.819  24.207  24.333  1.00  0.00     0.048 A 
ATOM     19  C   UNL A   1      33.114  22.859  23.324  1.00  0.00     0.040 A 
ATOM     20  C   UNL A   1      34.054  25.359  24.097  1.00  0.00     0.012 A 
ATOM     21  C   UNL A   1      32.408  24.040  22.992  1.00  0.00     0.022 A 
BRANCH  17  22
ATOM     22  O   UNL A   1      35.193  21.908  24.230  1.00  0.00    -0.496 OA
ATOM     23  C   UNL A   1      35.527  21.862  25.619  1.00  0.00     0.278 C 
ENDBRANCH  17  22
BRANCH  19  24
ATOM     24  C   UNL A   1      32.418  21.573  23.093  1.00  0.00     0.075 C 
ATOM     25  O   UNL A   1      32.310  20.668  23.903  1.00  0.00    -0.545 OA
ATOM     26  O   UNL A   1      32.010  21.423  21.822  1.00  0.00    -0.545 OA
ENDBRANCH  19  24
ENDBRANCH   8  16
BRANCH  12  27
ATOM     27  C   UNL A   1      28.765  30.062  22.559  1.00  0.00     0.054 A 
ATOM     28  C   UNL A   1      28.332  30.381  21.264  1.00  0.00     0.027 A 
ATOM     29  C   UNL A   1      28.938  31.075  23.504  1.00  0.00     0.027 A 
ATOM     30  C   UNL A   1      28.061  31.707  20.925  1.00  0.00     0.002 A 
ATOM     31  C   UNL A   1      28.706  32.405  23.144  1.00  0.00     0.002 A 
ATOM     32  C   UNL A   1      28.268  32.720  21.857  1.00  0.00     0.000 A 
ENDBRANCH  12  27
ENDBRANCH   6   7
ENDBRANCH   5   6
ENDBRANCH   4   5
ENDBRANCH   3   4
ENDBRANCH   2   3
ENDBRANCH   1   2
BRANCH   1  33
ATOM     33  O   UNL A   1      33.319  30.412  26.670  1.00  0.00    -0.376 OA
BRANCH  33  34
ATOM     34  C   UNL A   1      33.830  31.178  27.749  1.00  0.00     0.202 C 
BRANCH  34  35
ATOM     35  C   UNL A   1      35.304  31.081  28.155  1.00  0.00     0.261 C 
BRANCH  35  36
ATOM     36  O   UNL A   1      35.728  29.768  28.554  1.00  0.00    -0.460 OA
BRANCH  36  37
ATOM     37  C   UNL A   1      36.378  29.707  29.743  1.00  0.00     0.338 C 
ATOM     38  O   UNL A   1      35.885  29.543  30.846  1.00  0.00    -0.246 OA
BRANCH  37  39
ATOM     39  C   UNL A   1      37.839  29.672  29.516  1.00  0.00     0.060 A 
ATOM     40  C   UNL A   1      38.297  29.722  28.193  1.00  0.00     0.016 A 
ATOM     41  C   UNL A   1      38.745  29.561  30.574  1.00  0.00     0.016 A 
ATOM     42  C   UNL A   1      39.661  29.620  27.923  1.00  0.00     0.010 A 
ATOM     43  C   UNL A   1      40.113  29.437  30.299  1.00  0.00     0.010 A 
ATOM     44  C   UNL A   1      40.573  29.434  28.972  1.00  0.00    -0.014 A 
BRANCH  44  45
ATOM     45  C   UNL A   1      41.965  29.032  28.652  1.00  0.00     0.031 A 
ATOM     46  C   UNL A   1      42.215  27.613  28.218  1.00  0.00     0.074 A 
ATOM     47  C   UNL A   1      42.984  29.906  28.702  1.00  0.00     0.049 A 
ATOM     48  N   UNL A   1      43.326  27.045  27.825  1.00  0.00    -0.248 NA
ATOM     49  C   UNL A   1      41.051  26.714  28.240  1.00  0.00     0.031 C 
ATOM     50  C   UNL A   1      42.878  31.306  29.101  1.00  0.00     0.029 A 
ATOM     51  N   UNL A   1      44.308  29.747  28.372  1.00  0.00    -0.354 N 
ATOM     52  C   UNL A   1      43.002  25.718  27.577  1.00  0.00     0.074 A 
ATOM     53  C   UNL A   1      41.591  25.566  27.860  1.00  0.00     0.031 C 
ATOM     54  C   UNL A   1      44.075  31.896  28.933  1.00  0.00     0.029 A 
ATOM     55  C   UNL A   1      45.040  30.908  28.455  1.00  0.00     0.049 A 
ATOM     56  H   UNL A   1      44.696  28.884  28.102  1.00  0.00     0.167 HD
ATOM     57  C   UNL A   1      43.807  24.710  27.167  1.00  0.00     0.037 A 
ATOM     58  C   UNL A   1      46.336  31.139  28.166  1.00  0.00     0.037 A 
ATOM     59  C   UNL A   1      45.215  24.846  26.910  1.00  0.00     0.049 A 
ATOM     60  C   UNL A   1      47.214  29.999  27.711  1.00  0.00     0.074 A 
ATOM     61  C   UNL A   1      46.119  23.875  26.516  1.00  0.00     0.029 A 
ATOM     62  N   UNL A   1      45.928  26.029  27.035  1.00  0.00    -0.354 N 
ATOM     63  N   UNL A   1      46.895  28.753  27.461  1.00  0.00    -0.248 NA
ATOM     64  C   UNL A   1      48.642  30.300  27.516  1.00  0.00     0.031 C 
ATOM     65  C   UNL A   1      47.389  24.460  26.449  1.00  0.00     0.029 A 
ATOM     66  C   UNL A   1      47.265  25.807  26.746  1.00  0.00     0.049 A 
ATOM     67  H   UNL A   1      45.541  26.897  27.289  1.00  0.00     0.167 HD
ATOM     68  C   UNL A   1      48.077  28.124  27.080  1.00  0.00     0.074 A 
ATOM     69  C   UNL A   1      49.112  29.136  27.094  1.00  0.00     0.031 C 
ATOM     70  C   UNL A   1      48.289  26.822  26.763  1.00  0.00     0.037 A 
BRANCH  57  71
ATOM     71  C   UNL A   1      43.182  23.352  27.039  1.00  0.00     0.057 A 
ATOM     72  C   UNL A   1      42.937  22.538  28.152  1.00  0.00     0.134 A 
ATOM     73  C   UNL A   1      42.833  22.849  25.779  1.00  0.00     0.134 A 
ATOM     74  F   UNL A   1      43.268  22.953  29.384  1.00  0.00    -0.206 F 
ATOM     75  C   UNL A   1      42.394  21.259  28.012  1.00  0.00     0.040 A 
ATOM     76  C   UNL A   1      42.265  21.584  25.630  1.00  0.00     0.040 A 
ATOM     77  F   UNL A   1      43.042  23.579  24.672  1.00  0.00    -0.206 F 
ATOM     78  C   UNL A   1      42.053  20.781  26.748  1.00  0.00     0.006 A 
ENDBRANCH  57  71
BRANCH  58  79
ATOM     79  C   UNL A   1      46.899  32.510  28.284  1.00  0.00     0.057 A 
ATOM     80  C   UNL A   1      47.480  32.948  29.480  1.00  0.00     0.134 A 
ATOM     81  C   UNL A   1      46.835  33.427  27.227  1.00  0.00     0.134 A 
ATOM     82  F   UNL A   1      47.546  32.126  30.539  1.00  0.00    -0.206 F 
ATOM     83  C   UNL A   1      47.961  34.250  29.629  1.00  0.00     0.040 A 
ATOM     84  C   UNL A   1      47.339  34.723  27.353  1.00  0.00     0.040 A 
ATOM     85  F   UNL A   1      46.283  33.074  26.057  1.00  0.00    -0.206 F 
ATOM     86  C   UNL A   1      47.895  35.140  28.560  1.00  0.00     0.006 A 
ENDBRANCH  58  79
BRANCH  70  87
ATOM     87  C   UNL A   1      49.688  26.413  26.400  1.00  0.00     0.057 A 
ATOM     88  C   UNL A   1      50.544  25.801  27.326  1.00  0.00     0.134 A 
ATOM     89  C   UNL A   1      50.168  26.585  25.095  1.00  0.00     0.134 A 
ATOM     90  F   UNL A   1      50.150  25.613  28.594  1.00  0.00    -0.206 F 
ATOM     91  C   UNL A   1      51.832  25.397  26.974  1.00  0.00     0.040 A 
ATOM     92  C   UNL A   1      51.445  26.160  24.724  1.00  0.00     0.040 A 
ATOM     93  F   UNL A   1      49.399  27.153  24.155  1.00  0.00    -0.206 F 
ATOM     94  C   UNL A   1      52.284  25.568  25.666  1.00  0.00     0.006 A 
ENDBRANCH  70  87
ENDBRANCH  44  45
ENDBRANCH  37  39
ENDBRANCH  36  37
ENDBRANCH  35  36
ENDBRANCH  34  35
ENDBRANCH  33  34
ENDBRANCH   1  33
TORSDOF 20
ENDMDL
MODEL 3
REMARK VINA RESULT:     -10.9      4.379      9.064
REMARK SMILES COc1ccc(/C=C2/C(=O)N(c3ccccc3)C(=O)N=C2OCCOCCOCCOC(=O)c2ccc(-c3c4nc(c(-c5c(F)cccc5F)c5ccc([nH]5)c(-c5c(F)cccc5F)c5nc(c(-c6c(F)cccc6F)c6ccc3[nH]6)C=C5)C=C4)cc2)cc1C(=O)[O-]
REMARK SMILES IDX 27 1 26 2 25 3 24 4 23 5 22 6 21 7 7 8 8 9 9 10 10 11 11 12
REMARK SMILES IDX 20 13 18 14 19 15 6 16 3 17 4 18 89 19 5 20 88 21 2 22 1 23
REMARK SMILES IDX 90 24 91 25 92 26 12 27 13 28 17 29 14 30 16 31 15 32 28 33
REMARK SMILES IDX 29 34 30 35 31 36 32 37 33 38 34 39 35 40 87 41 36 42 86 43
REMARK SMILES IDX 37 44 38 45 39 46 80 47 40 48 85 49 79 50 81 51 41 52 84 53
REMARK SMILES IDX 78 54 77 55 42 57 68 58 51 59 67 60 52 61 55 62 66 63 82 64
REMARK SMILES IDX 53 65 54 66 65 68 83 69 56 70 43 71 44 72 49 73 45 74 46 75
REMARK SMILES IDX 48 76 50 77 47 78 69 79 70 80 75 81 71 82 72 83 74 84 76 85
REMARK SMILES IDX 73 86 57 87 58 88 63 89 59 90 60 91 62 92 64 93 61 94
REMARK H PARENT 81 56 55 67
REMARK Flexibility Score: inf
ROOT
ATOM      1  C   UNL A   1      32.849  30.471  26.669  1.00  0.00     0.188 C 
ENDROOT
BRANCH   1   2
ATOM      2  C   UNL A   1      32.319  29.087  27.095  1.00  0.00     0.188 C 
BRANCH   2   3
ATOM      3  O   UNL A   1      32.047  28.080  26.140  1.00  0.00    -0.376 OA
BRANCH   3   4
ATOM      4  C   UNL A   1      31.561  26.813  26.559  1.00  0.00     0.201 C 
BRANCH   4   5
ATOM      5  C   UNL A   1      32.501  25.617  26.495  1.00  0.00     0.260 C 
BRANCH   5   6
ATOM      6  O   UNL A   1      31.773  24.395  26.248  1.00  0.00    -0.475 OA
BRANCH   6   7
ATOM      7  C   UNL A   1      32.446  23.282  25.910  1.00  0.00     0.231 C 
ATOM      8  C   UNL A   1      32.147  23.781  23.399  1.00  0.00     0.027 C 
ATOM      9  C   UNL A   1      32.470  23.001  24.465  1.00  0.00     0.103 C 
ATOM     10  C   UNL A   1      32.856  21.573  24.150  1.00  0.00     0.272 C 
ATOM     11  O   UNL A   1      32.865  21.163  22.989  1.00  0.00    -0.268 OA
ATOM     12  N   UNL A   1      33.137  20.778  25.258  1.00  0.00    -0.226 N 
ATOM     13  N   UNL A   1      32.887  22.520  26.838  1.00  0.00    -0.156 NA
ATOM     14  C   UNL A   1      33.312  21.261  26.554  1.00  0.00     0.358 C 
ATOM     15  O   UNL A   1      33.793  20.580  27.457  1.00  0.00    -0.245 OA
BRANCH   8  16
ATOM     16  C   UNL A   1      31.650  25.173  23.176  1.00  0.00    -0.024 A 
ATOM     17  C   UNL A   1      30.876  27.871  22.640  1.00  0.00     0.127 A 
ATOM     18  C   UNL A   1      29.935  26.907  22.986  1.00  0.00     0.048 A 
ATOM     19  C   UNL A   1      32.228  27.529  22.675  1.00  0.00     0.040 A 
ATOM     20  C   UNL A   1      30.328  25.598  23.301  1.00  0.00     0.012 A 
ATOM     21  C   UNL A   1      32.598  26.178  22.883  1.00  0.00     0.022 A 
BRANCH  17  22
ATOM     22  O   UNL A   1      30.372  29.116  22.379  1.00  0.00    -0.496 OA
ATOM     23  C   UNL A   1      29.918  29.783  23.558  1.00  0.00     0.278 C 
ENDBRANCH  17  22
BRANCH  19  24
ATOM     24  C   UNL A   1      33.323  28.521  22.596  1.00  0.00     0.075 C 
ATOM     25  O   UNL A   1      33.439  29.509  23.301  1.00  0.00    -0.545 OA
ATOM     26  O   UNL A   1      34.145  28.309  21.554  1.00  0.00    -0.545 OA
ENDBRANCH  19  24
ENDBRANCH   8  16
BRANCH  12  27
ATOM     27  C   UNL A   1      33.333  19.381  25.075  1.00  0.00     0.054 A 
ATOM     28  C   UNL A   1      34.568  18.919  24.600  1.00  0.00     0.027 A 
ATOM     29  C   UNL A   1      32.281  18.483  25.265  1.00  0.00     0.027 A 
ATOM     30  C   UNL A   1      34.750  17.562  24.331  1.00  0.00     0.002 A 
ATOM     31  C   UNL A   1      32.458  17.133  24.953  1.00  0.00     0.002 A 
ATOM     32  C   UNL A   1      33.690  16.674  24.487  1.00  0.00     0.000 A 
ENDBRANCH  12  27
ENDBRANCH   6   7
ENDBRANCH   5   6
ENDBRANCH   4   5
ENDBRANCH   3   4
ENDBRANCH   2   3
ENDBRANCH   1   2
BRANCH   1  33
ATOM     33  O   UNL A   1      32.813  31.573  27.552  1.00  0.00    -0.376 OA
BRANCH  33  34
ATOM     34  C   UNL A   1      33.986  32.335  27.789  1.00  0.00     0.202 C 
BRANCH  34  35
ATOM     35  C   UNL A   1      34.803  32.145  29.071  1.00  0.00     0.261 C 
BRANCH  35  36
ATOM     36  O   UNL A   1      35.397  30.845  29.211  1.00  0.00    -0.460 OA
BRANCH  36  37
ATOM     37  C   UNL A   1      36.237  30.704  30.267  1.00  0.00     0.338 C 
ATOM     38  O   UNL A   1      35.990  30.925  31.440  1.00  0.00    -0.246 OA
BRANCH  37  39
ATOM     39  C   UNL A   1      37.486  30.042  29.832  1.00  0.00     0.060 A 
ATOM     40  C   UNL A   1      38.300  29.468  30.818  1.00  0.00     0.016 A 
ATOM     41  C   UNL A   1      37.872  30.008  28.490  1.00  0.00     0.016 A 
ATOM     42  C   UNL A   1      39.522  28.896  30.467  1.00  0.00     0.010 A 
ATOM     43  C   UNL A   1      39.110  29.452  28.142  1.00  0.00     0.010 A 
ATOM     44  C   UNL A   1      39.953  28.922  29.133  1.00  0.00    -0.014 A 
BRANCH  44  45
ATOM     45  C   UNL A   1      41.365  28.585  28.826  1.00  0.00     0.031 A 
ATOM     46  C   UNL A   1      41.680  27.190  28.358  1.00  0.00     0.074 A 
ATOM     47  C   UNL A   1      42.347  29.499  28.918  1.00  0.00     0.049 A 
ATOM     48  N   UNL A   1      42.820  26.679  27.970  1.00  0.00    -0.248 NA
ATOM     49  C   UNL A   1      40.553  26.245  28.336  1.00  0.00     0.031 C 
ATOM     50  C   UNL A   1      42.177  30.881  29.352  1.00  0.00     0.029 A 
ATOM     51  N   UNL A   1      43.681  29.402  28.608  1.00  0.00    -0.354 N 
ATOM     52  C   UNL A   1      42.555  25.348  27.681  1.00  0.00     0.074 A 
ATOM     53  C   UNL A   1      41.146  25.131  27.935  1.00  0.00     0.031 C 
ATOM     54  C   UNL A   1      43.352  31.524  29.222  1.00  0.00     0.029 A 
ATOM     55  C   UNL A   1      44.364  30.589  28.735  1.00  0.00     0.049 A 
ATOM     56  H   UNL A   1      44.109  28.563  28.321  1.00  0.00     0.167 HD
ATOM     57  C   UNL A   1      43.407  24.384  27.258  1.00  0.00     0.037 A 
ATOM     58  C   UNL A   1      45.654  30.880  28.475  1.00  0.00     0.037 A 
ATOM     59  C   UNL A   1      44.813  24.585  27.030  1.00  0.00     0.049 A 
ATOM     60  C   UNL A   1      46.586  29.790  28.005  1.00  0.00     0.074 A 
ATOM     61  C   UNL A   1      45.762  23.661  26.626  1.00  0.00     0.029 A 
ATOM     62  N   UNL A   1      45.474  25.791  27.199  1.00  0.00    -0.354 N 
ATOM     63  N   UNL A   1      46.322  28.539  27.716  1.00  0.00    -0.248 NA
ATOM     64  C   UNL A   1      48.003  30.153  27.844  1.00  0.00     0.031 C 
ATOM     65  C   UNL A   1      47.007  24.299  26.597  1.00  0.00     0.029 A 
ATOM     66  C   UNL A   1      46.824  25.632  26.928  1.00  0.00     0.049 A 
ATOM     67  H   UNL A   1      45.048  26.636  27.470  1.00  0.00     0.167 HD
ATOM     68  C   UNL A   1      47.534  27.969  27.339  1.00  0.00     0.074 A 
ATOM     69  C   UNL A   1      48.527  29.021  27.398  1.00  0.00     0.031 C 
ATOM     70  C   UNL A   1      47.805  26.686  26.991  1.00  0.00     0.037 A 
BRANCH  57  71
ATOM     71  C   UNL A   1      42.840  23.006  27.082  1.00  0.00     0.057 A 
ATOM     72  C   UNL A   1      42.562  22.172  28.172  1.00  0.00     0.134 A 
ATOM     73  C   UNL A   1      42.581  22.506  25.799  1.00  0.00     0.134 A 
ATOM     74  F   UNL A   1      42.809  22.584  29.424  1.00  0.00    -0.206 F 
ATOM     75  C   UNL A   1      42.075  20.876  27.990  1.00  0.00     0.040 A 
ATOM     76  C   UNL A   1      42.070  21.222  25.607  1.00  0.00     0.040 A 
ATOM     77  F   UNL A   1      42.826  23.255  24.714  1.00  0.00    -0.206 F 
ATOM     78  C   UNL A   1      41.824  20.400  26.704  1.00  0.00     0.006 A 
ENDBRANCH  57  71
BRANCH  58  79
ATOM     79  C   UNL A   1      46.158  32.269  28.639  1.00  0.00     0.057 A 
ATOM     80  C   UNL A   1      46.674  32.705  29.866  1.00  0.00     0.134 A 
ATOM     81  C   UNL A   1      46.101  33.203  27.598  1.00  0.00     0.134 A 
ATOM     82  F   UNL A   1      46.729  31.867  30.912  1.00  0.00    -0.206 F 
ATOM     83  C   UNL A   1      47.097  34.022  30.057  1.00  0.00     0.040 A 
ATOM     84  C   UNL A   1      46.549  34.514  27.766  1.00  0.00     0.040 A 
ATOM     85  F   UNL A   1      45.611  32.852  26.400  1.00  0.00    -0.206 F 
ATOM     86  C   UNL A   1      47.041  34.929  29.002  1.00  0.00     0.006 A 
ENDBRANCH  58  79
BRANCH  70  87
ATOM     87  C   UNL A   1      49.225  26.345  26.642  1.00  0.00     0.057 A 
ATOM     88  C   UNL A   1      50.097  25.765  27.573  1.00  0.00     0.134 A 
ATOM     89  C   UNL A   1      49.712  26.547  25.344  1.00  0.00     0.134 A 
ATOM     90  F   UNL A   1      49.697  25.550  28.836  1.00  0.00    -0.206 F 
ATOM     91  C   UNL A   1      51.407  25.423  27.234  1.00  0.00     0.040 A 
ATOM     92  C   UNL A   1      51.011  26.184  24.985  1.00  0.00     0.040 A 
ATOM     93  F   UNL A   1      48.928  27.087  24.398  1.00  0.00    -0.206 F 
ATOM     94  C   UNL A   1      51.866  25.625  25.933  1.00  0.00     0.006 A 
ENDBRANCH  70  87
ENDBRANCH  44  45
ENDBRANCH  37  39
ENDBRANCH  36  37
ENDBRANCH  35  36
ENDBRANCH  34  35
ENDBRANCH  33  34
ENDBRANCH   1  33
TORSDOF 20
ENDMDL
