MODEL 1
REMARK VINA RESULT:     -11.0      0.000      0.000
REMARK SMILES COc1c(C(=O)OCCOCCOCCOC(=O)c2ccc(-c3c4nc(c(-c5c(F)cccc5F)c5ccc([nH]5)c(-c5c(F)cccc5F)c5nc(c(-c6c(F)cccc6F)c6ccc3[nH]6)C=C5)C=C4)cc2)cccc1-c1cc(C)ccc1C
REMARK SMILES IDX 12 1 11 2 10 3 9 4 8 5 7 6 5 7 6 8 4 9 3 10 76 11 73 12
REMARK SMILES IDX 75 13 74 14 2 15 1 16 77 17 78 18 83 19 79 20 82 21 84 22
REMARK SMILES IDX 80 23 81 24 13 25 14 26 15 27 16 28 17 29 18 30 19 31 20 32
REMARK SMILES IDX 72 33 21 34 71 35 22 36 23 37 24 38 65 39 25 40 70 41 64 42
REMARK SMILES IDX 66 43 26 44 69 45 63 46 62 47 27 49 53 50 36 51 52 52 37 53
REMARK SMILES IDX 40 54 51 55 67 56 38 57 39 58 50 60 68 61 41 62 28 63 29 64
REMARK SMILES IDX 34 65 30 66 31 67 33 68 35 69 32 70 54 71 55 72 60 73 56 74
REMARK SMILES IDX 57 75 59 76 61 77 58 78 42 79 43 80 48 81 44 82 45 83 47 84
REMARK SMILES IDX 49 85 46 86
REMARK H PARENT 66 48 40 59
REMARK Flexibility Score: inf
ROOT
ATOM      1  C   UNL A   1      42.268  19.311  26.125  1.00  0.00     0.188 C 
ENDROOT
BRANCH   1   2
ATOM      2  C   UNL A   1      41.823  20.049  27.406  1.00  0.00     0.188 C 
BRANCH   2   3
ATOM      3  O   UNL A   1      40.521  20.621  27.463  1.00  0.00    -0.376 OA
BRANCH   3   4
ATOM      4  C   UNL A   1      40.376  22.034  27.330  1.00  0.00     0.202 C 
BRANCH   4   5
ATOM      5  C   UNL A   1      39.523  22.586  26.181  1.00  0.00     0.261 C 
BRANCH   5   6
ATOM      6  O   UNL A   1      38.155  22.149  26.236  1.00  0.00    -0.460 OA
BRANCH   6   7
ATOM      7  C   UNL A   1      37.219  23.129  26.222  1.00  0.00     0.342 C 
ATOM      8  O   UNL A   1      37.404  24.314  25.988  1.00  0.00    -0.246 OA
BRANCH   7   9
ATOM      9  C   UNL A   1      35.865  22.536  26.267  1.00  0.00     0.102 A 
ATOM     10  C   UNL A   1      35.312  21.799  25.208  1.00  0.00     0.141 A 
ATOM     11  C   UNL A   1      34.047  21.180  25.369  1.00  0.00     0.025 A 
ATOM     12  C   UNL A   1      35.130  22.761  27.440  1.00  0.00     0.019 A 
ATOM     13  C   UNL A   1      33.320  21.458  26.548  1.00  0.00     0.012 A 
ATOM     14  C   UNL A   1      33.844  22.252  27.566  1.00  0.00     0.002 A 
BRANCH  10  15
ATOM     15  O   UNL A   1      36.085  21.622  24.086  1.00  0.00    -0.495 OA
ATOM     16  C   UNL A   1      36.007  22.724  23.180  1.00  0.00     0.278 C 
ENDBRANCH  10  15
BRANCH  11  17
ATOM     17  C   UNL A   1      33.486  20.193  24.415  1.00  0.00    -0.011 A 
ATOM     18  C   UNL A   1      33.853  18.833  24.528  1.00  0.00     0.012 A 
ATOM     19  C   UNL A   1      32.632  20.564  23.349  1.00  0.00    -0.043 A 
ATOM     20  C   UNL A   1      33.375  17.858  23.640  1.00  0.00    -0.050 A 
ATOM     21  C   UNL A   1      32.115  19.572  22.497  1.00  0.00     0.004 A 
ATOM     22  C   UNL A   1      32.210  21.986  23.086  1.00  0.00     0.045 C 
ATOM     23  C   UNL A   1      33.842  16.437  23.755  1.00  0.00     0.044 C 
ATOM     24  C   UNL A   1      32.487  18.238  22.635  1.00  0.00     0.004 A 
ENDBRANCH  11  17
ENDBRANCH   7   9
ENDBRANCH   6   7
ENDBRANCH   5   6
ENDBRANCH   4   5
ENDBRANCH   3   4
ENDBRANCH   2   3
ENDBRANCH   1   2
BRANCH   1  25
ATOM     25  O   UNL A   1      42.988  20.110  25.217  1.00  0.00    -0.376 OA
BRANCH  25  26
ATOM     26  C   UNL A   1      43.678  21.255  25.684  1.00  0.00     0.202 C 
BRANCH  26  27
ATOM     27  C   UNL A   1      44.322  22.315  24.766  1.00  0.00     0.261 C 
BRANCH  27  28
ATOM     28  O   UNL A   1      43.676  23.586  24.642  1.00  0.00    -0.460 OA
BRANCH  28  29
ATOM     29  C   UNL A   1      44.379  24.667  25.033  1.00  0.00     0.338 C 
ATOM     30  O   UNL A   1      45.483  25.017  24.630  1.00  0.00    -0.246 OA
BRANCH  29  31
ATOM     31  C   UNL A   1      43.531  25.492  25.913  1.00  0.00     0.060 A 
ATOM     32  C   UNL A   1      43.907  26.820  26.150  1.00  0.00     0.016 A 
ATOM     33  C   UNL A   1      42.400  24.954  26.536  1.00  0.00     0.016 A 
ATOM     34  C   UNL A   1      43.187  27.597  27.055  1.00  0.00     0.010 A 
ATOM     35  C   UNL A   1      41.686  25.732  27.455  1.00  0.00     0.010 A 
ATOM     36  C   UNL A   1      42.105  27.041  27.752  1.00  0.00    -0.014 A 
BRANCH  36  37
ATOM     37  C   UNL A   1      41.564  27.764  28.930  1.00  0.00     0.031 A 
ATOM     38  C   UNL A   1      42.283  27.630  30.246  1.00  0.00     0.074 A 
ATOM     39  C   UNL A   1      40.498  28.576  28.827  1.00  0.00     0.049 A 
ATOM     40  N   UNL A   1      42.035  28.207  31.395  1.00  0.00    -0.248 NA
ATOM     41  C   UNL A   1      43.443  26.724  30.267  1.00  0.00     0.031 C 
ATOM     42  C   UNL A   1      39.729  28.815  27.609  1.00  0.00     0.029 A 
ATOM     43  N   UNL A   1      39.882  29.357  29.774  1.00  0.00    -0.354 N 
ATOM     44  C   UNL A   1      43.006  27.737  32.271  1.00  0.00     0.074 A 
ATOM     45  C   UNL A   1      43.824  26.799  31.534  1.00  0.00     0.031 C 
ATOM     46  C   UNL A   1      38.740  29.686  27.881  1.00  0.00     0.029 A 
ATOM     47  C   UNL A   1      38.798  30.051  29.297  1.00  0.00     0.049 A 
ATOM     48  H   UNL A   1      40.189  29.413  30.708  1.00  0.00     0.167 HD
ATOM     49  C   UNL A   1      43.209  28.065  33.568  1.00  0.00     0.037 A 
ATOM     50  C   UNL A   1      37.949  30.881  29.933  1.00  0.00     0.037 A 
ATOM     51  C   UNL A   1      42.396  28.993  34.308  1.00  0.00     0.049 A 
ATOM     52  C   UNL A   1      38.164  31.191  31.392  1.00  0.00     0.074 A 
ATOM     53  C   UNL A   1      42.527  29.397  35.625  1.00  0.00     0.029 A 
ATOM     54  N   UNL A   1      41.291  29.656  33.795  1.00  0.00    -0.354 N 
ATOM     55  N   UNL A   1      39.107  30.770  32.200  1.00  0.00    -0.248 NA
ATOM     56  C   UNL A   1      37.200  32.105  32.023  1.00  0.00     0.031 C 
ATOM     57  C   UNL A   1      41.475  30.271  35.922  1.00  0.00     0.029 A 
ATOM     58  C   UNL A   1      40.721  30.453  34.774  1.00  0.00     0.049 A 
ATOM     59  H   UNL A   1      40.960  29.571  32.871  1.00  0.00     0.167 HD
ATOM     60  C   UNL A   1      38.874  31.397  33.419  1.00  0.00     0.074 A 
ATOM     61  C   UNL A   1      37.706  32.234  33.241  1.00  0.00     0.031 C 
ATOM     62  C   UNL A   1      39.567  31.293  34.580  1.00  0.00     0.037 A 
BRANCH  49  63
ATOM     63  C   UNL A   1      44.350  27.394  34.276  1.00  0.00     0.057 A 
ATOM     64  C   UNL A   1      45.634  27.954  34.308  1.00  0.00     0.134 A 
ATOM     65  C   UNL A   1      44.158  26.179  34.946  1.00  0.00     0.134 A 
ATOM     66  F   UNL A   1      45.889  29.107  33.670  1.00  0.00    -0.206 F 
ATOM     67  C   UNL A   1      46.691  27.319  34.962  1.00  0.00     0.040 A 
ATOM     68  C   UNL A   1      45.201  25.549  35.626  1.00  0.00     0.040 A 
ATOM     69  F   UNL A   1      42.952  25.590  34.955  1.00  0.00    -0.206 F 
ATOM     70  C   UNL A   1      46.473  26.115  35.629  1.00  0.00     0.006 A 
ENDBRANCH  49  63
BRANCH  50  71
ATOM     71  C   UNL A   1      36.813  31.495  29.197  1.00  0.00     0.057 A 
ATOM     72  C   UNL A   1      35.675  30.752  28.864  1.00  0.00     0.134 A 
ATOM     73  C   UNL A   1      36.859  32.828  28.774  1.00  0.00     0.134 A 
ATOM     74  F   UNL A   1      35.584  29.461  29.217  1.00  0.00    -0.206 F 
ATOM     75  C   UNL A   1      34.632  31.304  28.118  1.00  0.00     0.040 A 
ATOM     76  C   UNL A   1      35.811  33.402  28.051  1.00  0.00     0.040 A 
ATOM     77  F   UNL A   1      37.922  33.594  29.060  1.00  0.00    -0.206 F 
ATOM     78  C   UNL A   1      34.698  32.636  27.714  1.00  0.00     0.006 A 
ENDBRANCH  50  71
BRANCH  62  79
ATOM     79  C   UNL A   1      39.117  32.147  35.732  1.00  0.00     0.057 A 
ATOM     80  C   UNL A   1      39.504  33.487  35.865  1.00  0.00     0.134 A 
ATOM     81  C   UNL A   1      38.265  31.622  36.713  1.00  0.00     0.134 A 
ATOM     82  F   UNL A   1      40.326  34.049  34.965  1.00  0.00    -0.206 F 
ATOM     83  C   UNL A   1      39.087  34.262  36.949  1.00  0.00     0.040 A 
ATOM     84  C   UNL A   1      37.818  32.396  37.785  1.00  0.00     0.040 A 
ATOM     85  F   UNL A   1      37.845  30.350  36.641  1.00  0.00    -0.206 F 
ATOM     86  C   UNL A   1      38.239  33.718  37.910  1.00  0.00     0.006 A 
ENDBRANCH  62  79
ENDBRANCH  36  37
ENDBRANCH  29  31
ENDBRANCH  28  29
ENDBRANCH  27  28
ENDBRANCH  26  27
ENDBRANCH  25  26
ENDBRANCH   1  25
TORSDOF 19
ENDMDL
MODEL 2
REMARK VINA RESULT:     -10.7      1.252      2.631
REMARK SMILES COc1c(C(=O)OCCOCCOCCOC(=O)c2ccc(-c3c4nc(c(-c5c(F)cccc5F)c5ccc([nH]5)c(-c5c(F)cccc5F)c5nc(c(-c6c(F)cccc6F)c6ccc3[nH]6)C=C5)C=C4)cc2)cccc1-c1cc(C)ccc1C
REMARK SMILES IDX 12 1 11 2 10 3 9 4 8 5 7 6 5 7 6 8 4 9 3 10 76 11 73 12
REMARK SMILES IDX 75 13 74 14 2 15 1 16 77 17 78 18 83 19 79 20 82 21 84 22
REMARK SMILES IDX 80 23 81 24 13 25 14 26 15 27 16 28 17 29 18 30 19 31 20 32
REMARK SMILES IDX 72 33 21 34 71 35 22 36 23 37 24 38 65 39 25 40 70 41 64 42
REMARK SMILES IDX 66 43 26 44 69 45 63 46 62 47 27 49 53 50 36 51 52 52 37 53
REMARK SMILES IDX 40 54 51 55 67 56 38 57 39 58 50 60 68 61 41 62 28 63 29 64
REMARK SMILES IDX 34 65 30 66 31 67 33 68 35 69 32 70 54 71 55 72 60 73 56 74
REMARK SMILES IDX 57 75 59 76 61 77 58 78 42 79 43 80 48 81 44 82 45 83 47 84
REMARK SMILES IDX 49 85 46 86
REMARK H PARENT 66 48 40 59
REMARK Flexibility Score: inf
ROOT
ATOM      1  C   UNL A   1      43.111  19.763  25.470  1.00  0.00     0.188 C 
ENDROOT
BRANCH   1   2
ATOM      2  C   UNL A   1      42.173  19.083  26.490  1.00  0.00     0.188 C 
BRANCH   2   3
ATOM      3  O   UNL A   1      40.844  19.570  26.648  1.00  0.00    -0.376 OA
BRANCH   3   4
ATOM      4  C   UNL A   1      40.644  20.923  27.050  1.00  0.00     0.202 C 
BRANCH   4   5
ATOM      5  C   UNL A   1      40.013  21.907  26.056  1.00  0.00     0.261 C 
BRANCH   5   6
ATOM      6  O   UNL A   1      38.576  21.877  26.071  1.00  0.00    -0.460 OA
BRANCH   6   7
ATOM      7  C   UNL A   1      37.959  23.082  26.129  1.00  0.00     0.342 C 
ATOM      8  O   UNL A   1      38.396  24.103  26.640  1.00  0.00    -0.246 OA
BRANCH   7   9
ATOM      9  C   UNL A   1      36.773  23.086  25.247  1.00  0.00     0.102 A 
ATOM     10  C   UNL A   1      35.457  23.184  25.727  1.00  0.00     0.141 A 
ATOM     11  C   UNL A   1      34.381  23.281  24.811  1.00  0.00     0.025 A 
ATOM     12  C   UNL A   1      37.023  22.971  23.872  1.00  0.00     0.019 A 
ATOM     13  C   UNL A   1      34.666  23.124  23.436  1.00  0.00     0.012 A 
ATOM     14  C   UNL A   1      35.968  22.953  22.969  1.00  0.00     0.002 A 
BRANCH  10  15
ATOM     15  O   UNL A   1      35.284  23.289  27.086  1.00  0.00    -0.495 OA
ATOM     16  C   UNL A   1      34.749  22.100  27.671  1.00  0.00     0.278 C 
ENDBRANCH  10  15
BRANCH  11  17
ATOM     17  C   UNL A   1      32.993  23.625  25.204  1.00  0.00    -0.011 A 
ATOM     18  C   UNL A   1      32.668  24.968  25.499  1.00  0.00     0.012 A 
ATOM     19  C   UNL A   1      31.979  22.649  25.351  1.00  0.00    -0.043 A 
ATOM     20  C   UNL A   1      31.379  25.350  25.901  1.00  0.00    -0.050 A 
ATOM     21  C   UNL A   1      30.676  23.048  25.702  1.00  0.00     0.004 A 
ATOM     22  C   UNL A   1      32.209  21.178  25.121  1.00  0.00     0.045 C 
ATOM     23  C   UNL A   1      31.094  26.777  26.269  1.00  0.00     0.044 C 
ATOM     24  C   UNL A   1      30.382  24.380  25.981  1.00  0.00     0.004 A 
ENDBRANCH  11  17
ENDBRANCH   7   9
ENDBRANCH   6   7
ENDBRANCH   5   6
ENDBRANCH   4   5
ENDBRANCH   3   4
ENDBRANCH   2   3
ENDBRANCH   1   2
BRANCH   1  25
ATOM     25  O   UNL A   1      43.836  20.852  25.990  1.00  0.00    -0.376 OA
BRANCH  25  26
ATOM     26  C   UNL A   1      44.814  21.490  25.189  1.00  0.00     0.202 C 
BRANCH  26  27
ATOM     27  C   UNL A   1      44.493  22.498  24.065  1.00  0.00     0.261 C 
BRANCH  27  28
ATOM     28  O   UNL A   1      43.799  23.701  24.413  1.00  0.00    -0.460 OA
BRANCH  28  29
ATOM     29  C   UNL A   1      44.526  24.676  24.993  1.00  0.00     0.338 C 
ATOM     30  O   UNL A   1      45.687  24.982  24.745  1.00  0.00    -0.246 OA
BRANCH  29  31
ATOM     31  C   UNL A   1      43.644  25.464  25.874  1.00  0.00     0.060 A 
ATOM     32  C   UNL A   1      43.918  26.827  26.047  1.00  0.00     0.016 A 
ATOM     33  C   UNL A   1      42.584  24.862  26.559  1.00  0.00     0.016 A 
ATOM     34  C   UNL A   1      43.168  27.579  26.949  1.00  0.00     0.010 A 
ATOM     35  C   UNL A   1      41.841  25.617  27.476  1.00  0.00     0.010 A 
ATOM     36  C   UNL A   1      42.161  26.966  27.707  1.00  0.00    -0.014 A 
BRANCH  36  37
ATOM     37  C   UNL A   1      41.603  27.689  28.878  1.00  0.00     0.031 A 
ATOM     38  C   UNL A   1      42.305  27.557  30.203  1.00  0.00     0.074 A 
ATOM     39  C   UNL A   1      40.537  28.500  28.759  1.00  0.00     0.049 A 
ATOM     40  N   UNL A   1      42.041  28.135  31.348  1.00  0.00    -0.248 NA
ATOM     41  C   UNL A   1      43.465  26.652  30.240  1.00  0.00     0.031 C 
ATOM     42  C   UNL A   1      39.785  28.738  27.531  1.00  0.00     0.029 A 
ATOM     43  N   UNL A   1      39.909  29.282  29.697  1.00  0.00    -0.354 N 
ATOM     44  C   UNL A   1      43.000  27.666  32.237  1.00  0.00     0.074 A 
ATOM     45  C   UNL A   1      43.829  26.728  31.512  1.00  0.00     0.031 C 
ATOM     46  C   UNL A   1      38.792  29.608  27.790  1.00  0.00     0.029 A 
ATOM     47  C   UNL A   1      38.830  29.975  29.205  1.00  0.00     0.049 A 
ATOM     48  H   UNL A   1      40.203  29.339  30.635  1.00  0.00     0.167 HD
ATOM     49  C   UNL A   1      43.186  27.995  33.536  1.00  0.00     0.037 A 
ATOM     50  C   UNL A   1      37.972  30.804  29.829  1.00  0.00     0.037 A 
ATOM     51  C   UNL A   1      42.362  28.923  34.265  1.00  0.00     0.049 A 
ATOM     52  C   UNL A   1      38.168  31.115  31.291  1.00  0.00     0.074 A 
ATOM     53  C   UNL A   1      42.476  29.329  35.584  1.00  0.00     0.029 A 
ATOM     54  N   UNL A   1      41.264  29.585  33.736  1.00  0.00    -0.354 N 
ATOM     55  N   UNL A   1      39.100  30.696  32.112  1.00  0.00    -0.248 NA
ATOM     56  C   UNL A   1      37.195  32.029  31.909  1.00  0.00     0.031 C 
ATOM     57  C   UNL A   1      41.419  30.202  35.865  1.00  0.00     0.029 A 
ATOM     58  C   UNL A   1      40.681  30.383  34.707  1.00  0.00     0.049 A 
ATOM     59  H   UNL A   1      40.945  29.499  32.809  1.00  0.00     0.167 HD
ATOM     60  C   UNL A   1      38.851  31.324  33.327  1.00  0.00     0.074 A 
ATOM     61  C   UNL A   1      37.685  32.160  33.133  1.00  0.00     0.031 C 
ATOM     62  C   UNL A   1      39.529  31.221  34.497  1.00  0.00     0.037 A 
BRANCH  49  63
ATOM     63  C   UNL A   1      44.318  27.325  34.260  1.00  0.00     0.057 A 
ATOM     64  C   UNL A   1      44.160  26.087  34.896  1.00  0.00     0.134 A 
ATOM     65  C   UNL A   1      45.585  27.919  34.307  1.00  0.00     0.134 A 
ATOM     66  F   UNL A   1      42.966  25.474  34.905  1.00  0.00    -0.206 F 
ATOM     67  C   UNL A   1      45.215  25.475  35.574  1.00  0.00     0.040 A 
ATOM     68  C   UNL A   1      46.655  27.304  34.958  1.00  0.00     0.040 A 
ATOM     69  F   UNL A   1      45.805  29.103  33.716  1.00  0.00    -0.206 F 
ATOM     70  C   UNL A   1      46.470  26.082  35.600  1.00  0.00     0.006 A 
ENDBRANCH  49  63
BRANCH  50  71
ATOM     71  C   UNL A   1      36.846  31.417  29.078  1.00  0.00     0.057 A 
ATOM     72  C   UNL A   1      36.881  32.759  28.683  1.00  0.00     0.134 A 
ATOM     73  C   UNL A   1      35.693  30.685  28.773  1.00  0.00     0.134 A 
ATOM     74  F   UNL A   1      37.947  33.520  28.970  1.00  0.00    -0.206 F 
ATOM     75  C   UNL A   1      35.800  33.359  28.033  1.00  0.00     0.040 A 
ATOM     76  C   UNL A   1      34.616  31.264  28.099  1.00  0.00     0.040 A 
ATOM     77  F   UNL A   1      35.597  29.394  29.125  1.00  0.00    -0.206 F 
ATOM     78  C   UNL A   1      34.666  32.607  27.735  1.00  0.00     0.006 A 
ENDBRANCH  50  71
BRANCH  62  79
ATOM     79  C   UNL A   1      39.062  32.076  35.642  1.00  0.00     0.057 A 
ATOM     80  C   UNL A   1      39.446  33.416  35.779  1.00  0.00     0.134 A 
ATOM     81  C   UNL A   1      38.199  31.551  36.613  1.00  0.00     0.134 A 
ATOM     82  F   UNL A   1      40.279  33.979  34.890  1.00  0.00    -0.206 F 
ATOM     83  C   UNL A   1      39.015  34.193  36.856  1.00  0.00     0.040 A 
ATOM     84  C   UNL A   1      37.737  32.325  37.678  1.00  0.00     0.040 A 
ATOM     85  F   UNL A   1      37.781  30.278  36.537  1.00  0.00    -0.206 F 
ATOM     86  C   UNL A   1      38.154  33.648  37.807  1.00  0.00     0.006 A 
ENDBRANCH  62  79
ENDBRANCH  36  37
ENDBRANCH  29  31
ENDBRANCH  28  29
ENDBRANCH  27  28
ENDBRANCH  26  27
ENDBRANCH  25  26
ENDBRANCH   1  25
TORSDOF 19
ENDMDL
MODEL 3
REMARK VINA RESULT:     -10.6      2.185      3.949
REMARK SMILES COc1c(C(=O)OCCOCCOCCOC(=O)c2ccc(-c3c4nc(c(-c5c(F)cccc5F)c5ccc([nH]5)c(-c5c(F)cccc5F)c5nc(c(-c6c(F)cccc6F)c6ccc3[nH]6)C=C5)C=C4)cc2)cccc1-c1cc(C)ccc1C
REMARK SMILES IDX 12 1 11 2 10 3 9 4 8 5 7 6 5 7 6 8 4 9 3 10 76 11 73 12
REMARK SMILES IDX 75 13 74 14 2 15 1 16 77 17 78 18 83 19 79 20 82 21 84 22
REMARK SMILES IDX 80 23 81 24 13 25 14 26 15 27 16 28 17 29 18 30 19 31 20 32
REMARK SMILES IDX 72 33 21 34 71 35 22 36 23 37 24 38 65 39 25 40 70 41 64 42
REMARK SMILES IDX 66 43 26 44 69 45 63 46 62 47 27 49 53 50 36 51 52 52 37 53
REMARK SMILES IDX 40 54 51 55 67 56 38 57 39 58 50 60 68 61 41 62 28 63 29 64
REMARK SMILES IDX 34 65 30 66 31 67 33 68 35 69 32 70 54 71 55 72 60 73 56 74
REMARK SMILES IDX 57 75 59 76 61 77 58 78 42 79 43 80 48 81 44 82 45 83 47 84
REMARK SMILES IDX 49 85 46 86
REMARK H PARENT 66 48 40 59
REMARK Flexibility Score: inf
ROOT
ATOM      1  C   UNL A   1      39.589  21.255  26.143  1.00  0.00     0.188 C 
ENDROOT
BRANCH   1   2
ATOM      2  C   UNL A   1      38.324  22.055  25.767  1.00  0.00     0.188 C 
BRANCH   2   3
ATOM      3  O   UNL A   1      37.762  21.903  24.468  1.00  0.00    -0.376 OA
BRANCH   3   4
ATOM      4  C   UNL A   1      36.360  22.096  24.291  1.00  0.00     0.202 C 
BRANCH   4   5
ATOM      5  C   UNL A   1      35.386  21.349  25.211  1.00  0.00     0.261 C 
BRANCH   5   6
ATOM      6  O   UNL A   1      34.293  22.168  25.657  1.00  0.00    -0.460 OA
BRANCH   6   7
ATOM      7  C   UNL A   1      33.254  22.290  24.796  1.00  0.00     0.342 C 
ATOM      8  O   UNL A   1      33.021  21.583  23.826  1.00  0.00    -0.246 OA
BRANCH   7   9
ATOM      9  C   UNL A   1      32.261  23.245  25.332  1.00  0.00     0.102 A 
ATOM     10  C   UNL A   1      32.341  24.633  25.133  1.00  0.00     0.141 A 
ATOM     11  C   UNL A   1      31.296  25.470  25.596  1.00  0.00     0.025 A 
ATOM     12  C   UNL A   1      31.213  22.692  26.084  1.00  0.00     0.019 A 
ATOM     13  C   UNL A   1      30.277  24.884  26.380  1.00  0.00     0.012 A 
ATOM     14  C   UNL A   1      30.241  23.515  26.638  1.00  0.00     0.002 A 
BRANCH  10  15
ATOM     15  O   UNL A   1      33.396  25.107  24.392  1.00  0.00    -0.495 OA
ATOM     16  C   UNL A   1      34.500  25.521  25.200  1.00  0.00     0.278 C 
ENDBRANCH  10  15
BRANCH  11  17
ATOM     17  C   UNL A   1      31.164  26.901  25.232  1.00  0.00    -0.011 A 
ATOM     18  C   UNL A   1      30.479  27.256  24.048  1.00  0.00     0.012 A 
ATOM     19  C   UNL A   1      31.748  27.938  25.997  1.00  0.00    -0.043 A 
ATOM     20  C   UNL A   1      30.346  28.591  23.639  1.00  0.00    -0.050 A 
ATOM     21  C   UNL A   1      31.563  29.277  25.609  1.00  0.00     0.004 A 
ATOM     22  C   UNL A   1      32.550  27.690  27.249  1.00  0.00     0.045 C 
ATOM     23  C   UNL A   1      29.668  28.920  22.340  1.00  0.00     0.044 C 
ATOM     24  C   UNL A   1      30.877  29.600  24.440  1.00  0.00     0.004 A 
ENDBRANCH  11  17
ENDBRANCH   7   9
ENDBRANCH   6   7
ENDBRANCH   5   6
ENDBRANCH   4   5
ENDBRANCH   3   4
ENDBRANCH   2   3
ENDBRANCH   1   2
BRANCH   1  25
ATOM     25  O   UNL A   1      40.769  22.022  26.180  1.00  0.00    -0.376 OA
BRANCH  25  26
ATOM     26  C   UNL A   1      42.024  21.390  26.009  1.00  0.00     0.202 C 
BRANCH  26  27
ATOM     27  C   UNL A   1      43.275  22.086  25.432  1.00  0.00     0.261 C 
BRANCH  27  28
ATOM     28  O   UNL A   1      43.098  23.311  24.714  1.00  0.00    -0.460 OA
BRANCH  28  29
ATOM     29  C   UNL A   1      43.925  24.326  25.031  1.00  0.00     0.338 C 
ATOM     30  O   UNL A   1      45.051  24.530  24.589  1.00  0.00    -0.246 OA
BRANCH  29  31
ATOM     31  C   UNL A   1      43.194  25.286  25.879  1.00  0.00     0.060 A 
ATOM     32  C   UNL A   1      43.870  26.426  26.332  1.00  0.00     0.016 A 
ATOM     33  C   UNL A   1      41.871  25.048  26.262  1.00  0.00     0.016 A 
ATOM     34  C   UNL A   1      43.243  27.302  27.217  1.00  0.00     0.010 A 
ATOM     35  C   UNL A   1      41.248  25.922  27.163  1.00  0.00     0.010 A 
ATOM     36  C   UNL A   1      41.948  27.026  27.678  1.00  0.00    -0.014 A 
BRANCH  36  37
ATOM     37  C   UNL A   1      41.429  27.776  28.849  1.00  0.00     0.031 A 
ATOM     38  C   UNL A   1      42.158  27.651  30.161  1.00  0.00     0.074 A 
ATOM     39  C   UNL A   1      40.376  28.604  28.742  1.00  0.00     0.049 A 
ATOM     40  N   UNL A   1      41.930  28.250  31.302  1.00  0.00    -0.248 NA
ATOM     41  C   UNL A   1      43.303  26.726  30.186  1.00  0.00     0.031 C 
ATOM     42  C   UNL A   1      39.600  28.837  27.527  1.00  0.00     0.029 A 
ATOM     43  N   UNL A   1      39.782  29.410  29.682  1.00  0.00    -0.354 N 
ATOM     44  C   UNL A   1      42.900  27.778  32.177  1.00  0.00     0.074 A 
ATOM     45  C   UNL A   1      43.696  26.814  31.448  1.00  0.00     0.031 C 
ATOM     46  C   UNL A   1      38.629  29.728  27.795  1.00  0.00     0.029 A 
ATOM     47  C   UNL A   1      38.705  30.115  29.204  1.00  0.00     0.049 A 
ATOM     48  H   UNL A   1      40.098  29.476  30.612  1.00  0.00     0.167 HD
ATOM     49  C   UNL A   1      43.121  28.122  33.467  1.00  0.00     0.037 A 
ATOM     50  C   UNL A   1      37.875  30.968  29.834  1.00  0.00     0.037 A 
ATOM     51  C   UNL A   1      42.329  29.075  34.199  1.00  0.00     0.049 A 
ATOM     52  C   UNL A   1      38.109  31.297  31.286  1.00  0.00     0.074 A 
ATOM     53  C   UNL A   1      42.479  29.498  35.509  1.00  0.00     0.029 A 
ATOM     54  N   UNL A   1      41.231  29.748  33.685  1.00  0.00    -0.354 N 
ATOM     55  N   UNL A   1      39.052  30.874  32.092  1.00  0.00    -0.248 NA
ATOM     56  C   UNL A   1      37.166  32.238  31.911  1.00  0.00     0.031 C 
ATOM     57  C   UNL A   1      41.444  30.394  35.801  1.00  0.00     0.029 A 
ATOM     58  C   UNL A   1      40.683  30.570  34.657  1.00  0.00     0.049 A 
ATOM     59  H   UNL A   1      40.890  29.655  32.767  1.00  0.00     0.167 HD
ATOM     60  C   UNL A   1      38.840  31.524  33.303  1.00  0.00     0.074 A 
ATOM     61  C   UNL A   1      37.685  32.377  33.123  1.00  0.00     0.031 C 
ATOM     62  C   UNL A   1      39.542  31.426  34.460  1.00  0.00     0.037 A 
BRANCH  49  63
ATOM     63  C   UNL A   1      44.256  27.443  34.176  1.00  0.00     0.057 A 
ATOM     64  C   UNL A   1      44.093  26.213  34.826  1.00  0.00     0.134 A 
ATOM     65  C   UNL A   1      45.532  28.019  34.194  1.00  0.00     0.134 A 
ATOM     66  F   UNL A   1      42.891  25.616  34.862  1.00  0.00    -0.206 F 
ATOM     67  C   UNL A   1      45.152  25.592  35.490  1.00  0.00     0.040 A 
ATOM     68  C   UNL A   1      46.605  27.395  34.831  1.00  0.00     0.040 A 
ATOM     69  F   UNL A   1      45.757  29.195  33.588  1.00  0.00    -0.206 F 
ATOM     70  C   UNL A   1      46.415  26.181  35.487  1.00  0.00     0.006 A 
ENDBRANCH  49  63
BRANCH  50  71
ATOM     71  C   UNL A   1      36.744  31.590  29.098  1.00  0.00     0.057 A 
ATOM     72  C   UNL A   1      36.788  32.929  28.693  1.00  0.00     0.134 A 
ATOM     73  C   UNL A   1      35.576  30.870  28.819  1.00  0.00     0.134 A 
ATOM     74  F   UNL A   1      37.869  33.679  28.955  1.00  0.00    -0.206 F 
ATOM     75  C   UNL A   1      35.704  33.538  28.058  1.00  0.00     0.040 A 
ATOM     76  C   UNL A   1      34.495  31.458  28.160  1.00  0.00     0.040 A 
ATOM     77  F   UNL A   1      35.471  29.584  29.182  1.00  0.00    -0.206 F 
ATOM     78  C   UNL A   1      34.554  32.798  27.786  1.00  0.00     0.006 A 
ENDBRANCH  50  71
BRANCH  62  79
ATOM     79  C   UNL A   1      39.116  32.305  35.601  1.00  0.00     0.057 A 
ATOM     80  C   UNL A   1      38.278  31.846  36.626  1.00  0.00     0.134 A 
ATOM     81  C   UNL A   1      39.567  33.630  35.684  1.00  0.00     0.134 A 
ATOM     82  F   UNL A   1      37.802  30.591  36.604  1.00  0.00    -0.206 F 
ATOM     83  C   UNL A   1      37.881  32.680  37.673  1.00  0.00     0.040 A 
ATOM     84  C   UNL A   1      39.200  34.464  36.740  1.00  0.00     0.040 A 
ATOM     85  F   UNL A   1      40.382  34.132  34.743  1.00  0.00    -0.206 F 
ATOM     86  C   UNL A   1      38.346  33.992  37.733  1.00  0.00     0.006 A 
ENDBRANCH  62  79
ENDBRANCH  36  37
ENDBRANCH  29  31
ENDBRANCH  28  29
ENDBRANCH  27  28
ENDBRANCH  26  27
ENDBRANCH  25  26
ENDBRANCH   1  25
TORSDOF 19
ENDMDL
