MODEL 1
REMARK VINA RESULT:     -11.7      0.000      0.000
REMARK SMILES NS(=O)(=O)c1ccc(-n2nc(NC(=O)NCCCC(=O)OCCOCCOCCOC(=O)c3ccc(-c4c5nc(c(-c6c(F)cccc6F)c6ccc([nH]6)c(-c6c(F)cccc6F)c6nc(c(-c7c(F)cccc7F)c7ccc4[nH]7)C=C6)C=C5)cc3)cc2-c2ccccc2)cc1
REMARK SMILES IDX 23 1 22 2 21 3 19 4 20 5 18 6 17 7 16 8 15 9 12 10 13 11
REMARK SMILES IDX 14 13 11 15 9 16 10 17 88 18 87 19 8 20 5 21 6 22 96 23 7 24
REMARK SMILES IDX 95 25 2 26 3 27 4 28 1 29 89 32 90 33 94 34 91 35 93 36
REMARK SMILES IDX 92 37 24 38 25 39 26 40 27 41 28 42 29 43 30 44 31 45 32 46
REMARK SMILES IDX 33 47 34 48 86 49 35 50 85 51 36 52 37 53 38 54 79 55 39 56
REMARK SMILES IDX 84 57 78 58 80 59 40 60 83 61 77 62 76 63 41 65 67 66 50 67
REMARK SMILES IDX 66 68 51 69 54 70 65 71 81 72 52 73 53 74 64 76 82 77 55 78
REMARK SMILES IDX 42 79 43 80 48 81 44 82 45 83 47 84 49 85 46 86 68 87 69 88
REMARK SMILES IDX 74 89 70 90 71 91 73 92 75 93 72 94 56 95 57 96 62 97 58 98
REMARK SMILES IDX 59 99 61 100 63 101 60 102
REMARK H PARENT 12 12 15 14 1 30 1 31 80 64 54 75
REMARK Flexibility Score: inf
ROOT
ATOM      1  C   UNL A   1      33.259  31.608  27.482  1.00  0.00     0.202 C 
ENDROOT
BRANCH   1   2
ATOM      2  C   UNL A   1      33.252  30.084  27.229  1.00  0.00     0.261 C 
BRANCH   2   3
ATOM      3  O   UNL A   1      32.130  29.518  26.519  1.00  0.00    -0.463 OA
BRANCH   3   4
ATOM      4  C   UNL A   1      31.612  28.373  27.016  1.00  0.00     0.305 C 
ATOM      5  O   UNL A   1      31.340  28.202  28.199  1.00  0.00    -0.252 OA
BRANCH   4   6
ATOM      6  C   UNL A   1      31.471  27.263  25.982  1.00  0.00     0.124 C 
BRANCH   6   7
ATOM      7  C   UNL A   1      30.256  26.331  25.933  1.00  0.00     0.033 C 
BRANCH   7   8
ATOM      8  C   UNL A   1      29.515  26.058  24.618  1.00  0.00     0.118 C 
BRANCH   8   9
ATOM      9  N   UNL A   1      29.529  27.107  23.635  1.00  0.00    -0.338 N 
ATOM     10  N   UNL A   1      31.652  26.905  22.524  1.00  0.00    -0.291 N 
ATOM     11  C   UNL A   1      30.419  27.418  22.678  1.00  0.00     0.320 C 
ATOM     12  H   UNL A   1      32.208  27.470  21.940  1.00  0.00     0.173 HD
ATOM     13  O   UNL A   1      30.098  28.338  21.914  1.00  0.00    -0.248 OA
ATOM     14  H   UNL A   1      28.747  27.705  23.670  1.00  0.00     0.165 HD
BRANCH  10  15
ATOM     15  C   UNL A   1      32.348  25.799  22.968  1.00  0.00     0.157 A 
ATOM     16  N   UNL A   1      32.878  23.868  23.676  1.00  0.00    -0.231 N 
ATOM     17  N   UNL A   1      31.878  24.560  23.088  1.00  0.00    -0.149 NA
ATOM     18  C   UNL A   1      34.083  24.558  23.690  1.00  0.00     0.076 A 
ATOM     19  C   UNL A   1      33.747  25.826  23.260  1.00  0.00     0.078 A 
BRANCH  16  20
ATOM     20  C   UNL A   1      32.759  22.492  23.936  1.00  0.00     0.065 A 
ATOM     21  C   UNL A   1      33.028  19.761  24.107  1.00  0.00     0.082 A 
ATOM     22  C   UNL A   1      33.470  20.558  25.176  1.00  0.00     0.024 A 
ATOM     23  C   UNL A   1      32.488  20.317  22.953  1.00  0.00     0.024 A 
ATOM     24  C   UNL A   1      33.349  21.942  25.084  1.00  0.00     0.030 A 
ATOM     25  C   UNL A   1      32.324  21.693  22.877  1.00  0.00     0.030 A 
BRANCH  21  26
ATOM     26  S   UNL A   1      33.024  18.028  24.309  1.00  0.00     0.238 S 
ATOM     27  O   UNL A   1      31.854  17.695  25.091  1.00  0.00    -0.207 OA
ATOM     28  O   UNL A   1      34.359  17.595  24.617  1.00  0.00    -0.207 OA
BRANCH  26  29
ATOM     29  N   UNL A   1      32.654  17.333  22.827  1.00  0.00    -0.225 NA
ATOM     30  H   UNL A   1      31.747  16.869  22.886  1.00  0.00     0.137 HD
ATOM     31  H   UNL A   1      33.370  16.648  22.584  1.00  0.00     0.137 HD
ENDBRANCH  26  29
ENDBRANCH  21  26
ENDBRANCH  16  20
BRANCH  18  32
ATOM     32  C   UNL A   1      35.347  23.919  24.090  1.00  0.00     0.000 A 
ATOM     33  C   UNL A   1      35.954  22.968  23.246  1.00  0.00     0.010 A 
ATOM     34  C   UNL A   1      35.838  24.066  25.389  1.00  0.00     0.010 A 
ATOM     35  C   UNL A   1      36.924  22.088  23.729  1.00  0.00     0.001 A 
ATOM     36  C   UNL A   1      36.845  23.213  25.860  1.00  0.00     0.001 A 
ATOM     37  C   UNL A   1      37.362  22.206  25.042  1.00  0.00     0.000 A 
ENDBRANCH  18  32
ENDBRANCH  10  15
ENDBRANCH   8   9
ENDBRANCH   7   8
ENDBRANCH   6   7
ENDBRANCH   4   6
ENDBRANCH   3   4
ENDBRANCH   2   3
ENDBRANCH   1   2
BRANCH   1  38
ATOM     38  O   UNL A   1      34.107  32.137  28.487  1.00  0.00    -0.376 OA
BRANCH  38  39
ATOM     39  C   UNL A   1      34.923  33.259  28.175  1.00  0.00     0.188 C 
BRANCH  39  40
ATOM     40  C   UNL A   1      34.261  34.556  27.676  1.00  0.00     0.188 C 
BRANCH  40  41
ATOM     41  O   UNL A   1      34.551  35.714  28.436  1.00  0.00    -0.376 OA
BRANCH  41  42
ATOM     42  C   UNL A   1      33.437  36.437  28.889  1.00  0.00     0.202 C 
BRANCH  42  43
ATOM     43  C   UNL A   1      32.771  35.934  30.157  1.00  0.00     0.261 C 
BRANCH  43  44
ATOM     44  O   UNL A   1      33.429  34.931  30.930  1.00  0.00    -0.460 OA
BRANCH  44  45
ATOM     45  C   UNL A   1      33.067  34.752  32.215  1.00  0.00     0.338 C 
ATOM     46  O   UNL A   1      32.009  35.042  32.735  1.00  0.00    -0.246 OA
BRANCH  45  47
ATOM     47  C   UNL A   1      34.213  34.313  33.012  1.00  0.00     0.060 A 
ATOM     48  C   UNL A   1      35.218  35.276  33.197  1.00  0.00     0.016 A 
ATOM     49  C   UNL A   1      34.485  32.952  32.892  1.00  0.00     0.016 A 
ATOM     50  C   UNL A   1      36.520  34.907  32.946  1.00  0.00     0.010 A 
ATOM     51  C   UNL A   1      35.756  32.615  32.526  1.00  0.00     0.010 A 
ATOM     52  C   UNL A   1      36.749  33.604  32.508  1.00  0.00    -0.014 A 
BRANCH  52  53
ATOM     53  C   UNL A   1      38.098  33.147  32.272  1.00  0.00     0.031 A 
ATOM     54  C   UNL A   1      38.902  33.231  33.500  1.00  0.00     0.074 A 
ATOM     55  C   UNL A   1      38.474  32.534  31.138  1.00  0.00     0.049 A 
ATOM     56  N   UNL A   1      39.975  33.930  33.643  1.00  0.00    -0.248 NA
ATOM     57  C   UNL A   1      38.355  32.698  34.763  1.00  0.00     0.031 C 
ATOM     58  C   UNL A   1      37.705  32.362  29.925  1.00  0.00     0.029 A 
ATOM     59  N   UNL A   1      39.595  31.814  30.874  1.00  0.00    -0.354 N 
ATOM     60  C   UNL A   1      40.366  33.705  34.950  1.00  0.00     0.074 A 
ATOM     61  C   UNL A   1      39.226  33.181  35.645  1.00  0.00     0.031 C 
ATOM     62  C   UNL A   1      38.200  31.356  29.178  1.00  0.00     0.029 A 
ATOM     63  C   UNL A   1      39.448  30.949  29.786  1.00  0.00     0.049 A 
ATOM     64  H   UNL A   1      40.426  31.892  31.396  1.00  0.00     0.167 HD
ATOM     65  C   UNL A   1      41.685  33.630  35.251  1.00  0.00     0.037 A 
ATOM     66  C   UNL A   1      40.302  29.963  29.425  1.00  0.00     0.037 A 
ATOM     67  C   UNL A   1      42.485  34.289  34.247  1.00  0.00     0.049 A 
ATOM     68  C   UNL A   1      41.617  30.317  30.024  1.00  0.00     0.074 A 
ATOM     69  C   UNL A   1      42.485  35.566  33.719  1.00  0.00     0.029 A 
ATOM     70  N   UNL A   1      43.171  33.504  33.350  1.00  0.00    -0.354 N 
ATOM     71  N   UNL A   1      42.325  31.342  29.626  1.00  0.00    -0.248 NA
ATOM     72  C   UNL A   1      41.888  29.867  31.383  1.00  0.00     0.031 C 
ATOM     73  C   UNL A   1      42.782  35.401  32.337  1.00  0.00     0.029 A 
ATOM     74  C   UNL A   1      43.011  34.045  32.099  1.00  0.00     0.049 A 
ATOM     75  H   UNL A   1      43.688  32.695  33.568  1.00  0.00     0.167 HD
ATOM     76  C   UNL A   1      42.789  31.928  30.797  1.00  0.00     0.074 A 
ATOM     77  C   UNL A   1      42.570  30.924  31.837  1.00  0.00     0.031 C 
ATOM     78  C   UNL A   1      43.007  33.276  30.873  1.00  0.00     0.037 A 
BRANCH  65  79
ATOM     79  C   UNL A   1      42.227  32.610  36.213  1.00  0.00     0.057 A 
ATOM     80  C   UNL A   1      43.026  33.056  37.275  1.00  0.00     0.134 A 
ATOM     81  C   UNL A   1      42.235  31.213  35.998  1.00  0.00     0.134 A 
ATOM     82  F   UNL A   1      43.112  34.362  37.565  1.00  0.00    -0.206 F 
ATOM     83  C   UNL A   1      43.829  32.186  38.018  1.00  0.00     0.040 A 
ATOM     84  C   UNL A   1      42.987  30.330  36.771  1.00  0.00     0.040 A 
ATOM     85  F   UNL A   1      41.603  30.627  34.973  1.00  0.00    -0.206 F 
ATOM     86  C   UNL A   1      43.815  30.820  37.763  1.00  0.00     0.006 A 
ENDBRANCH  65  79
BRANCH  66  87
ATOM     87  C   UNL A   1      39.981  28.659  28.801  1.00  0.00     0.057 A 
ATOM     88  C   UNL A   1      40.420  28.338  27.511  1.00  0.00     0.134 A 
ATOM     89  C   UNL A   1      39.430  27.593  29.543  1.00  0.00     0.134 A 
ATOM     90  F   UNL A   1      40.994  29.269  26.737  1.00  0.00    -0.206 F 
ATOM     91  C   UNL A   1      40.333  27.036  26.994  1.00  0.00     0.040 A 
ATOM     92  C   UNL A   1      39.332  26.292  29.037  1.00  0.00     0.040 A 
ATOM     93  F   UNL A   1      39.040  27.758  30.816  1.00  0.00    -0.206 F 
ATOM     94  C   UNL A   1      39.796  26.006  27.761  1.00  0.00     0.006 A 
ENDBRANCH  66  87
BRANCH  78  95
ATOM     95  C   UNL A   1      42.977  34.075  29.596  1.00  0.00     0.057 A 
ATOM     96  C   UNL A   1      41.849  34.769  29.133  1.00  0.00     0.134 A 
ATOM     97  C   UNL A   1      44.183  34.324  28.930  1.00  0.00     0.134 A 
ATOM     98  F   UNL A   1      40.674  34.677  29.767  1.00  0.00    -0.206 F 
ATOM     99  C   UNL A   1      41.911  35.646  28.045  1.00  0.00     0.040 A 
ATOM    100  C   UNL A   1      44.267  35.220  27.862  1.00  0.00     0.040 A 
ATOM    101  F   UNL A   1      45.318  33.746  29.355  1.00  0.00    -0.206 F 
ATOM    102  C   UNL A   1      43.127  35.881  27.412  1.00  0.00     0.006 A 
ENDBRANCH  78  95
ENDBRANCH  52  53
ENDBRANCH  45  47
ENDBRANCH  44  45
ENDBRANCH  43  44
ENDBRANCH  42  43
ENDBRANCH  41  42
ENDBRANCH  40  41
ENDBRANCH  39  40
ENDBRANCH  38  39
ENDBRANCH   1  38
TORSDOF 25
ENDMDL
MODEL 2
REMARK VINA RESULT:     -10.1      3.936      9.283
REMARK SMILES NS(=O)(=O)c1ccc(-n2nc(NC(=O)NCCCC(=O)OCCOCCOCCOC(=O)c3ccc(-c4c5nc(c(-c6c(F)cccc6F)c6ccc([nH]6)c(-c6c(F)cccc6F)c6nc(c(-c7c(F)cccc7F)c7ccc4[nH]7)C=C6)C=C5)cc3)cc2-c2ccccc2)cc1
REMARK SMILES IDX 23 1 22 2 21 3 19 4 20 5 18 6 17 7 16 8 15 9 12 10 13 11
REMARK SMILES IDX 14 13 11 15 9 16 10 17 88 18 87 19 8 20 5 21 6 22 96 23 7 24
REMARK SMILES IDX 95 25 2 26 3 27 4 28 1 29 89 32 90 33 94 34 91 35 93 36
REMARK SMILES IDX 92 37 24 38 25 39 26 40 27 41 28 42 29 43 30 44 31 45 32 46
REMARK SMILES IDX 33 47 34 48 86 49 35 50 85 51 36 52 37 53 38 54 79 55 39 56
REMARK SMILES IDX 84 57 78 58 80 59 40 60 83 61 77 62 76 63 41 65 67 66 50 67
REMARK SMILES IDX 66 68 51 69 54 70 65 71 81 72 52 73 53 74 64 76 82 77 55 78
REMARK SMILES IDX 42 79 43 80 48 81 44 82 45 83 47 84 49 85 46 86 68 87 69 88
REMARK SMILES IDX 74 89 70 90 71 91 73 92 75 93 72 94 56 95 57 96 62 97 58 98
REMARK SMILES IDX 59 99 61 100 63 101 60 102
REMARK H PARENT 12 12 15 14 1 30 1 31 80 64 54 75
REMARK Flexibility Score: inf
ROOT
ATOM      1  C   UNL A   1      42.204  21.406  26.140  1.00  0.00     0.202 C 
ENDROOT
BRANCH   1   2
ATOM      2  C   UNL A   1      40.803  20.760  26.213  1.00  0.00     0.261 C 
BRANCH   2   3
ATOM      3  O   UNL A   1      39.662  21.568  25.850  1.00  0.00    -0.463 OA
BRANCH   3   4
ATOM      4  C   UNL A   1      38.589  20.915  25.351  1.00  0.00     0.305 C 
ATOM      5  O   UNL A   1      38.483  19.693  25.326  1.00  0.00    -0.252 OA
BRANCH   4   6
ATOM      6  C   UNL A   1      37.543  21.834  24.733  1.00  0.00     0.124 C 
BRANCH   6   7
ATOM      7  C   UNL A   1      36.699  22.802  25.570  1.00  0.00     0.033 C 
BRANCH   7   8
ATOM      8  C   UNL A   1      35.447  22.325  26.317  1.00  0.00     0.118 C 
BRANCH   8   9
ATOM      9  N   UNL A   1      34.888  21.066  25.908  1.00  0.00    -0.338 N 
ATOM     10  N   UNL A   1      32.689  21.587  25.084  1.00  0.00    -0.291 N 
ATOM     11  C   UNL A   1      33.728  20.762  25.301  1.00  0.00     0.320 C 
ATOM     12  H   UNL A   1      31.867  21.086  24.880  1.00  0.00     0.173 HD
ATOM     13  O   UNL A   1      33.572  19.574  24.988  1.00  0.00    -0.248 OA
ATOM     14  H   UNL A   1      35.455  20.286  26.110  1.00  0.00     0.165 HD
BRANCH  10  15
ATOM     15  C   UNL A   1      32.467  22.949  25.072  1.00  0.00     0.157 A 
ATOM     16  N   UNL A   1      31.901  24.921  24.525  1.00  0.00    -0.231 N 
ATOM     17  N   UNL A   1      31.698  23.622  24.220  1.00  0.00    -0.149 NA
ATOM     18  C   UNL A   1      32.568  25.100  25.730  1.00  0.00     0.076 A 
ATOM     19  C   UNL A   1      32.968  23.827  26.082  1.00  0.00     0.078 A 
BRANCH  16  20
ATOM     20  C   UNL A   1      31.218  25.946  23.847  1.00  0.00     0.065 A 
ATOM     21  C   UNL A   1      29.966  28.256  23.036  1.00  0.00     0.082 A 
ATOM     22  C   UNL A   1      31.290  28.019  22.630  1.00  0.00     0.024 A 
ATOM     23  C   UNL A   1      29.284  27.371  23.863  1.00  0.00     0.024 A 
ATOM     24  C   UNL A   1      31.930  26.857  23.052  1.00  0.00     0.030 A 
ATOM     25  C   UNL A   1      29.902  26.191  24.248  1.00  0.00     0.030 A 
BRANCH  21  26
ATOM     26  S   UNL A   1      29.121  29.624  22.357  1.00  0.00     0.238 S 
ATOM     27  O   UNL A   1      27.707  29.337  22.453  1.00  0.00    -0.207 OA
ATOM     28  O   UNL A   1      29.790  30.029  21.151  1.00  0.00    -0.207 OA
BRANCH  26  29
ATOM     29  N   UNL A   1      29.282  30.913  23.418  1.00  0.00    -0.225 NA
ATOM     30  H   UNL A   1      30.272  31.105  23.571  1.00  0.00     0.137 HD
ATOM     31  H   UNL A   1      28.841  30.679  24.307  1.00  0.00     0.137 HD
ENDBRANCH  26  29
ENDBRANCH  21  26
ENDBRANCH  16  20
BRANCH  18  32
ATOM     32  C   UNL A   1      32.711  26.424  26.357  1.00  0.00     0.000 A 
ATOM     33  C   UNL A   1      31.641  26.975  27.090  1.00  0.00     0.010 A 
ATOM     34  C   UNL A   1      33.799  27.243  26.050  1.00  0.00     0.010 A 
ATOM     35  C   UNL A   1      31.593  28.340  27.382  1.00  0.00     0.001 A 
ATOM     36  C   UNL A   1      33.771  28.603  26.384  1.00  0.00     0.001 A 
ATOM     37  C   UNL A   1      32.656  29.156  27.018  1.00  0.00     0.000 A 
ENDBRANCH  18  32
ENDBRANCH  10  15
ENDBRANCH   8   9
ENDBRANCH   7   8
ENDBRANCH   6   7
ENDBRANCH   4   6
ENDBRANCH   3   4
ENDBRANCH   2   3
ENDBRANCH   1   2
BRANCH   1  38
ATOM     38  O   UNL A   1      43.083  21.034  25.093  1.00  0.00    -0.376 OA
BRANCH  38  39
ATOM     39  C   UNL A   1      44.465  20.869  25.383  1.00  0.00     0.188 C 
BRANCH  39  40
ATOM     40  C   UNL A   1      45.209  21.969  26.161  1.00  0.00     0.188 C 
BRANCH  40  41
ATOM     41  O   UNL A   1      46.405  22.430  25.562  1.00  0.00    -0.376 OA
BRANCH  41  42
ATOM     42  C   UNL A   1      46.244  23.362  24.526  1.00  0.00     0.202 C 
BRANCH  42  43
ATOM     43  C   UNL A   1      45.300  24.521  24.793  1.00  0.00     0.261 C 
BRANCH  43  44
ATOM     44  O   UNL A   1      45.727  25.571  25.659  1.00  0.00    -0.460 OA
BRANCH  44  45
ATOM     45  C   UNL A   1      45.206  26.804  25.500  1.00  0.00     0.338 C 
ATOM     46  O   UNL A   1      45.524  27.643  24.682  1.00  0.00    -0.246 OA
BRANCH  45  47
ATOM     47  C   UNL A   1      44.288  27.115  26.596  1.00  0.00     0.060 A 
ATOM     48  C   UNL A   1      43.086  27.732  26.213  1.00  0.00     0.016 A 
ATOM     49  C   UNL A   1      44.933  27.400  27.798  1.00  0.00     0.016 A 
ATOM     50  C   UNL A   1      42.696  28.863  26.893  1.00  0.00     0.010 A 
ATOM     51  C   UNL A   1      44.616  28.587  28.393  1.00  0.00     0.010 A 
ATOM     52  C   UNL A   1      43.533  29.331  27.904  1.00  0.00    -0.014 A 
BRANCH  52  53
ATOM     53  C   UNL A   1      43.155  30.487  28.680  1.00  0.00     0.031 A 
ATOM     54  C   UNL A   1      43.868  31.686  28.216  1.00  0.00     0.074 A 
ATOM     55  C   UNL A   1      42.133  30.480  29.552  1.00  0.00     0.049 A 
ATOM     56  N   UNL A   1      44.658  32.409  28.933  1.00  0.00    -0.248 NA
ATOM     57  C   UNL A   1      43.918  31.987  26.772  1.00  0.00     0.031 C 
ATOM     58  C   UNL A   1      41.352  29.346  29.995  1.00  0.00     0.029 A 
ATOM     59  N   UNL A   1      41.486  31.522  30.136  1.00  0.00    -0.354 N 
ATOM     60  C   UNL A   1      45.093  33.404  28.077  1.00  0.00     0.074 A 
ATOM     61  C   UNL A   1      44.833  32.952  26.741  1.00  0.00     0.031 C 
ATOM     62  C   UNL A   1      40.171  29.744  30.506  1.00  0.00     0.029 A 
ATOM     63  C   UNL A   1      40.211  31.186  30.599  1.00  0.00     0.049 A 
ATOM     64  H   UNL A   1      41.876  32.422  30.224  1.00  0.00     0.167 HD
ATOM     65  C   UNL A   1      45.294  34.656  28.553  1.00  0.00     0.037 A 
ATOM     66  C   UNL A   1      39.259  32.051  31.022  1.00  0.00     0.037 A 
ATOM     67  C   UNL A   1      45.499  34.642  29.982  1.00  0.00     0.049 A 
ATOM     68  C   UNL A   1      39.975  33.295  31.410  1.00  0.00     0.074 A 
ATOM     69  C   UNL A   1      46.388  33.981  30.808  1.00  0.00     0.029 A 
ATOM     70  N   UNL A   1      44.464  35.056  30.788  1.00  0.00    -0.354 N 
ATOM     71  N   UNL A   1      40.771  33.361  32.446  1.00  0.00    -0.248 NA
ATOM     72  C   UNL A   1      40.223  34.289  30.374  1.00  0.00     0.031 C 
ATOM     73  C   UNL A   1      45.642  33.648  31.974  1.00  0.00     0.029 A 
ATOM     74  C   UNL A   1      44.357  34.174  31.834  1.00  0.00     0.049 A 
ATOM     75  H   UNL A   1      43.899  35.848  30.640  1.00  0.00     0.167 HD
ATOM     76  C   UNL A   1      41.868  34.089  32.003  1.00  0.00     0.074 A 
ATOM     77  C   UNL A   1      41.432  34.713  30.755  1.00  0.00     0.031 C 
ATOM     78  C   UNL A   1      43.117  33.862  32.512  1.00  0.00     0.037 A 
BRANCH  65  79
ATOM     79  C   UNL A   1      44.884  35.880  27.782  1.00  0.00     0.057 A 
ATOM     80  C   UNL A   1      45.834  36.890  27.583  1.00  0.00     0.134 A 
ATOM     81  C   UNL A   1      43.552  36.233  27.469  1.00  0.00     0.134 A 
ATOM     82  F   UNL A   1      47.129  36.677  27.861  1.00  0.00    -0.206 F 
ATOM     83  C   UNL A   1      45.476  38.177  27.173  1.00  0.00     0.040 A 
ATOM     84  C   UNL A   1      43.192  37.497  27.004  1.00  0.00     0.040 A 
ATOM     85  F   UNL A   1      42.508  35.424  27.686  1.00  0.00    -0.206 F 
ATOM     86  C   UNL A   1      44.151  38.486  26.888  1.00  0.00     0.006 A 
ENDBRANCH  65  79
BRANCH  66  87
ATOM     87  C   UNL A   1      37.790  31.927  30.888  1.00  0.00     0.057 A 
ATOM     88  C   UNL A   1      36.943  32.022  32.000  1.00  0.00     0.134 A 
ATOM     89  C   UNL A   1      37.151  31.947  29.631  1.00  0.00     0.134 A 
ATOM     90  F   UNL A   1      37.452  32.052  33.240  1.00  0.00    -0.206 F 
ATOM     91  C   UNL A   1      35.552  32.145  31.872  1.00  0.00     0.040 A 
ATOM     92  C   UNL A   1      35.764  32.062  29.489  1.00  0.00     0.040 A 
ATOM     93  F   UNL A   1      37.857  31.934  28.490  1.00  0.00    -0.206 F 
ATOM     94  C   UNL A   1      34.958  32.174  30.613  1.00  0.00     0.006 A 
ENDBRANCH  66  87
BRANCH  78  95
ATOM     95  C   UNL A   1      43.240  32.990  33.736  1.00  0.00     0.057 A 
ATOM     96  C   UNL A   1      43.440  31.602  33.691  1.00  0.00     0.134 A 
ATOM     97  C   UNL A   1      43.373  33.603  34.987  1.00  0.00     0.134 A 
ATOM     98  F   UNL A   1      43.435  30.941  32.527  1.00  0.00    -0.206 F 
ATOM     99  C   UNL A   1      43.731  30.856  34.838  1.00  0.00     0.040 A 
ATOM    100  C   UNL A   1      43.694  32.877  36.136  1.00  0.00     0.040 A 
ATOM    101  F   UNL A   1      43.258  34.936  35.100  1.00  0.00    -0.206 F 
ATOM    102  C   UNL A   1      43.869  31.497  36.066  1.00  0.00     0.006 A 
ENDBRANCH  78  95
ENDBRANCH  52  53
ENDBRANCH  45  47
ENDBRANCH  44  45
ENDBRANCH  43  44
ENDBRANCH  42  43
ENDBRANCH  41  42
ENDBRANCH  40  41
ENDBRANCH  39  40
ENDBRANCH  38  39
ENDBRANCH   1  38
TORSDOF 25
ENDMDL
MODEL 3
REMARK VINA RESULT:      -9.7      3.189      4.913
REMARK SMILES NS(=O)(=O)c1ccc(-n2nc(NC(=O)NCCCC(=O)OCCOCCOCCOC(=O)c3ccc(-c4c5nc(c(-c6c(F)cccc6F)c6ccc([nH]6)c(-c6c(F)cccc6F)c6nc(c(-c7c(F)cccc7F)c7ccc4[nH]7)C=C6)C=C5)cc3)cc2-c2ccccc2)cc1
REMARK SMILES IDX 23 1 22 2 21 3 19 4 20 5 18 6 17 7 16 8 15 9 12 10 13 11
REMARK SMILES IDX 14 13 11 15 9 16 10 17 88 18 87 19 8 20 5 21 6 22 96 23 7 24
REMARK SMILES IDX 95 25 2 26 3 27 4 28 1 29 89 32 90 33 94 34 91 35 93 36
REMARK SMILES IDX 92 37 24 38 25 39 26 40 27 41 28 42 29 43 30 44 31 45 32 46
REMARK SMILES IDX 33 47 34 48 86 49 35 50 85 51 36 52 37 53 38 54 79 55 39 56
REMARK SMILES IDX 84 57 78 58 80 59 40 60 83 61 77 62 76 63 41 65 67 66 50 67
REMARK SMILES IDX 66 68 51 69 54 70 65 71 81 72 52 73 53 74 64 76 82 77 55 78
REMARK SMILES IDX 42 79 43 80 48 81 44 82 45 83 47 84 49 85 46 86 68 87 69 88
REMARK SMILES IDX 74 89 70 90 71 91 73 92 75 93 72 94 56 95 57 96 62 97 58 98
REMARK SMILES IDX 59 99 61 100 63 101 60 102
REMARK H PARENT 12 12 15 14 1 30 1 31 80 64 54 75
REMARK Flexibility Score: inf
ROOT
ATOM      1  C   UNL A   1      28.845  27.576  23.404  1.00  0.00     0.202 C 
ENDROOT
BRANCH   1   2
ATOM      2  C   UNL A   1      29.080  26.127  23.887  1.00  0.00     0.261 C 
BRANCH   2   3
ATOM      3  O   UNL A   1      29.334  25.912  25.292  1.00  0.00    -0.463 OA
BRANCH   3   4
ATOM      4  C   UNL A   1      30.578  25.507  25.630  1.00  0.00     0.305 C 
ATOM      5  O   UNL A   1      30.909  24.332  25.741  1.00  0.00    -0.252 OA
BRANCH   4   6
ATOM      6  C   UNL A   1      31.530  26.652  25.952  1.00  0.00     0.124 C 
BRANCH   6   7
ATOM      7  C   UNL A   1      33.052  26.522  25.819  1.00  0.00     0.033 C 
BRANCH   7   8
ATOM      8  C   UNL A   1      33.732  26.505  24.444  1.00  0.00     0.118 C 
BRANCH   8   9
ATOM      9  N   UNL A   1      32.886  26.703  23.299  1.00  0.00    -0.338 N 
ATOM     10  N   UNL A   1      32.733  24.548  22.242  1.00  0.00    -0.291 N 
ATOM     11  C   UNL A   1      32.391  25.840  22.397  1.00  0.00     0.320 C 
ATOM     12  H   UNL A   1      32.452  24.203  21.364  1.00  0.00     0.173 HD
ATOM     13  O   UNL A   1      31.602  26.311  21.567  1.00  0.00    -0.248 OA
ATOM     14  H   UNL A   1      32.623  27.640  23.148  1.00  0.00     0.165 HD
BRANCH  10  15
ATOM     15  C   UNL A   1      33.375  23.579  22.984  1.00  0.00     0.157 A 
ATOM     16  N   UNL A   1      34.816  22.455  24.067  1.00  0.00    -0.231 N 
ATOM     17  N   UNL A   1      34.557  23.690  23.587  1.00  0.00    -0.149 NA
ATOM     18  C   UNL A   1      33.713  21.613  24.031  1.00  0.00     0.076 A 
ATOM     19  C   UNL A   1      32.777  22.320  23.303  1.00  0.00     0.078 A 
BRANCH  16  20
ATOM     20  C   UNL A   1      35.981  22.190  24.807  1.00  0.00     0.065 A 
ATOM     21  C   UNL A   1      38.540  21.822  25.743  1.00  0.00     0.082 A 
ATOM     22  C   UNL A   1      37.864  23.013  26.057  1.00  0.00     0.024 A 
ATOM     23  C   UNL A   1      37.963  20.839  24.947  1.00  0.00     0.024 A 
ATOM     24  C   UNL A   1      36.574  23.207  25.571  1.00  0.00     0.030 A 
ATOM     25  C   UNL A   1      36.661  21.009  24.499  1.00  0.00     0.030 A 
BRANCH  21  26
ATOM     26  S   UNL A   1      40.082  21.517  26.502  1.00  0.00     0.238 S 
ATOM     27  O   UNL A   1      40.278  20.085  26.502  1.00  0.00    -0.207 OA
ATOM     28  O   UNL A   1      40.200  22.356  27.664  1.00  0.00    -0.207 OA
BRANCH  26  29
ATOM     29  N   UNL A   1      41.288  22.027  25.452  1.00  0.00    -0.225 NA
ATOM     30  H   UNL A   1      41.902  22.683  25.934  1.00  0.00     0.137 HD
ATOM     31  H   UNL A   1      40.865  22.487  24.646  1.00  0.00     0.137 HD
ENDBRANCH  26  29
ENDBRANCH  21  26
ENDBRANCH  16  20
BRANCH  18  32
ATOM     32  C   UNL A   1      33.709  20.297  24.691  1.00  0.00     0.000 A 
ATOM     33  C   UNL A   1      34.131  19.153  23.983  1.00  0.00     0.010 A 
ATOM     34  C   UNL A   1      33.081  20.123  25.926  1.00  0.00     0.010 A 
ATOM     35  C   UNL A   1      33.805  17.870  24.427  1.00  0.00     0.001 A 
ATOM     36  C   UNL A   1      32.797  18.833  26.393  1.00  0.00     0.001 A 
ATOM     37  C   UNL A   1      33.128  17.712  25.629  1.00  0.00     0.000 A 
ENDBRANCH  18  32
ENDBRANCH  10  15
ENDBRANCH   8   9
ENDBRANCH   7   8
ENDBRANCH   6   7
ENDBRANCH   4   6
ENDBRANCH   3   4
ENDBRANCH   2   3
ENDBRANCH   1   2
BRANCH   1  38
ATOM     38  O   UNL A   1      29.962  28.395  23.109  1.00  0.00    -0.376 OA
BRANCH  38  39
ATOM     39  C   UNL A   1      30.115  29.624  23.808  1.00  0.00     0.188 C 
BRANCH  39  40
ATOM     40  C   UNL A   1      31.369  29.848  24.673  1.00  0.00     0.188 C 
BRANCH  40  41
ATOM     41  O   UNL A   1      31.194  30.715  25.777  1.00  0.00    -0.376 OA
BRANCH  41  42
ATOM     42  C   UNL A   1      32.020  30.462  26.883  1.00  0.00     0.202 C 
BRANCH  42  43
ATOM     43  C   UNL A   1      33.313  31.254  26.963  1.00  0.00     0.261 C 
BRANCH  43  44
ATOM     44  O   UNL A   1      34.202  31.012  28.052  1.00  0.00    -0.460 OA
BRANCH  44  45
ATOM     45  C   UNL A   1      35.242  30.174  27.876  1.00  0.00     0.338 C 
ATOM     46  O   UNL A   1      35.358  29.303  27.038  1.00  0.00    -0.246 OA
BRANCH  45  47
ATOM     47  C   UNL A   1      36.197  30.307  28.976  1.00  0.00     0.060 A 
ATOM     48  C   UNL A   1      36.985  31.470  28.948  1.00  0.00     0.016 A 
ATOM     49  C   UNL A   1      36.670  29.087  29.454  1.00  0.00     0.016 A 
ATOM     50  C   UNL A   1      38.345  31.332  29.106  1.00  0.00     0.010 A 
ATOM     51  C   UNL A   1      38.025  28.930  29.490  1.00  0.00     0.010 A 
ATOM     52  C   UNL A   1      38.849  30.042  29.266  1.00  0.00    -0.014 A 
BRANCH  52  53
ATOM     53  C   UNL A   1      40.262  29.839  29.481  1.00  0.00     0.031 A 
ATOM     54  C   UNL A   1      40.613  30.055  30.893  1.00  0.00     0.074 A 
ATOM     55  C   UNL A   1      41.076  29.316  28.549  1.00  0.00     0.049 A 
ATOM     56  N   UNL A   1      41.448  30.935  31.327  1.00  0.00    -0.248 NA
ATOM     57  C   UNL A   1      39.801  29.419  31.948  1.00  0.00     0.031 C 
ATOM     58  C   UNL A   1      40.768  29.021  27.167  1.00  0.00     0.029 A 
ATOM     59  N   UNL A   1      42.331  28.814  28.679  1.00  0.00    -0.354 N 
ATOM     60  C   UNL A   1      41.444  30.771  32.700  1.00  0.00     0.074 A 
ATOM     61  C   UNL A   1      40.254  30.042  33.032  1.00  0.00     0.031 C 
ATOM     62  C   UNL A   1      41.639  28.129  26.659  1.00  0.00     0.029 A 
ATOM     63  C   UNL A   1      42.685  27.948  27.641  1.00  0.00     0.049 A 
ATOM     64  H   UNL A   1      42.929  29.036  29.429  1.00  0.00     0.167 HD
ATOM     65  C   UNL A   1      42.594  30.932  33.398  1.00  0.00     0.037 A 
ATOM     66  C   UNL A   1      43.769  27.137  27.609  1.00  0.00     0.037 A 
ATOM     67  C   UNL A   1      43.539  31.736  32.661  1.00  0.00     0.049 A 
ATOM     68  C   UNL A   1      44.746  27.716  28.568  1.00  0.00     0.074 A 
ATOM     69  C   UNL A   1      43.481  32.997  32.100  1.00  0.00     0.029 A 
ATOM     70  N   UNL A   1      44.598  31.098  32.059  1.00  0.00    -0.354 N 
ATOM     71  N   UNL A   1      45.352  28.857  28.361  1.00  0.00    -0.248 NA
ATOM     72  C   UNL A   1      44.653  27.309  29.964  1.00  0.00     0.031 C 
ATOM     73  C   UNL A   1      44.219  32.904  30.886  1.00  0.00     0.029 A 
ATOM     74  C   UNL A   1      44.746  31.614  30.795  1.00  0.00     0.049 A 
ATOM     75  H   UNL A   1      45.154  30.394  32.463  1.00  0.00     0.167 HD
ATOM     76  C   UNL A   1      45.317  29.505  29.589  1.00  0.00     0.074 A 
ATOM     77  C   UNL A   1      44.962  28.467  30.556  1.00  0.00     0.031 C 
ATOM     78  C   UNL A   1      45.260  30.869  29.666  1.00  0.00     0.037 A 
BRANCH  65  79
ATOM     79  C   UNL A   1      42.978  30.018  34.528  1.00  0.00     0.057 A 
ATOM     80  C   UNL A   1      43.334  30.591  35.756  1.00  0.00     0.134 A 
ATOM     81  C   UNL A   1      43.277  28.643  34.394  1.00  0.00     0.134 A 
ATOM     82  F   UNL A   1      43.114  31.892  35.993  1.00  0.00    -0.206 F 
ATOM     83  C   UNL A   1      44.004  29.868  36.747  1.00  0.00     0.040 A 
ATOM     84  C   UNL A   1      43.893  27.900  35.399  1.00  0.00     0.040 A 
ATOM     85  F   UNL A   1      43.090  27.960  33.258  1.00  0.00    -0.206 F 
ATOM     86  C   UNL A   1      44.291  28.520  36.568  1.00  0.00     0.006 A 
ENDBRANCH  65  79
BRANCH  66  87
ATOM     87  C   UNL A   1      43.892  25.803  26.978  1.00  0.00     0.057 A 
ATOM     88  C   UNL A   1      44.531  25.634  25.743  1.00  0.00     0.134 A 
ATOM     89  C   UNL A   1      43.594  24.616  27.679  1.00  0.00     0.134 A 
ATOM     90  F   UNL A   1      44.892  26.699  25.014  1.00  0.00    -0.206 F 
ATOM     91  C   UNL A   1      44.866  24.368  25.243  1.00  0.00     0.040 A 
ATOM     92  C   UNL A   1      43.918  23.346  27.188  1.00  0.00     0.040 A 
ATOM     93  F   UNL A   1      43.048  24.649  28.905  1.00  0.00    -0.206 F 
ATOM     94  C   UNL A   1      44.568  23.219  25.969  1.00  0.00     0.006 A 
ENDBRANCH  66  87
BRANCH  78  95
ATOM     95  C   UNL A   1      45.492  31.664  28.406  1.00  0.00     0.057 A 
ATOM     96  C   UNL A   1      44.486  31.963  27.474  1.00  0.00     0.134 A 
ATOM     97  C   UNL A   1      46.716  32.322  28.243  1.00  0.00     0.134 A 
ATOM     98  F   UNL A   1      43.252  31.464  27.605  1.00  0.00    -0.206 F 
ATOM     99  C   UNL A   1      44.697  32.854  26.415  1.00  0.00     0.040 A 
ATOM    100  C   UNL A   1      46.931  33.237  27.209  1.00  0.00     0.040 A 
ATOM    101  F   UNL A   1      47.705  32.136  29.131  1.00  0.00    -0.206 F 
ATOM    102  C   UNL A   1      45.921  33.502  26.287  1.00  0.00     0.006 A 
ENDBRANCH  78  95
ENDBRANCH  52  53
ENDBRANCH  45  47
ENDBRANCH  44  45
ENDBRANCH  43  44
ENDBRANCH  42  43
ENDBRANCH  41  42
ENDBRANCH  40  41
ENDBRANCH  39  40
ENDBRANCH  38  39
ENDBRANCH   1  38
TORSDOF 25
ENDMDL
