MODEL 1
REMARK VINA RESULT:      -9.6      0.000      0.000
REMARK SMILES CCCc1nc2cc(C(=O)OCCOCCOCCOC(=O)c3ccc(-c4c5nc(c(-c6c(F)cccc6F)c6ccc([nH]6)c(-c6c(F)cccc6F)c6nc(c(-c7c(F)cccc7F)c7ccc4[nH]7)C=C6)C=C5)cc3)ccc2n1[C@H](CO)C(C)C
REMARK SMILES IDX 15 1 14 2 13 3 12 4 11 5 9 6 10 7 8 8 4 9 5 10 80 11 6 12
REMARK SMILES IDX 79 13 7 14 78 15 77 16 3 17 2 18 1 19 81 20 84 21 85 22
REMARK SMILES IDX 86 23 82 24 83 25 16 27 17 28 18 29 19 30 20 31 21 32 22 33
REMARK SMILES IDX 23 34 24 35 76 36 25 37 75 38 26 39 27 40 28 41 69 42 29 43
REMARK SMILES IDX 74 44 68 45 70 46 30 47 73 48 67 49 66 50 31 52 57 53 40 54
REMARK SMILES IDX 56 55 41 56 44 57 55 58 71 59 42 60 43 61 54 63 72 64 45 65
REMARK SMILES IDX 32 66 33 67 38 68 34 69 35 70 37 71 39 72 36 73 58 74 59 75
REMARK SMILES IDX 64 76 60 77 61 78 63 79 65 80 62 81 46 82 47 83 52 84 48 85
REMARK SMILES IDX 49 86 51 87 53 88 50 89
REMARK H PARENT 83 26 70 51 44 62
REMARK Flexibility Score: inf
ROOT
ATOM      1  C   UNL A   1      34.601  32.896  28.476  1.00  0.00     0.188 C 
ENDROOT
BRANCH   1   2
ATOM      2  O   UNL A   1      34.112  31.581  28.572  1.00  0.00    -0.376 OA
BRANCH   2   3
ATOM      3  C   UNL A   1      33.828  30.885  27.376  1.00  0.00     0.202 C 
BRANCH   3   4
ATOM      4  C   UNL A   1      32.385  30.723  26.865  1.00  0.00     0.261 C 
BRANCH   4   5
ATOM      5  O   UNL A   1      31.790  29.419  27.074  1.00  0.00    -0.460 OA
BRANCH   5   6
ATOM      6  C   UNL A   1      31.769  28.611  25.981  1.00  0.00     0.338 C 
ATOM      7  O   UNL A   1      31.421  28.958  24.861  1.00  0.00    -0.246 OA
BRANCH   6   8
ATOM      8  C   UNL A   1      32.261  27.217  26.231  1.00  0.00     0.062 A 
ATOM      9  C   UNL A   1      34.994  23.742  24.984  1.00  0.00     0.110 A 
ATOM     10  N   UNL A   1      35.201  24.991  25.375  1.00  0.00    -0.233 NA
ATOM     11  N   UNL A   1      33.667  23.422  25.239  1.00  0.00    -0.322 N 
ATOM     12  C   UNL A   1      33.994  25.539  25.751  1.00  0.00     0.090 A 
ATOM     13  C   UNL A   1      33.012  24.577  25.700  1.00  0.00     0.069 A 
ATOM     14  C   UNL A   1      33.618  26.869  26.054  1.00  0.00     0.046 A 
ATOM     15  C   UNL A   1      31.678  24.869  26.059  1.00  0.00     0.029 A 
ATOM     16  C   UNL A   1      31.316  26.206  26.296  1.00  0.00     0.018 A 
BRANCH   9  17
ATOM     17  C   UNL A   1      36.024  22.993  24.149  1.00  0.00     0.075 C 
BRANCH  17  18
ATOM     18  C   UNL A   1      36.645  21.685  24.666  1.00  0.00     0.005 C 
ATOM     19  C   UNL A   1      37.996  21.757  25.365  1.00  0.00     0.004 C 
ENDBRANCH  17  18
ENDBRANCH   9  17
BRANCH  11  20
ATOM     20  C   UNL A   1      32.956  22.145  25.271  1.00  0.00     0.117 C 
BRANCH  20  21
ATOM     21  C   UNL A   1      32.970  21.222  24.027  1.00  0.00     0.008 C 
ATOM     22  C   UNL A   1      32.564  19.781  24.350  1.00  0.00     0.009 C 
ATOM     23  C   UNL A   1      32.149  21.686  22.822  1.00  0.00     0.009 C 
ENDBRANCH  20  21
BRANCH  20  24
ATOM     24  C   UNL A   1      33.475  21.409  26.536  1.00  0.00     0.181 C 
BRANCH  24  25
ATOM     25  O   UNL A   1      32.739  21.819  27.686  1.00  0.00    -0.394 OA
ATOM     26  H   UNL A   1      32.024  22.415  27.417  1.00  0.00     0.210 HD
ENDBRANCH  24  25
ENDBRANCH  20  24
ENDBRANCH  11  20
ENDBRANCH   6   8
ENDBRANCH   5   6
ENDBRANCH   4   5
ENDBRANCH   3   4
ENDBRANCH   2   3
ENDBRANCH   1   2
BRANCH   1  27
ATOM     27  C   UNL A   1      33.632  34.086  28.680  1.00  0.00     0.188 C 
BRANCH  27  28
ATOM     28  O   UNL A   1      34.000  35.147  29.535  1.00  0.00    -0.376 OA
BRANCH  28  29
ATOM     29  C   UNL A   1      32.963  36.020  29.954  1.00  0.00     0.202 C 
BRANCH  29  30
ATOM     30  C   UNL A   1      32.532  35.983  31.436  1.00  0.00     0.261 C 
BRANCH  30  31
ATOM     31  O   UNL A   1      33.254  35.006  32.226  1.00  0.00    -0.460 OA
BRANCH  31  32
ATOM     32  C   UNL A   1      34.245  35.473  33.038  1.00  0.00     0.338 C 
ATOM     33  O   UNL A   1      34.142  36.394  33.839  1.00  0.00    -0.246 OA
BRANCH  32  34
ATOM     34  C   UNL A   1      35.347  34.463  33.090  1.00  0.00     0.060 A 
ATOM     35  C   UNL A   1      36.630  34.712  33.602  1.00  0.00     0.016 A 
ATOM     36  C   UNL A   1      35.139  33.297  32.358  1.00  0.00     0.016 A 
ATOM     37  C   UNL A   1      37.727  33.900  33.209  1.00  0.00     0.010 A 
ATOM     38  C   UNL A   1      36.226  32.490  32.012  1.00  0.00     0.010 A 
ATOM     39  C   UNL A   1      37.556  32.827  32.321  1.00  0.00    -0.014 A 
BRANCH  39  40
ATOM     40  C   UNL A   1      38.642  31.840  32.008  1.00  0.00     0.031 A 
ATOM     41  C   UNL A   1      39.324  31.469  33.253  1.00  0.00     0.074 A 
ATOM     42  C   UNL A   1      39.102  31.221  30.878  1.00  0.00     0.049 A 
ATOM     43  N   UNL A   1      40.493  31.918  33.562  1.00  0.00    -0.248 NA
ATOM     44  C   UNL A   1      38.626  30.769  34.332  1.00  0.00     0.031 C 
ATOM     45  C   UNL A   1      38.759  31.471  29.492  1.00  0.00     0.029 A 
ATOM     46  N   UNL A   1      39.961  30.139  30.725  1.00  0.00    -0.354 N 
ATOM     47  C   UNL A   1      40.784  31.356  34.783  1.00  0.00     0.074 A 
ATOM     48  C   UNL A   1      39.534  30.863  35.306  1.00  0.00     0.031 C 
ATOM     49  C   UNL A   1      39.065  30.413  28.701  1.00  0.00     0.029 A 
ATOM     50  C   UNL A   1      39.882  29.494  29.468  1.00  0.00     0.049 A 
ATOM     51  H   UNL A   1      40.576  29.844  31.435  1.00  0.00     0.167 HD
ATOM     52  C   UNL A   1      42.075  31.089  35.100  1.00  0.00     0.037 A 
ATOM     53  C   UNL A   1      40.568  28.416  28.976  1.00  0.00     0.037 A 
ATOM     54  C   UNL A   1      42.996  31.760  34.205  1.00  0.00     0.049 A 
ATOM     55  C   UNL A   1      41.879  28.474  29.653  1.00  0.00     0.074 A 
ATOM     56  C   UNL A   1      43.209  33.071  33.821  1.00  0.00     0.029 A 
ATOM     57  N   UNL A   1      43.649  30.990  33.273  1.00  0.00    -0.354 N 
ATOM     58  N   UNL A   1      42.792  29.354  29.350  1.00  0.00    -0.248 NA
ATOM     59  C   UNL A   1      42.035  27.822  30.940  1.00  0.00     0.031 C 
ATOM     60  C   UNL A   1      43.611  33.013  32.455  1.00  0.00     0.029 A 
ATOM     61  C   UNL A   1      43.683  31.671  32.085  1.00  0.00     0.049 A 
ATOM     62  H   UNL A   1      44.029  30.096  33.432  1.00  0.00     0.167 HD
ATOM     63  C   UNL A   1      43.289  29.741  30.580  1.00  0.00     0.074 A 
ATOM     64  C   UNL A   1      42.901  28.670  31.499  1.00  0.00     0.031 C 
ATOM     65  C   UNL A   1      43.687  31.029  30.790  1.00  0.00     0.037 A 
BRANCH  52  66
ATOM     66  C   UNL A   1      42.479  29.906  35.932  1.00  0.00     0.057 A 
ATOM     67  C   UNL A   1      42.150  28.568  35.632  1.00  0.00     0.134 A 
ATOM     68  C   UNL A   1      43.476  30.080  36.902  1.00  0.00     0.134 A 
ATOM     69  F   UNL A   1      41.293  28.231  34.661  1.00  0.00    -0.206 F 
ATOM     70  C   UNL A   1      42.776  27.482  36.242  1.00  0.00     0.040 A 
ATOM     71  C   UNL A   1      44.152  28.999  37.476  1.00  0.00     0.040 A 
ATOM     72  F   UNL A   1      43.886  31.309  37.253  1.00  0.00    -0.206 F 
ATOM     73  C   UNL A   1      43.805  27.696  37.142  1.00  0.00     0.006 A 
ENDBRANCH  52  66
BRANCH  53  74
ATOM     74  C   UNL A   1      40.314  27.391  27.909  1.00  0.00     0.057 A 
ATOM     75  C   UNL A   1      39.660  26.178  28.161  1.00  0.00     0.134 A 
ATOM     76  C   UNL A   1      40.986  27.443  26.667  1.00  0.00     0.134 A 
ATOM     77  F   UNL A   1      39.013  25.977  29.315  1.00  0.00    -0.206 F 
ATOM     78  C   UNL A   1      39.739  25.069  27.297  1.00  0.00     0.040 A 
ATOM     79  C   UNL A   1      41.080  26.341  25.796  1.00  0.00     0.040 A 
ATOM     80  F   UNL A   1      41.649  28.545  26.286  1.00  0.00    -0.206 F 
ATOM     81  C   UNL A   1      40.483  25.135  26.126  1.00  0.00     0.006 A 
ENDBRANCH  53  74
BRANCH  65  82
ATOM     82  C   UNL A   1      43.898  31.910  29.584  1.00  0.00     0.057 A 
ATOM     83  C   UNL A   1      45.139  31.879  28.938  1.00  0.00     0.134 A 
ATOM     84  C   UNL A   1      42.981  32.867  29.126  1.00  0.00     0.134 A 
ATOM     85  F   UNL A   1      46.089  31.023  29.345  1.00  0.00    -0.206 F 
ATOM     86  C   UNL A   1      45.451  32.752  27.890  1.00  0.00     0.040 A 
ATOM     87  C   UNL A   1      43.267  33.727  28.060  1.00  0.00     0.040 A 
ATOM     88  F   UNL A   1      41.800  33.035  29.729  1.00  0.00    -0.206 F 
ATOM     89  C   UNL A   1      44.511  33.675  27.441  1.00  0.00     0.006 A 
ENDBRANCH  65  82
ENDBRANCH  39  40
ENDBRANCH  32  34
ENDBRANCH  31  32
ENDBRANCH  30  31
ENDBRANCH  29  30
ENDBRANCH  28  29
ENDBRANCH  27  28
ENDBRANCH   1  27
TORSDOF 23
ENDMDL
MODEL 2
REMARK VINA RESULT:      -9.2      3.180      4.777
REMARK SMILES CCCc1nc2cc(C(=O)OCCOCCOCCOC(=O)c3ccc(-c4c5nc(c(-c6c(F)cccc6F)c6ccc([nH]6)c(-c6c(F)cccc6F)c6nc(c(-c7c(F)cccc7F)c7ccc4[nH]7)C=C6)C=C5)cc3)ccc2n1[C@H](CO)C(C)C
REMARK SMILES IDX 15 1 14 2 13 3 12 4 11 5 9 6 10 7 8 8 4 9 5 10 80 11 6 12
REMARK SMILES IDX 79 13 7 14 78 15 77 16 3 17 2 18 1 19 81 20 84 21 85 22
REMARK SMILES IDX 86 23 82 24 83 25 16 27 17 28 18 29 19 30 20 31 21 32 22 33
REMARK SMILES IDX 23 34 24 35 76 36 25 37 75 38 26 39 27 40 28 41 69 42 29 43
REMARK SMILES IDX 74 44 68 45 70 46 30 47 73 48 67 49 66 50 31 52 57 53 40 54
REMARK SMILES IDX 56 55 41 56 44 57 55 58 71 59 42 60 43 61 54 63 72 64 45 65
REMARK SMILES IDX 32 66 33 67 38 68 34 69 35 70 37 71 39 72 36 73 58 74 59 75
REMARK SMILES IDX 64 76 60 77 61 78 63 79 65 80 62 81 46 82 47 83 52 84 48 85
REMARK SMILES IDX 49 86 51 87 53 88 50 89
REMARK H PARENT 83 26 70 51 44 62
REMARK Flexibility Score: inf
ROOT
ATOM      1  C   UNL A   1      35.072  30.521  27.555  1.00  0.00     0.188 C 
ENDROOT
BRANCH   1   2
ATOM      2  O   UNL A   1      34.569  29.251  27.223  1.00  0.00    -0.376 OA
BRANCH   2   3
ATOM      3  C   UNL A   1      33.206  29.144  26.870  1.00  0.00     0.202 C 
BRANCH   3   4
ATOM      4  C   UNL A   1      32.710  29.513  25.459  1.00  0.00     0.261 C 
BRANCH   4   5
ATOM      5  O   UNL A   1      31.320  29.911  25.369  1.00  0.00    -0.460 OA
BRANCH   5   6
ATOM      6  C   UNL A   1      30.670  29.492  24.250  1.00  0.00     0.338 C 
ATOM      7  O   UNL A   1      29.934  30.189  23.566  1.00  0.00    -0.246 OA
BRANCH   6   8
ATOM      8  C   UNL A   1      30.957  28.072  23.862  1.00  0.00     0.062 A 
ATOM      9  C   UNL A   1      31.788  23.745  25.162  1.00  0.00     0.110 A 
ATOM     10  N   UNL A   1      30.774  24.584  25.321  1.00  0.00    -0.233 NA
ATOM     11  N   UNL A   1      32.646  24.279  24.209  1.00  0.00    -0.322 N 
ATOM     12  C   UNL A   1      31.029  25.724  24.591  1.00  0.00     0.090 A 
ATOM     13  C   UNL A   1      32.183  25.561  23.863  1.00  0.00     0.069 A 
ATOM     14  C   UNL A   1      30.388  26.986  24.563  1.00  0.00     0.046 A 
ATOM     15  C   UNL A   1      32.663  26.576  23.007  1.00  0.00     0.029 A 
ATOM     16  C   UNL A   1      32.048  27.840  23.042  1.00  0.00     0.018 A 
BRANCH   9  17
ATOM     17  C   UNL A   1      32.013  22.583  26.120  1.00  0.00     0.075 C 
BRANCH  17  18
ATOM     18  C   UNL A   1      32.849  22.774  27.395  1.00  0.00     0.005 C 
ATOM     19  C   UNL A   1      34.030  21.842  27.627  1.00  0.00     0.004 C 
ENDBRANCH  17  18
ENDBRANCH   9  17
BRANCH  11  20
ATOM     20  C   UNL A   1      33.751  23.696  23.449  1.00  0.00     0.117 C 
BRANCH  20  21
ATOM     21  C   UNL A   1      34.893  22.959  24.190  1.00  0.00     0.008 C 
ATOM     22  C   UNL A   1      34.685  21.442  24.248  1.00  0.00     0.009 C 
ATOM     23  C   UNL A   1      36.315  23.222  23.688  1.00  0.00     0.009 C 
ENDBRANCH  20  21
BRANCH  20  24
ATOM     24  C   UNL A   1      33.088  22.792  22.375  1.00  0.00     0.181 C 
BRANCH  24  25
ATOM     25  O   UNL A   1      33.269  23.349  21.076  1.00  0.00    -0.394 OA
ATOM     26  H   UNL A   1      32.536  23.077  20.502  1.00  0.00     0.210 HD
ENDBRANCH  24  25
ENDBRANCH  20  24
ENDBRANCH  11  20
ENDBRANCH   6   8
ENDBRANCH   5   6
ENDBRANCH   4   5
ENDBRANCH   3   4
ENDBRANCH   2   3
ENDBRANCH   1   2
BRANCH   1  27
ATOM     27  C   UNL A   1      34.089  31.698  27.766  1.00  0.00     0.188 C 
BRANCH  27  28
ATOM     28  O   UNL A   1      34.590  33.013  27.883  1.00  0.00    -0.376 OA
BRANCH  28  29
ATOM     29  C   UNL A   1      34.303  33.702  29.090  1.00  0.00     0.202 C 
BRANCH  29  30
ATOM     30  C   UNL A   1      35.421  33.821  30.147  1.00  0.00     0.261 C 
BRANCH  30  31
ATOM     31  O   UNL A   1      36.362  32.719  30.122  1.00  0.00    -0.460 OA
BRANCH  31  32
ATOM     32  C   UNL A   1      37.599  32.970  29.603  1.00  0.00     0.338 C 
ATOM     33  O   UNL A   1      38.008  34.058  29.217  1.00  0.00    -0.246 OA
BRANCH  32  34
ATOM     34  C   UNL A   1      38.503  31.824  29.930  1.00  0.00     0.060 A 
ATOM     35  C   UNL A   1      39.876  31.946  30.196  1.00  0.00     0.016 A 
ATOM     36  C   UNL A   1      37.980  30.554  29.707  1.00  0.00     0.016 A 
ATOM     37  C   UNL A   1      40.737  30.827  30.039  1.00  0.00     0.010 A 
ATOM     38  C   UNL A   1      38.840  29.458  29.592  1.00  0.00     0.010 A 
ATOM     39  C   UNL A   1      40.241  29.579  29.634  1.00  0.00    -0.014 A 
BRANCH  39  40
ATOM     40  C   UNL A   1      41.074  28.331  29.617  1.00  0.00     0.031 A 
ATOM     41  C   UNL A   1      41.718  28.168  30.926  1.00  0.00     0.074 A 
ATOM     42  C   UNL A   1      41.338  27.347  28.705  1.00  0.00     0.049 A 
ATOM     43  N   UNL A   1      42.970  28.416  31.117  1.00  0.00    -0.248 NA
ATOM     44  C   UNL A   1      40.937  27.955  32.144  1.00  0.00     0.031 C 
ATOM     45  C   UNL A   1      40.993  27.283  27.298  1.00  0.00     0.029 A 
ATOM     46  N   UNL A   1      41.937  26.102  28.864  1.00  0.00    -0.354 N 
ATOM     47  C   UNL A   1      43.189  28.153  32.449  1.00  0.00     0.074 A 
ATOM     48  C   UNL A   1      41.889  28.105  33.069  1.00  0.00     0.031 C 
ATOM     49  C   UNL A   1      41.027  26.012  26.829  1.00  0.00     0.029 A 
ATOM     50  C   UNL A   1      41.663  25.177  27.829  1.00  0.00     0.049 A 
ATOM     51  H   UNL A   1      42.507  25.882  29.636  1.00  0.00     0.167 HD
ATOM     52  C   UNL A   1      44.406  27.706  32.844  1.00  0.00     0.037 A 
ATOM     53  C   UNL A   1      42.078  23.884  27.658  1.00  0.00     0.037 A 
ATOM     54  C   UNL A   1      45.408  27.893  31.814  1.00  0.00     0.049 A 
ATOM     55  C   UNL A   1      43.401  23.833  28.313  1.00  0.00     0.074 A 
ATOM     56  C   UNL A   1      45.879  28.974  31.090  1.00  0.00     0.029 A 
ATOM     57  N   UNL A   1      45.836  26.778  31.136  1.00  0.00    -0.354 N 
ATOM     58  N   UNL A   1      44.466  24.377  27.795  1.00  0.00    -0.248 NA
ATOM     59  C   UNL A   1      43.473  23.533  29.731  1.00  0.00     0.031 C 
ATOM     60  C   UNL A   1      46.194  28.464  29.797  1.00  0.00     0.029 A 
ATOM     61  C   UNL A   1      45.960  27.090  29.807  1.00  0.00     0.049 A 
ATOM     62  H   UNL A   1      46.022  25.898  31.537  1.00  0.00     0.167 HD
ATOM     63  C   UNL A   1      45.092  24.961  28.880  1.00  0.00     0.074 A 
ATOM     64  C   UNL A   1      44.526  24.288  30.049  1.00  0.00     0.031 C 
ATOM     65  C   UNL A   1      45.766  26.139  28.737  1.00  0.00     0.037 A 
BRANCH  52  66
ATOM     66  C   UNL A   1      44.586  26.731  33.973  1.00  0.00     0.057 A 
ATOM     67  C   UNL A   1      44.194  25.377  33.928  1.00  0.00     0.134 A 
ATOM     68  C   UNL A   1      45.442  27.079  35.027  1.00  0.00     0.134 A 
ATOM     69  F   UNL A   1      43.463  24.864  32.932  1.00  0.00    -0.206 F 
ATOM     70  C   UNL A   1      44.633  24.435  34.857  1.00  0.00     0.040 A 
ATOM     71  C   UNL A   1      45.935  26.131  35.928  1.00  0.00     0.040 A 
ATOM     72  F   UNL A   1      45.896  28.335  35.158  1.00  0.00    -0.206 F 
ATOM     73  C   UNL A   1      45.534  24.803  35.841  1.00  0.00     0.006 A 
ENDBRANCH  52  66
BRANCH  53  74
ATOM     74  C   UNL A   1      41.562  22.691  26.907  1.00  0.00     0.057 A 
ATOM     75  C   UNL A   1      40.200  22.367  26.842  1.00  0.00     0.134 A 
ATOM     76  C   UNL A   1      42.427  21.657  26.486  1.00  0.00     0.134 A 
ATOM     77  F   UNL A   1      39.269  23.239  27.243  1.00  0.00    -0.206 F 
ATOM     78  C   UNL A   1      39.732  21.089  26.477  1.00  0.00     0.040 A 
ATOM     79  C   UNL A   1      41.976  20.374  26.126  1.00  0.00     0.040 A 
ATOM     80  F   UNL A   1      43.758  21.828  26.487  1.00  0.00    -0.206 F 
ATOM     81  C   UNL A   1      40.623  20.074  26.154  1.00  0.00     0.006 A 
ENDBRANCH  53  74
BRANCH  65  82
ATOM     82  C   UNL A   1      46.105  26.595  27.339  1.00  0.00     0.057 A 
ATOM     83  C   UNL A   1      45.210  27.439  26.671  1.00  0.00     0.134 A 
ATOM     84  C   UNL A   1      47.199  26.132  26.594  1.00  0.00     0.134 A 
ATOM     85  F   UNL A   1      44.113  27.890  27.300  1.00  0.00    -0.206 F 
ATOM     86  C   UNL A   1      45.394  27.806  25.335  1.00  0.00     0.040 A 
ATOM     87  C   UNL A   1      47.414  26.514  25.265  1.00  0.00     0.040 A 
ATOM     88  F   UNL A   1      48.065  25.256  27.111  1.00  0.00    -0.206 F 
ATOM     89  C   UNL A   1      46.504  27.350  24.628  1.00  0.00     0.006 A 
ENDBRANCH  65  82
ENDBRANCH  39  40
ENDBRANCH  32  34
ENDBRANCH  31  32
ENDBRANCH  30  31
ENDBRANCH  29  30
ENDBRANCH  28  29
ENDBRANCH  27  28
ENDBRANCH   1  27
TORSDOF 23
ENDMDL
MODEL 3
REMARK VINA RESULT:      -8.4      4.628      9.712
REMARK SMILES CCCc1nc2cc(C(=O)OCCOCCOCCOC(=O)c3ccc(-c4c5nc(c(-c6c(F)cccc6F)c6ccc([nH]6)c(-c6c(F)cccc6F)c6nc(c(-c7c(F)cccc7F)c7ccc4[nH]7)C=C6)C=C5)cc3)ccc2n1[C@H](CO)C(C)C
REMARK SMILES IDX 15 1 14 2 13 3 12 4 11 5 9 6 10 7 8 8 4 9 5 10 80 11 6 12
REMARK SMILES IDX 79 13 7 14 78 15 77 16 3 17 2 18 1 19 81 20 84 21 85 22
REMARK SMILES IDX 86 23 82 24 83 25 16 27 17 28 18 29 19 30 20 31 21 32 22 33
REMARK SMILES IDX 23 34 24 35 76 36 25 37 75 38 26 39 27 40 28 41 69 42 29 43
REMARK SMILES IDX 74 44 68 45 70 46 30 47 73 48 67 49 66 50 31 52 57 53 40 54
REMARK SMILES IDX 56 55 41 56 44 57 55 58 71 59 42 60 43 61 54 63 72 64 45 65
REMARK SMILES IDX 32 66 33 67 38 68 34 69 35 70 37 71 39 72 36 73 58 74 59 75
REMARK SMILES IDX 64 76 60 77 61 78 63 79 65 80 62 81 46 82 47 83 52 84 48 85
REMARK SMILES IDX 49 86 51 87 53 88 50 89
REMARK H PARENT 83 26 70 51 44 62
REMARK Flexibility Score: inf
ROOT
ATOM      1  C   UNL A   1      33.365  36.293  32.721  1.00  0.00     0.188 C 
ENDROOT
BRANCH   1   2
ATOM      2  O   UNL A   1      34.638  36.162  33.301  1.00  0.00    -0.376 OA
BRANCH   2   3
ATOM      3  C   UNL A   1      34.920  34.989  34.035  1.00  0.00     0.202 C 
BRANCH   3   4
ATOM      4  C   UNL A   1      34.994  33.611  33.350  1.00  0.00     0.261 C 
BRANCH   4   5
ATOM      5  O   UNL A   1      35.818  32.624  34.019  1.00  0.00    -0.460 OA
BRANCH   5   6
ATOM      6  C   UNL A   1      36.683  33.123  34.942  1.00  0.00     0.338 C 
ATOM      7  O   UNL A   1      36.406  33.351  36.111  1.00  0.00    -0.246 OA
BRANCH   6   8
ATOM      8  C   UNL A   1      38.074  33.348  34.428  1.00  0.00     0.062 A 
ATOM      9  C   UNL A   1      42.513  32.167  34.487  1.00  0.00     0.110 A 
ATOM     10  N   UNL A   1      41.389  31.539  34.173  1.00  0.00    -0.233 NA
ATOM     11  N   UNL A   1      42.233  33.523  34.601  1.00  0.00    -0.322 N 
ATOM     12  C   UNL A   1      40.352  32.444  34.219  1.00  0.00     0.090 A 
ATOM     13  C   UNL A   1      40.846  33.704  34.463  1.00  0.00     0.069 A 
ATOM     14  C   UNL A   1      38.948  32.270  34.166  1.00  0.00     0.046 A 
ATOM     15  C   UNL A   1      39.993  34.826  34.539  1.00  0.00     0.029 A 
ATOM     16  C   UNL A   1      38.602  34.623  34.546  1.00  0.00     0.018 A 
BRANCH   9  17
ATOM     17  C   UNL A   1      43.758  31.400  34.910  1.00  0.00     0.075 C 
BRANCH  17  18
ATOM     18  C   UNL A   1      43.951  30.971  36.373  1.00  0.00     0.005 C 
ATOM     19  C   UNL A   1      44.951  31.743  37.223  1.00  0.00     0.004 C 
ENDBRANCH  17  18
ENDBRANCH   9  17
BRANCH  11  20
ATOM     20  C   UNL A   1      43.099  34.700  34.659  1.00  0.00     0.117 C 
BRANCH  20  21
ATOM     21  C   UNL A   1      44.631  34.526  34.800  1.00  0.00     0.008 C 
ATOM     22  C   UNL A   1      45.387  34.826  33.502  1.00  0.00     0.009 C 
ATOM     23  C   UNL A   1      45.306  35.306  35.931  1.00  0.00     0.009 C 
ENDBRANCH  20  21
BRANCH  20  24
ATOM     24  C   UNL A   1      42.731  35.549  33.412  1.00  0.00     0.181 C 
BRANCH  24  25
ATOM     25  O   UNL A   1      42.763  36.939  33.729  1.00  0.00    -0.394 OA
ATOM     26  H   UNL A   1      43.650  37.289  33.558  1.00  0.00     0.210 HD
ENDBRANCH  24  25
ENDBRANCH  20  24
ENDBRANCH  11  20
ENDBRANCH   6   8
ENDBRANCH   5   6
ENDBRANCH   4   5
ENDBRANCH   3   4
ENDBRANCH   2   3
ENDBRANCH   1   2
BRANCH   1  27
ATOM     27  C   UNL A   1      33.174  37.235  31.507  1.00  0.00     0.188 C 
BRANCH  27  28
ATOM     28  O   UNL A   1      32.585  36.738  30.324  1.00  0.00    -0.376 OA
BRANCH  28  29
ATOM     29  C   UNL A   1      33.461  36.164  29.367  1.00  0.00     0.202 C 
BRANCH  29  30
ATOM     30  C   UNL A   1      33.334  34.653  29.076  1.00  0.00     0.261 C 
BRANCH  30  31
ATOM     31  O   UNL A   1      34.430  33.867  29.605  1.00  0.00    -0.460 OA
BRANCH  31  32
ATOM     32  C   UNL A   1      35.405  33.491  28.729  1.00  0.00     0.338 C 
ATOM     33  O   UNL A   1      35.554  33.923  27.593  1.00  0.00    -0.246 OA
BRANCH  32  34
ATOM     34  C   UNL A   1      36.482  32.775  29.480  1.00  0.00     0.060 A 
ATOM     35  C   UNL A   1      37.257  33.348  30.500  1.00  0.00     0.016 A 
ATOM     36  C   UNL A   1      36.884  31.552  28.950  1.00  0.00     0.016 A 
ATOM     37  C   UNL A   1      38.522  32.796  30.835  1.00  0.00     0.010 A 
ATOM     38  C   UNL A   1      38.116  31.005  29.318  1.00  0.00     0.010 A 
ATOM     39  C   UNL A   1      39.019  31.663  30.172  1.00  0.00    -0.014 A 
BRANCH  39  40
ATOM     40  C   UNL A   1      40.264  30.944  30.600  1.00  0.00     0.031 A 
ATOM     41  C   UNL A   1      41.433  31.754  30.236  1.00  0.00     0.074 A 
ATOM     42  C   UNL A   1      40.540  29.768  31.242  1.00  0.00     0.049 A 
ATOM     43  N   UNL A   1      42.193  31.461  29.236  1.00  0.00    -0.248 NA
ATOM     44  C   UNL A   1      41.667  33.072  30.826  1.00  0.00     0.031 C 
ATOM     45  C   UNL A   1      39.645  28.684  31.595  1.00  0.00     0.029 A 
ATOM     46  N   UNL A   1      41.722  29.300  31.806  1.00  0.00    -0.354 N 
ATOM     47  C   UNL A   1      43.158  32.442  29.218  1.00  0.00     0.074 A 
ATOM     48  C   UNL A   1      42.660  33.510  30.048  1.00  0.00     0.031 C 
ATOM     49  C   UNL A   1      40.161  27.906  32.578  1.00  0.00     0.029 A 
ATOM     50  C   UNL A   1      41.555  28.263  32.753  1.00  0.00     0.049 A 
ATOM     51  H   UNL A   1      42.604  29.663  31.566  1.00  0.00     0.167 HD
ATOM     52  C   UNL A   1      44.399  32.143  28.762  1.00  0.00     0.037 A 
ATOM     53  C   UNL A   1      42.480  27.574  33.492  1.00  0.00     0.037 A 
ATOM     54  C   UNL A   1      44.417  30.886  28.042  1.00  0.00     0.049 A 
ATOM     55  C   UNL A   1      43.692  27.566  32.648  1.00  0.00     0.074 A 
ATOM     56  C   UNL A   1      43.735  30.370  26.955  1.00  0.00     0.029 A 
ATOM     57  N   UNL A   1      44.992  29.806  28.665  1.00  0.00    -0.354 N 
ATOM     58  N   UNL A   1      43.805  26.825  31.582  1.00  0.00    -0.248 NA
ATOM     59  C   UNL A   1      44.626  28.672  32.748  1.00  0.00     0.031 C 
ATOM     60  C   UNL A   1      43.580  28.979  27.222  1.00  0.00     0.029 A 
ATOM     61  C   UNL A   1      44.223  28.697  28.425  1.00  0.00     0.049 A 
ATOM     62  H   UNL A   1      45.820  29.824  29.198  1.00  0.00     0.167 HD
ATOM     63  C   UNL A   1      44.419  27.661  30.669  1.00  0.00     0.074 A 
ATOM     64  C   UNL A   1      45.031  28.717  31.477  1.00  0.00     0.031 C 
ATOM     65  C   UNL A   1      44.105  27.588  29.344  1.00  0.00     0.037 A 
BRANCH  52  66
ATOM     66  C   UNL A   1      45.643  32.763  29.329  1.00  0.00     0.057 A 
ATOM     67  C   UNL A   1      46.109  32.561  30.645  1.00  0.00     0.134 A 
ATOM     68  C   UNL A   1      46.563  33.345  28.445  1.00  0.00     0.134 A 
ATOM     69  F   UNL A   1      45.392  31.929  31.581  1.00  0.00    -0.206 F 
ATOM     70  C   UNL A   1      47.400  32.900  31.048  1.00  0.00     0.040 A 
ATOM     71  C   UNL A   1      47.878  33.633  28.823  1.00  0.00     0.040 A 
ATOM     72  F   UNL A   1      46.238  33.565  27.162  1.00  0.00    -0.206 F 
ATOM     73  C   UNL A   1      48.300  33.406  30.127  1.00  0.00     0.006 A 
ENDBRANCH  52  66
BRANCH  53  74
ATOM     74  C   UNL A   1      42.453  26.807  34.782  1.00  0.00     0.057 A 
ATOM     75  C   UNL A   1      42.770  25.444  34.862  1.00  0.00     0.134 A 
ATOM     76  C   UNL A   1      41.815  27.325  35.930  1.00  0.00     0.134 A 
ATOM     77  F   UNL A   1      43.345  24.814  33.832  1.00  0.00    -0.206 F 
ATOM     78  C   UNL A   1      42.400  24.634  35.954  1.00  0.00     0.040 A 
ATOM     79  C   UNL A   1      41.433  26.528  37.025  1.00  0.00     0.040 A 
ATOM     80  F   UNL A   1      41.461  28.618  36.000  1.00  0.00    -0.206 F 
ATOM     81  C   UNL A   1      41.695  25.167  37.025  1.00  0.00     0.006 A 
ENDBRANCH  53  74
BRANCH  65  82
ATOM     82  C   UNL A   1      43.356  26.370  28.861  1.00  0.00     0.057 A 
ATOM     83  C   UNL A   1      41.960  26.422  28.791  1.00  0.00     0.134 A 
ATOM     84  C   UNL A   1      43.947  25.126  28.593  1.00  0.00     0.134 A 
ATOM     85  F   UNL A   1      41.314  27.564  29.077  1.00  0.00    -0.206 F 
ATOM     86  C   UNL A   1      41.191  25.299  28.470  1.00  0.00     0.040 A 
ATOM     87  C   UNL A   1      43.194  24.001  28.241  1.00  0.00     0.040 A 
ATOM     88  F   UNL A   1      45.266  24.948  28.716  1.00  0.00    -0.206 F 
ATOM     89  C   UNL A   1      41.808  24.084  28.185  1.00  0.00     0.006 A 
ENDBRANCH  65  82
ENDBRANCH  39  40
ENDBRANCH  32  34
ENDBRANCH  31  32
ENDBRANCH  30  31
ENDBRANCH  29  30
ENDBRANCH  28  29
ENDBRANCH  27  28
ENDBRANCH   1  27
TORSDOF 23
ENDMDL
