MODEL 1
REMARK VINA RESULT:     -11.0      0.000      0.000
REMARK SMILES O=C(OCCOCCOCCOC(=O)[C@@H]1C=C[C@@H]([NH+]2CC3(CCOCC3)C2)C1)c1ccc(-c2c3nc(c(-c4c(F)cccc4F)c4ccc([nH]4)c(-c4c(F)cccc4F)c4nc(c(-c5c(F)cccc5F)c5ccc2[nH]5)C=C4)C=C3)cc1
REMARK SMILES IDX 7 1 6 2 5 3 4 4 3 5 2 6 1 7 29 8 30 9 82 10 31 11 81 12
REMARK SMILES IDX 32 13 33 14 34 15 75 16 35 17 80 18 74 19 76 20 36 21 79 22
REMARK SMILES IDX 73 23 72 24 37 26 63 27 46 28 62 29 47 30 50 31 61 32 77 33
REMARK SMILES IDX 48 34 49 35 60 37 78 38 51 39 38 40 39 41 44 42 40 43 41 44
REMARK SMILES IDX 43 45 45 46 42 47 64 48 65 49 70 50 66 51 67 52 69 53 71 54
REMARK SMILES IDX 68 55 52 56 53 57 58 58 54 59 55 60 57 61 59 62 56 63 8 64
REMARK SMILES IDX 9 65 10 66 11 67 12 68 13 69 14 70 15 71 16 72 28 73 17 74
REMARK SMILES IDX 18 75 19 76 20 77 27 78 21 80 22 81 26 82 23 83 25 84 24 85
REMARK H PARENT 76 25 50 36 19 79
REMARK Flexibility Score: inf
ROOT
ATOM      1  C   UNL A   1      46.333  20.008  24.634  1.00  0.00     0.188 C 
ENDROOT
BRANCH   1   2
ATOM      2  O   UNL A   1      46.277  21.260  25.326  1.00  0.00    -0.376 OA
BRANCH   2   3
ATOM      3  C   UNL A   1      45.695  22.331  24.578  1.00  0.00     0.202 C 
BRANCH   3   4
ATOM      4  C   UNL A   1      44.335  22.814  25.098  1.00  0.00     0.261 C 
BRANCH   4   5
ATOM      5  O   UNL A   1      44.017  24.151  24.681  1.00  0.00    -0.460 OA
BRANCH   5   6
ATOM      6  C   UNL A   1      44.505  25.316  25.163  1.00  0.00     0.338 C 
ATOM      7  O   UNL A   1      45.563  25.747  24.680  1.00  0.00    -0.246 OA
BRANCH   6   8
ATOM      8  C   UNL A   1      43.862  26.131  26.241  1.00  0.00     0.060 A 
ATOM      9  C   UNL A   1      44.064  27.496  26.456  1.00  0.00     0.016 A 
ATOM     10  C   UNL A   1      42.924  25.476  27.065  1.00  0.00     0.016 A 
ATOM     11  C   UNL A   1      43.430  28.177  27.487  1.00  0.00     0.010 A 
ATOM     12  C   UNL A   1      42.252  26.160  28.084  1.00  0.00     0.010 A 
ATOM     13  C   UNL A   1      42.534  27.509  28.314  1.00  0.00    -0.014 A 
BRANCH  13  14
ATOM     14  C   UNL A   1      42.055  28.218  29.514  1.00  0.00     0.031 A 
ATOM     15  C   UNL A   1      40.777  28.986  29.400  1.00  0.00     0.074 A 
ATOM     16  C   UNL A   1      42.669  28.041  30.696  1.00  0.00     0.049 A 
ATOM     17  N   UNL A   1      40.141  29.676  30.305  1.00  0.00    -0.248 NA
ATOM     18  C   UNL A   1      40.110  28.951  28.086  1.00  0.00     0.031 C 
ATOM     19  C   UNL A   1      43.844  27.197  30.910  1.00  0.00     0.029 A 
ATOM     20  N   UNL A   1      42.380  28.525  31.942  1.00  0.00    -0.354 N 
ATOM     21  C   UNL A   1      39.013  30.172  29.668  1.00  0.00     0.074 A 
ATOM     22  C   UNL A   1      39.055  29.719  28.297  1.00  0.00     0.031 C 
ATOM     23  C   UNL A   1      44.171  27.210  32.210  1.00  0.00     0.029 A 
ATOM     24  C   UNL A   1      43.265  28.114  32.909  1.00  0.00     0.049 A 
ATOM     25  H   UNL A   1      41.611  29.111  32.128  1.00  0.00     0.167 HD
ATOM     26  C   UNL A   1      38.031  30.939  30.192  1.00  0.00     0.037 A 
ATOM     27  C   UNL A   1      43.346  28.464  34.205  1.00  0.00     0.037 A 
ATOM     28  C   UNL A   1      38.030  31.383  31.558  1.00  0.00     0.049 A 
ATOM     29  C   UNL A   1      42.313  29.420  34.734  1.00  0.00     0.074 A 
ATOM     30  C   UNL A   1      37.135  32.215  32.200  1.00  0.00     0.029 A 
ATOM     31  N   UNL A   1      38.996  31.027  32.495  1.00  0.00    -0.354 N 
ATOM     32  N   UNL A   1      41.274  29.934  34.116  1.00  0.00    -0.248 NA
ATOM     33  C   UNL A   1      42.462  29.856  36.126  1.00  0.00     0.031 C 
ATOM     34  C   UNL A   1      37.588  32.406  33.510  1.00  0.00     0.029 A 
ATOM     35  C   UNL A   1      38.733  31.645  33.703  1.00  0.00     0.049 A 
ATOM     36  H   UNL A   1      39.755  30.424  32.321  1.00  0.00     0.167 HD
ATOM     37  C   UNL A   1      40.633  30.737  35.047  1.00  0.00     0.074 A 
ATOM     38  C   UNL A   1      41.394  30.626  36.277  1.00  0.00     0.031 C 
ATOM     39  C   UNL A   1      39.520  31.499  34.905  1.00  0.00     0.037 A 
BRANCH  26  40
ATOM     40  C   UNL A   1      36.955  31.393  29.250  1.00  0.00     0.057 A 
ATOM     41  C   UNL A   1      36.913  32.694  28.731  1.00  0.00     0.134 A 
ATOM     42  C   UNL A   1      35.903  30.531  28.915  1.00  0.00     0.134 A 
ATOM     43  F   UNL A   1      37.870  33.582  29.043  1.00  0.00    -0.206 F 
ATOM     44  C   UNL A   1      35.845  33.133  27.945  1.00  0.00     0.040 A 
ATOM     45  C   UNL A   1      34.844  30.950  28.109  1.00  0.00     0.040 A 
ATOM     46  F   UNL A   1      35.875  29.276  29.386  1.00  0.00    -0.206 F 
ATOM     47  C   UNL A   1      34.806  32.258  27.631  1.00  0.00     0.006 A 
ENDBRANCH  26  40
BRANCH  27  48
ATOM     48  C   UNL A   1      44.448  27.949  35.060  1.00  0.00     0.057 A 
ATOM     49  C   UNL A   1      44.282  26.824  35.876  1.00  0.00     0.134 A 
ATOM     50  C   UNL A   1      45.703  28.575  35.084  1.00  0.00     0.134 A 
ATOM     51  F   UNL A   1      43.103  26.187  35.913  1.00  0.00    -0.206 F 
ATOM     52  C   UNL A   1      45.312  26.351  36.692  1.00  0.00     0.040 A 
ATOM     53  C   UNL A   1      46.751  28.097  35.874  1.00  0.00     0.040 A 
ATOM     54  F   UNL A   1      45.935  29.657  34.327  1.00  0.00    -0.206 F 
ATOM     55  C   UNL A   1      46.554  26.984  36.687  1.00  0.00     0.006 A 
ENDBRANCH  27  48
BRANCH  39  56
ATOM     56  C   UNL A   1      39.051  32.239  36.120  1.00  0.00     0.057 A 
ATOM     57  C   UNL A   1      39.412  33.570  36.362  1.00  0.00     0.134 A 
ATOM     58  C   UNL A   1      38.185  31.622  37.032  1.00  0.00     0.134 A 
ATOM     59  F   UNL A   1      40.251  34.208  35.531  1.00  0.00    -0.206 F 
ATOM     60  C   UNL A   1      38.944  34.256  37.482  1.00  0.00     0.040 A 
ATOM     61  C   UNL A   1      37.686  32.308  38.138  1.00  0.00     0.040 A 
ATOM     62  F   UNL A   1      37.795  30.352  36.850  1.00  0.00    -0.206 F 
ATOM     63  C   UNL A   1      38.071  33.628  38.368  1.00  0.00     0.006 A 
ENDBRANCH  39  56
ENDBRANCH  13  14
ENDBRANCH   6   8
ENDBRANCH   5   6
ENDBRANCH   4   5
ENDBRANCH   3   4
ENDBRANCH   2   3
ENDBRANCH   1   2
BRANCH   1  64
ATOM     64  C   UNL A   1      46.166  18.807  25.574  1.00  0.00     0.188 C 
BRANCH  64  65
ATOM     65  O   UNL A   1      44.888  18.169  25.599  1.00  0.00    -0.376 OA
BRANCH  65  66
ATOM     66  C   UNL A   1      43.807  18.835  24.954  1.00  0.00     0.202 C 
BRANCH  66  67
ATOM     67  C   UNL A   1      42.542  19.096  25.781  1.00  0.00     0.261 C 
BRANCH  67  68
ATOM     68  O   UNL A   1      42.652  20.220  26.677  1.00  0.00    -0.463 OA
BRANCH  68  69
ATOM     69  C   UNL A   1      41.481  20.582  27.232  1.00  0.00     0.313 C 
ATOM     70  O   UNL A   1      40.836  19.855  27.991  1.00  0.00    -0.252 OA
BRANCH  69  71
ATOM     71  C   UNL A   1      40.935  21.954  26.822  1.00  0.00     0.128 C 
ATOM     72  C   UNL A   1      40.420  23.158  27.540  1.00  0.00    -0.010 C 
ATOM     73  C   UNL A   1      39.713  21.592  25.999  1.00  0.00     0.089 C 
ATOM     74  C   UNL A   1      39.243  23.597  27.050  1.00  0.00     0.033 C 
ATOM     75  C   UNL A   1      38.575  22.570  26.188  1.00  0.00     0.208 C 
BRANCH  75  76
ATOM     76  N   UNL A   1      37.810  22.913  24.979  1.00  0.00    -0.328 N 
ATOM     77  C   UNL A   1      36.551  23.626  25.334  1.00  0.00     0.275 C 
ATOM     78  C   UNL A   1      37.030  21.827  24.358  1.00  0.00     0.275 C 
ATOM     79  H   UNL A   1      38.553  23.341  24.424  1.00  0.00     0.348 HD
ATOM     80  C   UNL A   1      35.692  22.365  24.999  1.00  0.00     0.073 C 
ATOM     81  C   UNL A   1      34.605  22.541  23.921  1.00  0.00     0.047 C 
ATOM     82  C   UNL A   1      35.058  21.591  26.181  1.00  0.00     0.047 C 
ATOM     83  C   UNL A   1      33.329  23.110  24.534  1.00  0.00     0.161 C 
ATOM     84  C   UNL A   1      33.735  22.178  26.633  1.00  0.00     0.161 C 
ATOM     85  O   UNL A   1      32.829  22.237  25.545  1.00  0.00    -0.381 OA
ENDBRANCH  75  76
ENDBRANCH  69  71
ENDBRANCH  68  69
ENDBRANCH  67  68
ENDBRANCH  66  67
ENDBRANCH  65  66
ENDBRANCH  64  65
ENDBRANCH   1  64
TORSDOF 18
ENDMDL
MODEL 2
REMARK VINA RESULT:     -10.4      4.544     10.488
REMARK SMILES O=C(OCCOCCOCCOC(=O)[C@@H]1C=C[C@@H]([NH+]2CC3(CCOCC3)C2)C1)c1ccc(-c2c3nc(c(-c4c(F)cccc4F)c4ccc([nH]4)c(-c4c(F)cccc4F)c4nc(c(-c5c(F)cccc5F)c5ccc2[nH]5)C=C4)C=C3)cc1
REMARK SMILES IDX 7 1 6 2 5 3 4 4 3 5 2 6 1 7 29 8 30 9 82 10 31 11 81 12
REMARK SMILES IDX 32 13 33 14 34 15 75 16 35 17 80 18 74 19 76 20 36 21 79 22
REMARK SMILES IDX 73 23 72 24 37 26 63 27 46 28 62 29 47 30 50 31 61 32 77 33
REMARK SMILES IDX 48 34 49 35 60 37 78 38 51 39 38 40 39 41 44 42 40 43 41 44
REMARK SMILES IDX 43 45 45 46 42 47 64 48 65 49 70 50 66 51 67 52 69 53 71 54
REMARK SMILES IDX 68 55 52 56 53 57 58 58 54 59 55 60 57 61 59 62 56 63 8 64
REMARK SMILES IDX 9 65 10 66 11 67 12 68 13 69 14 70 15 71 16 72 28 73 17 74
REMARK SMILES IDX 18 75 19 76 20 77 27 78 21 80 22 81 26 82 23 83 25 84 24 85
REMARK H PARENT 76 25 50 36 19 79
REMARK Flexibility Score: inf
ROOT
ATOM      1  C   UNL A   1      35.056  33.999  28.058  1.00  0.00     0.188 C 
ENDROOT
BRANCH   1   2
ATOM      2  O   UNL A   1      34.134  35.093  27.981  1.00  0.00    -0.376 OA
BRANCH   2   3
ATOM      3  C   UNL A   1      33.204  35.169  29.064  1.00  0.00     0.202 C 
BRANCH   3   4
ATOM      4  C   UNL A   1      33.161  36.525  29.780  1.00  0.00     0.261 C 
BRANCH   4   5
ATOM      5  O   UNL A   1      32.447  36.479  31.026  1.00  0.00    -0.460 OA
BRANCH   5   6
ATOM      6  C   UNL A   1      32.560  35.573  32.023  1.00  0.00     0.338 C 
ATOM      7  O   UNL A   1      31.525  35.220  32.607  1.00  0.00    -0.246 OA
BRANCH   6   8
ATOM      8  C   UNL A   1      33.848  34.961  32.479  1.00  0.00     0.060 A 
ATOM      9  C   UNL A   1      35.099  35.581  32.436  1.00  0.00     0.016 A 
ATOM     10  C   UNL A   1      33.777  33.679  33.059  1.00  0.00     0.016 A 
ATOM     11  C   UNL A   1      36.249  34.937  32.875  1.00  0.00     0.010 A 
ATOM     12  C   UNL A   1      34.924  33.035  33.537  1.00  0.00     0.010 A 
ATOM     13  C   UNL A   1      36.169  33.658  33.412  1.00  0.00    -0.014 A 
BRANCH  13  14
ATOM     14  C   UNL A   1      37.433  32.944  33.663  1.00  0.00     0.031 A 
ATOM     15  C   UNL A   1      38.118  33.185  34.971  1.00  0.00     0.074 A 
ATOM     16  C   UNL A   1      37.857  31.995  32.810  1.00  0.00     0.049 A 
ATOM     17  N   UNL A   1      39.223  32.673  35.435  1.00  0.00    -0.248 NA
ATOM     18  C   UNL A   1      37.448  34.120  35.894  1.00  0.00     0.031 C 
ATOM     19  C   UNL A   1      37.168  31.610  31.580  1.00  0.00     0.029 A 
ATOM     20  N   UNL A   1      38.941  31.162  32.856  1.00  0.00    -0.354 N 
ATOM     21  C   UNL A   1      39.391  33.235  36.692  1.00  0.00     0.074 A 
ATOM     22  C   UNL A   1      38.287  34.138  36.915  1.00  0.00     0.031 C 
ATOM     23  C   UNL A   1      37.836  30.607  30.990  1.00  0.00     0.029 A 
ATOM     24  C   UNL A   1      39.034  30.324  31.771  1.00  0.00     0.049 A 
ATOM     25  H   UNL A   1      39.591  31.163  33.595  1.00  0.00     0.167 HD
ATOM     26  C   UNL A   1      40.387  33.009  37.578  1.00  0.00     0.037 A 
ATOM     27  C   UNL A   1      40.003  29.452  31.439  1.00  0.00     0.037 A 
ATOM     28  C   UNL A   1      41.479  32.113  37.315  1.00  0.00     0.049 A 
ATOM     29  C   UNL A   1      41.166  29.312  32.382  1.00  0.00     0.074 A 
ATOM     30  C   UNL A   1      42.586  31.842  38.094  1.00  0.00     0.029 A 
ATOM     31  N   UNL A   1      41.598  31.345  36.160  1.00  0.00    -0.354 N 
ATOM     32  N   UNL A   1      41.354  29.885  33.549  1.00  0.00    -0.248 NA
ATOM     33  C   UNL A   1      42.253  28.420  31.967  1.00  0.00     0.031 C 
ATOM     34  C   UNL A   1      43.401  30.949  37.389  1.00  0.00     0.029 A 
ATOM     35  C   UNL A   1      42.773  30.618  36.195  1.00  0.00     0.049 A 
ATOM     36  H   UNL A   1      40.941  31.323  35.428  1.00  0.00     0.167 HD
ATOM     37  C   UNL A   1      42.569  29.410  34.018  1.00  0.00     0.074 A 
ATOM     38  C   UNL A   1      43.063  28.486  33.015  1.00  0.00     0.031 C 
ATOM     39  C   UNL A   1      43.221  29.706  35.170  1.00  0.00     0.037 A 
BRANCH  26  40
ATOM     40  C   UNL A   1      40.358  33.811  38.845  1.00  0.00     0.057 A 
ATOM     41  C   UNL A   1      41.111  34.981  39.009  1.00  0.00     0.134 A 
ATOM     42  C   UNL A   1      39.616  33.362  39.945  1.00  0.00     0.134 A 
ATOM     43  F   UNL A   1      41.873  35.447  38.008  1.00  0.00    -0.206 F 
ATOM     44  C   UNL A   1      41.158  35.654  40.233  1.00  0.00     0.040 A 
ATOM     45  C   UNL A   1      39.634  34.041  41.165  1.00  0.00     0.040 A 
ATOM     46  F   UNL A   1      38.882  32.244  39.860  1.00  0.00    -0.206 F 
ATOM     47  C   UNL A   1      40.416  35.184  41.315  1.00  0.00     0.006 A 
ENDBRANCH  26  40
BRANCH  27  48
ATOM     48  C   UNL A   1      39.934  28.695  30.161  1.00  0.00     0.057 A 
ATOM     49  C   UNL A   1      40.533  29.174  28.991  1.00  0.00     0.134 A 
ATOM     50  C   UNL A   1      39.261  27.468  30.079  1.00  0.00     0.134 A 
ATOM     51  F   UNL A   1      41.179  30.348  28.995  1.00  0.00    -0.206 F 
ATOM     52  C   UNL A   1      40.454  28.470  27.786  1.00  0.00     0.040 A 
ATOM     53  C   UNL A   1      39.197  26.740  28.888  1.00  0.00     0.040 A 
ATOM     54  F   UNL A   1      38.665  26.947  31.162  1.00  0.00    -0.206 F 
ATOM     55  C   UNL A   1      39.789  27.246  27.734  1.00  0.00     0.006 A 
ENDBRANCH  27  48
BRANCH  39  56
ATOM     56  C   UNL A   1      44.519  28.996  35.410  1.00  0.00     0.057 A 
ATOM     57  C   UNL A   1      45.747  29.553  35.033  1.00  0.00     0.134 A 
ATOM     58  C   UNL A   1      44.537  27.762  36.072  1.00  0.00     0.134 A 
ATOM     59  F   UNL A   1      45.791  30.726  34.382  1.00  0.00    -0.206 F 
ATOM     60  C   UNL A   1      46.950  28.896  35.289  1.00  0.00     0.040 A 
ATOM     61  C   UNL A   1      45.735  27.111  36.361  1.00  0.00     0.040 A 
ATOM     62  F   UNL A   1      43.394  27.183  36.467  1.00  0.00    -0.206 F 
ATOM     63  C   UNL A   1      46.946  27.676  35.963  1.00  0.00     0.006 A 
ENDBRANCH  39  56
ENDBRANCH  13  14
ENDBRANCH   6   8
ENDBRANCH   5   6
ENDBRANCH   4   5
ENDBRANCH   3   4
ENDBRANCH   2   3
ENDBRANCH   1   2
BRANCH   1  64
ATOM     64  C   UNL A   1      34.817  33.115  29.289  1.00  0.00     0.188 C 
BRANCH  64  65
ATOM     65  O   UNL A   1      34.253  31.821  29.065  1.00  0.00    -0.376 OA
BRANCH  65  66
ATOM     66  C   UNL A   1      34.228  31.337  27.726  1.00  0.00     0.202 C 
BRANCH  66  67
ATOM     67  C   UNL A   1      33.002  30.525  27.290  1.00  0.00     0.261 C 
BRANCH  67  68
ATOM     68  O   UNL A   1      33.190  29.099  27.365  1.00  0.00    -0.463 OA
BRANCH  68  69
ATOM     69  C   UNL A   1      32.055  28.397  27.189  1.00  0.00     0.313 C 
ATOM     70  O   UNL A   1      31.238  28.192  28.089  1.00  0.00    -0.252 OA
BRANCH  69  71
ATOM     71  C   UNL A   1      31.843  27.795  25.796  1.00  0.00     0.128 C 
ATOM     72  C   UNL A   1      31.079  28.175  24.571  1.00  0.00    -0.010 C 
ATOM     73  C   UNL A   1      31.196  26.458  26.108  1.00  0.00     0.089 C 
ATOM     74  C   UNL A   1      30.330  27.165  24.084  1.00  0.00     0.033 C 
ATOM     75  C   UNL A   1      30.156  26.063  25.084  1.00  0.00     0.208 C 
BRANCH  75  76
ATOM     76  N   UNL A   1      30.124  24.641  24.711  1.00  0.00    -0.328 N 
ATOM     77  C   UNL A   1      31.321  23.927  25.238  1.00  0.00     0.275 C 
ATOM     78  C   UNL A   1      30.523  24.309  23.331  1.00  0.00     0.275 C 
ATOM     79  H   UNL A   1      29.170  24.412  24.996  1.00  0.00     0.348 HD
ATOM     80  C   UNL A   1      31.953  23.845  23.812  1.00  0.00     0.073 C 
ATOM     81  C   UNL A   1      32.274  22.434  23.282  1.00  0.00     0.047 C 
ATOM     82  C   UNL A   1      33.178  24.746  23.514  1.00  0.00     0.047 C 
ATOM     83  C   UNL A   1      33.634  21.966  23.791  1.00  0.00     0.161 C 
ATOM     84  C   UNL A   1      34.489  24.130  23.959  1.00  0.00     0.161 C 
ATOM     85  O   UNL A   1      34.661  22.857  23.360  1.00  0.00    -0.381 OA
ENDBRANCH  75  76
ENDBRANCH  69  71
ENDBRANCH  68  69
ENDBRANCH  67  68
ENDBRANCH  66  67
ENDBRANCH  65  66
ENDBRANCH  64  65
ENDBRANCH   1  64
TORSDOF 18
ENDMDL
MODEL 3
REMARK VINA RESULT:     -10.1      3.015      8.286
REMARK SMILES O=C(OCCOCCOCCOC(=O)[C@@H]1C=C[C@@H]([NH+]2CC3(CCOCC3)C2)C1)c1ccc(-c2c3nc(c(-c4c(F)cccc4F)c4ccc([nH]4)c(-c4c(F)cccc4F)c4nc(c(-c5c(F)cccc5F)c5ccc2[nH]5)C=C4)C=C3)cc1
REMARK SMILES IDX 7 1 6 2 5 3 4 4 3 5 2 6 1 7 29 8 30 9 82 10 31 11 81 12
REMARK SMILES IDX 32 13 33 14 34 15 75 16 35 17 80 18 74 19 76 20 36 21 79 22
REMARK SMILES IDX 73 23 72 24 37 26 63 27 46 28 62 29 47 30 50 31 61 32 77 33
REMARK SMILES IDX 48 34 49 35 60 37 78 38 51 39 38 40 39 41 44 42 40 43 41 44
REMARK SMILES IDX 43 45 45 46 42 47 64 48 65 49 70 50 66 51 67 52 69 53 71 54
REMARK SMILES IDX 68 55 52 56 53 57 58 58 54 59 55 60 57 61 59 62 56 63 8 64
REMARK SMILES IDX 9 65 10 66 11 67 12 68 13 69 14 70 15 71 16 72 28 73 17 74
REMARK SMILES IDX 18 75 19 76 20 77 27 78 21 80 22 81 26 82 23 83 25 84 24 85
REMARK H PARENT 76 25 50 36 19 79
REMARK Flexibility Score: inf
ROOT
ATOM      1  C   UNL A   1      42.239  19.390  25.953  1.00  0.00     0.188 C 
ENDROOT
BRANCH   1   2
ATOM      2  O   UNL A   1      42.298  20.266  27.084  1.00  0.00    -0.376 OA
BRANCH   2   3
ATOM      3  C   UNL A   1      41.119  21.047  27.298  1.00  0.00     0.202 C 
BRANCH   3   4
ATOM      4  C   UNL A   1      40.793  22.040  26.175  1.00  0.00     0.261 C 
BRANCH   4   5
ATOM      5  O   UNL A   1      39.391  22.336  26.077  1.00  0.00    -0.460 OA
BRANCH   5   6
ATOM      6  C   UNL A   1      38.781  23.539  26.177  1.00  0.00     0.338 C 
ATOM      7  O   UNL A   1      37.750  23.725  25.512  1.00  0.00    -0.246 OA
BRANCH   6   8
ATOM      8  C   UNL A   1      39.258  24.670  27.032  1.00  0.00     0.060 A 
ATOM      9  C   UNL A   1      39.116  24.754  28.419  1.00  0.00     0.016 A 
ATOM     10  C   UNL A   1      39.969  25.704  26.389  1.00  0.00     0.016 A 
ATOM     11  C   UNL A   1      39.584  25.846  29.139  1.00  0.00     0.010 A 
ATOM     12  C   UNL A   1      40.476  26.792  27.108  1.00  0.00     0.010 A 
ATOM     13  C   UNL A   1      40.252  26.875  28.485  1.00  0.00    -0.014 A 
BRANCH  13  14
ATOM     14  C   UNL A   1      40.538  28.099  29.255  1.00  0.00     0.031 A 
ATOM     15  C   UNL A   1      41.928  28.282  29.774  1.00  0.00     0.074 A 
ATOM     16  C   UNL A   1      39.619  29.076  29.340  1.00  0.00     0.049 A 
ATOM     17  N   UNL A   1      42.434  29.268  30.460  1.00  0.00    -0.248 NA
ATOM     18  C   UNL A   1      42.889  27.211  29.455  1.00  0.00     0.031 C 
ATOM     19  C   UNL A   1      38.286  29.024  28.742  1.00  0.00     0.029 A 
ATOM     20  N   UNL A   1      39.668  30.310  29.928  1.00  0.00    -0.354 N 
ATOM     21  C   UNL A   1      43.763  28.930  30.670  1.00  0.00     0.074 A 
ATOM     22  C   UNL A   1      43.985  27.642  30.055  1.00  0.00     0.031 C 
ATOM     23  C   UNL A   1      37.645  30.178  28.981  1.00  0.00     0.029 A 
ATOM     24  C   UNL A   1      38.501  31.024  29.803  1.00  0.00     0.049 A 
ATOM     25  H   UNL A   1      40.464  30.653  30.396  1.00  0.00     0.167 HD
ATOM     26  C   UNL A   1      44.709  29.641  31.323  1.00  0.00     0.037 A 
ATOM     27  C   UNL A   1      38.162  32.215  30.328  1.00  0.00     0.037 A 
ATOM     28  C   UNL A   1      44.447  30.913  31.936  1.00  0.00     0.049 A 
ATOM     29  C   UNL A   1      39.193  32.929  31.158  1.00  0.00     0.074 A 
ATOM     30  C   UNL A   1      45.294  31.708  32.682  1.00  0.00     0.029 A 
ATOM     31  N   UNL A   1      43.222  31.572  31.875  1.00  0.00    -0.354 N 
ATOM     32  N   UNL A   1      40.436  32.583  31.404  1.00  0.00    -0.248 NA
ATOM     33  C   UNL A   1      38.780  34.186  31.791  1.00  0.00     0.031 C 
ATOM     34  C   UNL A   1      44.567  32.822  33.117  1.00  0.00     0.029 A 
ATOM     35  C   UNL A   1      43.284  32.752  32.592  1.00  0.00     0.049 A 
ATOM     36  H   UNL A   1      42.430  31.245  31.391  1.00  0.00     0.167 HD
ATOM     37  C   UNL A   1      40.962  33.586  32.203  1.00  0.00     0.074 A 
ATOM     38  C   UNL A   1      39.905  34.564  32.384  1.00  0.00     0.031 C 
ATOM     39  C   UNL A   1      42.202  33.696  32.741  1.00  0.00     0.037 A 
BRANCH  26  40
ATOM     40  C   UNL A   1      46.058  29.000  31.462  1.00  0.00     0.057 A 
ATOM     41  C   UNL A   1      47.065  29.154  30.499  1.00  0.00     0.134 A 
ATOM     42  C   UNL A   1      46.326  28.154  32.545  1.00  0.00     0.134 A 
ATOM     43  F   UNL A   1      46.860  29.921  29.417  1.00  0.00    -0.206 F 
ATOM     44  C   UNL A   1      48.274  28.460  30.589  1.00  0.00     0.040 A 
ATOM     45  C   UNL A   1      47.541  27.475  32.661  1.00  0.00     0.040 A 
ATOM     46  F   UNL A   1      45.403  27.952  33.497  1.00  0.00    -0.206 F 
ATOM     47  C   UNL A   1      48.515  27.618  31.674  1.00  0.00     0.006 A 
ENDBRANCH  26  40
BRANCH  27  48
ATOM     48  C   UNL A   1      36.798  32.770  30.124  1.00  0.00     0.057 A 
ATOM     49  C   UNL A   1      36.486  33.561  29.013  1.00  0.00     0.134 A 
ATOM     50  C   UNL A   1      35.767  32.524  31.042  1.00  0.00     0.134 A 
ATOM     51  F   UNL A   1      37.428  33.849  28.104  1.00  0.00    -0.206 F 
ATOM     52  C   UNL A   1      35.208  34.097  28.829  1.00  0.00     0.040 A 
ATOM     53  C   UNL A   1      34.478  33.030  30.858  1.00  0.00     0.040 A 
ATOM     54  F   UNL A   1      35.994  31.772  32.130  1.00  0.00    -0.206 F 
ATOM     55  C   UNL A   1      34.198  33.826  29.751  1.00  0.00     0.006 A 
ENDBRANCH  27  48
BRANCH  39  56
ATOM     56  C   UNL A   1      42.481  34.930  33.544  1.00  0.00     0.057 A 
ATOM     57  C   UNL A   1      42.130  35.028  34.895  1.00  0.00     0.134 A 
ATOM     58  C   UNL A   1      43.154  36.013  32.964  1.00  0.00     0.134 A 
ATOM     59  F   UNL A   1      41.470  34.028  35.501  1.00  0.00    -0.206 F 
ATOM     60  C   UNL A   1      42.422  36.171  35.640  1.00  0.00     0.040 A 
ATOM     61  C   UNL A   1      43.479  37.148  33.706  1.00  0.00     0.040 A 
ATOM     62  F   UNL A   1      43.525  35.975  31.676  1.00  0.00    -0.206 F 
ATOM     63  C   UNL A   1      43.106  37.230  35.047  1.00  0.00     0.006 A 
ENDBRANCH  39  56
ENDBRANCH  13  14
ENDBRANCH   6   8
ENDBRANCH   5   6
ENDBRANCH   4   5
ENDBRANCH   3   4
ENDBRANCH   2   3
ENDBRANCH   1   2
BRANCH   1  64
ATOM     64  C   UNL A   1      43.408  18.397  25.916  1.00  0.00     0.188 C 
BRANCH  64  65
ATOM     65  O   UNL A   1      44.252  18.423  24.764  1.00  0.00    -0.376 OA
BRANCH  65  66
ATOM     66  C   UNL A   1      45.613  18.796  24.954  1.00  0.00     0.202 C 
BRANCH  66  67
ATOM     67  C   UNL A   1      45.980  20.269  24.733  1.00  0.00     0.261 C 
BRANCH  67  68
ATOM     68  O   UNL A   1      45.483  21.154  25.755  1.00  0.00    -0.463 OA
BRANCH  68  69
ATOM     69  C   UNL A   1      44.696  22.136  25.280  1.00  0.00     0.313 C 
ATOM     70  O   UNL A   1      44.062  22.048  24.226  1.00  0.00    -0.252 OA
BRANCH  69  71
ATOM     71  C   UNL A   1      44.666  23.433  26.097  1.00  0.00     0.128 C 
ATOM     72  C   UNL A   1      43.683  24.108  26.995  1.00  0.00    -0.010 C 
ATOM     73  C   UNL A   1      44.830  24.500  25.031  1.00  0.00     0.089 C 
ATOM     74  C   UNL A   1      43.504  25.410  26.693  1.00  0.00     0.033 C 
ATOM     75  C   UNL A   1      44.029  25.747  25.331  1.00  0.00     0.208 C 
BRANCH  75  76
ATOM     76  N   UNL A   1      44.684  27.027  25.019  1.00  0.00    -0.328 N 
ATOM     77  C   UNL A   1      46.156  26.847  24.874  1.00  0.00     0.275 C 
ATOM     78  C   UNL A   1      44.900  27.953  26.146  1.00  0.00     0.275 C 
ATOM     79  H   UNL A   1      44.085  27.343  24.255  1.00  0.00     0.348 HD
ATOM     80  C   UNL A   1      46.420  27.538  26.249  1.00  0.00     0.073 C 
ATOM     81  C   UNL A   1      47.325  28.785  26.229  1.00  0.00     0.047 C 
ATOM     82  C   UNL A   1      46.879  26.645  27.428  1.00  0.00     0.047 C 
ATOM     83  C   UNL A   1      48.796  28.381  26.277  1.00  0.00     0.161 C 
ATOM     84  C   UNL A   1      48.376  26.404  27.440  1.00  0.00     0.161 C 
ATOM     85  O   UNL A   1      49.071  27.639  27.462  1.00  0.00    -0.381 OA
ENDBRANCH  75  76
ENDBRANCH  69  71
ENDBRANCH  68  69
ENDBRANCH  67  68
ENDBRANCH  66  67
ENDBRANCH  65  66
ENDBRANCH  64  65
ENDBRANCH   1  64
TORSDOF 18
ENDMDL
