MODEL 1
REMARK VINA RESULT:     -10.4      0.000      0.000
REMARK SMILES Cc1cc(C)c2c(OCCCC(=O)OCCOCCOCCOC(=O)c3ccc(-c4c5nc(c(-c6c(F)cccc6F)c6ccc([nH]6)c(-c6c(F)cccc6F)c6nc(c(-c7c(F)cccc7F)c7ccc4[nH]7)C=C6)C=C5)cc3)nsc2n1
REMARK SMILES IDX 18 1 17 2 16 3 15 4 14 5 12 6 13 7 11 8 10 9 9 10 8 11 7 12
REMARK SMILES IDX 1 13 2 14 3 15 83 16 4 17 82 18 5 19 6 20 81 21 80 22 19 23
REMARK SMILES IDX 20 24 21 25 22 26 23 27 24 28 25 29 26 30 27 31 79 32 28 33
REMARK SMILES IDX 78 34 29 35 30 36 31 37 72 38 32 39 77 40 71 41 73 42 33 43
REMARK SMILES IDX 76 44 70 45 69 46 34 48 60 49 43 50 59 51 44 52 47 53 58 54
REMARK SMILES IDX 74 55 45 56 46 57 57 59 75 60 48 61 35 62 36 63 41 64 37 65
REMARK SMILES IDX 38 66 40 67 42 68 39 69 61 70 62 71 67 72 63 73 64 74 66 75
REMARK SMILES IDX 68 76 65 77 49 78 50 79 55 80 51 81 52 82 54 83 56 84 53 85
REMARK H PARENT 73 47 47 58
REMARK Flexibility Score: inf
ROOT
ATOM      1  C   UNL A   1      38.647  22.054  25.929  1.00  0.00     0.188 C 
ENDROOT
BRANCH   1   2
ATOM      2  O   UNL A   1      37.968  21.021  25.244  1.00  0.00    -0.376 OA
BRANCH   2   3
ATOM      3  C   UNL A   1      36.940  21.444  24.358  1.00  0.00     0.202 C 
BRANCH   3   4
ATOM      4  C   UNL A   1      36.882  22.921  23.929  1.00  0.00     0.261 C 
BRANCH   4   5
ATOM      5  O   UNL A   1      35.557  23.475  23.643  1.00  0.00    -0.463 OA
BRANCH   5   6
ATOM      6  C   UNL A   1      35.021  24.330  24.549  1.00  0.00     0.305 C 
ATOM      7  O   UNL A   1      35.140  24.157  25.762  1.00  0.00    -0.252 OA
BRANCH   6   8
ATOM      8  C   UNL A   1      34.188  25.515  24.029  1.00  0.00     0.126 C 
BRANCH   8   9
ATOM      9  C   UNL A   1      33.621  25.791  22.625  1.00  0.00     0.053 C 
BRANCH   9  10
ATOM     10  C   UNL A   1      32.143  26.068  22.284  1.00  0.00     0.232 C 
BRANCH  10  11
ATOM     11  O   UNL A   1      31.089  25.142  22.540  1.00  0.00    -0.477 OA
BRANCH  11  12
ATOM     12  C   UNL A   1      30.752  24.889  23.819  1.00  0.00     0.235 A 
ATOM     13  C   UNL A   1      33.145  22.360  28.059  1.00  0.00     0.067 C 
ATOM     14  C   UNL A   1      32.207  22.696  26.934  1.00  0.00     0.039 A 
ATOM     15  C   UNL A   1      32.297  22.005  25.729  1.00  0.00     0.027 A 
ATOM     16  N   UNL A   1      31.380  23.737  27.122  1.00  0.00    -0.240 NA
ATOM     17  C   UNL A   1      31.779  22.554  24.539  1.00  0.00    -0.034 A 
ATOM     18  C   UNL A   1      30.863  24.227  25.982  1.00  0.00     0.147 A 
ATOM     19  C   UNL A   1      32.057  21.874  23.225  1.00  0.00     0.045 C 
ATOM     20  C   UNL A   1      31.127  23.803  24.680  1.00  0.00     0.078 A 
ATOM     21  S   UNL A   1      29.816  25.567  25.950  1.00  0.00    -0.012 S 
ATOM     22  N   UNL A   1      29.937  25.817  24.315  1.00  0.00    -0.153 NA
ENDBRANCH  11  12
ENDBRANCH  10  11
ENDBRANCH   9  10
ENDBRANCH   8   9
ENDBRANCH   6   8
ENDBRANCH   5   6
ENDBRANCH   4   5
ENDBRANCH   3   4
ENDBRANCH   2   3
ENDBRANCH   1   2
BRANCH   1  23
ATOM     23  C   UNL A   1      40.119  21.793  26.319  1.00  0.00     0.188 C 
BRANCH  23  24
ATOM     24  O   UNL A   1      40.404  20.789  27.275  1.00  0.00    -0.376 OA
BRANCH  24  25
ATOM     25  C   UNL A   1      41.609  20.039  27.358  1.00  0.00     0.202 C 
BRANCH  25  26
ATOM     26  C   UNL A   1      42.336  19.335  26.213  1.00  0.00     0.261 C 
BRANCH  26  27
ATOM     27  O   UNL A   1      42.854  20.193  25.237  1.00  0.00    -0.460 OA
BRANCH  27  28
ATOM     28  C   UNL A   1      44.192  20.191  25.138  1.00  0.00     0.338 C 
ATOM     29  O   UNL A   1      44.939  19.229  25.016  1.00  0.00    -0.246 OA
BRANCH  28  30
ATOM     30  C   UNL A   1      44.603  21.590  25.100  1.00  0.00     0.060 A 
ATOM     31  C   UNL A   1      45.742  21.955  25.816  1.00  0.00     0.016 A 
ATOM     32  C   UNL A   1      43.754  22.528  24.488  1.00  0.00     0.016 A 
ATOM     33  C   UNL A   1      45.816  23.255  26.236  1.00  0.00     0.010 A 
ATOM     34  C   UNL A   1      43.831  23.820  24.898  1.00  0.00     0.010 A 
ATOM     35  C   UNL A   1      44.753  24.094  25.895  1.00  0.00    -0.014 A 
BRANCH  35  36
ATOM     36  C   UNL A   1      44.507  25.244  26.716  1.00  0.00     0.031 A 
ATOM     37  C   UNL A   1      45.598  26.216  26.630  1.00  0.00     0.074 A 
ATOM     38  C   UNL A   1      43.342  25.351  27.387  1.00  0.00     0.049 A 
ATOM     39  N   UNL A   1      46.518  26.427  27.509  1.00  0.00    -0.248 NA
ATOM     40  C   UNL A   1      45.848  26.840  25.320  1.00  0.00     0.031 C 
ATOM     41  C   UNL A   1      42.139  24.513  27.282  1.00  0.00     0.029 A 
ATOM     42  N   UNL A   1      42.963  26.309  28.268  1.00  0.00    -0.354 N 
ATOM     43  C   UNL A   1      47.308  27.415  26.948  1.00  0.00     0.074 A 
ATOM     44  C   UNL A   1      47.024  27.427  25.538  1.00  0.00     0.031 C 
ATOM     45  C   UNL A   1      41.103  25.131  27.897  1.00  0.00     0.029 A 
ATOM     46  C   UNL A   1      41.599  26.322  28.557  1.00  0.00     0.049 A 
ATOM     47  H   UNL A   1      43.599  26.943  28.672  1.00  0.00     0.167 HD
ATOM     48  C   UNL A   1      47.861  28.377  27.731  1.00  0.00     0.037 A 
ATOM     49  C   UNL A   1      40.968  27.317  29.230  1.00  0.00     0.037 A 
ATOM     50  C   UNL A   1      47.879  27.980  29.116  1.00  0.00     0.049 A 
ATOM     51  C   UNL A   1      42.021  28.065  29.966  1.00  0.00     0.074 A 
ATOM     52  C   UNL A   1      48.474  26.952  29.821  1.00  0.00     0.029 A 
ATOM     53  N   UNL A   1      46.857  28.444  29.908  1.00  0.00    -0.354 N 
ATOM     54  N   UNL A   1      42.703  27.567  30.960  1.00  0.00    -0.248 NA
ATOM     55  C   UNL A   1      42.640  29.195  29.290  1.00  0.00     0.031 C 
ATOM     56  C   UNL A   1      47.525  26.574  30.815  1.00  0.00     0.029 A 
ATOM     57  C   UNL A   1      46.422  27.424  30.716  1.00  0.00     0.049 A 
ATOM     58  H   UNL A   1      46.495  29.359  29.897  1.00  0.00     0.167 HD
ATOM     59  C   UNL A   1      43.999  28.029  30.770  1.00  0.00     0.074 A 
ATOM     60  C   UNL A   1      43.879  29.093  29.776  1.00  0.00     0.031 C 
ATOM     61  C   UNL A   1      45.068  27.304  31.213  1.00  0.00     0.037 A 
BRANCH  48  62
ATOM     62  C   UNL A   1      47.987  29.801  27.276  1.00  0.00     0.057 A 
ATOM     63  C   UNL A   1      49.243  30.418  27.287  1.00  0.00     0.134 A 
ATOM     64  C   UNL A   1      46.891  30.665  27.051  1.00  0.00     0.134 A 
ATOM     65  F   UNL A   1      50.352  29.710  27.550  1.00  0.00    -0.206 F 
ATOM     66  C   UNL A   1      49.397  31.796  27.095  1.00  0.00     0.040 A 
ATOM     67  C   UNL A   1      47.036  32.027  26.793  1.00  0.00     0.040 A 
ATOM     68  F   UNL A   1      45.620  30.262  27.169  1.00  0.00    -0.206 F 
ATOM     69  C   UNL A   1      48.293  32.603  26.837  1.00  0.00     0.006 A 
ENDBRANCH  48  62
BRANCH  49  70
ATOM     70  C   UNL A   1      39.633  27.917  28.987  1.00  0.00     0.057 A 
ATOM     71  C   UNL A   1      38.696  28.002  30.030  1.00  0.00     0.134 A 
ATOM     72  C   UNL A   1      39.369  28.708  27.856  1.00  0.00     0.134 A 
ATOM     73  F   UNL A   1      38.874  27.305  31.162  1.00  0.00    -0.206 F 
ATOM     74  C   UNL A   1      37.596  28.868  29.978  1.00  0.00     0.040 A 
ATOM     75  C   UNL A   1      38.270  29.572  27.790  1.00  0.00     0.040 A 
ATOM     76  F   UNL A   1      40.220  28.744  26.821  1.00  0.00    -0.206 F 
ATOM     77  C   UNL A   1      37.392  29.672  28.861  1.00  0.00     0.006 A 
ENDBRANCH  49  70
BRANCH  61  78
ATOM     78  C   UNL A   1      44.783  26.146  32.136  1.00  0.00     0.057 A 
ATOM     79  C   UNL A   1      44.581  24.822  31.712  1.00  0.00     0.134 A 
ATOM     80  C   UNL A   1      44.858  26.359  33.516  1.00  0.00     0.134 A 
ATOM     81  F   UNL A   1      44.580  24.505  30.411  1.00  0.00    -0.206 F 
ATOM     82  C   UNL A   1      44.431  23.768  32.621  1.00  0.00     0.040 A 
ATOM     83  C   UNL A   1      44.743  25.312  34.434  1.00  0.00     0.040 A 
ATOM     84  F   UNL A   1      45.096  27.590  33.996  1.00  0.00    -0.206 F 
ATOM     85  C   UNL A   1      44.521  24.012  33.989  1.00  0.00     0.006 A 
ENDBRANCH  61  78
ENDBRANCH  35  36
ENDBRANCH  28  30
ENDBRANCH  27  28
ENDBRANCH  26  27
ENDBRANCH  25  26
ENDBRANCH  24  25
ENDBRANCH  23  24
ENDBRANCH   1  23
TORSDOF 21
ENDMDL
MODEL 2
REMARK VINA RESULT:     -10.3      1.478      2.038
REMARK SMILES Cc1cc(C)c2c(OCCCC(=O)OCCOCCOCCOC(=O)c3ccc(-c4c5nc(c(-c6c(F)cccc6F)c6ccc([nH]6)c(-c6c(F)cccc6F)c6nc(c(-c7c(F)cccc7F)c7ccc4[nH]7)C=C6)C=C5)cc3)nsc2n1
REMARK SMILES IDX 18 1 17 2 16 3 15 4 14 5 12 6 13 7 11 8 10 9 9 10 8 11 7 12
REMARK SMILES IDX 1 13 2 14 3 15 83 16 4 17 82 18 5 19 6 20 81 21 80 22 19 23
REMARK SMILES IDX 20 24 21 25 22 26 23 27 24 28 25 29 26 30 27 31 79 32 28 33
REMARK SMILES IDX 78 34 29 35 30 36 31 37 72 38 32 39 77 40 71 41 73 42 33 43
REMARK SMILES IDX 76 44 70 45 69 46 34 48 60 49 43 50 59 51 44 52 47 53 58 54
REMARK SMILES IDX 74 55 45 56 46 57 57 59 75 60 48 61 35 62 36 63 41 64 37 65
REMARK SMILES IDX 38 66 40 67 42 68 39 69 61 70 62 71 67 72 63 73 64 74 66 75
REMARK SMILES IDX 68 76 65 77 49 78 50 79 55 80 51 81 52 82 54 83 56 84 53 85
REMARK H PARENT 73 47 47 58
REMARK Flexibility Score: inf
ROOT
ATOM      1  C   UNL A   1      38.697  22.175  25.790  1.00  0.00     0.188 C 
ENDROOT
BRANCH   1   2
ATOM      2  O   UNL A   1      37.864  21.218  25.166  1.00  0.00    -0.376 OA
BRANCH   2   3
ATOM      3  C   UNL A   1      36.475  21.342  25.436  1.00  0.00     0.202 C 
BRANCH   3   4
ATOM      4  C   UNL A   1      35.536  21.834  24.319  1.00  0.00     0.261 C 
BRANCH   4   5
ATOM      5  O   UNL A   1      35.746  23.198  23.832  1.00  0.00    -0.463 OA
BRANCH   5   6
ATOM      6  C   UNL A   1      34.851  24.147  24.205  1.00  0.00     0.305 C 
ATOM      7  O   UNL A   1      34.894  24.686  25.311  1.00  0.00    -0.252 OA
BRANCH   6   8
ATOM      8  C   UNL A   1      33.718  24.505  23.228  1.00  0.00     0.126 C 
BRANCH   8   9
ATOM      9  C   UNL A   1      33.460  25.798  22.435  1.00  0.00     0.053 C 
BRANCH   9  10
ATOM     10  C   UNL A   1      32.163  26.156  21.682  1.00  0.00     0.232 C 
BRANCH  10  11
ATOM     11  O   UNL A   1      30.897  26.299  22.322  1.00  0.00    -0.477 OA
BRANCH  11  12
ATOM     12  C   UNL A   1      30.618  27.462  22.942  1.00  0.00     0.235 A 
ATOM     13  C   UNL A   1      32.836  30.313  27.071  1.00  0.00     0.067 C 
ATOM     14  C   UNL A   1      31.890  29.488  26.244  1.00  0.00     0.039 A 
ATOM     15  C   UNL A   1      31.765  28.124  26.491  1.00  0.00     0.027 A 
ATOM     16  N   UNL A   1      31.278  30.107  25.222  1.00  0.00    -0.240 NA
ATOM     17  C   UNL A   1      31.265  27.252  25.504  1.00  0.00    -0.034 A 
ATOM     18  C   UNL A   1      30.772  29.263  24.306  1.00  0.00     0.147 A 
ATOM     19  C   UNL A   1      31.318  25.765  25.731  1.00  0.00     0.045 C 
ATOM     20  C   UNL A   1      30.857  27.870  24.297  1.00  0.00     0.078 A 
ATOM     21  S   UNL A   1      29.980  29.800  22.900  1.00  0.00    -0.012 S 
ATOM     22  N   UNL A   1      30.020  28.332  22.131  1.00  0.00    -0.153 NA
ENDBRANCH  11  12
ENDBRANCH  10  11
ENDBRANCH   9  10
ENDBRANCH   8   9
ENDBRANCH   6   8
ENDBRANCH   5   6
ENDBRANCH   4   5
ENDBRANCH   3   4
ENDBRANCH   2   3
ENDBRANCH   1   2
BRANCH   1  23
ATOM     23  C   UNL A   1      39.959  21.652  26.508  1.00  0.00     0.188 C 
BRANCH  23  24
ATOM     24  O   UNL A   1      40.310  20.288  26.364  1.00  0.00    -0.376 OA
BRANCH  24  25
ATOM     25  C   UNL A   1      41.464  19.664  26.915  1.00  0.00     0.202 C 
BRANCH  25  26
ATOM     26  C   UNL A   1      42.746  19.283  26.176  1.00  0.00     0.261 C 
BRANCH  26  27
ATOM     27  O   UNL A   1      43.096  20.147  25.133  1.00  0.00    -0.460 OA
BRANCH  27  28
ATOM     28  C   UNL A   1      44.404  20.172  24.838  1.00  0.00     0.338 C 
ATOM     29  O   UNL A   1      45.131  19.231  24.548  1.00  0.00    -0.246 OA
BRANCH  28  30
ATOM     30  C   UNL A   1      44.794  21.578  24.827  1.00  0.00     0.060 A 
ATOM     31  C   UNL A   1      45.936  21.943  25.538  1.00  0.00     0.016 A 
ATOM     32  C   UNL A   1      43.926  22.516  24.245  1.00  0.00     0.016 A 
ATOM     33  C   UNL A   1      45.997  23.234  25.986  1.00  0.00     0.010 A 
ATOM     34  C   UNL A   1      43.989  23.800  24.682  1.00  0.00     0.010 A 
ATOM     35  C   UNL A   1      44.918  24.065  25.675  1.00  0.00    -0.014 A 
BRANCH  35  36
ATOM     36  C   UNL A   1      44.665  25.193  26.524  1.00  0.00     0.031 A 
ATOM     37  C   UNL A   1      45.768  26.155  26.492  1.00  0.00     0.074 A 
ATOM     38  C   UNL A   1      43.487  25.293  27.170  1.00  0.00     0.049 A 
ATOM     39  N   UNL A   1      46.669  26.330  27.398  1.00  0.00    -0.248 NA
ATOM     40  C   UNL A   1      46.056  26.815  25.208  1.00  0.00     0.031 C 
ATOM     41  C   UNL A   1      42.277  24.472  27.013  1.00  0.00     0.029 A 
ATOM     42  N   UNL A   1      43.097  26.230  28.071  1.00  0.00    -0.354 N 
ATOM     43  C   UNL A   1      47.484  27.325  26.885  1.00  0.00     0.074 A 
ATOM     44  C   UNL A   1      47.232  27.382  25.470  1.00  0.00     0.031 C 
ATOM     45  C   UNL A   1      41.233  25.084  27.622  1.00  0.00     0.029 A 
ATOM     46  C   UNL A   1      41.727  26.250  28.328  1.00  0.00     0.049 A 
ATOM     47  H   UNL A   1      43.730  26.844  28.508  1.00  0.00     0.167 HD
ATOM     48  C   UNL A   1      48.028  28.256  27.709  1.00  0.00     0.037 A 
ATOM     49  C   UNL A   1      41.090  27.231  29.016  1.00  0.00     0.037 A 
ATOM     50  C   UNL A   1      48.008  27.819  29.082  1.00  0.00     0.049 A 
ATOM     51  C   UNL A   1      42.134  27.946  29.798  1.00  0.00     0.074 A 
ATOM     52  C   UNL A   1      48.576  26.764  29.769  1.00  0.00     0.029 A 
ATOM     53  N   UNL A   1      46.973  28.271  29.863  1.00  0.00    -0.354 N 
ATOM     54  N   UNL A   1      42.787  27.410  30.792  1.00  0.00    -0.248 NA
ATOM     55  C   UNL A   1      42.780  29.087  29.170  1.00  0.00     0.031 C 
ATOM     56  C   UNL A   1      47.600  26.367  30.730  1.00  0.00     0.029 A 
ATOM     57  C   UNL A   1      46.509  27.233  30.630  1.00  0.00     0.049 A 
ATOM     58  H   UNL A   1      46.622  29.190  29.871  1.00  0.00     0.167 HD
ATOM     59  C   UNL A   1      44.091  27.863  30.646  1.00  0.00     0.074 A 
ATOM     60  C   UNL A   1      44.007  28.957  29.682  1.00  0.00     0.031 C 
ATOM     61  C   UNL A   1      45.142  27.114  31.092  1.00  0.00     0.037 A 
BRANCH  48  62
ATOM     62  C   UNL A   1      48.180  29.692  27.300  1.00  0.00     0.057 A 
ATOM     63  C   UNL A   1      49.439  30.300  27.374  1.00  0.00     0.134 A 
ATOM     64  C   UNL A   1      47.098  30.571  27.060  1.00  0.00     0.134 A 
ATOM     65  F   UNL A   1      50.532  29.576  27.656  1.00  0.00    -0.206 F 
ATOM     66  C   UNL A   1      49.608  31.681  27.226  1.00  0.00     0.040 A 
ATOM     67  C   UNL A   1      47.262  31.938  26.846  1.00  0.00     0.040 A 
ATOM     68  F   UNL A   1      45.821  30.174  27.120  1.00  0.00    -0.206 F 
ATOM     69  C   UNL A   1      48.519  32.503  26.952  1.00  0.00     0.006 A 
ENDBRANCH  48  62
BRANCH  49  70
ATOM     70  C   UNL A   1      39.768  27.853  28.760  1.00  0.00     0.057 A 
ATOM     71  C   UNL A   1      38.803  27.906  29.778  1.00  0.00     0.134 A 
ATOM     72  C   UNL A   1      39.542  28.690  27.654  1.00  0.00     0.134 A 
ATOM     73  F   UNL A   1      38.943  27.163  30.886  1.00  0.00    -0.206 F 
ATOM     74  C   UNL A   1      37.712  28.784  29.731  1.00  0.00     0.040 A 
ATOM     75  C   UNL A   1      38.453  29.568  27.591  1.00  0.00     0.040 A 
ATOM     76  F   UNL A   1      40.422  28.759  26.645  1.00  0.00    -0.206 F 
ATOM     77  C   UNL A   1      37.546  29.633  28.642  1.00  0.00     0.006 A 
ENDBRANCH  49  70
BRANCH  61  78
ATOM     78  C   UNL A   1      44.824  25.932  31.973  1.00  0.00     0.057 A 
ATOM     79  C   UNL A   1      44.579  24.632  31.502  1.00  0.00     0.134 A 
ATOM     80  C   UNL A   1      44.909  26.092  33.360  1.00  0.00     0.134 A 
ATOM     81  F   UNL A   1      44.564  24.362  30.190  1.00  0.00    -0.206 F 
ATOM     82  C   UNL A   1      44.398  23.550  32.373  1.00  0.00     0.040 A 
ATOM     83  C   UNL A   1      44.763  25.016  34.240  1.00  0.00     0.040 A 
ATOM     84  F   UNL A   1      45.187  27.296  33.884  1.00  0.00    -0.206 F 
ATOM     85  C   UNL A   1      44.499  23.741  33.748  1.00  0.00     0.006 A 
ENDBRANCH  61  78
ENDBRANCH  35  36
ENDBRANCH  28  30
ENDBRANCH  27  28
ENDBRANCH  26  27
ENDBRANCH  25  26
ENDBRANCH  24  25
ENDBRANCH  23  24
ENDBRANCH   1  23
TORSDOF 21
ENDMDL
MODEL 3
REMARK VINA RESULT:     -10.2      1.392      2.571
REMARK SMILES Cc1cc(C)c2c(OCCCC(=O)OCCOCCOCCOC(=O)c3ccc(-c4c5nc(c(-c6c(F)cccc6F)c6ccc([nH]6)c(-c6c(F)cccc6F)c6nc(c(-c7c(F)cccc7F)c7ccc4[nH]7)C=C6)C=C5)cc3)nsc2n1
REMARK SMILES IDX 18 1 17 2 16 3 15 4 14 5 12 6 13 7 11 8 10 9 9 10 8 11 7 12
REMARK SMILES IDX 1 13 2 14 3 15 83 16 4 17 82 18 5 19 6 20 81 21 80 22 19 23
REMARK SMILES IDX 20 24 21 25 22 26 23 27 24 28 25 29 26 30 27 31 79 32 28 33
REMARK SMILES IDX 78 34 29 35 30 36 31 37 72 38 32 39 77 40 71 41 73 42 33 43
REMARK SMILES IDX 76 44 70 45 69 46 34 48 60 49 43 50 59 51 44 52 47 53 58 54
REMARK SMILES IDX 74 55 45 56 46 57 57 59 75 60 48 61 35 62 36 63 41 64 37 65
REMARK SMILES IDX 38 66 40 67 42 68 39 69 61 70 62 71 67 72 63 73 64 74 66 75
REMARK SMILES IDX 68 76 65 77 49 78 50 79 55 80 51 81 52 82 54 83 56 84 53 85
REMARK H PARENT 73 47 47 58
REMARK Flexibility Score: inf
ROOT
ATOM      1  C   UNL A   1      39.742  22.059  26.198  1.00  0.00     0.188 C 
ENDROOT
BRANCH   1   2
ATOM      2  O   UNL A   1      38.609  21.339  25.756  1.00  0.00    -0.376 OA
BRANCH   2   3
ATOM      3  C   UNL A   1      37.634  22.097  25.053  1.00  0.00     0.202 C 
BRANCH   3   4
ATOM      4  C   UNL A   1      36.316  21.419  24.635  1.00  0.00     0.261 C 
BRANCH   4   5
ATOM      5  O   UNL A   1      35.348  21.143  25.698  1.00  0.00    -0.463 OA
BRANCH   5   6
ATOM      6  C   UNL A   1      34.051  20.971  25.342  1.00  0.00     0.305 C 
ATOM      7  O   UNL A   1      33.555  19.854  25.197  1.00  0.00    -0.252 OA
BRANCH   6   8
ATOM      8  C   UNL A   1      33.202  22.222  25.055  1.00  0.00     0.126 C 
BRANCH   8   9
ATOM      9  C   UNL A   1      33.294  23.642  25.641  1.00  0.00     0.053 C 
BRANCH   9  10
ATOM     10  C   UNL A   1      34.470  24.623  25.457  1.00  0.00     0.232 C 
BRANCH  10  11
ATOM     11  O   UNL A   1      34.424  25.751  24.585  1.00  0.00    -0.477 OA
BRANCH  11  12
ATOM     12  C   UNL A   1      33.455  25.801  23.651  1.00  0.00     0.235 A 
ATOM     13  C   UNL A   1      29.415  29.297  22.404  1.00  0.00     0.067 C 
ATOM     14  C   UNL A   1      30.166  28.075  22.853  1.00  0.00     0.039 A 
ATOM     15  C   UNL A   1      30.284  27.796  24.211  1.00  0.00     0.027 A 
ATOM     16  N   UNL A   1      30.781  27.356  21.901  1.00  0.00    -0.240 NA
ATOM     17  C   UNL A   1      31.311  26.960  24.692  1.00  0.00    -0.034 A 
ATOM     18  C   UNL A   1      31.732  26.534  22.377  1.00  0.00     0.147 A 
ATOM     19  C   UNL A   1      31.528  26.829  26.176  1.00  0.00     0.045 C 
ATOM     20  C   UNL A   1      32.150  26.396  23.701  1.00  0.00     0.078 A 
ATOM     21  S   UNL A   1      32.680  25.544  21.369  1.00  0.00    -0.012 S 
ATOM     22  N   UNL A   1      33.809  25.181  22.527  1.00  0.00    -0.153 NA
ENDBRANCH  11  12
ENDBRANCH  10  11
ENDBRANCH   9  10
ENDBRANCH   8   9
ENDBRANCH   6   8
ENDBRANCH   5   6
ENDBRANCH   4   5
ENDBRANCH   3   4
ENDBRANCH   2   3
ENDBRANCH   1   2
BRANCH   1  23
ATOM     23  C   UNL A   1      40.451  21.548  27.471  1.00  0.00     0.188 C 
BRANCH  23  24
ATOM     24  O   UNL A   1      40.782  20.175  27.563  1.00  0.00    -0.376 OA
BRANCH  24  25
ATOM     25  C   UNL A   1      42.056  19.607  27.284  1.00  0.00     0.202 C 
BRANCH  25  26
ATOM     26  C   UNL A   1      42.676  19.368  25.908  1.00  0.00     0.261 C 
BRANCH  26  27
ATOM     27  O   UNL A   1      43.065  20.530  25.234  1.00  0.00    -0.460 OA
BRANCH  27  28
ATOM     28  C   UNL A   1      44.336  20.533  24.806  1.00  0.00     0.338 C 
ATOM     29  O   UNL A   1      44.972  19.606  24.320  1.00  0.00    -0.246 OA
BRANCH  28  30
ATOM     30  C   UNL A   1      44.809  21.908  24.932  1.00  0.00     0.060 A 
ATOM     31  C   UNL A   1      45.863  22.157  25.809  1.00  0.00     0.016 A 
ATOM     32  C   UNL A   1      44.086  22.932  24.299  1.00  0.00     0.016 A 
ATOM     33  C   UNL A   1      45.940  23.415  26.340  1.00  0.00     0.010 A 
ATOM     34  C   UNL A   1      44.166  24.184  24.819  1.00  0.00     0.010 A 
ATOM     35  C   UNL A   1      44.966  24.333  25.940  1.00  0.00    -0.014 A 
BRANCH  35  36
ATOM     36  C   UNL A   1      44.668  25.429  26.816  1.00  0.00     0.031 A 
ATOM     37  C   UNL A   1      45.755  26.409  26.848  1.00  0.00     0.074 A 
ATOM     38  C   UNL A   1      43.469  25.490  27.428  1.00  0.00     0.049 A 
ATOM     39  N   UNL A   1      46.625  26.570  27.786  1.00  0.00    -0.248 NA
ATOM     40  C   UNL A   1      46.070  27.113  25.594  1.00  0.00     0.031 C 
ATOM     41  C   UNL A   1      42.279  24.655  27.209  1.00  0.00     0.029 A 
ATOM     42  N   UNL A   1      43.036  26.391  28.345  1.00  0.00    -0.354 N 
ATOM     43  C   UNL A   1      47.438  27.593  27.330  1.00  0.00     0.074 A 
ATOM     44  C   UNL A   1      47.228  27.691  25.910  1.00  0.00     0.031 C 
ATOM     45  C   UNL A   1      41.207  25.230  27.804  1.00  0.00     0.029 A 
ATOM     46  C   UNL A   1      41.659  26.381  28.560  1.00  0.00     0.049 A 
ATOM     47  H   UNL A   1      43.645  27.001  28.820  1.00  0.00     0.167 HD
ATOM     48  C   UNL A   1      47.941  28.507  28.199  1.00  0.00     0.037 A 
ATOM     49  C   UNL A   1      40.985  27.330  29.259  1.00  0.00     0.037 A 
ATOM     50  C   UNL A   1      47.887  28.025  29.556  1.00  0.00     0.049 A 
ATOM     51  C   UNL A   1      41.993  28.036  30.095  1.00  0.00     0.074 A 
ATOM     52  C   UNL A   1      48.452  26.958  30.227  1.00  0.00     0.029 A 
ATOM     53  N   UNL A   1      46.822  28.436  30.319  1.00  0.00    -0.354 N 
ATOM     54  N   UNL A   1      42.624  27.479  31.091  1.00  0.00    -0.248 NA
ATOM     55  C   UNL A   1      42.638  29.207  29.523  1.00  0.00     0.031 C 
ATOM     56  C   UNL A   1      47.454  26.516  31.144  1.00  0.00     0.029 A 
ATOM     57  C   UNL A   1      46.352  27.367  31.039  1.00  0.00     0.049 A 
ATOM     58  H   UNL A   1      46.455  29.349  30.344  1.00  0.00     0.167 HD
ATOM     59  C   UNL A   1      43.925  27.957  31.000  1.00  0.00     0.074 A 
ATOM     60  C   UNL A   1      43.851  29.080  30.068  1.00  0.00     0.031 C 
ATOM     61  C   UNL A   1      44.974  27.211  31.454  1.00  0.00     0.037 A 
BRANCH  48  62
ATOM     62  C   UNL A   1      48.081  29.957  27.840  1.00  0.00     0.057 A 
ATOM     63  C   UNL A   1      46.939  30.699  27.514  1.00  0.00     0.134 A 
ATOM     64  C   UNL A   1      49.313  30.596  27.572  1.00  0.00     0.134 A 
ATOM     65  F   UNL A   1      45.715  30.174  27.668  1.00  0.00    -0.206 F 
ATOM     66  C   UNL A   1      47.019  31.980  26.956  1.00  0.00     0.040 A 
ATOM     67  C   UNL A   1      49.405  31.896  27.078  1.00  0.00     0.040 A 
ATOM     68  F   UNL A   1      50.489  29.964  27.675  1.00  0.00    -0.206 F 
ATOM     69  C   UNL A   1      48.253  32.586  26.746  1.00  0.00     0.006 A 
ENDBRANCH  48  62
BRANCH  49  70
ATOM     70  C   UNL A   1      39.661  27.938  28.982  1.00  0.00     0.057 A 
ATOM     71  C   UNL A   1      38.690  28.009  29.994  1.00  0.00     0.134 A 
ATOM     72  C   UNL A   1      39.437  28.749  27.856  1.00  0.00     0.134 A 
ATOM     73  F   UNL A   1      38.828  27.292  31.119  1.00  0.00    -0.206 F 
ATOM     74  C   UNL A   1      37.595  28.879  29.920  1.00  0.00     0.040 A 
ATOM     75  C   UNL A   1      38.343  29.618  27.768  1.00  0.00     0.040 A 
ATOM     76  F   UNL A   1      40.322  28.800  26.850  1.00  0.00    -0.206 F 
ATOM     77  C   UNL A   1      37.430  29.703  28.811  1.00  0.00     0.006 A 
ENDBRANCH  49  70
BRANCH  61  78
ATOM     78  C   UNL A   1      44.649  25.998  32.288  1.00  0.00     0.057 A 
ATOM     79  C   UNL A   1      44.495  24.698  31.775  1.00  0.00     0.134 A 
ATOM     80  C   UNL A   1      44.632  26.129  33.680  1.00  0.00     0.134 A 
ATOM     81  F   UNL A   1      44.582  24.458  30.460  1.00  0.00    -0.206 F 
ATOM     82  C   UNL A   1      44.304  23.591  32.610  1.00  0.00     0.040 A 
ATOM     83  C   UNL A   1      44.474  25.028  34.526  1.00  0.00     0.040 A 
ATOM     84  F   UNL A   1      44.819  27.332  34.245  1.00  0.00    -0.206 F 
ATOM     85  C   UNL A   1      44.302  23.754  33.993  1.00  0.00     0.006 A 
ENDBRANCH  61  78
ENDBRANCH  35  36
ENDBRANCH  28  30
ENDBRANCH  27  28
ENDBRANCH  26  27
ENDBRANCH  25  26
ENDBRANCH  24  25
ENDBRANCH  23  24
ENDBRANCH   1  23
TORSDOF 21
ENDMDL
