MODEL 1
REMARK VINA RESULT:     -11.0      0.000      0.000
REMARK SMILES O=C(CCCNS(=O)(=O)c1ccc2c3c(cccc13)C(=O)N2)OCCOCCOCCOC(=O)c1ccc(-c2c3nc(c(-c4c(F)cccc4F)c4ccc([nH]4)c(-c4c(F)cccc4F)c4nc(c(-c5c(F)cccc5F)c5ccc2[nH]5)C=C4)C=C3)cc1
REMARK SMILES IDX 26 1 25 2 24 3 23 4 2 5 1 6 3 7 4 8 5 9 6 10 7 12 8 13 9 14
REMARK SMILES IDX 10 15 11 16 19 17 12 18 14 19 18 20 13 21 15 22 17 23 22 24
REMARK SMILES IDX 16 25 20 26 21 28 27 29 28 30 29 31 30 32 31 33 32 34 33 35
REMARK SMILES IDX 34 36 35 37 36 38 88 39 37 40 87 41 38 42 39 43 40 44 81 45
REMARK SMILES IDX 41 46 86 47 80 48 82 49 42 50 85 51 79 52 78 53 43 55 69 56
REMARK SMILES IDX 52 57 68 58 53 59 56 60 67 61 83 62 54 63 55 64 66 66 84 67
REMARK SMILES IDX 57 68 44 69 45 70 50 71 46 72 47 73 49 74 51 75 48 76 70 77
REMARK SMILES IDX 71 78 76 79 72 80 73 81 75 82 77 83 74 84 58 85 59 86 64 87
REMARK SMILES IDX 60 88 61 89 63 90 65 91 62 92
REMARK H PARENT 6 11 22 27 82 54 56 65
REMARK Flexibility Score: inf
ROOT
ATOM      1  O   UNL A   1      34.164  32.298  27.638  1.00  0.00    -0.376 OA
ENDROOT
BRANCH   1   2
ATOM      2  C   UNL A   1      34.015  30.888  27.612  1.00  0.00     0.202 C 
BRANCH   2   3
ATOM      3  C   UNL A   1      32.833  30.473  26.756  1.00  0.00     0.261 C 
BRANCH   3   4
ATOM      4  O   UNL A   1      33.153  29.391  25.863  1.00  0.00    -0.463 OA
BRANCH   4   5
ATOM      5  C   UNL A   1      32.621  29.240  24.630  1.00  0.00     0.305 C 
ATOM      6  O   UNL A   1      33.352  29.324  23.644  1.00  0.00    -0.252 OA
BRANCH   5   7
ATOM      7  C   UNL A   1      31.122  29.123  24.442  1.00  0.00     0.124 C 
BRANCH   7   8
ATOM      8  C   UNL A   1      30.547  27.752  24.111  1.00  0.00     0.028 C 
BRANCH   8   9
ATOM      9  C   UNL A   1      31.525  26.578  24.052  1.00  0.00     0.099 C 
BRANCH   9  10
ATOM     10  N   UNL A   1      31.632  25.893  25.343  1.00  0.00    -0.211 NA
ATOM     11  H   UNL A   1      31.019  26.391  25.989  1.00  0.00     0.141 HD
BRANCH  10  12
ATOM     12  S   UNL A   1      31.248  24.255  25.480  1.00  0.00     0.241 S 
ATOM     13  O   UNL A   1      30.571  24.057  26.743  1.00  0.00    -0.207 OA
ATOM     14  O   UNL A   1      30.644  23.848  24.233  1.00  0.00    -0.207 OA
BRANCH  12  15
ATOM     15  C   UNL A   1      32.846  23.506  25.626  1.00  0.00     0.090 A 
ATOM     16  C   UNL A   1      33.945  24.367  25.897  1.00  0.00     0.024 A 
ATOM     17  C   UNL A   1      33.027  22.127  25.346  1.00  0.00     0.005 A 
ATOM     18  C   UNL A   1      35.269  23.902  25.859  1.00  0.00     0.028 A 
ATOM     19  C   UNL A   1      34.335  21.743  25.318  1.00  0.00     0.019 A 
ATOM     20  C   UNL A   1      32.100  21.091  25.061  1.00  0.00     0.010 A 
ATOM     21  C   UNL A   1      35.416  22.567  25.546  1.00  0.00     0.050 A 
ATOM     22  C   UNL A   1      34.808  20.476  25.019  1.00  0.00     0.050 A 
ATOM     23  C   UNL A   1      32.542  19.784  24.772  1.00  0.00     0.002 A 
ATOM     24  N   UNL A   1      36.555  21.804  25.385  1.00  0.00    -0.321 N 
ATOM     25  C   UNL A   1      33.907  19.452  24.739  1.00  0.00     0.014 A 
ATOM     26  C   UNL A   1      36.258  20.473  25.051  1.00  0.00     0.256 C 
ATOM     27  H   UNL A   1      37.469  22.152  25.493  1.00  0.00     0.170 HD
ATOM     28  O   UNL A   1      37.090  19.606  24.845  1.00  0.00    -0.269 OA
ENDBRANCH  12  15
ENDBRANCH  10  12
ENDBRANCH   9  10
ENDBRANCH   8   9
ENDBRANCH   7   8
ENDBRANCH   5   7
ENDBRANCH   4   5
ENDBRANCH   3   4
ENDBRANCH   2   3
ENDBRANCH   1   2
BRANCH   1  29
ATOM     29  C   UNL A   1      34.387  32.868  28.922  1.00  0.00     0.188 C 
BRANCH  29  30
ATOM     30  C   UNL A   1      33.720  34.223  29.177  1.00  0.00     0.188 C 
BRANCH  30  31
ATOM     31  O   UNL A   1      33.339  34.542  30.511  1.00  0.00    -0.376 OA
BRANCH  31  32
ATOM     32  C   UNL A   1      34.334  34.637  31.527  1.00  0.00     0.202 C 
BRANCH  32  33
ATOM     33  C   UNL A   1      34.210  33.629  32.664  1.00  0.00     0.261 C 
BRANCH  33  34
ATOM     34  O   UNL A   1      34.977  32.442  32.408  1.00  0.00    -0.460 OA
BRANCH  34  35
ATOM     35  C   UNL A   1      36.081  32.275  33.167  1.00  0.00     0.338 C 
ATOM     36  O   UNL A   1      36.271  32.625  34.317  1.00  0.00    -0.246 OA
BRANCH  35  37
ATOM     37  C   UNL A   1      37.045  31.487  32.390  1.00  0.00     0.060 A 
ATOM     38  C   UNL A   1      37.995  30.706  33.058  1.00  0.00     0.016 A 
ATOM     39  C   UNL A   1      37.037  31.581  30.997  1.00  0.00     0.016 A 
ATOM     40  C   UNL A   1      38.965  30.028  32.324  1.00  0.00     0.010 A 
ATOM     41  C   UNL A   1      38.018  30.917  30.266  1.00  0.00     0.010 A 
ATOM     42  C   UNL A   1      39.002  30.166  30.930  1.00  0.00    -0.014 A 
BRANCH  42  43
ATOM     43  C   UNL A   1      40.178  29.687  30.176  1.00  0.00     0.031 A 
ATOM     44  C   UNL A   1      41.305  30.650  29.926  1.00  0.00     0.074 A 
ATOM     45  C   UNL A   1      40.239  28.421  29.729  1.00  0.00     0.049 A 
ATOM     46  N   UNL A   1      42.423  30.470  29.274  1.00  0.00    -0.248 NA
ATOM     47  C   UNL A   1      41.144  32.002  30.490  1.00  0.00     0.031 C 
ATOM     48  C   UNL A   1      39.215  27.399  29.934  1.00  0.00     0.029 A 
ATOM     49  N   UNL A   1      41.209  27.789  28.998  1.00  0.00    -0.354 N 
ATOM     50  C   UNL A   1      43.110  31.674  29.370  1.00  0.00     0.074 A 
ATOM     51  C   UNL A   1      42.258  32.595  30.090  1.00  0.00     0.031 C 
ATOM     52  C   UNL A   1      39.611  26.262  29.333  1.00  0.00     0.029 A 
ATOM     53  C   UNL A   1      40.900  26.488  28.685  1.00  0.00     0.049 A 
ATOM     54  H   UNL A   1      42.049  28.224  28.724  1.00  0.00     0.167 HD
ATOM     55  C   UNL A   1      44.350  31.977  28.919  1.00  0.00     0.037 A 
ATOM     56  C   UNL A   1      41.585  25.596  27.946  1.00  0.00     0.037 A 
ATOM     57  C   UNL A   1      45.175  31.072  28.165  1.00  0.00     0.049 A 
ATOM     58  C   UNL A   1      42.913  26.002  27.358  1.00  0.00     0.074 A 
ATOM     59  C   UNL A   1      46.433  31.285  27.629  1.00  0.00     0.029 A 
ATOM     60  N   UNL A   1      44.814  29.774  27.832  1.00  0.00    -0.354 N 
ATOM     61  N   UNL A   1      43.569  27.132  27.479  1.00  0.00    -0.248 NA
ATOM     62  C   UNL A   1      43.601  24.996  26.539  1.00  0.00     0.031 C 
ATOM     63  C   UNL A   1      46.814  30.132  26.934  1.00  0.00     0.029 A 
ATOM     64  C   UNL A   1      45.820  29.179  27.087  1.00  0.00     0.049 A 
ATOM     65  H   UNL A   1      43.968  29.339  28.087  1.00  0.00     0.167 HD
ATOM     66  C   UNL A   1      44.765  26.953  26.792  1.00  0.00     0.074 A 
ATOM     67  C   UNL A   1      44.751  25.598  26.281  1.00  0.00     0.031 C 
ATOM     68  C   UNL A   1      45.787  27.825  26.597  1.00  0.00     0.037 A 
BRANCH  55  69
ATOM     69  C   UNL A   1      44.874  33.349  29.230  1.00  0.00     0.057 A 
ATOM     70  C   UNL A   1      44.636  34.426  28.368  1.00  0.00     0.134 A 
ATOM     71  C   UNL A   1      45.629  33.600  30.383  1.00  0.00     0.134 A 
ATOM     72  F   UNL A   1      43.920  34.258  27.246  1.00  0.00    -0.206 F 
ATOM     73  C   UNL A   1      45.135  35.702  28.640  1.00  0.00     0.040 A 
ATOM     74  C   UNL A   1      46.109  34.877  30.681  1.00  0.00     0.040 A 
ATOM     75  F   UNL A   1      45.878  32.616  31.262  1.00  0.00    -0.206 F 
ATOM     76  C   UNL A   1      45.868  35.930  29.803  1.00  0.00     0.006 A 
ENDBRANCH  55  69
BRANCH  56  77
ATOM     77  C   UNL A   1      41.053  24.230  27.703  1.00  0.00     0.057 A 
ATOM     78  C   UNL A   1      40.057  23.993  26.748  1.00  0.00     0.134 A 
ATOM     79  C   UNL A   1      41.599  23.116  28.353  1.00  0.00     0.134 A 
ATOM     80  F   UNL A   1      39.485  25.014  26.095  1.00  0.00    -0.206 F 
ATOM     81  C   UNL A   1      39.641  22.698  26.433  1.00  0.00     0.040 A 
ATOM     82  C   UNL A   1      41.215  21.815  28.025  1.00  0.00     0.040 A 
ATOM     83  F   UNL A   1      42.570  23.276  29.264  1.00  0.00    -0.206 F 
ATOM     84  C   UNL A   1      40.234  21.603  27.059  1.00  0.00     0.006 A 
ENDBRANCH  56  77
BRANCH  68  85
ATOM     85  C   UNL A   1      46.987  27.305  25.854  1.00  0.00     0.057 A 
ATOM     86  C   UNL A   1      47.987  26.597  26.531  1.00  0.00     0.134 A 
ATOM     87  C   UNL A   1      47.141  27.475  24.471  1.00  0.00     0.134 A 
ATOM     88  F   UNL A   1      47.914  26.411  27.858  1.00  0.00    -0.206 F 
ATOM     89  C   UNL A   1      49.084  26.058  25.859  1.00  0.00     0.040 A 
ATOM     90  C   UNL A   1      48.213  26.906  23.781  1.00  0.00     0.040 A 
ATOM     91  F   UNL A   1      46.214  28.135  23.758  1.00  0.00    -0.206 F 
ATOM     92  C   UNL A   1      49.190  26.196  24.477  1.00  0.00     0.006 A 
ENDBRANCH  68  85
ENDBRANCH  42  43
ENDBRANCH  35  37
ENDBRANCH  34  35
ENDBRANCH  33  34
ENDBRANCH  32  33
ENDBRANCH  31  32
ENDBRANCH  30  31
ENDBRANCH  29  30
ENDBRANCH   1  29
TORSDOF 22
ENDMDL
MODEL 2
REMARK VINA RESULT:     -10.5      1.230      2.092
REMARK SMILES O=C(CCCNS(=O)(=O)c1ccc2c3c(cccc13)C(=O)N2)OCCOCCOCCOC(=O)c1ccc(-c2c3nc(c(-c4c(F)cccc4F)c4ccc([nH]4)c(-c4c(F)cccc4F)c4nc(c(-c5c(F)cccc5F)c5ccc2[nH]5)C=C4)C=C3)cc1
REMARK SMILES IDX 26 1 25 2 24 3 23 4 2 5 1 6 3 7 4 8 5 9 6 10 7 12 8 13 9 14
REMARK SMILES IDX 10 15 11 16 19 17 12 18 14 19 18 20 13 21 15 22 17 23 22 24
REMARK SMILES IDX 16 25 20 26 21 28 27 29 28 30 29 31 30 32 31 33 32 34 33 35
REMARK SMILES IDX 34 36 35 37 36 38 88 39 37 40 87 41 38 42 39 43 40 44 81 45
REMARK SMILES IDX 41 46 86 47 80 48 82 49 42 50 85 51 79 52 78 53 43 55 69 56
REMARK SMILES IDX 52 57 68 58 53 59 56 60 67 61 83 62 54 63 55 64 66 66 84 67
REMARK SMILES IDX 57 68 44 69 45 70 50 71 46 72 47 73 49 74 51 75 48 76 70 77
REMARK SMILES IDX 71 78 76 79 72 80 73 81 75 82 77 83 74 84 58 85 59 86 64 87
REMARK SMILES IDX 60 88 61 89 63 90 65 91 62 92
REMARK H PARENT 6 11 22 27 82 54 56 65
REMARK Flexibility Score: inf
ROOT
ATOM      1  O   UNL A   1      33.340  33.589  28.132  1.00  0.00    -0.376 OA
ENDROOT
BRANCH   1   2
ATOM      2  C   UNL A   1      33.829  32.258  28.132  1.00  0.00     0.202 C 
BRANCH   2   3
ATOM      3  C   UNL A   1      32.988  31.361  27.243  1.00  0.00     0.261 C 
BRANCH   3   4
ATOM      4  O   UNL A   1      33.734  30.244  26.726  1.00  0.00    -0.463 OA
BRANCH   4   5
ATOM      5  C   UNL A   1      33.273  29.393  25.782  1.00  0.00     0.305 C 
ATOM      6  O   UNL A   1      34.034  29.009  24.895  1.00  0.00    -0.252 OA
BRANCH   5   7
ATOM      7  C   UNL A   1      31.803  29.032  25.716  1.00  0.00     0.124 C 
BRANCH   7   8
ATOM      8  C   UNL A   1      31.434  27.565  25.538  1.00  0.00     0.028 C 
BRANCH   8   9
ATOM      9  C   UNL A   1      31.598  26.966  24.141  1.00  0.00     0.099 C 
BRANCH   9  10
ATOM     10  N   UNL A   1      31.875  25.527  24.195  1.00  0.00    -0.211 NA
ATOM     11  H   UNL A   1      31.463  25.120  23.355  1.00  0.00     0.141 HD
BRANCH  10  12
ATOM     12  S   UNL A   1      33.462  24.961  24.277  1.00  0.00     0.241 S 
ATOM     13  O   UNL A   1      33.930  24.742  22.925  1.00  0.00    -0.207 OA
ATOM     14  O   UNL A   1      34.179  25.820  25.190  1.00  0.00    -0.207 OA
BRANCH  12  15
ATOM     15  C   UNL A   1      33.253  23.367  25.018  1.00  0.00     0.090 A 
ATOM     16  C   UNL A   1      33.642  23.226  26.379  1.00  0.00     0.024 A 
ATOM     17  C   UNL A   1      32.845  22.253  24.238  1.00  0.00     0.005 A 
ATOM     18  C   UNL A   1      33.682  21.971  27.006  1.00  0.00     0.028 A 
ATOM     19  C   UNL A   1      32.912  21.066  24.904  1.00  0.00     0.019 A 
ATOM     20  C   UNL A   1      32.412  22.152  22.890  1.00  0.00     0.010 A 
ATOM     21  C   UNL A   1      33.317  20.904  26.211  1.00  0.00     0.050 A 
ATOM     22  C   UNL A   1      32.628  19.817  24.378  1.00  0.00     0.050 A 
ATOM     23  C   UNL A   1      32.094  20.900  22.325  1.00  0.00     0.002 A 
ATOM     24  N   UNL A   1      33.281  19.552  26.488  1.00  0.00    -0.321 N 
ATOM     25  C   UNL A   1      32.201  19.705  23.057  1.00  0.00     0.014 A 
ATOM     26  C   UNL A   1      32.857  18.797  25.384  1.00  0.00     0.256 C 
ATOM     27  H   UNL A   1      33.523  19.162  27.359  1.00  0.00     0.170 HD
ATOM     28  O   UNL A   1      32.754  17.582  25.370  1.00  0.00    -0.269 OA
ENDBRANCH  12  15
ENDBRANCH  10  12
ENDBRANCH   9  10
ENDBRANCH   8   9
ENDBRANCH   7   8
ENDBRANCH   5   7
ENDBRANCH   4   5
ENDBRANCH   3   4
ENDBRANCH   2   3
ENDBRANCH   1   2
BRANCH   1  29
ATOM     29  C   UNL A   1      34.090  34.519  28.905  1.00  0.00     0.188 C 
BRANCH  29  30
ATOM     30  C   UNL A   1      33.275  35.434  29.823  1.00  0.00     0.188 C 
BRANCH  30  31
ATOM     31  O   UNL A   1      33.021  34.995  31.153  1.00  0.00    -0.376 OA
BRANCH  31  32
ATOM     32  C   UNL A   1      34.110  34.782  32.047  1.00  0.00     0.202 C 
BRANCH  32  33
ATOM     33  C   UNL A   1      34.184  33.394  32.674  1.00  0.00     0.261 C 
BRANCH  33  34
ATOM     34  O   UNL A   1      35.236  32.606  32.097  1.00  0.00    -0.460 OA
BRANCH  34  35
ATOM     35  C   UNL A   1      36.198  32.188  32.947  1.00  0.00     0.338 C 
ATOM     36  O   UNL A   1      36.259  32.334  34.154  1.00  0.00    -0.246 OA
BRANCH  35  37
ATOM     37  C   UNL A   1      37.172  31.408  32.175  1.00  0.00     0.060 A 
ATOM     38  C   UNL A   1      38.160  30.679  32.847  1.00  0.00     0.016 A 
ATOM     39  C   UNL A   1      37.134  31.458  30.781  1.00  0.00     0.016 A 
ATOM     40  C   UNL A   1      39.137  30.010  32.115  1.00  0.00     0.010 A 
ATOM     41  C   UNL A   1      38.122  30.804  30.051  1.00  0.00     0.010 A 
ATOM     42  C   UNL A   1      39.143  30.107  30.717  1.00  0.00    -0.014 A 
BRANCH  42  43
ATOM     43  C   UNL A   1      40.320  29.643  29.954  1.00  0.00     0.031 A 
ATOM     44  C   UNL A   1      41.436  30.618  29.704  1.00  0.00     0.074 A 
ATOM     45  C   UNL A   1      40.391  28.380  29.499  1.00  0.00     0.049 A 
ATOM     46  N   UNL A   1      42.553  30.452  29.045  1.00  0.00    -0.248 NA
ATOM     47  C   UNL A   1      41.266  31.965  30.276  1.00  0.00     0.031 C 
ATOM     48  C   UNL A   1      39.378  27.347  29.703  1.00  0.00     0.029 A 
ATOM     49  N   UNL A   1      41.363  27.761  28.760  1.00  0.00    -0.354 N 
ATOM     50  C   UNL A   1      43.229  31.662  29.144  1.00  0.00     0.074 A 
ATOM     51  C   UNL A   1      42.372  32.570  29.874  1.00  0.00     0.031 C 
ATOM     52  C   UNL A   1      39.781  26.217  29.093  1.00  0.00     0.029 A 
ATOM     53  C   UNL A   1      41.064  26.459  28.441  1.00  0.00     0.049 A 
ATOM     54  H   UNL A   1      42.197  28.206  28.484  1.00  0.00     0.167 HD
ATOM     55  C   UNL A   1      44.464  31.979  28.689  1.00  0.00     0.037 A 
ATOM     56  C   UNL A   1      41.754  25.578  27.693  1.00  0.00     0.037 A 
ATOM     57  C   UNL A   1      45.294  31.086  27.926  1.00  0.00     0.049 A 
ATOM     58  C   UNL A   1      43.075  26.001  27.101  1.00  0.00     0.074 A 
ATOM     59  C   UNL A   1      46.546  31.315  27.385  1.00  0.00     0.029 A 
ATOM     60  N   UNL A   1      44.943  29.787  27.587  1.00  0.00    -0.354 N 
ATOM     61  N   UNL A   1      43.721  27.136  27.225  1.00  0.00    -0.248 NA
ATOM     62  C   UNL A   1      43.769  25.005  26.273  1.00  0.00     0.031 C 
ATOM     63  C   UNL A   1      46.934  30.169  26.681  1.00  0.00     0.029 A 
ATOM     64  C   UNL A   1      45.950  29.206  26.834  1.00  0.00     0.049 A 
ATOM     65  H   UNL A   1      44.103  29.343  27.843  1.00  0.00     0.167 HD
ATOM     66  C   UNL A   1      44.915  26.972  26.531  1.00  0.00     0.074 A 
ATOM     67  C   UNL A   1      44.911  25.620  26.012  1.00  0.00     0.031 C 
ATOM     68  C   UNL A   1      45.928  27.854  26.336  1.00  0.00     0.037 A 
BRANCH  55  69
ATOM     69  C   UNL A   1      44.976  33.354  29.006  1.00  0.00     0.057 A 
ATOM     70  C   UNL A   1      45.719  33.600  30.166  1.00  0.00     0.134 A 
ATOM     71  C   UNL A   1      44.719  34.444  28.162  1.00  0.00     0.134 A 
ATOM     72  F   UNL A   1      46.004  32.603  31.018  1.00  0.00    -0.206 F 
ATOM     73  C   UNL A   1      46.185  34.879  30.478  1.00  0.00     0.040 A 
ATOM     74  C   UNL A   1      45.202  35.722  28.448  1.00  0.00     0.040 A 
ATOM     75  F   UNL A   1      44.028  34.274  27.024  1.00  0.00    -0.206 F 
ATOM     76  C   UNL A   1      45.932  35.942  29.613  1.00  0.00     0.006 A 
ENDBRANCH  55  69
BRANCH  56  77
ATOM     77  C   UNL A   1      41.233  24.209  27.445  1.00  0.00     0.057 A 
ATOM     78  C   UNL A   1      41.729  23.101  28.141  1.00  0.00     0.134 A 
ATOM     79  C   UNL A   1      40.156  23.993  26.575  1.00  0.00     0.134 A 
ATOM     80  F   UNL A   1      42.763  23.234  28.983  1.00  0.00    -0.206 F 
ATOM     81  C   UNL A   1      41.160  21.833  27.998  1.00  0.00     0.040 A 
ATOM     82  C   UNL A   1      39.557  22.739  26.448  1.00  0.00     0.040 A 
ATOM     83  F   UNL A   1      39.623  25.019  25.895  1.00  0.00    -0.206 F 
ATOM     84  C   UNL A   1      40.058  21.655  27.163  1.00  0.00     0.006 A 
ENDBRANCH  56  77
BRANCH  68  85
ATOM     85  C   UNL A   1      47.129  27.350  25.583  1.00  0.00     0.057 A 
ATOM     86  C   UNL A   1      47.247  27.577  24.207  1.00  0.00     0.134 A 
ATOM     87  C   UNL A   1      48.178  26.673  26.217  1.00  0.00     0.134 A 
ATOM     88  F   UNL A   1      46.272  28.205  23.531  1.00  0.00    -0.206 F 
ATOM     89  C   UNL A   1      48.374  27.169  23.493  1.00  0.00     0.040 A 
ATOM     90  C   UNL A   1      49.329  26.294  25.522  1.00  0.00     0.040 A 
ATOM     91  F   UNL A   1      48.134  26.431  27.538  1.00  0.00    -0.206 F 
ATOM     92  C   UNL A   1      49.427  26.541  24.155  1.00  0.00     0.006 A 
ENDBRANCH  68  85
ENDBRANCH  42  43
ENDBRANCH  35  37
ENDBRANCH  34  35
ENDBRANCH  33  34
ENDBRANCH  32  33
ENDBRANCH  31  32
ENDBRANCH  30  31
ENDBRANCH  29  30
ENDBRANCH   1  29
TORSDOF 22
ENDMDL
MODEL 3
REMARK VINA RESULT:     -10.3      4.459      6.794
REMARK SMILES O=C(CCCNS(=O)(=O)c1ccc2c3c(cccc13)C(=O)N2)OCCOCCOCCOC(=O)c1ccc(-c2c3nc(c(-c4c(F)cccc4F)c4ccc([nH]4)c(-c4c(F)cccc4F)c4nc(c(-c5c(F)cccc5F)c5ccc2[nH]5)C=C4)C=C3)cc1
REMARK SMILES IDX 26 1 25 2 24 3 23 4 2 5 1 6 3 7 4 8 5 9 6 10 7 12 8 13 9 14
REMARK SMILES IDX 10 15 11 16 19 17 12 18 14 19 18 20 13 21 15 22 17 23 22 24
REMARK SMILES IDX 16 25 20 26 21 28 27 29 28 30 29 31 30 32 31 33 32 34 33 35
REMARK SMILES IDX 34 36 35 37 36 38 88 39 37 40 87 41 38 42 39 43 40 44 81 45
REMARK SMILES IDX 41 46 86 47 80 48 82 49 42 50 85 51 79 52 78 53 43 55 69 56
REMARK SMILES IDX 52 57 68 58 53 59 56 60 67 61 83 62 54 63 55 64 66 66 84 67
REMARK SMILES IDX 57 68 44 69 45 70 50 71 46 72 47 73 49 74 51 75 48 76 70 77
REMARK SMILES IDX 71 78 76 79 72 80 73 81 75 82 77 83 74 84 58 85 59 86 64 87
REMARK SMILES IDX 60 88 61 89 63 90 65 91 62 92
REMARK H PARENT 6 11 22 27 82 54 56 65
REMARK Flexibility Score: inf
ROOT
ATOM      1  O   UNL A   1      35.119  31.296  27.756  1.00  0.00    -0.376 OA
ENDROOT
BRANCH   1   2
ATOM      2  C   UNL A   1      33.756  31.505  27.422  1.00  0.00     0.202 C 
BRANCH   2   3
ATOM      3  C   UNL A   1      33.045  30.191  27.159  1.00  0.00     0.261 C 
BRANCH   3   4
ATOM      4  O   UNL A   1      32.181  30.254  26.010  1.00  0.00    -0.463 OA
BRANCH   4   5
ATOM      5  C   UNL A   1      32.065  29.270  25.091  1.00  0.00     0.305 C 
ATOM      6  O   UNL A   1      33.074  28.861  24.515  1.00  0.00    -0.252 OA
BRANCH   5   7
ATOM      7  C   UNL A   1      30.702  28.776  24.652  1.00  0.00     0.124 C 
BRANCH   7   8
ATOM      8  C   UNL A   1      30.641  27.548  23.752  1.00  0.00     0.028 C 
BRANCH   8   9
ATOM      9  C   UNL A   1      31.033  27.734  22.286  1.00  0.00     0.099 C 
BRANCH   9  10
ATOM     10  N   UNL A   1      31.476  26.476  21.678  1.00  0.00    -0.211 NA
ATOM     11  H   UNL A   1      31.175  26.502  20.703  1.00  0.00     0.141 HD
BRANCH  10  12
ATOM     12  S   UNL A   1      33.111  26.058  21.667  1.00  0.00     0.241 S 
ATOM     13  O   UNL A   1      33.310  25.056  20.641  1.00  0.00    -0.207 OA
ATOM     14  O   UNL A   1      33.871  27.286  21.674  1.00  0.00    -0.207 OA
BRANCH  12  15
ATOM     15  C   UNL A   1      33.301  25.245  23.228  1.00  0.00     0.090 A 
ATOM     16  C   UNL A   1      33.937  25.977  24.269  1.00  0.00     0.024 A 
ATOM     17  C   UNL A   1      32.954  23.877  23.380  1.00  0.00     0.005 A 
ATOM     18  C   UNL A   1      34.292  25.370  25.483  1.00  0.00     0.028 A 
ATOM     19  C   UNL A   1      33.332  23.348  24.578  1.00  0.00     0.019 A 
ATOM     20  C   UNL A   1      32.318  22.961  22.503  1.00  0.00     0.010 A 
ATOM     21  C   UNL A   1      33.977  24.031  25.586  1.00  0.00     0.050 A 
ATOM     22  C   UNL A   1      33.171  22.032  24.976  1.00  0.00     0.050 A 
ATOM     23  C   UNL A   1      32.119  21.617  22.880  1.00  0.00     0.002 A 
ATOM     24  N   UNL A   1      34.214  23.131  26.605  1.00  0.00    -0.321 N 
ATOM     25  C   UNL A   1      32.548  21.125  24.125  1.00  0.00     0.014 A 
ATOM     26  C   UNL A   1      33.737  21.847  26.299  1.00  0.00     0.256 C 
ATOM     27  H   UNL A   1      34.665  23.362  27.449  1.00  0.00     0.170 HD
ATOM     28  O   UNL A   1      33.837  20.876  27.030  1.00  0.00    -0.269 OA
ENDBRANCH  12  15
ENDBRANCH  10  12
ENDBRANCH   9  10
ENDBRANCH   8   9
ENDBRANCH   7   8
ENDBRANCH   5   7
ENDBRANCH   4   5
ENDBRANCH   3   4
ENDBRANCH   2   3
ENDBRANCH   1   2
BRANCH   1  29
ATOM     29  C   UNL A   1      35.825  32.446  28.208  1.00  0.00     0.188 C 
BRANCH  29  30
ATOM     30  C   UNL A   1      35.208  33.181  29.401  1.00  0.00     0.188 C 
BRANCH  30  31
ATOM     31  O   UNL A   1      35.028  34.589  29.301  1.00  0.00    -0.376 OA
BRANCH  31  32
ATOM     32  C   UNL A   1      33.843  35.109  28.705  1.00  0.00     0.202 C 
BRANCH  32  33
ATOM     33  C   UNL A   1      32.910  35.864  29.646  1.00  0.00     0.261 C 
BRANCH  33  34
ATOM     34  O   UNL A   1      32.582  35.085  30.806  1.00  0.00    -0.460 OA
BRANCH  34  35
ATOM     35  C   UNL A   1      32.837  35.663  31.999  1.00  0.00     0.338 C 
ATOM     36  O   UNL A   1      32.209  36.535  32.570  1.00  0.00    -0.246 OA
BRANCH  35  37
ATOM     37  C   UNL A   1      33.999  34.986  32.587  1.00  0.00     0.060 A 
ATOM     38  C   UNL A   1      35.232  35.648  32.633  1.00  0.00     0.016 A 
ATOM     39  C   UNL A   1      33.869  33.670  33.032  1.00  0.00     0.016 A 
ATOM     40  C   UNL A   1      36.355  34.975  33.108  1.00  0.00     0.010 A 
ATOM     41  C   UNL A   1      34.996  32.993  33.490  1.00  0.00     0.010 A 
ATOM     42  C   UNL A   1      36.246  33.634  33.499  1.00  0.00    -0.014 A 
BRANCH  42  43
ATOM     43  C   UNL A   1      37.466  32.836  33.736  1.00  0.00     0.031 A 
ATOM     44  C   UNL A   1      38.274  33.123  34.971  1.00  0.00     0.074 A 
ATOM     45  C   UNL A   1      37.840  31.878  32.872  1.00  0.00     0.049 A 
ATOM     46  N   UNL A   1      39.388  32.575  35.381  1.00  0.00    -0.248 NA
ATOM     47  C   UNL A   1      37.752  34.173  35.863  1.00  0.00     0.031 C 
ATOM     48  C   UNL A   1      37.120  31.502  31.657  1.00  0.00     0.029 A 
ATOM     49  N   UNL A   1      38.933  31.053  32.887  1.00  0.00    -0.354 N 
ATOM     50  C   UNL A   1      39.687  33.194  36.588  1.00  0.00     0.074 A 
ATOM     51  C   UNL A   1      38.672  34.199  36.814  1.00  0.00     0.031 C 
ATOM     52  C   UNL A   1      37.798  30.520  31.036  1.00  0.00     0.029 A 
ATOM     53  C   UNL A   1      39.007  30.219  31.799  1.00  0.00     0.049 A 
ATOM     54  H   UNL A   1      39.603  31.056  33.610  1.00  0.00     0.167 HD
ATOM     55  C   UNL A   1      40.703  32.931  37.443  1.00  0.00     0.037 A 
ATOM     56  C   UNL A   1      39.957  29.326  31.463  1.00  0.00     0.037 A 
ATOM     57  C   UNL A   1      41.735  31.960  37.192  1.00  0.00     0.049 A 
ATOM     58  C   UNL A   1      41.139  29.139  32.381  1.00  0.00     0.074 A 
ATOM     59  C   UNL A   1      42.830  31.637  37.973  1.00  0.00     0.029 A 
ATOM     60  N   UNL A   1      41.800  31.160  36.060  1.00  0.00    -0.354 N 
ATOM     61  N   UNL A   1      41.398  29.706  33.535  1.00  0.00    -0.248 NA
ATOM     62  C   UNL A   1      42.156  28.171  31.948  1.00  0.00     0.031 C 
ATOM     63  C   UNL A   1      43.582  30.672  37.293  1.00  0.00     0.029 A 
ATOM     64  C   UNL A   1      42.924  30.352  36.117  1.00  0.00     0.049 A 
ATOM     65  H   UNL A   1      41.145  31.166  35.326  1.00  0.00     0.167 HD
ATOM     66  C   UNL A   1      42.581  29.129  33.986  1.00  0.00     0.074 A 
ATOM     67  C   UNL A   1      42.970  28.152  32.990  1.00  0.00     0.031 C 
ATOM     68  C   UNL A   1      43.286  29.379  35.118  1.00  0.00     0.037 A 
BRANCH  55  69
ATOM     69  C   UNL A   1      40.740  33.715  38.722  1.00  0.00     0.057 A 
ATOM     70  C   UNL A   1      41.584  34.822  38.867  1.00  0.00     0.134 A 
ATOM     71  C   UNL A   1      39.945  33.362  39.821  1.00  0.00     0.134 A 
ATOM     72  F   UNL A   1      42.371  35.218  37.856  1.00  0.00    -0.206 F 
ATOM     73  C   UNL A   1      41.638  35.548  40.060  1.00  0.00     0.040 A 
ATOM     74  C   UNL A   1      39.969  34.095  41.009  1.00  0.00     0.040 A 
ATOM     75  F   UNL A   1      39.099  32.322  39.743  1.00  0.00    -0.206 F 
ATOM     76  C   UNL A   1      40.824  35.188  41.132  1.00  0.00     0.006 A 
ENDBRANCH  55  69
BRANCH  56  77
ATOM     77  C   UNL A   1      39.856  28.534  30.210  1.00  0.00     0.057 A 
ATOM     78  C   UNL A   1      40.503  28.938  29.036  1.00  0.00     0.134 A 
ATOM     79  C   UNL A   1      39.190  27.302  30.186  1.00  0.00     0.134 A 
ATOM     80  F   UNL A   1      41.152  30.109  28.987  1.00  0.00    -0.206 F 
ATOM     81  C   UNL A   1      40.510  28.135  27.893  1.00  0.00     0.040 A 
ATOM     82  C   UNL A   1      39.217  26.476  29.062  1.00  0.00     0.040 A 
ATOM     83  F   UNL A   1      38.569  26.850  31.286  1.00  0.00    -0.206 F 
ATOM     84  C   UNL A   1      39.881  26.892  27.911  1.00  0.00     0.006 A 
ENDBRANCH  56  77
BRANCH  68  85
ATOM     85  C   UNL A   1      44.508  28.534  35.354  1.00  0.00     0.057 A 
ATOM     86  C   UNL A   1      45.767  28.977  34.932  1.00  0.00     0.134 A 
ATOM     87  C   UNL A   1      44.448  27.304  36.022  1.00  0.00     0.134 A 
ATOM     88  F   UNL A   1      45.897  30.137  34.271  1.00  0.00    -0.206 F 
ATOM     89  C   UNL A   1      46.924  28.240  35.185  1.00  0.00     0.040 A 
ATOM     90  C   UNL A   1      45.603  26.576  36.316  1.00  0.00     0.040 A 
ATOM     91  F   UNL A   1      43.274  26.824  36.464  1.00  0.00    -0.206 F 
ATOM     92  C   UNL A   1      46.846  27.044  35.895  1.00  0.00     0.006 A 
ENDBRANCH  68  85
ENDBRANCH  42  43
ENDBRANCH  35  37
ENDBRANCH  34  35
ENDBRANCH  33  34
ENDBRANCH  32  33
ENDBRANCH  31  32
ENDBRANCH  30  31
ENDBRANCH  29  30
ENDBRANCH   1  29
TORSDOF 22
ENDMDL
