MODEL 1
REMARK VINA RESULT:      -9.6      0.000      0.000
REMARK SMILES C#CC[C@@H](C(=O)OCCOCCOCCOC(=O)c1ccc(-c2c3nc(c(-c4c(F)cccc4F)c4ccc([nH]4)c(-c4c(F)cccc4F)c4nc(c(-c5c(F)cccc5F)c5ccc2[nH]5)C=C4)C=C3)cc1)[C@H]1CCS(=O)(=O)C1
REMARK SMILES IDX 11 1 10 2 9 3 8 4 7 5 5 6 6 7 4 8 3 9 2 10 1 11 73 12 74 13
REMARK SMILES IDX 79 14 75 15 76 16 77 17 78 18 12 19 13 20 14 21 15 22 16 23
REMARK SMILES IDX 17 24 18 25 19 26 20 27 72 28 21 29 71 30 22 31 23 32 24 33
REMARK SMILES IDX 65 34 25 35 70 36 64 37 66 38 26 39 69 40 63 41 62 42 27 44
REMARK SMILES IDX 53 45 36 46 52 47 37 48 40 49 51 50 67 51 38 52 39 53 50 55
REMARK SMILES IDX 68 56 41 57 28 58 29 59 34 60 30 61 31 62 33 63 35 64 32 65
REMARK SMILES IDX 54 66 55 67 60 68 56 69 57 70 59 71 61 72 58 73 42 74 43 75
REMARK SMILES IDX 48 76 44 77 45 78 47 79 49 80 46 81
REMARK H PARENT 66 43 40 54
REMARK Flexibility Score: inf
ROOT
ATOM      1  C   UNL A   1      32.689  28.343  25.956  1.00  0.00     0.188 C 
ENDROOT
BRANCH   1   2
ATOM      2  O   UNL A   1      33.676  27.680  25.197  1.00  0.00    -0.376 OA
BRANCH   2   3
ATOM      3  C   UNL A   1      33.292  26.529  24.453  1.00  0.00     0.202 C 
BRANCH   3   4
ATOM      4  C   UNL A   1      32.817  25.212  25.113  1.00  0.00     0.261 C 
BRANCH   4   5
ATOM      5  O   UNL A   1      33.844  24.271  25.495  1.00  0.00    -0.463 OA
BRANCH   5   6
ATOM      6  C   UNL A   1      34.070  23.227  24.667  1.00  0.00     0.310 C 
ATOM      7  O   UNL A   1      33.981  23.299  23.444  1.00  0.00    -0.252 OA
BRANCH   6   8
ATOM      8  C   UNL A   1      34.526  21.920  25.332  1.00  0.00     0.115 C 
BRANCH   8   9
ATOM      9  C   UNL A   1      35.992  21.699  25.768  1.00  0.00     0.105 C 
BRANCH   9  10
ATOM     10  C   UNL A   1      36.880  22.860  25.720  1.00  0.00    -0.106 C 
ATOM     11  C   UNL A   1      37.677  23.761  25.768  1.00  0.00     0.004 C 
ENDBRANCH   9  10
ENDBRANCH   8   9
BRANCH   8  12
ATOM     12  C   UNL A   1      34.013  20.623  24.602  1.00  0.00     0.020 C 
ATOM     13  C   UNL A   1      34.955  19.439  24.902  1.00  0.00     0.022 C 
ATOM     14  C   UNL A   1      32.613  20.079  24.919  1.00  0.00     0.141 C 
ATOM     15  C   UNL A   1      34.350  18.161  24.331  1.00  0.00     0.137 C 
ATOM     16  S   UNL A   1      32.595  18.422  24.261  1.00  0.00     0.150 S 
ATOM     17  O   UNL A   1      32.225  18.512  22.864  1.00  0.00    -0.229 OA
ATOM     18  O   UNL A   1      31.924  17.547  25.197  1.00  0.00    -0.229 OA
ENDBRANCH   8  12
ENDBRANCH   6   8
ENDBRANCH   5   6
ENDBRANCH   4   5
ENDBRANCH   3   4
ENDBRANCH   2   3
ENDBRANCH   1   2
BRANCH   1  19
ATOM     19  C   UNL A   1      32.463  29.840  25.720  1.00  0.00     0.188 C 
BRANCH  19  20
ATOM     20  O   UNL A   1      32.272  30.664  26.838  1.00  0.00    -0.376 OA
BRANCH  20  21
ATOM     21  C   UNL A   1      31.540  31.868  26.710  1.00  0.00     0.202 C 
BRANCH  21  22
ATOM     22  C   UNL A   1      32.113  33.295  26.879  1.00  0.00     0.261 C 
BRANCH  22  23
ATOM     23  O   UNL A   1      32.222  33.856  28.193  1.00  0.00    -0.460 OA
BRANCH  23  24
ATOM     24  C   UNL A   1      33.310  34.635  28.424  1.00  0.00     0.338 C 
ATOM     25  O   UNL A   1      33.336  35.848  28.525  1.00  0.00    -0.246 OA
BRANCH  24  26
ATOM     26  C   UNL A   1      34.449  33.755  28.783  1.00  0.00     0.060 A 
ATOM     27  C   UNL A   1      34.191  32.460  29.258  1.00  0.00     0.016 A 
ATOM     28  C   UNL A   1      35.762  34.210  28.668  1.00  0.00     0.016 A 
ATOM     29  C   UNL A   1      35.244  31.624  29.635  1.00  0.00     0.010 A 
ATOM     30  C   UNL A   1      36.814  33.382  29.076  1.00  0.00     0.010 A 
ATOM     31  C   UNL A   1      36.563  32.094  29.583  1.00  0.00    -0.014 A 
BRANCH  31  32
ATOM     32  C   UNL A   1      37.658  31.318  30.222  1.00  0.00     0.031 A 
ATOM     33  C   UNL A   1      37.937  31.536  31.682  1.00  0.00     0.074 A 
ATOM     34  C   UNL A   1      38.396  30.432  29.528  1.00  0.00     0.049 A 
ATOM     35  N   UNL A   1      38.885  31.039  32.434  1.00  0.00    -0.248 NA
ATOM     36  C   UNL A   1      37.028  32.454  32.387  1.00  0.00     0.031 C 
ATOM     37  C   UNL A   1      38.201  30.091  28.125  1.00  0.00     0.029 A 
ATOM     38  N   UNL A   1      39.458  29.651  29.920  1.00  0.00    -0.354 N 
ATOM     39  C   UNL A   1      38.706  31.603  33.690  1.00  0.00     0.074 A 
ATOM     40  C   UNL A   1      37.569  32.493  33.595  1.00  0.00     0.031 C 
ATOM     41  C   UNL A   1      39.093  29.147  27.776  1.00  0.00     0.029 A 
ATOM     42  C   UNL A   1      39.969  28.871  28.912  1.00  0.00     0.049 A 
ATOM     43  H   UNL A   1      39.818  29.653  30.837  1.00  0.00     0.167 HD
ATOM     44  C   UNL A   1      39.428  31.401  34.818  1.00  0.00     0.037 A 
ATOM     45  C   UNL A   1      41.036  28.048  28.900  1.00  0.00     0.037 A 
ATOM     46  C   UNL A   1      40.563  30.519  34.907  1.00  0.00     0.049 A 
ATOM     47  C   UNL A   1      41.870  27.900  30.149  1.00  0.00     0.074 A 
ATOM     48  C   UNL A   1      41.350  30.239  36.011  1.00  0.00     0.029 A 
ATOM     49  N   UNL A   1      41.084  29.786  33.850  1.00  0.00    -0.354 N 
ATOM     50  N   UNL A   1      41.688  28.426  31.337  1.00  0.00    -0.248 NA
ATOM     51  C   UNL A   1      43.067  27.051  30.052  1.00  0.00     0.031 C 
ATOM     52  C   UNL A   1      42.390  29.399  35.605  1.00  0.00     0.029 A 
ATOM     53  C   UNL A   1      42.204  29.084  34.269  1.00  0.00     0.049 A 
ATOM     54  H   UNL A   1      40.713  29.766  32.938  1.00  0.00     0.167 HD
ATOM     55  C   UNL A   1      42.725  27.947  32.132  1.00  0.00     0.074 A 
ATOM     56  C   UNL A   1      43.522  27.076  31.297  1.00  0.00     0.031 C 
ATOM     57  C   UNL A   1      42.990  28.209  33.436  1.00  0.00     0.037 A 
BRANCH  44  58
ATOM     58  C   UNL A   1      39.045  32.193  36.035  1.00  0.00     0.057 A 
ATOM     59  C   UNL A   1      39.503  33.498  36.256  1.00  0.00     0.134 A 
ATOM     60  C   UNL A   1      38.179  31.644  36.991  1.00  0.00     0.134 A 
ATOM     61  F   UNL A   1      40.344  34.080  35.388  1.00  0.00    -0.206 F 
ATOM     62  C   UNL A   1      39.140  34.216  37.397  1.00  0.00     0.040 A 
ATOM     63  C   UNL A   1      37.782  32.365  38.119  1.00  0.00     0.040 A 
ATOM     64  F   UNL A   1      37.697  30.401  36.842  1.00  0.00    -0.206 F 
ATOM     65  C   UNL A   1      38.270  33.652  38.328  1.00  0.00     0.006 A 
ENDBRANCH  44  58
BRANCH  45  66
ATOM     66  C   UNL A   1      41.413  27.318  27.658  1.00  0.00     0.057 A 
ATOM     67  C   UNL A   1      42.206  27.919  26.673  1.00  0.00     0.134 A 
ATOM     68  C   UNL A   1      40.948  26.022  27.402  1.00  0.00     0.134 A 
ATOM     69  F   UNL A   1      42.656  29.172  26.838  1.00  0.00    -0.206 F 
ATOM     70  C   UNL A   1      42.505  27.269  25.473  1.00  0.00     0.040 A 
ATOM     71  C   UNL A   1      41.269  25.346  26.223  1.00  0.00     0.040 A 
ATOM     72  F   UNL A   1      40.173  25.389  28.296  1.00  0.00    -0.206 F 
ATOM     73  C   UNL A   1      42.040  25.975  25.249  1.00  0.00     0.006 A 
ENDBRANCH  45  66
BRANCH  57  74
ATOM     74  C   UNL A   1      44.162  27.505  34.064  1.00  0.00     0.057 A 
ATOM     75  C   UNL A   1      45.436  28.085  34.136  1.00  0.00     0.134 A 
ATOM     76  C   UNL A   1      43.999  26.240  34.646  1.00  0.00     0.134 A 
ATOM     77  F   UNL A   1      45.666  29.290  33.593  1.00  0.00    -0.206 F 
ATOM     78  C   UNL A   1      46.509  27.421  34.735  1.00  0.00     0.040 A 
ATOM     79  C   UNL A   1      45.056  25.582  35.279  1.00  0.00     0.040 A 
ATOM     80  F   UNL A   1      42.805  25.628  34.628  1.00  0.00    -0.206 F 
ATOM     81  C   UNL A   1      46.318  26.169  35.316  1.00  0.00     0.006 A 
ENDBRANCH  57  74
ENDBRANCH  31  32
ENDBRANCH  24  26
ENDBRANCH  23  24
ENDBRANCH  22  23
ENDBRANCH  21  22
ENDBRANCH  20  21
ENDBRANCH  19  20
ENDBRANCH   1  19
TORSDOF 20
ENDMDL
MODEL 2
REMARK VINA RESULT:      -9.3      2.017      2.776
REMARK SMILES C#CC[C@@H](C(=O)OCCOCCOCCOC(=O)c1ccc(-c2c3nc(c(-c4c(F)cccc4F)c4ccc([nH]4)c(-c4c(F)cccc4F)c4nc(c(-c5c(F)cccc5F)c5ccc2[nH]5)C=C4)C=C3)cc1)[C@H]1CCS(=O)(=O)C1
REMARK SMILES IDX 11 1 10 2 9 3 8 4 7 5 5 6 6 7 4 8 3 9 2 10 1 11 73 12 74 13
REMARK SMILES IDX 79 14 75 15 76 16 77 17 78 18 12 19 13 20 14 21 15 22 16 23
REMARK SMILES IDX 17 24 18 25 19 26 20 27 72 28 21 29 71 30 22 31 23 32 24 33
REMARK SMILES IDX 65 34 25 35 70 36 64 37 66 38 26 39 69 40 63 41 62 42 27 44
REMARK SMILES IDX 53 45 36 46 52 47 37 48 40 49 51 50 67 51 38 52 39 53 50 55
REMARK SMILES IDX 68 56 41 57 28 58 29 59 34 60 30 61 31 62 33 63 35 64 32 65
REMARK SMILES IDX 54 66 55 67 60 68 56 69 57 70 59 71 61 72 58 73 42 74 43 75
REMARK SMILES IDX 48 76 44 77 45 78 47 79 49 80 46 81
REMARK H PARENT 66 43 40 54
REMARK Flexibility Score: inf
ROOT
ATOM      1  C   UNL A   1      33.143  29.057  25.060  1.00  0.00     0.188 C 
ENDROOT
BRANCH   1   2
ATOM      2  O   UNL A   1      31.764  28.830  24.870  1.00  0.00    -0.376 OA
BRANCH   2   3
ATOM      3  C   UNL A   1      31.363  27.982  23.800  1.00  0.00     0.202 C 
BRANCH   3   4
ATOM      4  C   UNL A   1      32.360  27.352  22.797  1.00  0.00     0.261 C 
BRANCH   4   5
ATOM      5  O   UNL A   1      31.899  26.199  22.060  1.00  0.00    -0.463 OA
BRANCH   5   6
ATOM      6  C   UNL A   1      32.809  25.244  21.767  1.00  0.00     0.310 C 
ATOM      7  O   UNL A   1      33.217  25.022  20.630  1.00  0.00    -0.252 OA
BRANCH   6   8
ATOM      8  C   UNL A   1      33.385  24.466  22.959  1.00  0.00     0.115 C 
BRANCH   8   9
ATOM      9  C   UNL A   1      34.112  23.115  22.773  1.00  0.00     0.105 C 
BRANCH   9  10
ATOM     10  C   UNL A   1      35.485  23.028  23.268  1.00  0.00    -0.106 C 
ATOM     11  C   UNL A   1      36.631  23.071  23.637  1.00  0.00     0.004 C 
ENDBRANCH   9  10
ENDBRANCH   8   9
BRANCH   8  12
ATOM     12  C   UNL A   1      32.396  24.346  24.178  1.00  0.00     0.020 C 
ATOM     13  C   UNL A   1      31.690  22.974  24.154  1.00  0.00     0.022 C 
ATOM     14  C   UNL A   1      32.939  24.465  25.609  1.00  0.00     0.141 C 
ATOM     15  C   UNL A   1      30.872  22.810  25.430  1.00  0.00     0.137 C 
ATOM     16  S   UNL A   1      31.637  23.841  26.656  1.00  0.00     0.150 S 
ATOM     17  O   UNL A   1      30.733  24.939  26.927  1.00  0.00    -0.229 OA
ATOM     18  O   UNL A   1      32.218  23.025  27.700  1.00  0.00    -0.229 OA
ENDBRANCH   8  12
ENDBRANCH   6   8
ENDBRANCH   5   6
ENDBRANCH   4   5
ENDBRANCH   3   4
ENDBRANCH   2   3
ENDBRANCH   1   2
BRANCH   1  19
ATOM     19  C   UNL A   1      33.602  29.762  26.341  1.00  0.00     0.188 C 
BRANCH  19  20
ATOM     20  O   UNL A   1      32.629  30.363  27.151  1.00  0.00    -0.376 OA
BRANCH  20  21
ATOM     21  C   UNL A   1      32.343  31.741  27.005  1.00  0.00     0.202 C 
BRANCH  21  22
ATOM     22  C   UNL A   1      33.030  32.892  27.777  1.00  0.00     0.261 C 
BRANCH  22  23
ATOM     23  O   UNL A   1      32.290  34.087  28.058  1.00  0.00    -0.460 OA
BRANCH  23  24
ATOM     24  C   UNL A   1      32.979  35.091  28.661  1.00  0.00     0.338 C 
ATOM     25  O   UNL A   1      32.629  36.251  28.783  1.00  0.00    -0.246 OA
BRANCH  24  26
ATOM     26  C   UNL A   1      34.138  34.501  29.376  1.00  0.00     0.060 A 
ATOM     27  C   UNL A   1      35.407  34.552  28.780  1.00  0.00     0.016 A 
ATOM     28  C   UNL A   1      33.969  33.887  30.616  1.00  0.00     0.016 A 
ATOM     29  C   UNL A   1      36.508  33.974  29.417  1.00  0.00     0.010 A 
ATOM     30  C   UNL A   1      35.068  33.280  31.237  1.00  0.00     0.010 A 
ATOM     31  C   UNL A   1      36.338  33.299  30.632  1.00  0.00    -0.014 A 
BRANCH  31  32
ATOM     32  C   UNL A   1      37.437  32.463  31.182  1.00  0.00     0.031 A 
ATOM     33  C   UNL A   1      37.952  32.769  32.561  1.00  0.00     0.074 A 
ATOM     34  C   UNL A   1      37.975  31.448  30.481  1.00  0.00     0.049 A 
ATOM     35  N   UNL A   1      38.950  32.235  33.216  1.00  0.00    -0.248 NA
ATOM     36  C   UNL A   1      37.251  33.835  33.294  1.00  0.00     0.031 C 
ATOM     37  C   UNL A   1      37.538  31.016  29.160  1.00  0.00     0.029 A 
ATOM     38  N   UNL A   1      39.003  30.591  30.794  1.00  0.00    -0.354 N 
ATOM     39  C   UNL A   1      39.018  32.916  34.424  1.00  0.00     0.074 A 
ATOM     40  C   UNL A   1      37.970  33.914  34.404  1.00  0.00     0.031 C 
ATOM     41  C   UNL A   1      38.274  29.955  28.781  1.00  0.00     0.029 A 
ATOM     42  C   UNL A   1      39.280  29.679  29.804  1.00  0.00     0.049 A 
ATOM     43  H   UNL A   1      39.496  30.629  31.646  1.00  0.00     0.167 HD
ATOM     44  C   UNL A   1      39.878  32.731  35.452  1.00  0.00     0.037 A 
ATOM     45  C   UNL A   1      40.250  28.746  29.722  1.00  0.00     0.037 A 
ATOM     46  C   UNL A   1      40.924  31.741  35.466  1.00  0.00     0.049 A 
ATOM     47  C   UNL A   1      41.243  28.612  30.850  1.00  0.00     0.074 A 
ATOM     48  C   UNL A   1      41.837  31.469  36.470  1.00  0.00     0.029 A 
ATOM     49  N   UNL A   1      41.207  30.871  34.423  1.00  0.00    -0.354 N 
ATOM     50  N   UNL A   1      41.293  29.251  31.994  1.00  0.00    -0.248 NA
ATOM     51  C   UNL A   1      42.326  27.632  30.668  1.00  0.00     0.031 C 
ATOM     52  C   UNL A   1      42.719  30.490  36.006  1.00  0.00     0.029 A 
ATOM     53  C   UNL A   1      42.305  30.088  34.747  1.00  0.00     0.049 A 
ATOM     54  H   UNL A   1      40.703  30.816  33.579  1.00  0.00     0.167 HD
ATOM     55  C   UNL A   1      42.387  28.729  32.678  1.00  0.00     0.074 A 
ATOM     56  C   UNL A   1      42.962  27.710  31.828  1.00  0.00     0.031 C 
ATOM     57  C   UNL A   1      42.869  29.067  33.900  1.00  0.00     0.037 A 
BRANCH  44  58
ATOM     58  C   UNL A   1      39.759  33.657  36.629  1.00  0.00     0.057 A 
ATOM     59  C   UNL A   1      40.442  34.878  36.693  1.00  0.00     0.134 A 
ATOM     60  C   UNL A   1      38.925  33.329  37.706  1.00  0.00     0.134 A 
ATOM     61  F   UNL A   1      41.268  35.250  35.703  1.00  0.00    -0.206 F 
ATOM     62  C   UNL A   1      40.324  35.723  37.798  1.00  0.00     0.040 A 
ATOM     63  C   UNL A   1      38.772  34.181  38.800  1.00  0.00     0.040 A 
ATOM     64  F   UNL A   1      38.236  32.177  37.710  1.00  0.00    -0.206 F 
ATOM     65  C   UNL A   1      39.480  35.379  38.852  1.00  0.00     0.006 A 
ENDBRANCH  44  58
BRANCH  45  66
ATOM     66  C   UNL A   1      40.363  27.880  28.517  1.00  0.00     0.057 A 
ATOM     67  C   UNL A   1      39.774  26.610  28.475  1.00  0.00     0.134 A 
ATOM     68  C   UNL A   1      41.104  28.278  27.397  1.00  0.00     0.134 A 
ATOM     69  F   UNL A   1      39.079  26.152  29.527  1.00  0.00    -0.206 F 
ATOM     70  C   UNL A   1      39.935  25.762  27.377  1.00  0.00     0.040 A 
ATOM     71  C   UNL A   1      41.244  27.455  26.278  1.00  0.00     0.040 A 
ATOM     72  F   UNL A   1      41.707  29.477  27.372  1.00  0.00    -0.206 F 
ATOM     73  C   UNL A   1      40.667  26.187  26.271  1.00  0.00     0.006 A 
ENDBRANCH  45  66
BRANCH  57  74
ATOM     74  C   UNL A   1      44.050  28.293  34.422  1.00  0.00     0.057 A 
ATOM     75  C   UNL A   1      43.910  27.070  35.091  1.00  0.00     0.134 A 
ATOM     76  C   UNL A   1      45.353  28.765  34.212  1.00  0.00     0.134 A 
ATOM     77  F   UNL A   1      42.692  26.562  35.333  1.00  0.00    -0.206 F 
ATOM     78  C   UNL A   1      45.020  26.361  35.557  1.00  0.00     0.040 A 
ATOM     79  C   UNL A   1      46.471  28.047  34.642  1.00  0.00     0.040 A 
ATOM     80  F   UNL A   1      45.565  29.922  33.568  1.00  0.00    -0.206 F 
ATOM     81  C   UNL A   1      46.305  26.845  35.325  1.00  0.00     0.006 A 
ENDBRANCH  57  74
ENDBRANCH  31  32
ENDBRANCH  24  26
ENDBRANCH  23  24
ENDBRANCH  22  23
ENDBRANCH  21  22
ENDBRANCH  20  21
ENDBRANCH  19  20
ENDBRANCH   1  19
TORSDOF 20
ENDMDL
MODEL 3
REMARK VINA RESULT:      -8.7      5.262      9.275
REMARK SMILES C#CC[C@@H](C(=O)OCCOCCOCCOC(=O)c1ccc(-c2c3nc(c(-c4c(F)cccc4F)c4ccc([nH]4)c(-c4c(F)cccc4F)c4nc(c(-c5c(F)cccc5F)c5ccc2[nH]5)C=C4)C=C3)cc1)[C@H]1CCS(=O)(=O)C1
REMARK SMILES IDX 11 1 10 2 9 3 8 4 7 5 5 6 6 7 4 8 3 9 2 10 1 11 73 12 74 13
REMARK SMILES IDX 79 14 75 15 76 16 77 17 78 18 12 19 13 20 14 21 15 22 16 23
REMARK SMILES IDX 17 24 18 25 19 26 20 27 72 28 21 29 71 30 22 31 23 32 24 33
REMARK SMILES IDX 65 34 25 35 70 36 64 37 66 38 26 39 69 40 63 41 62 42 27 44
REMARK SMILES IDX 53 45 36 46 52 47 37 48 40 49 51 50 67 51 38 52 39 53 50 55
REMARK SMILES IDX 68 56 41 57 28 58 29 59 34 60 30 61 31 62 33 63 35 64 32 65
REMARK SMILES IDX 54 66 55 67 60 68 56 69 57 70 59 71 61 72 58 73 42 74 43 75
REMARK SMILES IDX 48 76 44 77 45 78 47 79 49 80 46 81
REMARK H PARENT 66 43 40 54
REMARK Flexibility Score: inf
ROOT
ATOM      1  C   UNL A   1      34.707  30.771  27.955  1.00  0.00     0.188 C 
ENDROOT
BRANCH   1   2
ATOM      2  O   UNL A   1      34.201  29.968  26.913  1.00  0.00    -0.376 OA
BRANCH   2   3
ATOM      3  C   UNL A   1      33.558  28.746  27.255  1.00  0.00     0.202 C 
BRANCH   3   4
ATOM      4  C   UNL A   1      32.391  28.143  26.437  1.00  0.00     0.261 C 
BRANCH   4   5
ATOM      5  O   UNL A   1      31.739  29.020  25.493  1.00  0.00    -0.463 OA
BRANCH   5   6
ATOM      6  C   UNL A   1      31.935  28.775  24.178  1.00  0.00     0.310 C 
ATOM      7  O   UNL A   1      32.921  29.163  23.556  1.00  0.00    -0.252 OA
BRANCH   6   8
ATOM      8  C   UNL A   1      30.878  27.904  23.485  1.00  0.00     0.115 C 
BRANCH   8   9
ATOM      9  C   UNL A   1      31.268  26.811  22.464  1.00  0.00     0.105 C 
BRANCH   9  10
ATOM     10  C   UNL A   1      32.549  26.136  22.673  1.00  0.00    -0.106 C 
ATOM     11  C   UNL A   1      33.638  25.679  22.907  1.00  0.00     0.004 C 
ENDBRANCH   9  10
ENDBRANCH   8   9
BRANCH   8  12
ATOM     12  C   UNL A   1      29.658  28.719  22.913  1.00  0.00     0.020 C 
ATOM     13  C   UNL A   1      28.335  28.009  23.267  1.00  0.00     0.022 C 
ATOM     14  C   UNL A   1      29.439  30.170  23.364  1.00  0.00     0.141 C 
ATOM     15  C   UNL A   1      27.165  28.898  22.858  1.00  0.00     0.137 C 
ATOM     16  S   UNL A   1      27.772  30.566  22.869  1.00  0.00     0.150 S 
ATOM     17  O   UNL A   1      27.823  31.019  21.494  1.00  0.00    -0.229 OA
ATOM     18  O   UNL A   1      27.132  31.322  23.922  1.00  0.00    -0.229 OA
ENDBRANCH   8  12
ENDBRANCH   6   8
ENDBRANCH   5   6
ENDBRANCH   4   5
ENDBRANCH   3   4
ENDBRANCH   2   3
ENDBRANCH   1   2
BRANCH   1  19
ATOM     19  C   UNL A   1      34.051  32.130  28.222  1.00  0.00     0.188 C 
BRANCH  19  20
ATOM     20  O   UNL A   1      34.568  32.923  29.254  1.00  0.00    -0.376 OA
BRANCH  20  21
ATOM     21  C   UNL A   1      35.020  32.318  30.451  1.00  0.00     0.202 C 
BRANCH  21  22
ATOM     22  C   UNL A   1      36.436  32.460  31.056  1.00  0.00     0.261 C 
BRANCH  22  23
ATOM     23  O   UNL A   1      36.922  31.450  31.949  1.00  0.00    -0.460 OA
BRANCH  23  24
ATOM     24  C   UNL A   1      37.073  30.206  31.424  1.00  0.00     0.338 C 
ATOM     25  O   UNL A   1      36.198  29.380  31.234  1.00  0.00    -0.246 OA
BRANCH  24  26
ATOM     26  C   UNL A   1      38.448  30.089  30.883  1.00  0.00     0.060 A 
ATOM     27  C   UNL A   1      38.654  30.221  29.501  1.00  0.00     0.016 A 
ATOM     28  C   UNL A   1      39.525  29.831  31.730  1.00  0.00     0.016 A 
ATOM     29  C   UNL A   1      39.935  30.081  28.962  1.00  0.00     0.010 A 
ATOM     30  C   UNL A   1      40.803  29.659  31.184  1.00  0.00     0.010 A 
ATOM     31  C   UNL A   1      41.013  29.759  29.796  1.00  0.00    -0.014 A 
BRANCH  31  32
ATOM     32  C   UNL A   1      42.316  29.353  29.209  1.00  0.00     0.031 A 
ATOM     33  C   UNL A   1      42.465  27.949  28.692  1.00  0.00     0.074 A 
ATOM     34  C   UNL A   1      43.355  30.204  29.130  1.00  0.00     0.049 A 
ATOM     35  N   UNL A   1      43.522  27.344  28.214  1.00  0.00    -0.248 NA
ATOM     36  C   UNL A   1      41.257  27.110  28.735  1.00  0.00     0.031 C 
ATOM     37  C   UNL A   1      43.330  31.601  29.547  1.00  0.00     0.029 A 
ATOM     38  N   UNL A   1      44.633  30.016  28.659  1.00  0.00    -0.354 N 
ATOM     39  C   UNL A   1      43.116  26.047  27.925  1.00  0.00     0.074 A 
ATOM     40  C   UNL A   1      41.722  25.949  28.298  1.00  0.00     0.031 C 
ATOM     41  C   UNL A   1      44.528  32.156  29.290  1.00  0.00     0.029 A 
ATOM     42  C   UNL A   1      45.425  31.134  28.755  1.00  0.00     0.049 A 
ATOM     43  H   UNL A   1      44.949  29.159  28.290  1.00  0.00     0.167 HD
ATOM     44  C   UNL A   1      43.843  25.031  27.403  1.00  0.00     0.037 A 
ATOM     45  C   UNL A   1      46.731  31.306  28.469  1.00  0.00     0.037 A 
ATOM     46  C   UNL A   1      45.232  25.131  27.040  1.00  0.00     0.049 A 
ATOM     47  C   UNL A   1      47.537  30.135  27.961  1.00  0.00     0.074 A 
ATOM     48  C   UNL A   1      46.049  24.158  26.491  1.00  0.00     0.029 A 
ATOM     49  N   UNL A   1      46.016  26.265  27.202  1.00  0.00    -0.354 N 
ATOM     50  N   UNL A   1      47.145  28.916  27.679  1.00  0.00    -0.248 NA
ATOM     51  C   UNL A   1      48.974  30.363  27.742  1.00  0.00     0.031 C 
ATOM     52  C   UNL A   1      47.343  24.677  26.392  1.00  0.00     0.029 A 
ATOM     53  C   UNL A   1      47.316  26.002  26.798  1.00  0.00     0.049 A 
ATOM     54  H   UNL A   1      45.696  27.128  27.551  1.00  0.00     0.167 HD
ATOM     55  C   UNL A   1      48.275  28.246  27.221  1.00  0.00     0.074 A 
ATOM     56  C   UNL A   1      49.364  29.197  27.247  1.00  0.00     0.031 C 
ATOM     57  C   UNL A   1      48.396  26.957  26.816  1.00  0.00     0.037 A 
BRANCH  44  58
ATOM     58  C   UNL A   1      43.160  23.702  27.247  1.00  0.00     0.057 A 
ATOM     59  C   UNL A   1      42.999  22.811  28.315  1.00  0.00     0.134 A 
ATOM     60  C   UNL A   1      42.631  23.322  26.006  1.00  0.00     0.134 A 
ATOM     61  F   UNL A   1      43.492  23.106  29.528  1.00  0.00    -0.206 F 
ATOM     62  C   UNL A   1      42.367  21.578  28.148  1.00  0.00     0.040 A 
ATOM     63  C   UNL A   1      41.966  22.107  25.835  1.00  0.00     0.040 A 
ATOM     64  F   UNL A   1      42.743  24.128  24.939  1.00  0.00    -0.206 F 
ATOM     65  C   UNL A   1      41.841  21.226  26.907  1.00  0.00     0.006 A 
ENDBRANCH  44  58
BRANCH  45  66
ATOM     66  C   UNL A   1      47.383  32.627  28.685  1.00  0.00     0.057 A 
ATOM     67  C   UNL A   1      47.467  33.574  27.656  1.00  0.00     0.134 A 
ATOM     68  C   UNL A   1      47.983  32.956  29.907  1.00  0.00     0.134 A 
ATOM     69  F   UNL A   1      46.945  33.309  26.449  1.00  0.00    -0.206 F 
ATOM     70  C   UNL A   1      48.140  34.786  27.828  1.00  0.00     0.040 A 
ATOM     71  C   UNL A   1      48.627  34.179  30.104  1.00  0.00     0.040 A 
ATOM     72  F   UNL A   1      47.952  32.091  30.933  1.00  0.00    -0.206 F 
ATOM     73  C   UNL A   1      48.716  35.094  29.058  1.00  0.00     0.006 A 
ENDBRANCH  45  66
BRANCH  57  74
ATOM     74  C   UNL A   1      49.742  26.506  26.316  1.00  0.00     0.057 A 
ATOM     75  C   UNL A   1      50.644  25.799  27.122  1.00  0.00     0.134 A 
ATOM     76  C   UNL A   1      50.122  26.749  24.989  1.00  0.00     0.134 A 
ATOM     77  F   UNL A   1      50.350  25.537  28.405  1.00  0.00    -0.206 F 
ATOM     78  C   UNL A   1      51.884  25.377  26.635  1.00  0.00     0.040 A 
ATOM     79  C   UNL A   1      51.343  26.302  24.481  1.00  0.00     0.040 A 
ATOM     80  F   UNL A   1      49.304  27.409  24.155  1.00  0.00    -0.206 F 
ATOM     81  C   UNL A   1      52.232  25.621  25.309  1.00  0.00     0.006 A 
ENDBRANCH  57  74
ENDBRANCH  31  32
ENDBRANCH  24  26
ENDBRANCH  23  24
ENDBRANCH  22  23
ENDBRANCH  21  22
ENDBRANCH  20  21
ENDBRANCH  19  20
ENDBRANCH   1  19
TORSDOF 20
ENDMDL
