MODEL 1
REMARK VINA RESULT:     -12.3      0.000      0.000
REMARK SMILES CS(=O)(=O)c1ccc(C2=NN(c3ccc(C(=O)OCCOCCOCCOC(=O)c4ccc(-c5c6nc(c(-c7c(F)cccc7F)c7ccc([nH]7)c(-c7c(F)cccc7F)c7nc(c(-c8c(F)cccc8F)c8ccc5[nH]8)C=C7)C=C6)cc4)cc3)[C@H](c3ccccc3)C2)cc1
REMARK SMILES IDX 22 1 21 2 20 3 19 4 18 5 16 6 17 7 15 8 12 9 13 10 85 11
REMARK SMILES IDX 14 12 84 13 11 14 9 15 10 16 93 17 86 18 8 19 5 20 6 21
REMARK SMILES IDX 95 22 7 23 94 24 2 25 1 26 3 27 4 28 87 29 88 30 92 31 89 32
REMARK SMILES IDX 91 33 90 34 23 35 24 36 25 37 26 38 27 39 28 40 29 41 30 42
REMARK SMILES IDX 31 43 83 44 32 45 82 46 33 47 34 48 35 49 76 50 36 51 81 52
REMARK SMILES IDX 75 53 77 54 37 55 80 56 74 57 73 58 38 60 64 61 47 62 63 63
REMARK SMILES IDX 48 64 51 65 62 66 78 67 49 68 50 69 61 71 79 72 52 73 39 74
REMARK SMILES IDX 40 75 45 76 41 77 42 78 44 79 46 80 43 81 65 82 66 83 71 84
REMARK SMILES IDX 67 85 68 86 70 87 72 88 69 89 53 90 54 91 59 92 55 93 56 94
REMARK SMILES IDX 58 95 60 96 57 97
REMARK H PARENT 77 59 51 70
REMARK Flexibility Score: inf
ROOT
ATOM      1  C   UNL A   1      38.254  19.540  25.130  1.00  0.00     0.188 C 
ENDROOT
BRANCH   1   2
ATOM      2  O   UNL A   1      37.330  18.474  25.071  1.00  0.00    -0.376 OA
BRANCH   2   3
ATOM      3  C   UNL A   1      35.992  18.695  24.656  1.00  0.00     0.202 C 
BRANCH   3   4
ATOM      4  C   UNL A   1      34.916  17.599  24.595  1.00  0.00     0.261 C 
BRANCH   4   5
ATOM      5  O   UNL A   1      33.870  17.793  23.636  1.00  0.00    -0.460 OA
BRANCH   5   6
ATOM      6  C   UNL A   1      32.649  18.070  24.156  1.00  0.00     0.338 C 
ATOM      7  O   UNL A   1      31.916  17.293  24.745  1.00  0.00    -0.246 OA
BRANCH   6   8
ATOM      8  C   UNL A   1      32.356  19.522  24.055  1.00  0.00     0.060 A 
ATOM      9  C   UNL A   1      32.037  22.295  23.750  1.00  0.00     0.060 A 
ATOM     10  C   UNL A   1      32.048  21.461  22.627  1.00  0.00     0.029 A 
ATOM     11  C   UNL A   1      32.037  21.707  25.024  1.00  0.00     0.029 A 
ATOM     12  C   UNL A   1      32.214  20.080  22.777  1.00  0.00     0.018 A 
ATOM     13  C   UNL A   1      32.219  20.332  25.184  1.00  0.00     0.018 A 
BRANCH   9  14
ATOM     14  N   UNL A   1      32.240  23.676  23.639  1.00  0.00    -0.257 N 
ATOM     15  C   UNL A   1      31.588  25.598  22.982  1.00  0.00     0.071 C 
ATOM     16  N   UNL A   1      31.177  24.525  23.586  1.00  0.00    -0.176 NA
ATOM     17  C   UNL A   1      32.978  25.538  22.408  1.00  0.00     0.091 C 
ATOM     18  C   UNL A   1      33.419  24.148  22.883  1.00  0.00     0.144 C 
BRANCH  15  19
ATOM     19  C   UNL A   1      30.790  26.837  22.890  1.00  0.00    -0.002 A 
ATOM     20  C   UNL A   1      29.269  29.175  22.925  1.00  0.00     0.067 A 
ATOM     21  C   UNL A   1      28.710  27.979  23.385  1.00  0.00     0.021 A 
ATOM     22  C   UNL A   1      30.583  29.210  22.446  1.00  0.00     0.021 A 
ATOM     23  C   UNL A   1      29.470  26.807  23.356  1.00  0.00     0.011 A 
ATOM     24  C   UNL A   1      31.346  28.037  22.431  1.00  0.00     0.011 A 
BRANCH  20  25
ATOM     25  S   UNL A   1      28.322  30.680  23.011  1.00  0.00     0.175 S 
ATOM     26  C   UNL A   1      28.059  31.147  21.322  1.00  0.00     0.163 C 
ATOM     27  O   UNL A   1      29.179  31.672  23.630  1.00  0.00    -0.224 OA
ATOM     28  O   UNL A   1      27.028  30.353  23.576  1.00  0.00    -0.224 OA
ENDBRANCH  20  25
ENDBRANCH  15  19
BRANCH  18  29
ATOM     29  C   UNL A   1      34.699  24.037  23.711  1.00  0.00    -0.023 A 
ATOM     30  C   UNL A   1      34.862  24.586  24.989  1.00  0.00     0.006 A 
ATOM     31  C   UNL A   1      35.774  23.290  23.186  1.00  0.00     0.006 A 
ATOM     32  C   UNL A   1      36.038  24.371  25.719  1.00  0.00     0.000 A 
ATOM     33  C   UNL A   1      36.922  23.026  23.934  1.00  0.00     0.000 A 
ATOM     34  C   UNL A   1      37.056  23.572  25.204  1.00  0.00     0.000 A 
ENDBRANCH  18  29
ENDBRANCH   9  14
ENDBRANCH   6   8
ENDBRANCH   5   6
ENDBRANCH   4   5
ENDBRANCH   3   4
ENDBRANCH   2   3
ENDBRANCH   1   2
BRANCH   1  35
ATOM     35  C   UNL A   1      39.664  19.309  25.709  1.00  0.00     0.188 C 
BRANCH  35  36
ATOM     36  O   UNL A   1      40.547  20.396  25.853  1.00  0.00    -0.376 OA
BRANCH  36  37
ATOM     37  C   UNL A   1      40.619  21.098  27.083  1.00  0.00     0.202 C 
BRANCH  37  38
ATOM     38  C   UNL A   1      41.911  21.649  27.716  1.00  0.00     0.261 C 
BRANCH  38  39
ATOM     39  O   UNL A   1      42.997  21.963  26.841  1.00  0.00    -0.460 OA
BRANCH  39  40
ATOM     40  C   UNL A   1      42.757  22.952  25.948  1.00  0.00     0.338 C 
ATOM     41  O   UNL A   1      42.693  22.861  24.729  1.00  0.00    -0.246 OA
BRANCH  40  42
ATOM     42  C   UNL A   1      42.422  24.179  26.685  1.00  0.00     0.060 A 
ATOM     43  C   UNL A   1      43.402  25.168  26.874  1.00  0.00     0.016 A 
ATOM     44  C   UNL A   1      41.143  24.332  27.214  1.00  0.00     0.016 A 
ATOM     45  C   UNL A   1      43.100  26.318  27.604  1.00  0.00     0.010 A 
ATOM     46  C   UNL A   1      40.853  25.468  27.968  1.00  0.00     0.010 A 
ATOM     47  C   UNL A   1      41.835  26.452  28.186  1.00  0.00    -0.014 A 
BRANCH  47  48
ATOM     48  C   UNL A   1      41.562  27.502  29.193  1.00  0.00     0.031 A 
ATOM     49  C   UNL A   1      42.330  27.453  30.482  1.00  0.00     0.074 A 
ATOM     50  C   UNL A   1      40.602  28.424  29.005  1.00  0.00     0.049 A 
ATOM     51  N   UNL A   1      42.121  28.093  31.600  1.00  0.00    -0.248 NA
ATOM     52  C   UNL A   1      43.484  26.538  30.513  1.00  0.00     0.031 C 
ATOM     53  C   UNL A   1      39.829  28.606  27.780  1.00  0.00     0.029 A 
ATOM     54  N   UNL A   1      40.089  29.356  29.873  1.00  0.00    -0.354 N 
ATOM     55  C   UNL A   1      43.096  27.638  32.479  1.00  0.00     0.074 A 
ATOM     56  C   UNL A   1      43.888  26.658  31.767  1.00  0.00     0.031 C 
ATOM     57  C   UNL A   1      38.913  29.568  27.985  1.00  0.00     0.029 A 
ATOM     58  C   UNL A   1      39.003  30.028  29.371  1.00  0.00     0.049 A 
ATOM     59  H   UNL A   1      40.464  29.525  30.768  1.00  0.00     0.167 HD
ATOM     60  C   UNL A   1      43.307  28.005  33.764  1.00  0.00     0.037 A 
ATOM     61  C   UNL A   1      38.151  30.878  29.979  1.00  0.00     0.037 A 
ATOM     62  C   UNL A   1      42.509  28.976  34.462  1.00  0.00     0.049 A 
ATOM     63  C   UNL A   1      38.349  31.206  31.439  1.00  0.00     0.074 A 
ATOM     64  C   UNL A   1      42.646  29.428  35.762  1.00  0.00     0.029 A 
ATOM     65  N   UNL A   1      41.417  29.635  33.918  1.00  0.00    -0.354 N 
ATOM     66  N   UNL A   1      39.277  30.783  32.265  1.00  0.00    -0.248 NA
ATOM     67  C   UNL A   1      37.379  32.124  32.054  1.00  0.00     0.031 C 
ATOM     68  C   UNL A   1      41.602  30.318  36.024  1.00  0.00     0.029 A 
ATOM     69  C   UNL A   1      40.855  30.474  34.865  1.00  0.00     0.049 A 
ATOM     70  H   UNL A   1      41.090  29.523  32.996  1.00  0.00     0.167 HD
ATOM     71  C   UNL A   1      39.029  31.416  33.477  1.00  0.00     0.074 A 
ATOM     72  C   UNL A   1      37.861  32.249  33.283  1.00  0.00     0.031 C 
ATOM     73  C   UNL A   1      39.713  31.323  34.644  1.00  0.00     0.037 A 
BRANCH  60  74
ATOM     74  C   UNL A   1      44.417  27.321  34.506  1.00  0.00     0.057 A 
ATOM     75  C   UNL A   1      44.226  26.107  35.178  1.00  0.00     0.134 A 
ATOM     76  C   UNL A   1      45.704  27.874  34.524  1.00  0.00     0.134 A 
ATOM     77  F   UNL A   1      43.015  25.531  35.211  1.00  0.00    -0.206 F 
ATOM     78  C   UNL A   1      45.269  25.480  35.863  1.00  0.00     0.040 A 
ATOM     79  C   UNL A   1      46.762  27.241  35.179  1.00  0.00     0.040 A 
ATOM     80  F   UNL A   1      45.958  29.032  33.897  1.00  0.00    -0.206 F 
ATOM     81  C   UNL A   1      46.544  26.044  35.858  1.00  0.00     0.006 A 
ENDBRANCH  60  74
BRANCH  61  82
ATOM     82  C   UNL A   1      37.012  31.461  29.225  1.00  0.00     0.057 A 
ATOM     83  C   UNL A   1      35.877  30.698  28.926  1.00  0.00     0.134 A 
ATOM     84  C   UNL A   1      37.036  32.782  28.762  1.00  0.00     0.134 A 
ATOM     85  F   UNL A   1      35.804  29.417  29.320  1.00  0.00    -0.206 F 
ATOM     86  C   UNL A   1      34.819  31.219  28.179  1.00  0.00     0.040 A 
ATOM     87  C   UNL A   1      35.973  33.326  28.039  1.00  0.00     0.040 A 
ATOM     88  F   UNL A   1      38.095  33.569  29.012  1.00  0.00    -0.206 F 
ATOM     89  C   UNL A   1      34.863  32.539  27.738  1.00  0.00     0.006 A 
ENDBRANCH  61  82
BRANCH  73  90
ATOM     90  C   UNL A   1      39.277  32.192  35.789  1.00  0.00     0.057 A 
ATOM     91  C   UNL A   1      39.693  33.522  35.920  1.00  0.00     0.134 A 
ATOM     92  C   UNL A   1      38.346  31.711  36.720  1.00  0.00     0.134 A 
ATOM     93  F   UNL A   1      40.590  34.040  35.068  1.00  0.00    -0.206 F 
ATOM     94  C   UNL A   1      39.202  34.340  36.938  1.00  0.00     0.040 A 
ATOM     95  C   UNL A   1      37.827  32.528  37.725  1.00  0.00     0.040 A 
ATOM     96  F   UNL A   1      37.898  30.448  36.645  1.00  0.00    -0.206 F 
ATOM     97  C   UNL A   1      38.257  33.848  37.837  1.00  0.00     0.006 A 
ENDBRANCH  73  90
ENDBRANCH  47  48
ENDBRANCH  40  42
ENDBRANCH  39  40
ENDBRANCH  38  39
ENDBRANCH  37  38
ENDBRANCH  36  37
ENDBRANCH  35  36
ENDBRANCH   1  35
TORSDOF 21
ENDMDL
MODEL 2
REMARK VINA RESULT:     -11.7      5.028     10.717
REMARK SMILES CS(=O)(=O)c1ccc(C2=NN(c3ccc(C(=O)OCCOCCOCCOC(=O)c4ccc(-c5c6nc(c(-c7c(F)cccc7F)c7ccc([nH]7)c(-c7c(F)cccc7F)c7nc(c(-c8c(F)cccc8F)c8ccc5[nH]8)C=C7)C=C6)cc4)cc3)[C@H](c3ccccc3)C2)cc1
REMARK SMILES IDX 22 1 21 2 20 3 19 4 18 5 16 6 17 7 15 8 12 9 13 10 85 11
REMARK SMILES IDX 14 12 84 13 11 14 9 15 10 16 93 17 86 18 8 19 5 20 6 21
REMARK SMILES IDX 95 22 7 23 94 24 2 25 1 26 3 27 4 28 87 29 88 30 92 31 89 32
REMARK SMILES IDX 91 33 90 34 23 35 24 36 25 37 26 38 27 39 28 40 29 41 30 42
REMARK SMILES IDX 31 43 83 44 32 45 82 46 33 47 34 48 35 49 76 50 36 51 81 52
REMARK SMILES IDX 75 53 77 54 37 55 80 56 74 57 73 58 38 60 64 61 47 62 63 63
REMARK SMILES IDX 48 64 51 65 62 66 78 67 49 68 50 69 61 71 79 72 52 73 39 74
REMARK SMILES IDX 40 75 45 76 41 77 42 78 44 79 46 80 43 81 65 82 66 83 71 84
REMARK SMILES IDX 67 85 68 86 70 87 72 88 69 89 53 90 54 91 59 92 55 93 56 94
REMARK SMILES IDX 58 95 60 96 57 97
REMARK H PARENT 77 59 51 70
REMARK Flexibility Score: inf
ROOT
ATOM      1  C   UNL A   1      36.419  34.098  29.802  1.00  0.00     0.188 C 
ENDROOT
BRANCH   1   2
ATOM      2  O   UNL A   1      35.122  34.582  30.079  1.00  0.00    -0.376 OA
BRANCH   2   3
ATOM      3  C   UNL A   1      33.974  33.879  29.632  1.00  0.00     0.202 C 
BRANCH   3   4
ATOM      4  C   UNL A   1      33.586  33.716  28.154  1.00  0.00     0.261 C 
BRANCH   4   5
ATOM      5  O   UNL A   1      33.226  32.394  27.739  1.00  0.00    -0.460 OA
BRANCH   5   6
ATOM      6  C   UNL A   1      34.264  31.572  27.445  1.00  0.00     0.338 C 
ATOM      7  O   UNL A   1      35.451  31.831  27.558  1.00  0.00    -0.246 OA
BRANCH   6   8
ATOM      8  C   UNL A   1      33.772  30.214  27.102  1.00  0.00     0.060 A 
ATOM      9  C   UNL A   1      32.973  27.669  26.227  1.00  0.00     0.060 A 
ATOM     10  C   UNL A   1      34.314  27.914  26.545  1.00  0.00     0.029 A 
ATOM     11  C   UNL A   1      32.024  28.666  26.497  1.00  0.00     0.029 A 
ATOM     12  C   UNL A   1      34.714  29.183  26.974  1.00  0.00     0.018 A 
ATOM     13  C   UNL A   1      32.417  29.942  26.910  1.00  0.00     0.018 A 
BRANCH   9  14
ATOM     14  N   UNL A   1      32.593  26.558  25.463  1.00  0.00    -0.257 N 
ATOM     15  C   UNL A   1      32.929  24.555  24.811  1.00  0.00     0.071 C 
ATOM     16  N   UNL A   1      32.911  25.299  25.874  1.00  0.00    -0.176 NA
ATOM     17  C   UNL A   1      32.763  25.275  23.500  1.00  0.00     0.091 C 
ATOM     18  C   UNL A   1      32.535  26.710  23.994  1.00  0.00     0.144 C 
BRANCH  15  19
ATOM     19  C   UNL A   1      33.047  23.083  24.850  1.00  0.00    -0.002 A 
ATOM     20  C   UNL A   1      33.177  20.299  24.736  1.00  0.00     0.067 A 
ATOM     21  C   UNL A   1      31.932  20.933  24.768  1.00  0.00     0.021 A 
ATOM     22  C   UNL A   1      34.359  21.048  24.763  1.00  0.00     0.021 A 
ATOM     23  C   UNL A   1      31.869  22.326  24.836  1.00  0.00     0.011 A 
ATOM     24  C   UNL A   1      34.293  22.445  24.817  1.00  0.00     0.011 A 
BRANCH  20  25
ATOM     25  S   UNL A   1      33.262  18.527  24.596  1.00  0.00     0.175 S 
ATOM     26  C   UNL A   1      32.548  18.162  23.016  1.00  0.00     0.163 C 
ATOM     27  O   UNL A   1      32.393  17.989  25.624  1.00  0.00    -0.224 OA
ATOM     28  O   UNL A   1      34.663  18.158  24.533  1.00  0.00    -0.224 OA
ENDBRANCH  20  25
ENDBRANCH  15  19
BRANCH  18  29
ATOM     29  C   UNL A   1      31.265  27.434  23.553  1.00  0.00    -0.023 A 
ATOM     30  C   UNL A   1      29.967  27.015  23.871  1.00  0.00     0.006 A 
ATOM     31  C   UNL A   1      31.397  28.634  22.823  1.00  0.00     0.006 A 
ATOM     32  C   UNL A   1      28.853  27.780  23.499  1.00  0.00     0.000 A 
ATOM     33  C   UNL A   1      30.293  29.427  22.503  1.00  0.00     0.000 A 
ATOM     34  C   UNL A   1      29.016  28.995  22.839  1.00  0.00     0.000 A 
ENDBRANCH  18  29
ENDBRANCH   9  14
ENDBRANCH   6   8
ENDBRANCH   5   6
ENDBRANCH   4   5
ENDBRANCH   3   4
ENDBRANCH   2   3
ENDBRANCH   1   2
BRANCH   1  35
ATOM     35  C   UNL A   1      37.135  33.182  30.814  1.00  0.00     0.188 C 
BRANCH  35  36
ATOM     36  O   UNL A   1      38.070  33.728  31.714  1.00  0.00    -0.376 OA
BRANCH  36  37
ATOM     37  C   UNL A   1      38.399  33.037  32.907  1.00  0.00     0.202 C 
BRANCH  37  38
ATOM     38  C   UNL A   1      37.478  32.045  33.642  1.00  0.00     0.261 C 
BRANCH  38  39
ATOM     39  O   UNL A   1      37.751  30.650  33.492  1.00  0.00    -0.460 OA
BRANCH  39  40
ATOM     40  C   UNL A   1      37.208  30.065  32.398  1.00  0.00     0.338 C 
ATOM     41  O   UNL A   1      36.028  30.036  32.071  1.00  0.00    -0.246 OA
BRANCH  40  42
ATOM     42  C   UNL A   1      38.295  29.572  31.540  1.00  0.00     0.060 A 
ATOM     43  C   UNL A   1      39.313  28.778  32.093  1.00  0.00     0.016 A 
ATOM     44  C   UNL A   1      38.318  29.926  30.193  1.00  0.00     0.016 A 
ATOM     45  C   UNL A   1      40.367  28.338  31.291  1.00  0.00     0.010 A 
ATOM     46  C   UNL A   1      39.387  29.511  29.402  1.00  0.00     0.010 A 
ATOM     47  C   UNL A   1      40.426  28.737  29.951  1.00  0.00    -0.014 A 
BRANCH  47  48
ATOM     48  C   UNL A   1      41.652  28.538  29.145  1.00  0.00     0.031 A 
ATOM     49  C   UNL A   1      41.904  27.170  28.582  1.00  0.00     0.074 A 
ATOM     50  C   UNL A   1      42.556  29.520  28.987  1.00  0.00     0.049 A 
ATOM     51  N   UNL A   1      42.992  26.675  28.054  1.00  0.00    -0.248 NA
ATOM     52  C   UNL A   1      40.774  26.227  28.640  1.00  0.00     0.031 C 
ATOM     53  C   UNL A   1      42.399  30.899  29.439  1.00  0.00     0.029 A 
ATOM     54  N   UNL A   1      43.811  29.484  28.432  1.00  0.00    -0.354 N 
ATOM     55  C   UNL A   1      42.689  25.355  27.744  1.00  0.00     0.074 A 
ATOM     56  C   UNL A   1      41.321  25.123  28.156  1.00  0.00     0.031 C 
ATOM     57  C   UNL A   1      43.532  31.573  29.176  1.00  0.00     0.029 A 
ATOM     58  C   UNL A   1      44.509  30.657  28.586  1.00  0.00     0.049 A 
ATOM     59  H   UNL A   1      44.176  28.695  27.970  1.00  0.00     0.167 HD
ATOM     60  C   UNL A   1      43.484  24.423  27.172  1.00  0.00     0.037 A 
ATOM     61  C   UNL A   1      45.801  30.938  28.326  1.00  0.00     0.037 A 
ATOM     62  C   UNL A   1      44.844  24.663  26.773  1.00  0.00     0.049 A 
ATOM     63  C   UNL A   1      46.697  29.858  27.771  1.00  0.00     0.074 A 
ATOM     64  C   UNL A   1      45.732  23.790  26.172  1.00  0.00     0.029 A 
ATOM     65  N   UNL A   1      45.514  25.865  26.945  1.00  0.00    -0.354 N 
ATOM     66  N   UNL A   1      46.407  28.614  27.471  1.00  0.00    -0.248 NA
ATOM     67  C   UNL A   1      48.101  30.218  27.525  1.00  0.00     0.031 C 
ATOM     68  C   UNL A   1      46.959  24.445  26.034  1.00  0.00     0.029 A 
ATOM     69  C   UNL A   1      46.813  25.749  26.484  1.00  0.00     0.049 A 
ATOM     70  H   UNL A   1      45.123  26.680  27.337  1.00  0.00     0.167 HD
ATOM     71  C   UNL A   1      47.575  28.061  26.960  1.00  0.00     0.074 A 
ATOM     72  C   UNL A   1      48.581  29.101  26.995  1.00  0.00     0.031 C 
ATOM     73  C   UNL A   1      47.793  26.806  26.495  1.00  0.00     0.037 A 
BRANCH  60  74
ATOM     74  C   UNL A   1      42.914  23.047  26.984  1.00  0.00     0.057 A 
ATOM     75  C   UNL A   1      42.684  22.183  28.063  1.00  0.00     0.134 A 
ATOM     76  C   UNL A   1      42.565  22.592  25.706  1.00  0.00     0.134 A 
ATOM     77  F   UNL A   1      43.009  22.551  29.311  1.00  0.00    -0.206 F 
ATOM     78  C   UNL A   1      42.151  20.907  27.874  1.00  0.00     0.040 A 
ATOM     79  C   UNL A   1      42.002  21.331  25.509  1.00  0.00     0.040 A 
ATOM     80  F   UNL A   1      42.754  23.370  24.630  1.00  0.00    -0.206 F 
ATOM     81  C   UNL A   1      41.801  20.481  26.594  1.00  0.00     0.006 A 
ENDBRANCH  60  74
BRANCH  61  82
ATOM     82  C   UNL A   1      46.343  32.291  28.613  1.00  0.00     0.057 A 
ATOM     83  C   UNL A   1      46.819  32.624  29.887  1.00  0.00     0.134 A 
ATOM     84  C   UNL A   1      46.376  33.292  27.635  1.00  0.00     0.134 A 
ATOM     85  F   UNL A   1      46.791  31.717  30.875  1.00  0.00    -0.206 F 
ATOM     86  C   UNL A   1      47.289  33.904  30.183  1.00  0.00     0.040 A 
ATOM     87  C   UNL A   1      46.870  34.570  27.909  1.00  0.00     0.040 A 
ATOM     88  F   UNL A   1      45.933  33.042  26.393  1.00  0.00    -0.206 F 
ATOM     89  C   UNL A   1      47.320  34.880  29.190  1.00  0.00     0.006 A 
ENDBRANCH  61  82
BRANCH  73  90
ATOM     90  C   UNL A   1      49.141  26.493  25.913  1.00  0.00     0.057 A 
ATOM     91  C   UNL A   1      49.494  26.853  24.607  1.00  0.00     0.134 A 
ATOM     92  C   UNL A   1      50.132  25.907  26.713  1.00  0.00     0.134 A 
ATOM     93  F   UNL A   1      48.590  27.408  23.787  1.00  0.00    -0.206 F 
ATOM     94  C   UNL A   1      50.783  26.637  24.117  1.00  0.00     0.040 A 
ATOM     95  C   UNL A   1      51.431  25.711  26.243  1.00  0.00     0.040 A 
ATOM     96  F   UNL A   1      49.862  25.547  27.977  1.00  0.00    -0.206 F 
ATOM     97  C   UNL A   1      51.759  26.077  24.940  1.00  0.00     0.006 A 
ENDBRANCH  73  90
ENDBRANCH  47  48
ENDBRANCH  40  42
ENDBRANCH  39  40
ENDBRANCH  38  39
ENDBRANCH  37  38
ENDBRANCH  36  37
ENDBRANCH  35  36
ENDBRANCH   1  35
TORSDOF 21
ENDMDL
MODEL 3
REMARK VINA RESULT:     -11.2      7.828     11.580
REMARK SMILES CS(=O)(=O)c1ccc(C2=NN(c3ccc(C(=O)OCCOCCOCCOC(=O)c4ccc(-c5c6nc(c(-c7c(F)cccc7F)c7ccc([nH]7)c(-c7c(F)cccc7F)c7nc(c(-c8c(F)cccc8F)c8ccc5[nH]8)C=C7)C=C6)cc4)cc3)[C@H](c3ccccc3)C2)cc1
REMARK SMILES IDX 22 1 21 2 20 3 19 4 18 5 16 6 17 7 15 8 12 9 13 10 85 11
REMARK SMILES IDX 14 12 84 13 11 14 9 15 10 16 93 17 86 18 8 19 5 20 6 21
REMARK SMILES IDX 95 22 7 23 94 24 2 25 1 26 3 27 4 28 87 29 88 30 92 31 89 32
REMARK SMILES IDX 91 33 90 34 23 35 24 36 25 37 26 38 27 39 28 40 29 41 30 42
REMARK SMILES IDX 31 43 83 44 32 45 82 46 33 47 34 48 35 49 76 50 36 51 81 52
REMARK SMILES IDX 75 53 77 54 37 55 80 56 74 57 73 58 38 60 64 61 47 62 63 63
REMARK SMILES IDX 48 64 51 65 62 66 78 67 49 68 50 69 61 71 79 72 52 73 39 74
REMARK SMILES IDX 40 75 45 76 41 77 42 78 44 79 46 80 43 81 65 82 66 83 71 84
REMARK SMILES IDX 67 85 68 86 70 87 72 88 69 89 53 90 54 91 59 92 55 93 56 94
REMARK SMILES IDX 58 95 60 96 57 97
REMARK H PARENT 77 59 51 70
REMARK Flexibility Score: inf
ROOT
ATOM      1  C   UNL A   1      34.698  33.475  31.477  1.00  0.00     0.188 C 
ENDROOT
BRANCH   1   2
ATOM      2  O   UNL A   1      33.924  33.425  30.296  1.00  0.00    -0.376 OA
BRANCH   2   3
ATOM      3  C   UNL A   1      34.545  33.425  29.021  1.00  0.00     0.202 C 
BRANCH   3   4
ATOM      4  C   UNL A   1      35.276  32.214  28.419  1.00  0.00     0.261 C 
BRANCH   4   5
ATOM      5  O   UNL A   1      34.529  30.994  28.356  1.00  0.00    -0.460 OA
BRANCH   5   6
ATOM      6  C   UNL A   1      33.446  31.016  27.539  1.00  0.00     0.338 C 
ATOM      7  O   UNL A   1      32.877  32.007  27.113  1.00  0.00    -0.246 OA
BRANCH   6   8
ATOM      8  C   UNL A   1      33.111  29.644  27.082  1.00  0.00     0.060 A 
ATOM      9  C   UNL A   1      32.482  27.142  25.973  1.00  0.00     0.060 A 
ATOM     10  C   UNL A   1      33.748  27.703  25.770  1.00  0.00     0.029 A 
ATOM     11  C   UNL A   1      31.599  27.778  26.858  1.00  0.00     0.029 A 
ATOM     12  C   UNL A   1      34.059  28.952  26.316  1.00  0.00     0.018 A 
ATOM     13  C   UNL A   1      31.895  29.034  27.394  1.00  0.00     0.018 A 
BRANCH   9  14
ATOM     14  N   UNL A   1      32.005  26.100  25.168  1.00  0.00    -0.257 N 
ATOM     15  C   UNL A   1      32.277  24.194  24.251  1.00  0.00     0.071 C 
ATOM     16  N   UNL A   1      32.426  24.822  25.377  1.00  0.00    -0.176 NA
ATOM     17  C   UNL A   1      31.863  25.038  23.076  1.00  0.00     0.091 C 
ATOM     18  C   UNL A   1      31.685  26.401  23.757  1.00  0.00     0.144 C 
BRANCH  15  19
ATOM     19  C   UNL A   1      32.442  22.734  24.105  1.00  0.00    -0.002 A 
ATOM     20  C   UNL A   1      32.577  19.952  23.942  1.00  0.00     0.067 A 
ATOM     21  C   UNL A   1      32.675  20.577  25.189  1.00  0.00     0.021 A 
ATOM     22  C   UNL A   1      32.415  20.708  22.776  1.00  0.00     0.021 A 
ATOM     23  C   UNL A   1      32.617  21.971  25.267  1.00  0.00     0.011 A 
ATOM     24  C   UNL A   1      32.344  22.104  22.859  1.00  0.00     0.011 A 
BRANCH  20  25
ATOM     25  S   UNL A   1      32.596  18.175  23.844  1.00  0.00     0.175 S 
ATOM     26  C   UNL A   1      34.290  17.724  24.095  1.00  0.00     0.163 C 
ATOM     27  O   UNL A   1      32.229  17.832  22.484  1.00  0.00    -0.224 OA
ATOM     28  O   UNL A   1      31.841  17.665  24.973  1.00  0.00    -0.224 OA
ENDBRANCH  20  25
ENDBRANCH  15  19
BRANCH  18  29
ATOM     29  C   UNL A   1      30.337  27.107  23.624  1.00  0.00    -0.023 A 
ATOM     30  C   UNL A   1      30.163  28.375  23.054  1.00  0.00     0.006 A 
ATOM     31  C   UNL A   1      29.178  26.425  24.050  1.00  0.00     0.006 A 
ATOM     32  C   UNL A   1      28.883  28.921  22.893  1.00  0.00     0.000 A 
ATOM     33  C   UNL A   1      27.899  26.942  23.837  1.00  0.00     0.000 A 
ATOM     34  C   UNL A   1      27.752  28.196  23.259  1.00  0.00     0.000 A 
ENDBRANCH  18  29
ENDBRANCH   9  14
ENDBRANCH   6   8
ENDBRANCH   5   6
ENDBRANCH   4   5
ENDBRANCH   3   4
ENDBRANCH   2   3
ENDBRANCH   1   2
BRANCH   1  35
ATOM     35  C   UNL A   1      34.229  34.325  32.674  1.00  0.00     0.188 C 
BRANCH  35  36
ATOM     36  O   UNL A   1      35.179  34.897  33.541  1.00  0.00    -0.376 OA
BRANCH  36  37
ATOM     37  C   UNL A   1      35.918  34.077  34.430  1.00  0.00     0.202 C 
BRANCH  37  38
ATOM     38  C   UNL A   1      37.417  33.749  34.296  1.00  0.00     0.261 C 
BRANCH  38  39
ATOM     39  O   UNL A   1      38.132  34.344  33.210  1.00  0.00    -0.460 OA
BRANCH  39  40
ATOM     40  C   UNL A   1      38.376  33.527  32.158  1.00  0.00     0.338 C 
ATOM     41  O   UNL A   1      37.728  32.553  31.800  1.00  0.00    -0.246 OA
BRANCH  40  42
ATOM     42  C   UNL A   1      39.495  34.083  31.383  1.00  0.00     0.060 A 
ATOM     43  C   UNL A   1      39.327  34.353  30.015  1.00  0.00     0.016 A 
ATOM     44  C   UNL A   1      40.718  34.304  32.010  1.00  0.00     0.016 A 
ATOM     45  C   UNL A   1      40.396  34.847  29.266  1.00  0.00     0.010 A 
ATOM     46  C   UNL A   1      41.792  34.769  31.253  1.00  0.00     0.010 A 
ATOM     47  C   UNL A   1      41.644  35.019  29.876  1.00  0.00    -0.014 A 
BRANCH  47  48
ATOM     48  C   UNL A   1      42.863  35.262  29.073  1.00  0.00     0.031 A 
ATOM     49  C   UNL A   1      43.761  34.093  28.793  1.00  0.00     0.074 A 
ATOM     50  C   UNL A   1      43.207  36.499  28.676  1.00  0.00     0.049 A 
ATOM     51  N   UNL A   1      44.982  34.074  28.329  1.00  0.00    -0.248 NA
ATOM     52  C   UNL A   1      43.206  32.763  29.095  1.00  0.00     0.031 C 
ATOM     53  C   UNL A   1      42.394  37.700  28.840  1.00  0.00     0.029 A 
ATOM     54  N   UNL A   1      44.362  36.948  28.083  1.00  0.00    -0.354 N 
ATOM     55  C   UNL A   1      45.354  32.736  28.312  1.00  0.00     0.074 A 
ATOM     56  C   UNL A   1      44.235  31.975  28.825  1.00  0.00     0.031 C 
ATOM     57  C   UNL A   1      43.091  38.760  28.393  1.00  0.00     0.029 A 
ATOM     58  C   UNL A   1      44.416  38.314  27.960  1.00  0.00     0.049 A 
ATOM     59  H   UNL A   1      45.080  36.349  27.777  1.00  0.00     0.167 HD
ATOM     60  C   UNL A   1      46.526  32.194  27.909  1.00  0.00     0.037 A 
ATOM     61  C   UNL A   1      45.436  39.113  27.589  1.00  0.00     0.037 A 
ATOM     62  C   UNL A   1      47.633  32.961  27.407  1.00  0.00     0.049 A 
ATOM     63  C   UNL A   1      46.765  38.495  27.228  1.00  0.00     0.074 A 
ATOM     64  C   UNL A   1      48.861  32.509  26.959  1.00  0.00     0.029 A 
ATOM     65  N   UNL A   1      47.648  34.343  27.297  1.00  0.00    -0.354 N 
ATOM     66  N   UNL A   1      47.112  37.230  27.204  1.00  0.00    -0.248 NA
ATOM     67  C   UNL A   1      47.847  39.416  26.849  1.00  0.00     0.031 C 
ATOM     68  C   UNL A   1      49.641  33.621  26.633  1.00  0.00     0.029 A 
ATOM     69  C   UNL A   1      48.874  34.763  26.811  1.00  0.00     0.049 A 
ATOM     70  H   UNL A   1      46.898  34.938  27.530  1.00  0.00     0.167 HD
ATOM     71  C   UNL A   1      48.431  37.202  26.765  1.00  0.00     0.074 A 
ATOM     72  C   UNL A   1      48.826  38.576  26.540  1.00  0.00     0.031 C 
ATOM     73  C   UNL A   1      49.239  36.133  26.560  1.00  0.00     0.037 A 
BRANCH  60  74
ATOM     74  C   UNL A   1      46.681  30.707  28.034  1.00  0.00     0.057 A 
ATOM     75  C   UNL A   1      46.947  30.087  29.262  1.00  0.00     0.134 A 
ATOM     76  C   UNL A   1      46.535  29.881  26.912  1.00  0.00     0.134 A 
ATOM     77  F   UNL A   1      47.112  30.821  30.373  1.00  0.00    -0.206 F 
ATOM     78  C   UNL A   1      47.087  28.702  29.365  1.00  0.00     0.040 A 
ATOM     79  C   UNL A   1      46.642  28.493  27.008  1.00  0.00     0.040 A 
ATOM     80  F   UNL A   1      46.275  30.408  25.706  1.00  0.00    -0.206 F 
ATOM     81  C   UNL A   1      46.926  27.900  28.236  1.00  0.00     0.006 A 
ENDBRANCH  60  74
BRANCH  61  82
ATOM     82  C   UNL A   1      45.261  40.588  27.566  1.00  0.00     0.057 A 
ATOM     83  C   UNL A   1      44.599  41.220  26.507  1.00  0.00     0.134 A 
ATOM     84  C   UNL A   1      45.771  41.404  28.583  1.00  0.00     0.134 A 
ATOM     85  F   UNL A   1      44.111  40.496  25.489  1.00  0.00    -0.206 F 
ATOM     86  C   UNL A   1      44.468  42.608  26.449  1.00  0.00     0.040 A 
ATOM     87  C   UNL A   1      45.622  42.792  28.553  1.00  0.00     0.040 A 
ATOM     88  F   UNL A   1      46.418  40.863  29.627  1.00  0.00    -0.206 F 
ATOM     89  C   UNL A   1      44.975  43.398  27.478  1.00  0.00     0.006 A 
ENDBRANCH  61  82
BRANCH  73  90
ATOM     90  C   UNL A   1      50.608  36.382  25.993  1.00  0.00     0.057 A 
ATOM     91  C   UNL A   1      50.832  36.544  24.621  1.00  0.00     0.134 A 
ATOM     92  C   UNL A   1      51.701  36.560  26.853  1.00  0.00     0.134 A 
ATOM     93  F   UNL A   1      49.830  36.377  23.744  1.00  0.00    -0.206 F 
ATOM     94  C   UNL A   1      52.095  36.867  24.124  1.00  0.00     0.040 A 
ATOM     95  C   UNL A   1      52.962  36.911  26.369  1.00  0.00     0.040 A 
ATOM     96  F   UNL A   1      51.552  36.430  28.180  1.00  0.00    -0.206 F 
ATOM     97  C   UNL A   1      53.162  37.065  25.000  1.00  0.00     0.006 A 
ENDBRANCH  73  90
ENDBRANCH  47  48
ENDBRANCH  40  42
ENDBRANCH  39  40
ENDBRANCH  38  39
ENDBRANCH  37  38
ENDBRANCH  36  37
ENDBRANCH  35  36
ENDBRANCH   1  35
TORSDOF 21
ENDMDL
