MODEL 1
REMARK VINA RESULT:     -11.4      0.000      0.000
REMARK SMILES NS(=O)(=O)c1ccc(-c2coc(=O)n2-c2ccc(C(=O)OCCOCCOCCOC(=O)c3ccc(-c4c5nc(c(-c6c(F)cccc6F)c6ccc([nH]6)c(-c6c(F)cccc6F)c6nc(c(-c7c(F)cccc7F)c7ccc4[nH]7)C=C6)C=C5)cc3)cc2)cc1
REMARK SMILES IDX 25 1 24 2 23 3 22 4 21 5 19 6 20 7 18 8 15 9 16 10 88 11
REMARK SMILES IDX 17 12 87 13 14 14 9 15 10 16 11 17 12 18 13 19 8 20 5 21
REMARK SMILES IDX 6 22 90 23 7 24 89 25 2 26 3 27 4 28 1 29 26 32 27 33 28 34
REMARK SMILES IDX 29 35 30 36 31 37 32 38 33 39 34 40 86 41 35 42 85 43 36 44
REMARK SMILES IDX 37 45 38 46 79 47 39 48 84 49 78 50 80 51 40 52 83 53 77 54
REMARK SMILES IDX 76 55 41 57 67 58 50 59 66 60 51 61 54 62 65 63 81 64 52 65
REMARK SMILES IDX 53 66 64 68 82 69 55 70 42 71 43 72 48 73 44 74 45 75 47 76
REMARK SMILES IDX 49 77 46 78 68 79 69 80 74 81 70 82 71 83 73 84 75 85 72 86
REMARK SMILES IDX 56 87 57 88 62 89 58 90 59 91 61 92 63 93 60 94
REMARK H PARENT 1 30 1 31 80 56 54 67
REMARK Flexibility Score: inf
ROOT
ATOM      1  C   UNL A   1      34.727  33.499  31.647  1.00  0.00     0.188 C 
ENDROOT
BRANCH   1   2
ATOM      2  O   UNL A   1      34.363  32.665  30.572  1.00  0.00    -0.376 OA
BRANCH   2   3
ATOM      3  C   UNL A   1      34.501  33.128  29.237  1.00  0.00     0.202 C 
BRANCH   3   4
ATOM      4  C   UNL A   1      34.744  32.227  28.004  1.00  0.00     0.261 C 
BRANCH   4   5
ATOM      5  O   UNL A   1      34.137  30.934  27.989  1.00  0.00    -0.460 OA
BRANCH   5   6
ATOM      6  C   UNL A   1      32.992  30.815  27.277  1.00  0.00     0.338 C 
ATOM      7  O   UNL A   1      32.268  31.720  26.897  1.00  0.00    -0.246 OA
BRANCH   6   8
ATOM      8  C   UNL A   1      32.843  29.411  26.837  1.00  0.00     0.060 A 
ATOM      9  C   UNL A   1      32.589  26.805  25.855  1.00  0.00     0.053 A 
ATOM     10  C   UNL A   1      33.732  27.550  25.554  1.00  0.00     0.028 A 
ATOM     11  C   UNL A   1      31.640  27.330  26.749  1.00  0.00     0.028 A 
ATOM     12  C   UNL A   1      33.840  28.864  26.017  1.00  0.00     0.018 A 
ATOM     13  C   UNL A   1      31.765  28.626  27.249  1.00  0.00     0.018 A 
BRANCH   9  14
ATOM     14  N   UNL A   1      32.297  25.635  25.119  1.00  0.00    -0.242 N 
ATOM     15  C   UNL A   1      31.358  25.505  24.129  1.00  0.00     0.095 A 
ATOM     16  C   UNL A   1      31.475  24.268  23.664  1.00  0.00     0.228 A 
ATOM     17  O   UNL A   1      32.471  23.517  24.288  1.00  0.00    -0.415 OA
ATOM     18  C   UNL A   1      33.006  24.439  25.189  1.00  0.00     0.424 A 
ATOM     19  O   UNL A   1      33.955  24.170  25.920  1.00  0.00    -0.223 OA
BRANCH  15  20
ATOM     20  C   UNL A   1      30.562  26.605  23.590  1.00  0.00     0.002 A 
ATOM     21  C   UNL A   1      29.156  28.892  22.810  1.00  0.00     0.082 A 
ATOM     22  C   UNL A   1      30.505  28.769  22.477  1.00  0.00     0.022 A 
ATOM     23  C   UNL A   1      28.497  27.871  23.502  1.00  0.00     0.022 A 
ATOM     24  C   UNL A   1      31.200  27.621  22.855  1.00  0.00     0.012 A 
ATOM     25  C   UNL A   1      29.201  26.726  23.887  1.00  0.00     0.012 A 
BRANCH  21  26
ATOM     26  S   UNL A   1      28.337  30.392  22.360  1.00  0.00     0.238 S 
ATOM     27  O   UNL A   1      29.335  31.404  22.136  1.00  0.00    -0.207 OA
ATOM     28  O   UNL A   1      27.211  30.577  23.252  1.00  0.00    -0.207 OA
BRANCH  26  29
ATOM     29  N   UNL A   1      27.657  30.078  20.855  1.00  0.00    -0.225 NA
ATOM     30  H   UNL A   1      28.072  29.232  20.464  1.00  0.00     0.137 HD
ATOM     31  H   UNL A   1      27.834  30.864  20.230  1.00  0.00     0.137 HD
ENDBRANCH  26  29
ENDBRANCH  21  26
ENDBRANCH  15  20
ENDBRANCH   9  14
ENDBRANCH   6   8
ENDBRANCH   5   6
ENDBRANCH   4   5
ENDBRANCH   3   4
ENDBRANCH   2   3
ENDBRANCH   1   2
BRANCH   1  32
ATOM     32  C   UNL A   1      35.352  32.765  32.853  1.00  0.00     0.188 C 
BRANCH  32  33
ATOM     33  O   UNL A   1      36.753  32.771  33.100  1.00  0.00    -0.376 OA
BRANCH  33  34
ATOM     34  C   UNL A   1      37.716  32.901  32.064  1.00  0.00     0.202 C 
BRANCH  34  35
ATOM     35  C   UNL A   1      38.236  31.709  31.264  1.00  0.00     0.261 C 
BRANCH  35  36
ATOM     36  O   UNL A   1      37.386  31.304  30.210  1.00  0.00    -0.460 OA
BRANCH  36  37
ATOM     37  C   UNL A   1      36.852  30.081  30.384  1.00  0.00     0.338 C 
ATOM     38  O   UNL A   1      35.903  29.779  31.088  1.00  0.00    -0.246 OA
BRANCH  37  39
ATOM     39  C   UNL A   1      37.644  29.107  29.630  1.00  0.00     0.060 A 
ATOM     40  C   UNL A   1      38.167  28.046  30.370  1.00  0.00     0.016 A 
ATOM     41  C   UNL A   1      38.124  29.452  28.359  1.00  0.00     0.016 A 
ATOM     42  C   UNL A   1      39.378  27.534  29.978  1.00  0.00     0.010 A 
ATOM     43  C   UNL A   1      39.338  28.947  27.972  1.00  0.00     0.010 A 
ATOM     44  C   UNL A   1      39.994  28.095  28.856  1.00  0.00    -0.014 A 
BRANCH  44  45
ATOM     45  C   UNL A   1      41.406  27.839  28.690  1.00  0.00     0.031 A 
ATOM     46  C   UNL A   1      41.718  26.573  28.004  1.00  0.00     0.074 A 
ATOM     47  C   UNL A   1      42.319  28.744  29.086  1.00  0.00     0.049 A 
ATOM     48  N   UNL A   1      42.352  25.548  28.468  1.00  0.00    -0.248 NA
ATOM     49  C   UNL A   1      41.129  26.378  26.672  1.00  0.00     0.031 C 
ATOM     50  C   UNL A   1      42.111  30.136  29.505  1.00  0.00     0.029 A 
ATOM     51  N   UNL A   1      43.669  28.623  29.097  1.00  0.00    -0.354 N 
ATOM     52  C   UNL A   1      42.393  24.636  27.421  1.00  0.00     0.074 A 
ATOM     53  C   UNL A   1      41.501  25.128  26.404  1.00  0.00     0.031 C 
ATOM     54  C   UNL A   1      43.299  30.782  29.500  1.00  0.00     0.029 A 
ATOM     55  C   UNL A   1      44.351  29.823  29.210  1.00  0.00     0.049 A 
ATOM     56  H   UNL A   1      44.127  27.753  29.030  1.00  0.00     0.167 HD
ATOM     57  C   UNL A   1      43.322  23.647  27.371  1.00  0.00     0.037 A 
ATOM     58  C   UNL A   1      45.674  30.000  28.977  1.00  0.00     0.037 A 
ATOM     59  C   UNL A   1      43.907  23.397  28.661  1.00  0.00     0.049 A 
ATOM     60  C   UNL A   1      46.320  28.660  29.029  1.00  0.00     0.074 A 
ATOM     61  C   UNL A   1      43.416  22.954  29.873  1.00  0.00     0.029 A 
ATOM     62  N   UNL A   1      45.133  23.950  28.934  1.00  0.00    -0.354 N 
ATOM     63  N   UNL A   1      46.448  27.954  30.117  1.00  0.00    -0.248 NA
ATOM     64  C   UNL A   1      46.415  27.908  27.785  1.00  0.00     0.031 C 
ATOM     65  C   UNL A   1      44.147  23.678  30.859  1.00  0.00     0.029 A 
ATOM     66  C   UNL A   1      45.063  24.493  30.192  1.00  0.00     0.049 A 
ATOM     67  H   UNL A   1      45.917  23.956  28.338  1.00  0.00     0.167 HD
ATOM     68  C   UNL A   1      46.232  26.640  29.721  1.00  0.00     0.074 A 
ATOM     69  C   UNL A   1      46.300  26.666  28.262  1.00  0.00     0.031 C 
ATOM     70  C   UNL A   1      45.739  25.708  30.588  1.00  0.00     0.037 A 
BRANCH  57  71
ATOM     71  C   UNL A   1      43.920  23.142  26.089  1.00  0.00     0.057 A 
ATOM     72  C   UNL A   1      43.820  21.779  25.767  1.00  0.00     0.134 A 
ATOM     73  C   UNL A   1      44.815  23.887  25.293  1.00  0.00     0.134 A 
ATOM     74  F   UNL A   1      43.023  20.962  26.471  1.00  0.00    -0.206 F 
ATOM     75  C   UNL A   1      44.591  21.194  24.757  1.00  0.00     0.040 A 
ATOM     76  C   UNL A   1      45.548  23.323  24.247  1.00  0.00     0.040 A 
ATOM     77  F   UNL A   1      45.105  25.170  25.547  1.00  0.00    -0.206 F 
ATOM     78  C   UNL A   1      45.460  21.965  23.994  1.00  0.00     0.006 A 
ENDBRANCH  57  71
BRANCH  58  79
ATOM     79  C   UNL A   1      46.326  31.174  28.358  1.00  0.00     0.057 A 
ATOM     80  C   UNL A   1      46.172  31.456  26.995  1.00  0.00     0.134 A 
ATOM     81  C   UNL A   1      46.899  32.196  29.138  1.00  0.00     0.134 A 
ATOM     82  F   UNL A   1      45.593  30.562  26.178  1.00  0.00    -0.206 F 
ATOM     83  C   UNL A   1      46.552  32.685  26.440  1.00  0.00     0.040 A 
ATOM     84  C   UNL A   1      47.290  33.424  28.598  1.00  0.00     0.040 A 
ATOM     85  F   UNL A   1      47.016  32.071  30.469  1.00  0.00    -0.206 F 
ATOM     86  C   UNL A   1      47.105  33.678  27.245  1.00  0.00     0.006 A 
ENDBRANCH  58  79
BRANCH  70  87
ATOM     87  C   UNL A   1      45.641  26.087  32.041  1.00  0.00     0.057 A 
ATOM     88  C   UNL A   1      44.480  26.611  32.629  1.00  0.00     0.134 A 
ATOM     89  C   UNL A   1      46.691  25.755  32.903  1.00  0.00     0.134 A 
ATOM     90  F   UNL A   1      43.387  26.861  31.898  1.00  0.00    -0.206 F 
ATOM     91  C   UNL A   1      44.383  26.832  34.007  1.00  0.00     0.040 A 
ATOM     92  C   UNL A   1      46.595  25.939  34.285  1.00  0.00     0.040 A 
ATOM     93  F   UNL A   1      47.810  25.192  32.422  1.00  0.00    -0.206 F 
ATOM     94  C   UNL A   1      45.442  26.487  34.841  1.00  0.00     0.006 A 
ENDBRANCH  70  87
ENDBRANCH  44  45
ENDBRANCH  37  39
ENDBRANCH  36  37
ENDBRANCH  35  36
ENDBRANCH  34  35
ENDBRANCH  33  34
ENDBRANCH  32  33
ENDBRANCH   1  32
TORSDOF 21
ENDMDL
MODEL 2
REMARK VINA RESULT:     -11.0      4.707      9.893
REMARK SMILES NS(=O)(=O)c1ccc(-c2coc(=O)n2-c2ccc(C(=O)OCCOCCOCCOC(=O)c3ccc(-c4c5nc(c(-c6c(F)cccc6F)c6ccc([nH]6)c(-c6c(F)cccc6F)c6nc(c(-c7c(F)cccc7F)c7ccc4[nH]7)C=C6)C=C5)cc3)cc2)cc1
REMARK SMILES IDX 25 1 24 2 23 3 22 4 21 5 19 6 20 7 18 8 15 9 16 10 88 11
REMARK SMILES IDX 17 12 87 13 14 14 9 15 10 16 11 17 12 18 13 19 8 20 5 21
REMARK SMILES IDX 6 22 90 23 7 24 89 25 2 26 3 27 4 28 1 29 26 32 27 33 28 34
REMARK SMILES IDX 29 35 30 36 31 37 32 38 33 39 34 40 86 41 35 42 85 43 36 44
REMARK SMILES IDX 37 45 38 46 79 47 39 48 84 49 78 50 80 51 40 52 83 53 77 54
REMARK SMILES IDX 76 55 41 57 67 58 50 59 66 60 51 61 54 62 65 63 81 64 52 65
REMARK SMILES IDX 53 66 64 68 82 69 55 70 42 71 43 72 48 73 44 74 45 75 47 76
REMARK SMILES IDX 49 77 46 78 68 79 69 80 74 81 70 82 71 83 73 84 75 85 72 86
REMARK SMILES IDX 56 87 57 88 62 89 58 90 59 91 61 92 63 93 60 94
REMARK H PARENT 1 30 1 31 80 56 54 67
REMARK Flexibility Score: inf
ROOT
ATOM      1  C   UNL A   1      33.034  35.516  31.610  1.00  0.00     0.188 C 
ENDROOT
BRANCH   1   2
ATOM      2  O   UNL A   1      34.251  35.785  32.264  1.00  0.00    -0.376 OA
BRANCH   2   3
ATOM      3  C   UNL A   1      34.402  35.471  33.641  1.00  0.00     0.202 C 
BRANCH   3   4
ATOM      4  C   UNL A   1      35.401  34.440  34.215  1.00  0.00     0.261 C 
BRANCH   4   5
ATOM      5  O   UNL A   1      35.202  33.063  33.891  1.00  0.00    -0.460 OA
BRANCH   5   6
ATOM      6  C   UNL A   1      35.460  32.702  32.612  1.00  0.00     0.338 C 
ATOM      7  O   UNL A   1      34.650  32.344  31.774  1.00  0.00    -0.246 OA
BRANCH   6   8
ATOM      8  C   UNL A   1      36.874  33.005  32.303  1.00  0.00     0.060 A 
ATOM      9  C   UNL A   1      39.583  33.550  31.871  1.00  0.00     0.053 A 
ATOM     10  C   UNL A   1      39.206  32.348  32.476  1.00  0.00     0.028 A 
ATOM     11  C   UNL A   1      38.590  34.413  31.376  1.00  0.00     0.028 A 
ATOM     12  C   UNL A   1      37.855  32.094  32.722  1.00  0.00     0.018 A 
ATOM     13  C   UNL A   1      37.237  34.143  31.581  1.00  0.00     0.018 A 
BRANCH   9  14
ATOM     14  N   UNL A   1      40.927  33.981  31.938  1.00  0.00    -0.242 N 
ATOM     15  C   UNL A   1      41.630  34.292  33.072  1.00  0.00     0.095 A 
ATOM     16  C   UNL A   1      42.866  34.571  32.679  1.00  0.00     0.228 A 
ATOM     17  O   UNL A   1      43.065  34.463  31.303  1.00  0.00    -0.415 OA
ATOM     18  C   UNL A   1      41.809  34.042  30.863  1.00  0.00     0.424 A 
ATOM     19  O   UNL A   1      41.575  33.792  29.684  1.00  0.00    -0.223 OA
BRANCH  15  20
ATOM     20  C   UNL A   1      41.127  34.124  34.433  1.00  0.00     0.002 A 
ATOM     21  C   UNL A   1      39.972  33.562  36.917  1.00  0.00     0.082 A 
ATOM     22  C   UNL A   1      41.014  32.763  36.447  1.00  0.00     0.022 A 
ATOM     23  C   UNL A   1      39.522  34.656  36.171  1.00  0.00     0.022 A 
ATOM     24  C   UNL A   1      41.597  33.054  35.216  1.00  0.00     0.012 A 
ATOM     25  C   UNL A   1      40.104  34.939  34.930  1.00  0.00     0.012 A 
BRANCH  21  26
ATOM     26  S   UNL A   1      39.227  33.114  38.456  1.00  0.00     0.238 S 
ATOM     27  O   UNL A   1      38.491  34.247  38.949  1.00  0.00    -0.207 OA
ATOM     28  O   UNL A   1      40.214  32.408  39.246  1.00  0.00    -0.207 OA
BRANCH  26  29
ATOM     29  N   UNL A   1      38.075  31.957  38.057  1.00  0.00    -0.225 NA
ATOM     30  H   UNL A   1      38.486  31.272  37.423  1.00  0.00     0.137 HD
ATOM     31  H   UNL A   1      37.282  32.409  37.601  1.00  0.00     0.137 HD
ENDBRANCH  26  29
ENDBRANCH  21  26
ENDBRANCH  15  20
ENDBRANCH   9  14
ENDBRANCH   6   8
ENDBRANCH   5   6
ENDBRANCH   4   5
ENDBRANCH   3   4
ENDBRANCH   2   3
ENDBRANCH   1   2
BRANCH   1  32
ATOM     32  C   UNL A   1      32.908  36.129  30.198  1.00  0.00     0.188 C 
BRANCH  32  33
ATOM     33  O   UNL A   1      32.912  35.330  29.022  1.00  0.00    -0.376 OA
BRANCH  33  34
ATOM     34  C   UNL A   1      34.039  34.566  28.616  1.00  0.00     0.202 C 
BRANCH  34  35
ATOM     35  C   UNL A   1      33.924  33.133  28.099  1.00  0.00     0.261 C 
BRANCH  35  36
ATOM     36  O   UNL A   1      35.138  32.592  27.620  1.00  0.00    -0.460 OA
BRANCH  36  37
ATOM     37  C   UNL A   1      35.253  31.265  27.814  1.00  0.00     0.338 C 
ATOM     38  O   UNL A   1      34.619  30.377  27.269  1.00  0.00    -0.246 OA
BRANCH  37  39
ATOM     39  C   UNL A   1      36.243  31.024  28.866  1.00  0.00     0.060 A 
ATOM     40  C   UNL A   1      37.412  31.781  28.787  1.00  0.00     0.016 A 
ATOM     41  C   UNL A   1      36.147  29.860  29.643  1.00  0.00     0.016 A 
ATOM     42  C   UNL A   1      38.575  31.203  29.226  1.00  0.00     0.010 A 
ATOM     43  C   UNL A   1      37.311  29.278  30.073  1.00  0.00     0.010 A 
ATOM     44  C   UNL A   1      38.508  29.904  29.740  1.00  0.00    -0.014 A 
BRANCH  44  45
ATOM     45  C   UNL A   1      39.748  29.169  29.823  1.00  0.00     0.031 A 
ATOM     46  C   UNL A   1      40.266  29.005  31.193  1.00  0.00     0.074 A 
ATOM     47  C   UNL A   1      40.310  28.642  28.720  1.00  0.00     0.049 A 
ATOM     48  N   UNL A   1      41.370  29.454  31.689  1.00  0.00    -0.248 NA
ATOM     49  C   UNL A   1      39.371  28.366  32.168  1.00  0.00     0.031 C 
ATOM     50  C   UNL A   1      39.736  28.501  27.376  1.00  0.00     0.029 A 
ATOM     51  N   UNL A   1      41.508  28.018  28.606  1.00  0.00    -0.354 N 
ATOM     52  C   UNL A   1      41.392  29.006  33.004  1.00  0.00     0.074 A 
ATOM     53  C   UNL A   1      40.081  28.482  33.288  1.00  0.00     0.031 C 
ATOM     54  C   UNL A   1      40.490  27.634  26.662  1.00  0.00     0.029 A 
ATOM     55  C   UNL A   1      41.657  27.273  27.448  1.00  0.00     0.049 A 
ATOM     56  H   UNL A   1      42.214  28.089  29.289  1.00  0.00     0.167 HD
ATOM     57  C   UNL A   1      42.551  28.901  33.704  1.00  0.00     0.037 A 
ATOM     58  C   UNL A   1      42.629  26.356  27.225  1.00  0.00     0.037 A 
ATOM     59  C   UNL A   1      43.602  29.690  33.120  1.00  0.00     0.049 A 
ATOM     60  C   UNL A   1      43.720  26.613  28.203  1.00  0.00     0.074 A 
ATOM     61  C   UNL A   1      43.788  31.041  32.904  1.00  0.00     0.029 A 
ATOM     62  N   UNL A   1      44.523  29.054  32.326  1.00  0.00    -0.354 N 
ATOM     63  N   UNL A   1      44.491  27.665  28.175  1.00  0.00    -0.248 NA
ATOM     64  C   UNL A   1      43.655  25.923  29.484  1.00  0.00     0.031 C 
ATOM     65  C   UNL A   1      44.474  31.128  31.658  1.00  0.00     0.029 A 
ATOM     66  C   UNL A   1      44.696  29.827  31.205  1.00  0.00     0.049 A 
ATOM     67  H   UNL A   1      44.976  28.202  32.523  1.00  0.00     0.167 HD
ATOM     68  C   UNL A   1      44.682  28.006  29.508  1.00  0.00     0.074 A 
ATOM     69  C   UNL A   1      44.213  26.850  30.268  1.00  0.00     0.031 C 
ATOM     70  C   UNL A   1      44.935  29.294  29.883  1.00  0.00     0.037 A 
BRANCH  57  71
ATOM     71  C   UNL A   1      42.802  27.828  34.724  1.00  0.00     0.057 A 
ATOM     72  C   UNL A   1      43.120  26.528  34.299  1.00  0.00     0.134 A 
ATOM     73  C   UNL A   1      42.485  27.956  36.092  1.00  0.00     0.134 A 
ATOM     74  F   UNL A   1      43.412  26.276  33.015  1.00  0.00    -0.206 F 
ATOM     75  C   UNL A   1      43.078  25.430  35.166  1.00  0.00     0.040 A 
ATOM     76  C   UNL A   1      42.494  26.875  36.977  1.00  0.00     0.040 A 
ATOM     77  F   UNL A   1      42.052  29.106  36.624  1.00  0.00    -0.206 F 
ATOM     78  C   UNL A   1      42.763  25.600  36.508  1.00  0.00     0.006 A 
ENDBRANCH  57  71
BRANCH  58  79
ATOM     79  C   UNL A   1      42.503  25.078  26.490  1.00  0.00     0.057 A 
ATOM     80  C   UNL A   1      43.305  24.800  25.376  1.00  0.00     0.134 A 
ATOM     81  C   UNL A   1      41.782  23.991  27.019  1.00  0.00     0.134 A 
ATOM     82  F   UNL A   1      44.066  25.760  24.830  1.00  0.00    -0.206 F 
ATOM     83  C   UNL A   1      43.396  23.513  24.826  1.00  0.00     0.040 A 
ATOM     84  C   UNL A   1      41.857  22.705  26.477  1.00  0.00     0.040 A 
ATOM     85  F   UNL A   1      41.049  24.120  28.134  1.00  0.00    -0.206 F 
ATOM     86  C   UNL A   1      42.677  22.459  25.383  1.00  0.00     0.006 A 
ENDBRANCH  58  79
BRANCH  70  87
ATOM     87  C   UNL A   1      45.218  30.296  28.797  1.00  0.00     0.057 A 
ATOM     88  C   UNL A   1      46.489  30.491  28.235  1.00  0.00     0.134 A 
ATOM     89  C   UNL A   1      44.149  30.959  28.187  1.00  0.00     0.134 A 
ATOM     90  F   UNL A   1      47.555  29.819  28.685  1.00  0.00    -0.206 F 
ATOM     91  C   UNL A   1      46.692  31.339  27.141  1.00  0.00     0.040 A 
ATOM     92  C   UNL A   1      44.332  31.783  27.073  1.00  0.00     0.040 A 
ATOM     93  F   UNL A   1      42.896  30.774  28.630  1.00  0.00    -0.206 F 
ATOM     94  C   UNL A   1      45.608  31.982  26.551  1.00  0.00     0.006 A 
ENDBRANCH  70  87
ENDBRANCH  44  45
ENDBRANCH  37  39
ENDBRANCH  36  37
ENDBRANCH  35  36
ENDBRANCH  34  35
ENDBRANCH  33  34
ENDBRANCH  32  33
ENDBRANCH   1  32
TORSDOF 21
ENDMDL
MODEL 3
REMARK VINA RESULT:     -10.2      4.164      9.090
REMARK SMILES NS(=O)(=O)c1ccc(-c2coc(=O)n2-c2ccc(C(=O)OCCOCCOCCOC(=O)c3ccc(-c4c5nc(c(-c6c(F)cccc6F)c6ccc([nH]6)c(-c6c(F)cccc6F)c6nc(c(-c7c(F)cccc7F)c7ccc4[nH]7)C=C6)C=C5)cc3)cc2)cc1
REMARK SMILES IDX 25 1 24 2 23 3 22 4 21 5 19 6 20 7 18 8 15 9 16 10 88 11
REMARK SMILES IDX 17 12 87 13 14 14 9 15 10 16 11 17 12 18 13 19 8 20 5 21
REMARK SMILES IDX 6 22 90 23 7 24 89 25 2 26 3 27 4 28 1 29 26 32 27 33 28 34
REMARK SMILES IDX 29 35 30 36 31 37 32 38 33 39 34 40 86 41 35 42 85 43 36 44
REMARK SMILES IDX 37 45 38 46 79 47 39 48 84 49 78 50 80 51 40 52 83 53 77 54
REMARK SMILES IDX 76 55 41 57 67 58 50 59 66 60 51 61 54 62 65 63 81 64 52 65
REMARK SMILES IDX 53 66 64 68 82 69 55 70 42 71 43 72 48 73 44 74 45 75 47 76
REMARK SMILES IDX 49 77 46 78 68 79 69 80 74 81 70 82 71 83 73 84 75 85 72 86
REMARK SMILES IDX 56 87 57 88 62 89 58 90 59 91 61 92 63 93 60 94
REMARK H PARENT 1 30 1 31 80 56 54 67
REMARK Flexibility Score: inf
ROOT
ATOM      1  C   UNL A   1      41.985  23.341  26.078  1.00  0.00     0.188 C 
ENDROOT
BRANCH   1   2
ATOM      2  O   UNL A   1      41.612  23.806  27.353  1.00  0.00    -0.376 OA
BRANCH   2   3
ATOM      3  C   UNL A   1      40.389  24.508  27.523  1.00  0.00     0.202 C 
BRANCH   3   4
ATOM      4  C   UNL A   1      39.210  24.498  26.523  1.00  0.00     0.261 C 
BRANCH   4   5
ATOM      5  O   UNL A   1      38.168  23.543  26.726  1.00  0.00    -0.460 OA
BRANCH   5   6
ATOM      6  C   UNL A   1      37.805  22.809  25.647  1.00  0.00     0.338 C 
ATOM      7  O   UNL A   1      38.252  21.725  25.315  1.00  0.00    -0.246 OA
BRANCH   6   8
ATOM      8  C   UNL A   1      36.616  23.428  25.023  1.00  0.00     0.060 A 
ATOM      9  C   UNL A   1      34.280  24.544  23.965  1.00  0.00     0.053 A 
ATOM     10  C   UNL A   1      34.652  24.834  25.280  1.00  0.00     0.028 A 
ATOM     11  C   UNL A   1      35.150  23.796  23.152  1.00  0.00     0.028 A 
ATOM     12  C   UNL A   1      35.800  24.247  25.817  1.00  0.00     0.018 A 
ATOM     13  C   UNL A   1      36.320  23.244  23.671  1.00  0.00     0.018 A 
BRANCH   9  14
ATOM     14  N   UNL A   1      32.967  24.827  23.525  1.00  0.00    -0.242 N 
ATOM     15  C   UNL A   1      31.947  23.926  23.365  1.00  0.00     0.095 A 
ATOM     16  C   UNL A   1      30.880  24.630  23.013  1.00  0.00     0.228 A 
ATOM     17  O   UNL A   1      31.107  26.002  22.923  1.00  0.00    -0.415 OA
ATOM     18  C   UNL A   1      32.448  26.098  23.299  1.00  0.00     0.424 A 
ATOM     19  O   UNL A   1      33.032  27.175  23.385  1.00  0.00    -0.223 OA
BRANCH  15  20
ATOM     20  C   UNL A   1      32.023  22.513  23.731  1.00  0.00     0.002 A 
ATOM     21  C   UNL A   1      32.489  19.862  24.486  1.00  0.00     0.082 A 
ATOM     22  C   UNL A   1      32.321  20.836  25.469  1.00  0.00     0.022 A 
ATOM     23  C   UNL A   1      32.397  20.194  23.130  1.00  0.00     0.022 A 
ATOM     24  C   UNL A   1      32.074  22.154  25.090  1.00  0.00     0.012 A 
ATOM     25  C   UNL A   1      32.159  21.520  22.755  1.00  0.00     0.012 A 
BRANCH  21  26
ATOM     26  S   UNL A   1      32.859  18.217  25.019  1.00  0.00     0.238 S 
ATOM     27  O   UNL A   1      34.210  17.910  24.634  1.00  0.00    -0.207 OA
ATOM     28  O   UNL A   1      31.731  17.371  24.687  1.00  0.00    -0.207 OA
BRANCH  26  29
ATOM     29  N   UNL A   1      32.866  18.300  26.698  1.00  0.00    -0.225 NA
ATOM     30  H   UNL A   1      33.560  17.649  27.067  1.00  0.00     0.137 HD
ATOM     31  H   UNL A   1      31.944  18.052  27.054  1.00  0.00     0.137 HD
ENDBRANCH  26  29
ENDBRANCH  21  26
ENDBRANCH  15  20
ENDBRANCH   9  14
ENDBRANCH   6   8
ENDBRANCH   5   6
ENDBRANCH   4   5
ENDBRANCH   3   4
ENDBRANCH   2   3
ENDBRANCH   1   2
BRANCH   1  32
ATOM     32  C   UNL A   1      42.993  22.171  26.085  1.00  0.00     0.188 C 
BRANCH  32  33
ATOM     33  O   UNL A   1      43.583  21.673  24.891  1.00  0.00    -0.376 OA
BRANCH  33  34
ATOM     34  C   UNL A   1      44.751  22.240  24.316  1.00  0.00     0.202 C 
BRANCH  34  35
ATOM     35  C   UNL A   1      45.436  23.480  24.887  1.00  0.00     0.261 C 
BRANCH  35  36
ATOM     36  O   UNL A   1      44.871  24.702  24.457  1.00  0.00    -0.460 OA
BRANCH  36  37
ATOM     37  C   UNL A   1      45.206  25.753  25.227  1.00  0.00     0.338 C 
ATOM     38  O   UNL A   1      46.280  26.330  25.270  1.00  0.00    -0.246 OA
BRANCH  37  39
ATOM     39  C   UNL A   1      44.074  26.085  26.096  1.00  0.00     0.060 A 
ATOM     40  C   UNL A   1      43.025  26.777  25.490  1.00  0.00     0.016 A 
ATOM     41  C   UNL A   1      44.240  26.027  27.487  1.00  0.00     0.016 A 
ATOM     42  C   UNL A   1      42.328  27.674  26.258  1.00  0.00     0.010 A 
ATOM     43  C   UNL A   1      43.550  26.931  28.253  1.00  0.00     0.010 A 
ATOM     44  C   UNL A   1      42.702  27.820  27.598  1.00  0.00    -0.014 A 
BRANCH  44  45
ATOM     45  C   UNL A   1      42.254  29.013  28.275  1.00  0.00     0.031 A 
ATOM     46  C   UNL A   1      43.173  30.159  28.160  1.00  0.00     0.074 A 
ATOM     47  C   UNL A   1      41.058  29.046  28.891  1.00  0.00     0.049 A 
ATOM     48  N   UNL A   1      43.812  30.769  29.102  1.00  0.00    -0.248 NA
ATOM     49  C   UNL A   1      43.524  30.594  26.801  1.00  0.00     0.031 C 
ATOM     50  C   UNL A   1      39.960  28.073  28.817  1.00  0.00     0.029 A 
ATOM     51  N   UNL A   1      40.533  30.039  29.650  1.00  0.00    -0.354 N 
ATOM     52  C   UNL A   1      44.520  31.784  28.469  1.00  0.00     0.074 A 
ATOM     53  C   UNL A   1      44.431  31.535  27.054  1.00  0.00     0.031 C 
ATOM     54  C   UNL A   1      38.834  28.639  29.309  1.00  0.00     0.029 A 
ATOM     55  C   UNL A   1      39.165  29.947  29.847  1.00  0.00     0.049 A 
ATOM     56  H   UNL A   1      41.079  30.765  30.031  1.00  0.00     0.167 HD
ATOM     57  C   UNL A   1      44.952  32.880  29.143  1.00  0.00     0.037 A 
ATOM     58  C   UNL A   1      38.373  30.935  30.328  1.00  0.00     0.037 A 
ATOM     59  C   UNL A   1      44.992  32.655  30.563  1.00  0.00     0.049 A 
ATOM     60  C   UNL A   1      39.254  31.923  31.009  1.00  0.00     0.074 A 
ATOM     61  C   UNL A   1      45.700  31.801  31.384  1.00  0.00     0.029 A 
ATOM     62  N   UNL A   1      43.950  33.126  31.323  1.00  0.00    -0.354 N 
ATOM     63  N   UNL A   1      39.895  31.685  32.120  1.00  0.00    -0.248 NA
ATOM     64  C   UNL A   1      39.781  33.021  30.210  1.00  0.00     0.031 C 
ATOM     65  C   UNL A   1      44.792  31.443  32.422  1.00  0.00     0.029 A 
ATOM     66  C   UNL A   1      43.596  32.125  32.192  1.00  0.00     0.049 A 
ATOM     67  H   UNL A   1      43.534  34.016  31.256  1.00  0.00     0.167 HD
ATOM     68  C   UNL A   1      41.124  32.314  31.967  1.00  0.00     0.074 A 
ATOM     69  C   UNL A   1      40.963  33.188  30.808  1.00  0.00     0.031 C 
ATOM     70  C   UNL A   1      42.239  31.861  32.613  1.00  0.00     0.037 A 
BRANCH  57  71
ATOM     71  C   UNL A   1      45.023  34.250  28.529  1.00  0.00     0.057 A 
ATOM     72  C   UNL A   1      43.841  34.892  28.128  1.00  0.00     0.134 A 
ATOM     73  C   UNL A   1      46.218  34.844  28.074  1.00  0.00     0.134 A 
ATOM     74  F   UNL A   1      42.641  34.404  28.474  1.00  0.00    -0.206 F 
ATOM     75  C   UNL A   1      43.849  36.017  27.296  1.00  0.00     0.040 A 
ATOM     76  C   UNL A   1      46.239  35.999  27.289  1.00  0.00     0.040 A 
ATOM     77  F   UNL A   1      47.419  34.288  28.276  1.00  0.00    -0.206 F 
ATOM     78  C   UNL A   1      45.050  36.573  26.872  1.00  0.00     0.006 A 
ENDBRANCH  57  71
BRANCH  58  79
ATOM     79  C   UNL A   1      36.989  31.254  29.917  1.00  0.00     0.057 A 
ATOM     80  C   UNL A   1      36.062  31.772  30.831  1.00  0.00     0.134 A 
ATOM     81  C   UNL A   1      36.615  31.308  28.561  1.00  0.00     0.134 A 
ATOM     82  F   UNL A   1      36.346  31.807  32.141  1.00  0.00    -0.206 F 
ATOM     83  C   UNL A   1      34.840  32.324  30.420  1.00  0.00     0.040 A 
ATOM     84  C   UNL A   1      35.398  31.849  28.138  1.00  0.00     0.040 A 
ATOM     85  F   UNL A   1      37.458  30.920  27.593  1.00  0.00    -0.206 F 
ATOM     86  C   UNL A   1      34.509  32.372  29.068  1.00  0.00     0.006 A 
ENDBRANCH  58  79
BRANCH  70  87
ATOM     87  C   UNL A   1      42.057  30.798  33.662  1.00  0.00     0.057 A 
ATOM     88  C   UNL A   1      41.745  31.077  35.001  1.00  0.00     0.134 A 
ATOM     89  C   UNL A   1      42.028  29.456  33.274  1.00  0.00     0.134 A 
ATOM     90  F   UNL A   1      41.646  32.338  35.441  1.00  0.00    -0.206 F 
ATOM     91  C   UNL A   1      41.458  30.063  35.921  1.00  0.00     0.040 A 
ATOM     92  C   UNL A   1      41.710  28.435  34.174  1.00  0.00     0.040 A 
ATOM     93  F   UNL A   1      42.256  29.116  31.995  1.00  0.00    -0.206 F 
ATOM     94  C   UNL A   1      41.432  28.736  35.505  1.00  0.00     0.006 A 
ENDBRANCH  70  87
ENDBRANCH  44  45
ENDBRANCH  37  39
ENDBRANCH  36  37
ENDBRANCH  35  36
ENDBRANCH  34  35
ENDBRANCH  33  34
ENDBRANCH  32  33
ENDBRANCH   1  32
TORSDOF 21
ENDMDL
