MODEL 1
REMARK VINA RESULT:     -10.5      0.000      0.000
REMARK SMILES COc1cc([N+](=O)[O-])cc([C@H]2[NH2+][C@H](C(=O)OCCOCCOCCOC(=O)c3ccc(-c4c5nc(c(-c6c(F)cccc6F)c6ccc([nH]6)c(-c6c(F)cccc6F)c6nc(c(-c7c(F)cccc7F)c7ccc4[nH]7)C=C6)C=C5)cc3)CS2)c1O
REMARK SMILES IDX 20 1 19 2 18 3 17 4 16 5 14 6 15 7 13 8 11 9 12 10 83 11
REMARK SMILES IDX 82 14 10 15 3 16 4 17 84 18 5 19 9 20 2 21 1 22 85 23 6 25
REMARK SMILES IDX 7 26 8 27 21 28 22 29 23 30 24 31 25 32 26 33 27 34 28 35
REMARK SMILES IDX 29 36 81 37 30 38 80 39 31 40 32 41 33 42 74 43 34 44 79 45
REMARK SMILES IDX 73 46 75 47 35 48 78 49 72 50 71 51 36 53 62 54 45 55 61 56
REMARK SMILES IDX 46 57 49 58 60 59 76 60 47 61 48 62 59 64 77 65 50 66 37 67
REMARK SMILES IDX 38 68 43 69 39 70 40 71 42 72 44 73 41 74 63 75 64 76 69 77
REMARK SMILES IDX 65 78 66 79 68 80 70 81 67 82 51 83 52 84 57 85 53 86 54 87
REMARK SMILES IDX 56 88 58 89 55 90
REMARK H PARENT 12 12 12 13 85 24 75 52 49 63
REMARK Flexibility Score: inf
ROOT
ATOM      1  C   UNL A   1      39.478  21.709  26.126  1.00  0.00     0.188 C 
ENDROOT
BRANCH   1   2
ATOM      2  O   UNL A   1      38.428  21.082  25.397  1.00  0.00    -0.376 OA
BRANCH   2   3
ATOM      3  C   UNL A   1      37.126  21.650  25.429  1.00  0.00     0.202 C 
BRANCH   3   4
ATOM      4  C   UNL A   1      35.922  20.705  25.307  1.00  0.00     0.261 C 
BRANCH   4   5
ATOM      5  O   UNL A   1      34.879  21.140  24.408  1.00  0.00    -0.459 OA
BRANCH   5   6
ATOM      6  C   UNL A   1      33.689  20.499  24.533  1.00  0.00     0.365 C 
ATOM      7  O   UNL A   1      33.577  19.326  24.886  1.00  0.00    -0.245 OA
BRANCH   6   8
ATOM      8  C   UNL A   1      32.434  21.327  24.222  1.00  0.00     0.304 C 
ATOM      9  C   UNL A   1      32.936  23.679  24.159  1.00  0.00     0.278 C 
ATOM     10  N   UNL A   1      32.237  22.630  24.916  1.00  0.00    -0.319 N 
ATOM     11  S   UNL A   1      32.977  23.196  22.420  1.00  0.00    -0.087 SA
ATOM     12  H   UNL A   1      31.241  22.846  24.964  1.00  0.00     0.348 HD
ATOM     13  H   UNL A   1      32.610  22.578  25.864  1.00  0.00     0.348 HD
ATOM     14  C   UNL A   1      32.317  21.539  22.721  1.00  0.00     0.153 C 
BRANCH   9  15
ATOM     15  C   UNL A   1      32.389  25.067  24.513  1.00  0.00     0.073 A 
ATOM     16  C   UNL A   1      31.370  26.778  25.970  1.00  0.00     0.167 A 
ATOM     17  C   UNL A   1      31.485  27.730  24.954  1.00  0.00     0.136 A 
ATOM     18  C   UNL A   1      31.875  25.476  25.763  1.00  0.00     0.168 A 
ATOM     19  C   UNL A   1      32.085  27.380  23.744  1.00  0.00     0.273 A 
ATOM     20  C   UNL A   1      32.517  26.064  23.516  1.00  0.00     0.100 A 
BRANCH  16  21
ATOM     21  O   UNL A   1      30.844  27.287  27.128  1.00  0.00    -0.493 OA
ATOM     22  C   UNL A   1      31.600  28.250  27.857  1.00  0.00     0.278 C 
ENDBRANCH  16  21
BRANCH  18  23
ATOM     23  O   UNL A   1      31.987  24.618  26.820  1.00  0.00    -0.504 OA
ATOM     24  H   UNL A   1      31.471  24.753  27.591  1.00  0.00     0.293 HD
ENDBRANCH  18  23
BRANCH  19  25
ATOM     25  N   UNL A   1      32.296  28.407  22.714  1.00  0.00     0.062 N 
ATOM     26  O   UNL A   1      31.329  29.115  22.398  1.00  0.00    -0.258 OA
ATOM     27  O   UNL A   1      33.431  28.508  22.229  1.00  0.00    -0.258 OA
ENDBRANCH  19  25
ENDBRANCH   9  15
ENDBRANCH   6   8
ENDBRANCH   5   6
ENDBRANCH   4   5
ENDBRANCH   3   4
ENDBRANCH   2   3
ENDBRANCH   1   2
BRANCH   1  28
ATOM     28  C   UNL A   1      40.745  20.916  26.508  1.00  0.00     0.188 C 
BRANCH  28  29
ATOM     29  O   UNL A   1      41.946  21.660  26.443  1.00  0.00    -0.376 OA
BRANCH  29  30
ATOM     30  C   UNL A   1      43.055  21.007  25.849  1.00  0.00     0.202 C 
BRANCH  30  31
ATOM     31  C   UNL A   1      43.991  21.915  25.037  1.00  0.00     0.261 C 
BRANCH  31  32
ATOM     32  O   UNL A   1      43.455  23.205  24.693  1.00  0.00    -0.460 OA
BRANCH  32  33
ATOM     33  C   UNL A   1      44.208  24.278  25.008  1.00  0.00     0.338 C 
ATOM     34  O   UNL A   1      45.321  24.551  24.574  1.00  0.00    -0.246 OA
BRANCH  33  35
ATOM     35  C   UNL A   1      43.403  25.198  25.837  1.00  0.00     0.060 A 
ATOM     36  C   UNL A   1      43.906  26.480  26.097  1.00  0.00     0.016 A 
ATOM     37  C   UNL A   1      42.185  24.792  26.388  1.00  0.00     0.016 A 
ATOM     38  C   UNL A   1      43.219  27.339  26.956  1.00  0.00     0.010 A 
ATOM     39  C   UNL A   1      41.507  25.648  27.265  1.00  0.00     0.010 A 
ATOM     40  C   UNL A   1      42.046  26.906  27.589  1.00  0.00    -0.014 A 
BRANCH  40  41
ATOM     41  C   UNL A   1      41.535  27.670  28.757  1.00  0.00     0.031 A 
ATOM     42  C   UNL A   1      42.266  27.534  30.069  1.00  0.00     0.074 A 
ATOM     43  C   UNL A   1      40.491  28.512  28.658  1.00  0.00     0.049 A 
ATOM     44  N   UNL A   1      42.034  28.117  31.218  1.00  0.00    -0.248 NA
ATOM     45  C   UNL A   1      43.415  26.614  30.082  1.00  0.00     0.031 C 
ATOM     46  C   UNL A   1      39.716  28.761  27.445  1.00  0.00     0.029 A 
ATOM     47  N   UNL A   1      39.906  29.315  29.606  1.00  0.00    -0.354 N 
ATOM     48  C   UNL A   1      43.007  27.636  32.087  1.00  0.00     0.074 A 
ATOM     49  C   UNL A   1      43.808  26.687  31.344  1.00  0.00     0.031 C 
ATOM     50  C   UNL A   1      38.749  29.655  27.725  1.00  0.00     0.029 A 
ATOM     51  C   UNL A   1      38.827  30.025  29.137  1.00  0.00     0.049 A 
ATOM     52  H   UNL A   1      40.228  29.375  30.534  1.00  0.00     0.167 HD
ATOM     53  C   UNL A   1      43.226  27.962  33.381  1.00  0.00     0.037 A 
ATOM     54  C   UNL A   1      37.996  30.868  29.781  1.00  0.00     0.037 A 
ATOM     55  C   UNL A   1      42.432  28.901  34.129  1.00  0.00     0.049 A 
ATOM     56  C   UNL A   1      38.225  31.173  31.240  1.00  0.00     0.074 A 
ATOM     57  C   UNL A   1      42.583  29.303  35.444  1.00  0.00     0.029 A 
ATOM     58  N   UNL A   1      41.334  29.579  33.625  1.00  0.00    -0.354 N 
ATOM     59  N   UNL A   1      39.168  30.738  32.042  1.00  0.00    -0.248 NA
ATOM     60  C   UNL A   1      37.276  32.097  31.880  1.00  0.00     0.031 C 
ATOM     61  C   UNL A   1      41.546  30.192  35.750  1.00  0.00     0.029 A 
ATOM     62  C   UNL A   1      40.784  30.383  34.610  1.00  0.00     0.049 A 
ATOM     63  H   UNL A   1      40.994  29.499  32.704  1.00  0.00     0.167 HD
ATOM     64  C   UNL A   1      38.945  31.359  33.265  1.00  0.00     0.074 A 
ATOM     65  C   UNL A   1      37.789  32.213  33.097  1.00  0.00     0.031 C 
ATOM     66  C   UNL A   1      39.637  31.236  34.426  1.00  0.00     0.037 A 
BRANCH  53  67
ATOM     67  C   UNL A   1      44.363  27.275  34.079  1.00  0.00     0.057 A 
ATOM     68  C   UNL A   1      44.195  26.049  34.738  1.00  0.00     0.134 A 
ATOM     69  C   UNL A   1      45.646  27.837  34.078  1.00  0.00     0.134 A 
ATOM     70  F   UNL A   1      42.987  25.466  34.791  1.00  0.00    -0.206 F 
ATOM     71  C   UNL A   1      45.256  25.420  35.389  1.00  0.00     0.040 A 
ATOM     72  C   UNL A   1      46.720  27.204  34.703  1.00  0.00     0.040 A 
ATOM     73  F   UNL A   1      45.874  29.009  33.465  1.00  0.00    -0.206 F 
ATOM     74  C   UNL A   1      46.525  25.995  35.367  1.00  0.00     0.006 A 
ENDBRANCH  53  67
BRANCH  54  75
ATOM     75  C   UNL A   1      36.858  31.494  29.060  1.00  0.00     0.057 A 
ATOM     76  C   UNL A   1      36.902  32.831  28.649  1.00  0.00     0.134 A 
ATOM     77  C   UNL A   1      35.677  30.782  28.810  1.00  0.00     0.134 A 
ATOM     78  F   UNL A   1      37.993  33.574  28.886  1.00  0.00    -0.206 F 
ATOM     79  C   UNL A   1      35.808  33.446  28.038  1.00  0.00     0.040 A 
ATOM     80  C   UNL A   1      34.585  31.376  28.174  1.00  0.00     0.040 A 
ATOM     81  F   UNL A   1      35.570  29.499  29.181  1.00  0.00    -0.206 F 
ATOM     82  C   UNL A   1      34.646  32.717  27.796  1.00  0.00     0.006 A 
ENDBRANCH  54  75
BRANCH  66  83
ATOM     83  C   UNL A   1      39.189  32.076  35.588  1.00  0.00     0.057 A 
ATOM     84  C   UNL A   1      38.323  31.583  36.573  1.00  0.00     0.134 A 
ATOM     85  C   UNL A   1      39.647  33.392  35.733  1.00  0.00     0.134 A 
ATOM     86  F   UNL A   1      37.839  30.335  36.490  1.00  0.00    -0.206 F 
ATOM     87  C   UNL A   1      37.902  32.380  37.640  1.00  0.00     0.040 A 
ATOM     88  C   UNL A   1      39.258  34.188  36.811  1.00  0.00     0.040 A 
ATOM     89  F   UNL A   1      40.489  33.924  34.834  1.00  0.00    -0.206 F 
ATOM     90  C   UNL A   1      38.374  33.685  37.763  1.00  0.00     0.006 A 
ENDBRANCH  66  83
ENDBRANCH  40  41
ENDBRANCH  33  35
ENDBRANCH  32  33
ENDBRANCH  31  32
ENDBRANCH  30  31
ENDBRANCH  29  30
ENDBRANCH  28  29
ENDBRANCH   1  28
TORSDOF 21
ENDMDL
MODEL 2
REMARK VINA RESULT:     -10.3      2.967      9.069
REMARK SMILES COc1cc([N+](=O)[O-])cc([C@H]2[NH2+][C@H](C(=O)OCCOCCOCCOC(=O)c3ccc(-c4c5nc(c(-c6c(F)cccc6F)c6ccc([nH]6)c(-c6c(F)cccc6F)c6nc(c(-c7c(F)cccc7F)c7ccc4[nH]7)C=C6)C=C5)cc3)CS2)c1O
REMARK SMILES IDX 20 1 19 2 18 3 17 4 16 5 14 6 15 7 13 8 11 9 12 10 83 11
REMARK SMILES IDX 82 14 10 15 3 16 4 17 84 18 5 19 9 20 2 21 1 22 85 23 6 25
REMARK SMILES IDX 7 26 8 27 21 28 22 29 23 30 24 31 25 32 26 33 27 34 28 35
REMARK SMILES IDX 29 36 81 37 30 38 80 39 31 40 32 41 33 42 74 43 34 44 79 45
REMARK SMILES IDX 73 46 75 47 35 48 78 49 72 50 71 51 36 53 62 54 45 55 61 56
REMARK SMILES IDX 46 57 49 58 60 59 76 60 47 61 48 62 59 64 77 65 50 66 37 67
REMARK SMILES IDX 38 68 43 69 39 70 40 71 42 72 44 73 41 74 63 75 64 76 69 77
REMARK SMILES IDX 65 78 66 79 68 80 70 81 67 82 51 83 52 84 57 85 53 86 54 87
REMARK SMILES IDX 56 88 58 89 55 90
REMARK H PARENT 12 12 12 13 85 24 75 52 49 63
REMARK Flexibility Score: inf
ROOT
ATOM      1  C   UNL A   1      35.162  31.962  27.844  1.00  0.00     0.188 C 
ENDROOT
BRANCH   1   2
ATOM      2  O   UNL A   1      34.962  30.558  27.729  1.00  0.00    -0.376 OA
BRANCH   2   3
ATOM      3  C   UNL A   1      33.714  30.071  27.256  1.00  0.00     0.202 C 
BRANCH   3   4
ATOM      4  C   UNL A   1      33.723  28.884  26.282  1.00  0.00     0.261 C 
BRANCH   4   5
ATOM      5  O   UNL A   1      33.455  27.594  26.873  1.00  0.00    -0.459 OA
BRANCH   5   6
ATOM      6  C   UNL A   1      32.216  27.088  26.644  1.00  0.00     0.365 C 
ATOM      7  O   UNL A   1      31.210  27.436  27.262  1.00  0.00    -0.245 OA
BRANCH   6   8
ATOM      8  C   UNL A   1      32.106  26.035  25.533  1.00  0.00     0.304 C 
ATOM      9  C   UNL A   1      32.905  23.892  26.279  1.00  0.00     0.278 C 
ATOM     10  N   UNL A   1      33.190  25.024  25.384  1.00  0.00    -0.319 N 
ATOM     11  S   UNL A   1      31.117  23.769  26.492  1.00  0.00    -0.087 SA
ATOM     12  H   UNL A   1      33.225  24.698  24.419  1.00  0.00     0.348 HD
ATOM     13  H   UNL A   1      34.089  25.441  25.626  1.00  0.00     0.348 HD
ATOM     14  C   UNL A   1      30.768  25.320  25.631  1.00  0.00     0.153 C 
BRANCH   9  15
ATOM     15  C   UNL A   1      33.671  22.639  25.839  1.00  0.00     0.073 A 
ATOM     16  C   UNL A   1      35.664  21.222  25.505  1.00  0.00     0.167 A 
ATOM     17  C   UNL A   1      34.864  20.195  25.000  1.00  0.00     0.136 A 
ATOM     18  C   UNL A   1      35.058  22.408  25.975  1.00  0.00     0.168 A 
ATOM     19  C   UNL A   1      33.479  20.357  24.951  1.00  0.00     0.273 A 
ATOM     20  C   UNL A   1      32.889  21.567  25.348  1.00  0.00     0.100 A 
BRANCH  16  21
ATOM     21  O   UNL A   1      36.991  20.889  25.575  1.00  0.00    -0.493 OA
ATOM     22  C   UNL A   1      37.512  19.959  24.629  1.00  0.00     0.278 C 
ENDBRANCH  16  21
BRANCH  18  23
ATOM     23  O   UNL A   1      35.797  23.310  26.687  1.00  0.00    -0.504 OA
ATOM     24  H   UNL A   1      35.389  23.824  27.358  1.00  0.00     0.293 HD
ENDBRANCH  18  23
BRANCH  19  25
ATOM     25  N   UNL A   1      32.633  19.239  24.513  1.00  0.00     0.062 N 
ATOM     26  O   UNL A   1      32.155  18.500  25.386  1.00  0.00    -0.258 OA
ATOM     27  O   UNL A   1      32.442  19.107  23.297  1.00  0.00    -0.258 OA
ENDBRANCH  19  25
ENDBRANCH   9  15
ENDBRANCH   6   8
ENDBRANCH   5   6
ENDBRANCH   4   5
ENDBRANCH   3   4
ENDBRANCH   2   3
ENDBRANCH   1   2
BRANCH   1  28
ATOM     28  C   UNL A   1      34.146  32.835  28.610  1.00  0.00     0.188 C 
BRANCH  28  29
ATOM     29  O   UNL A   1      34.654  34.079  29.052  1.00  0.00    -0.376 OA
BRANCH  29  30
ATOM     30  C   UNL A   1      34.064  35.235  28.480  1.00  0.00     0.202 C 
BRANCH  30  31
ATOM     31  C   UNL A   1      33.032  35.950  29.366  1.00  0.00     0.261 C 
BRANCH  31  32
ATOM     32  O   UNL A   1      32.522  35.176  30.468  1.00  0.00    -0.460 OA
BRANCH  32  33
ATOM     33  C   UNL A   1      32.687  35.696  31.700  1.00  0.00     0.338 C 
ATOM     34  O   UNL A   1      31.943  36.483  32.274  1.00  0.00    -0.246 OA
BRANCH  33  35
ATOM     35  C   UNL A   1      33.829  35.023  32.352  1.00  0.00     0.060 A 
ATOM     36  C   UNL A   1      35.060  35.691  32.404  1.00  0.00     0.016 A 
ATOM     37  C   UNL A   1      33.704  33.732  32.869  1.00  0.00     0.016 A 
ATOM     38  C   UNL A   1      36.184  35.047  32.922  1.00  0.00     0.010 A 
ATOM     39  C   UNL A   1      34.837  33.079  33.372  1.00  0.00     0.010 A 
ATOM     40  C   UNL A   1      36.091  33.717  33.356  1.00  0.00    -0.014 A 
BRANCH  40  41
ATOM     41  C   UNL A   1      37.339  32.937  33.556  1.00  0.00     0.031 A 
ATOM     42  C   UNL A   1      38.132  33.177  34.816  1.00  0.00     0.074 A 
ATOM     43  C   UNL A   1      37.740  31.996  32.684  1.00  0.00     0.049 A 
ATOM     44  N   UNL A   1      39.233  32.605  35.232  1.00  0.00    -0.248 NA
ATOM     45  C   UNL A   1      37.607  34.205  35.731  1.00  0.00     0.031 C 
ATOM     46  C   UNL A   1      37.053  31.640  31.445  1.00  0.00     0.029 A 
ATOM     47  N   UNL A   1      38.833  31.164  32.716  1.00  0.00    -0.354 N 
ATOM     48  C   UNL A   1      39.529  33.200  36.453  1.00  0.00     0.074 A 
ATOM     49  C   UNL A   1      38.515  34.203  36.693  1.00  0.00     0.031 C 
ATOM     50  C   UNL A   1      37.746  30.665  30.829  1.00  0.00     0.029 A 
ATOM     51  C   UNL A   1      38.932  30.340  31.621  1.00  0.00     0.049 A 
ATOM     52  H   UNL A   1      39.484  31.159  33.454  1.00  0.00     0.167 HD
ATOM     53  C   UNL A   1      40.545  32.930  37.305  1.00  0.00     0.037 A 
ATOM     54  C   UNL A   1      39.878  29.437  31.296  1.00  0.00     0.037 A 
ATOM     55  C   UNL A   1      41.560  31.937  37.072  1.00  0.00     0.049 A 
ATOM     56  C   UNL A   1      41.032  29.194  32.235  1.00  0.00     0.074 A 
ATOM     57  C   UNL A   1      42.626  31.586  37.883  1.00  0.00     0.029 A 
ATOM     58  N   UNL A   1      41.639  31.143  35.939  1.00  0.00    -0.354 N 
ATOM     59  N   UNL A   1      41.283  29.738  33.402  1.00  0.00    -0.248 NA
ATOM     60  C   UNL A   1      42.030  28.198  31.814  1.00  0.00     0.031 C 
ATOM     61  C   UNL A   1      43.374  30.608  37.219  1.00  0.00     0.029 A 
ATOM     62  C   UNL A   1      42.746  30.315  36.020  1.00  0.00     0.049 A 
ATOM     63  H   UNL A   1      41.003  31.166  35.188  1.00  0.00     0.167 HD
ATOM     64  C   UNL A   1      42.444  29.130  33.865  1.00  0.00     0.074 A 
ATOM     65  C   UNL A   1      42.839  28.164  32.862  1.00  0.00     0.031 C 
ATOM     66  C   UNL A   1      43.123  29.350  35.019  1.00  0.00     0.037 A 
BRANCH  53  67
ATOM     67  C   UNL A   1      40.617  33.743  38.565  1.00  0.00     0.057 A 
ATOM     68  C   UNL A   1      41.442  34.870  38.672  1.00  0.00     0.134 A 
ATOM     69  C   UNL A   1      39.839  33.403  39.679  1.00  0.00     0.134 A 
ATOM     70  F   UNL A   1      42.226  35.239  37.646  1.00  0.00    -0.206 F 
ATOM     71  C   UNL A   1      41.508  35.617  39.849  1.00  0.00     0.040 A 
ATOM     72  C   UNL A   1      39.877  34.157  40.852  1.00  0.00     0.040 A 
ATOM     73  F   UNL A   1      39.028  32.335  39.642  1.00  0.00    -0.206 F 
ATOM     74  C   UNL A   1      40.718  35.264  40.941  1.00  0.00     0.006 A 
ENDBRANCH  53  67
BRANCH  54  75
ATOM     75  C   UNL A   1      39.787  28.685  30.018  1.00  0.00     0.057 A 
ATOM     76  C   UNL A   1      39.120  27.456  29.941  1.00  0.00     0.134 A 
ATOM     77  C   UNL A   1      40.409  29.154  28.854  1.00  0.00     0.134 A 
ATOM     78  F   UNL A   1      38.529  26.941  31.028  1.00  0.00    -0.206 F 
ATOM     79  C   UNL A   1      39.095  26.709  28.761  1.00  0.00     0.040 A 
ATOM     80  C   UNL A   1      40.369  28.430  27.660  1.00  0.00     0.040 A 
ATOM     81  F   UNL A   1      41.067  30.322  28.862  1.00  0.00    -0.206 F 
ATOM     82  C   UNL A   1      39.718  27.198  27.616  1.00  0.00     0.006 A 
ENDBRANCH  54  75
BRANCH  66  83
ATOM     83  C   UNL A   1      44.335  28.500  35.279  1.00  0.00     0.057 A 
ATOM     84  C   UNL A   1      44.252  27.268  35.940  1.00  0.00     0.134 A 
ATOM     85  C   UNL A   1      45.600  28.914  34.843  1.00  0.00     0.134 A 
ATOM     86  F   UNL A   1      43.072  26.817  36.393  1.00  0.00    -0.206 F 
ATOM     87  C   UNL A   1      45.388  26.495  36.189  1.00  0.00     0.040 A 
ATOM     88  C   UNL A   1      46.738  28.136  35.058  1.00  0.00     0.040 A 
ATOM     89  F   UNL A   1      45.750  30.077  34.191  1.00  0.00    -0.206 F 
ATOM     90  C   UNL A   1      46.636  26.927  35.743  1.00  0.00     0.006 A 
ENDBRANCH  66  83
ENDBRANCH  40  41
ENDBRANCH  33  35
ENDBRANCH  32  33
ENDBRANCH  31  32
ENDBRANCH  30  31
ENDBRANCH  29  30
ENDBRANCH  28  29
ENDBRANCH   1  28
TORSDOF 21
ENDMDL
MODEL 3
REMARK VINA RESULT:     -10.0      2.933      8.936
REMARK SMILES COc1cc([N+](=O)[O-])cc([C@H]2[NH2+][C@H](C(=O)OCCOCCOCCOC(=O)c3ccc(-c4c5nc(c(-c6c(F)cccc6F)c6ccc([nH]6)c(-c6c(F)cccc6F)c6nc(c(-c7c(F)cccc7F)c7ccc4[nH]7)C=C6)C=C5)cc3)CS2)c1O
REMARK SMILES IDX 20 1 19 2 18 3 17 4 16 5 14 6 15 7 13 8 11 9 12 10 83 11
REMARK SMILES IDX 82 14 10 15 3 16 4 17 84 18 5 19 9 20 2 21 1 22 85 23 6 25
REMARK SMILES IDX 7 26 8 27 21 28 22 29 23 30 24 31 25 32 26 33 27 34 28 35
REMARK SMILES IDX 29 36 81 37 30 38 80 39 31 40 32 41 33 42 74 43 34 44 79 45
REMARK SMILES IDX 73 46 75 47 35 48 78 49 72 50 71 51 36 53 62 54 45 55 61 56
REMARK SMILES IDX 46 57 49 58 60 59 76 60 47 61 48 62 59 64 77 65 50 66 37 67
REMARK SMILES IDX 38 68 43 69 39 70 40 71 42 72 44 73 41 74 63 75 64 76 69 77
REMARK SMILES IDX 65 78 66 79 68 80 70 81 67 82 51 83 52 84 57 85 53 86 54 87
REMARK SMILES IDX 56 88 58 89 55 90
REMARK H PARENT 12 12 12 13 85 24 75 52 49 63
REMARK Flexibility Score: inf
ROOT
ATOM      1  C   UNL A   1      33.562  32.351  27.711  1.00  0.00     0.188 C 
ENDROOT
BRANCH   1   2
ATOM      2  O   UNL A   1      33.695  30.946  27.890  1.00  0.00    -0.376 OA
BRANCH   2   3
ATOM      3  C   UNL A   1      33.201  30.069  26.886  1.00  0.00     0.202 C 
BRANCH   3   4
ATOM      4  C   UNL A   1      32.051  29.121  27.257  1.00  0.00     0.261 C 
BRANCH   4   5
ATOM      5  O   UNL A   1      31.381  28.493  26.143  1.00  0.00    -0.459 OA
BRANCH   5   6
ATOM      6  C   UNL A   1      31.379  27.135  26.147  1.00  0.00     0.365 C 
ATOM      7  O   UNL A   1      30.656  26.453  26.873  1.00  0.00    -0.245 OA
BRANCH   6   8
ATOM      8  C   UNL A   1      32.339  26.451  25.164  1.00  0.00     0.304 C 
ATOM      9  C   UNL A   1      32.167  24.055  25.300  1.00  0.00     0.278 C 
ATOM     10  N   UNL A   1      33.039  25.205  25.584  1.00  0.00    -0.319 N 
ATOM     11  S   UNL A   1      31.116  24.471  23.893  1.00  0.00    -0.087 SA
ATOM     12  H   UNL A   1      33.912  25.110  25.066  1.00  0.00     0.348 HD
ATOM     13  H   UNL A   1      33.249  25.244  26.582  1.00  0.00     0.348 HD
ATOM     14  C   UNL A   1      31.632  26.204  23.841  1.00  0.00     0.153 C 
BRANCH   9  15
ATOM     15  C   UNL A   1      32.977  22.755  25.240  1.00  0.00     0.073 A 
ATOM     16  C   UNL A   1      33.345  20.324  25.444  1.00  0.00     0.167 A 
ATOM     17  C   UNL A   1      34.662  20.473  25.001  1.00  0.00     0.136 A 
ATOM     18  C   UNL A   1      32.499  21.452  25.503  1.00  0.00     0.168 A 
ATOM     19  C   UNL A   1      35.129  21.736  24.636  1.00  0.00     0.273 A 
ATOM     20  C   UNL A   1      34.307  22.866  24.768  1.00  0.00     0.100 A 
BRANCH  16  21
ATOM     21  O   UNL A   1      33.001  19.019  25.682  1.00  0.00    -0.493 OA
ATOM     22  C   UNL A   1      32.548  18.223  24.590  1.00  0.00     0.278 C 
ENDBRANCH  16  21
BRANCH  18  23
ATOM     23  O   UNL A   1      31.157  21.283  25.697  1.00  0.00    -0.504 OA
ATOM     24  H   UNL A   1      30.847  20.846  26.466  1.00  0.00     0.293 HD
ENDBRANCH  18  23
BRANCH  19  25
ATOM     25  N   UNL A   1      36.480  21.876  24.077  1.00  0.00     0.062 N 
ATOM     26  O   UNL A   1      36.621  22.600  23.080  1.00  0.00    -0.258 OA
ATOM     27  O   UNL A   1      37.400  21.268  24.640  1.00  0.00    -0.258 OA
ENDBRANCH  19  25
ENDBRANCH   9  15
ENDBRANCH   6   8
ENDBRANCH   5   6
ENDBRANCH   4   5
ENDBRANCH   3   4
ENDBRANCH   2   3
ENDBRANCH   1   2
BRANCH   1  28
ATOM     28  C   UNL A   1      34.735  33.296  28.047  1.00  0.00     0.188 C 
BRANCH  28  29
ATOM     29  O   UNL A   1      34.526  34.647  27.683  1.00  0.00    -0.376 OA
BRANCH  29  30
ATOM     30  C   UNL A   1      34.351  35.563  28.751  1.00  0.00     0.202 C 
BRANCH  30  31
ATOM     31  C   UNL A   1      32.903  35.734  29.236  1.00  0.00     0.261 C 
BRANCH  31  32
ATOM     32  O   UNL A   1      32.552  34.982  30.412  1.00  0.00    -0.460 OA
BRANCH  32  33
ATOM     33  C   UNL A   1      32.752  35.588  31.600  1.00  0.00     0.338 C 
ATOM     34  O   UNL A   1      32.033  36.427  32.129  1.00  0.00    -0.246 OA
BRANCH  33  35
ATOM     35  C   UNL A   1      33.897  34.944  32.275  1.00  0.00     0.060 A 
ATOM     36  C   UNL A   1      35.124  35.622  32.309  1.00  0.00     0.016 A 
ATOM     37  C   UNL A   1      33.780  33.669  32.833  1.00  0.00     0.016 A 
ATOM     38  C   UNL A   1      36.250  35.002  32.850  1.00  0.00     0.010 A 
ATOM     39  C   UNL A   1      34.916  33.041  33.360  1.00  0.00     0.010 A 
ATOM     40  C   UNL A   1      36.165  33.686  33.327  1.00  0.00    -0.014 A 
BRANCH  40  41
ATOM     41  C   UNL A   1      37.418  32.922  33.555  1.00  0.00     0.031 A 
ATOM     42  C   UNL A   1      38.184  33.178  34.829  1.00  0.00     0.074 A 
ATOM     43  C   UNL A   1      37.847  31.981  32.696  1.00  0.00     0.049 A 
ATOM     44  N   UNL A   1      39.283  32.620  35.269  1.00  0.00    -0.248 NA
ATOM     45  C   UNL A   1      37.629  34.203  35.728  1.00  0.00     0.031 C 
ATOM     46  C   UNL A   1      37.188  31.612  31.445  1.00  0.00     0.029 A 
ATOM     47  N   UNL A   1      38.948  31.162  32.753  1.00  0.00    -0.354 N 
ATOM     48  C   UNL A   1      39.549  33.224  36.491  1.00  0.00     0.074 A 
ATOM     49  C   UNL A   1      38.518  34.217  36.708  1.00  0.00     0.031 C 
ATOM     50  C   UNL A   1      37.904  30.641  30.848  1.00  0.00     0.029 A 
ATOM     51  C   UNL A   1      39.078  30.334  31.664  1.00  0.00     0.049 A 
ATOM     52  H   UNL A   1      39.585  31.169  33.503  1.00  0.00     0.167 HD
ATOM     53  C   UNL A   1      40.551  32.971  37.365  1.00  0.00     0.037 A 
ATOM     54  C   UNL A   1      40.040  29.441  31.362  1.00  0.00     0.037 A 
ATOM     55  C   UNL A   1      41.582  31.989  37.156  1.00  0.00     0.049 A 
ATOM     56  C   UNL A   1      41.178  29.215  32.325  1.00  0.00     0.074 A 
ATOM     57  C   UNL A   1      42.635  31.653  37.989  1.00  0.00     0.029 A 
ATOM     58  N   UNL A   1      41.691  31.190  36.029  1.00  0.00    -0.354 N 
ATOM     59  N   UNL A   1      41.401  29.768  33.493  1.00  0.00    -0.248 NA
ATOM     60  C   UNL A   1      42.196  28.229  31.927  1.00  0.00     0.031 C 
ATOM     61  C   UNL A   1      43.408  30.681  37.345  1.00  0.00     0.029 A 
ATOM     62  C   UNL A   1      42.806  30.375  36.136  1.00  0.00     0.049 A 
ATOM     63  H   UNL A   1      41.070  31.202  35.266  1.00  0.00     0.167 HD
ATOM     64  C   UNL A   1      42.559  29.176  33.982  1.00  0.00     0.074 A 
ATOM     65  C   UNL A   1      42.985  28.210  32.992  1.00  0.00     0.031 C 
ATOM     66  C   UNL A   1      43.214  29.409  35.147  1.00  0.00     0.037 A 
BRANCH  53  67
ATOM     67  C   UNL A   1      40.590  33.790  38.622  1.00  0.00     0.057 A 
ATOM     68  C   UNL A   1      39.832  33.450  39.750  1.00  0.00     0.134 A 
ATOM     69  C   UNL A   1      41.408  34.923  38.710  1.00  0.00     0.134 A 
ATOM     70  F   UNL A   1      39.014  32.386  39.725  1.00  0.00    -0.206 F 
ATOM     71  C   UNL A   1      39.870  34.220  40.913  1.00  0.00     0.040 A 
ATOM     72  C   UNL A   1      41.473  35.686  39.876  1.00  0.00     0.040 A 
ATOM     73  F   UNL A   1      42.159  35.303  37.665  1.00  0.00    -0.206 F 
ATOM     74  C   UNL A   1      40.698  35.339  40.980  1.00  0.00     0.006 A 
ENDBRANCH  53  67
BRANCH  54  75
ATOM     75  C   UNL A   1      39.982  28.681  30.086  1.00  0.00     0.057 A 
ATOM     76  C   UNL A   1      40.608  29.155  28.927  1.00  0.00     0.134 A 
ATOM     77  C   UNL A   1      39.256  27.488  29.984  1.00  0.00     0.134 A 
ATOM     78  F   UNL A   1      41.294  30.306  28.953  1.00  0.00    -0.206 F 
ATOM     79  C   UNL A   1      40.494  28.484  27.707  1.00  0.00     0.040 A 
ATOM     80  C   UNL A   1      39.157  26.792  28.778  1.00  0.00     0.040 A 
ATOM     81  F   UNL A   1      38.631  26.982  31.057  1.00  0.00    -0.206 F 
ATOM     82  C   UNL A   1      39.770  27.296  27.632  1.00  0.00     0.006 A 
ENDBRANCH  54  75
BRANCH  66  83
ATOM     83  C   UNL A   1      44.430  28.575  35.435  1.00  0.00     0.057 A 
ATOM     84  C   UNL A   1      44.349  27.349  36.108  1.00  0.00     0.134 A 
ATOM     85  C   UNL A   1      45.697  28.997  35.014  1.00  0.00     0.134 A 
ATOM     86  F   UNL A   1      43.167  26.891  36.547  1.00  0.00    -0.206 F 
ATOM     87  C   UNL A   1      45.489  26.590  36.382  1.00  0.00     0.040 A 
ATOM     88  C   UNL A   1      46.840  28.233  35.255  1.00  0.00     0.040 A 
ATOM     89  F   UNL A   1      45.845  30.155  34.353  1.00  0.00    -0.206 F 
ATOM     90  C   UNL A   1      46.739  27.031  35.951  1.00  0.00     0.006 A 
ENDBRANCH  66  83
ENDBRANCH  40  41
ENDBRANCH  33  35
ENDBRANCH  32  33
ENDBRANCH  31  32
ENDBRANCH  30  31
ENDBRANCH  29  30
ENDBRANCH  28  29
ENDBRANCH   1  28
TORSDOF 21
ENDMDL
