MODEL 1
REMARK VINA RESULT:     -11.3      0.000      0.000
REMARK SMILES O=C(OCCOCCOCCOC(=O)[C@H]1[C@@H](C(=O)Nc2ccccc2-c2ccccc2)[C@@H]2C=C[C@H]1O2)c1ccc(-c2c3nc(c(-c4c(F)cccc4F)c4ccc([nH]4)c(-c4c(F)cccc4F)c4nc(c(-c5c(F)cccc5F)c5ccc2[nH]5)C=C4)C=C3)cc1
REMARK SMILES IDX 8 1 7 2 6 3 5 4 4 5 3 6 2 7 1 8 37 9 38 10 90 11 39 12 89 13
REMARK SMILES IDX 40 14 41 15 42 16 83 17 43 18 88 19 82 20 84 21 44 22 87 23
REMARK SMILES IDX 81 24 80 25 45 27 71 28 54 29 70 30 55 31 58 32 69 33 85 34
REMARK SMILES IDX 56 35 57 36 68 38 86 39 59 40 46 41 47 42 52 43 48 44 49 45
REMARK SMILES IDX 51 46 53 47 50 48 72 49 73 50 78 51 74 52 75 53 77 54 79 55
REMARK SMILES IDX 76 56 60 57 61 58 66 59 62 60 63 61 65 62 67 63 64 64 9 65
REMARK SMILES IDX 10 66 11 67 12 68 13 69 14 70 15 71 16 72 35 73 32 74 34 75
REMARK SMILES IDX 36 76 33 77 17 78 18 79 19 80 20 82 21 83 25 84 22 85 24 86
REMARK SMILES IDX 23 87 26 88 27 89 31 90 28 91 30 92 29 93
REMARK H PARENT 84 26 58 37 19 81
REMARK Flexibility Score: inf
ROOT
ATOM      1  C   UNL A   1      39.466  21.862  26.389  1.00  0.00     0.188 C 
ENDROOT
BRANCH   1   2
ATOM      2  C   UNL A   1      40.516  20.882  26.925  1.00  0.00     0.188 C 
BRANCH   2   3
ATOM      3  O   UNL A   1      41.837  21.436  26.892  1.00  0.00    -0.376 OA
BRANCH   3   4
ATOM      4  C   UNL A   1      42.716  20.754  25.991  1.00  0.00     0.202 C 
BRANCH   4   5
ATOM      5  C   UNL A   1      43.691  21.675  25.241  1.00  0.00     0.261 C 
BRANCH   5   6
ATOM      6  O   UNL A   1      43.113  22.953  24.925  1.00  0.00    -0.460 OA
BRANCH   6   7
ATOM      7  C   UNL A   1      43.638  24.179  25.161  1.00  0.00     0.338 C 
ATOM      8  O   UNL A   1      44.598  24.554  24.489  1.00  0.00    -0.246 OA
BRANCH   7   9
ATOM      9  C   UNL A   1      43.092  25.129  26.175  1.00  0.00     0.060 A 
ATOM     10  C   UNL A   1      43.505  26.452  26.325  1.00  0.00     0.016 A 
ATOM     11  C   UNL A   1      42.006  24.686  26.953  1.00  0.00     0.016 A 
ATOM     12  C   UNL A   1      42.952  27.276  27.300  1.00  0.00     0.010 A 
ATOM     13  C   UNL A   1      41.394  25.532  27.883  1.00  0.00     0.010 A 
ATOM     14  C   UNL A   1      41.899  26.820  28.093  1.00  0.00    -0.014 A 
BRANCH  14  15
ATOM     15  C   UNL A   1      41.453  27.656  29.228  1.00  0.00     0.031 A 
ATOM     16  C   UNL A   1      42.245  27.602  30.502  1.00  0.00     0.074 A 
ATOM     17  C   UNL A   1      40.444  28.534  29.078  1.00  0.00     0.049 A 
ATOM     18  N   UNL A   1      42.051  28.234  31.628  1.00  0.00    -0.248 NA
ATOM     19  C   UNL A   1      43.429  26.724  30.501  1.00  0.00     0.031 C 
ATOM     20  C   UNL A   1      39.683  28.740  27.847  1.00  0.00     0.029 A 
ATOM     21  N   UNL A   1      39.903  29.437  29.952  1.00  0.00    -0.354 N 
ATOM     22  C   UNL A   1      43.076  27.822  32.469  1.00  0.00     0.074 A 
ATOM     23  C   UNL A   1      43.876  26.867  31.738  1.00  0.00     0.031 C 
ATOM     24  C   UNL A   1      38.781  29.717  28.036  1.00  0.00     0.029 A 
ATOM     25  C   UNL A   1      38.876  30.178  29.415  1.00  0.00     0.049 A 
ATOM     26  H   UNL A   1      40.220  29.547  30.878  1.00  0.00     0.167 HD
ATOM     27  C   UNL A   1      43.328  28.213  33.739  1.00  0.00     0.037 A 
ATOM     28  C   UNL A   1      38.095  31.108  29.993  1.00  0.00     0.037 A 
ATOM     29  C   UNL A   1      42.517  29.162  34.451  1.00  0.00     0.049 A 
ATOM     30  C   UNL A   1      38.329  31.444  31.436  1.00  0.00     0.074 A 
ATOM     31  C   UNL A   1      42.639  29.598  35.758  1.00  0.00     0.029 A 
ATOM     32  N   UNL A   1      41.426  29.824  33.905  1.00  0.00    -0.354 N 
ATOM     33  N   UNL A   1      39.256  30.996  32.248  1.00  0.00    -0.248 NA
ATOM     34  C   UNL A   1      37.399  32.402  32.046  1.00  0.00     0.031 C 
ATOM     35  C   UNL A   1      41.592  30.492  36.014  1.00  0.00     0.029 A 
ATOM     36  C   UNL A   1      40.850  30.650  34.853  1.00  0.00     0.049 A 
ATOM     37  H   UNL A   1      41.108  29.719  32.979  1.00  0.00     0.167 HD
ATOM     38  C   UNL A   1      39.030  31.624  33.463  1.00  0.00     0.074 A 
ATOM     39  C   UNL A   1      37.886  32.496  33.275  1.00  0.00     0.031 C 
ATOM     40  C   UNL A   1      39.705  31.495  34.631  1.00  0.00     0.037 A 
BRANCH  27  41
ATOM     41  C   UNL A   1      44.488  27.564  34.433  1.00  0.00     0.057 A 
ATOM     42  C   UNL A   1      44.353  26.369  35.152  1.00  0.00     0.134 A 
ATOM     43  C   UNL A   1      45.752  28.166  34.412  1.00  0.00     0.134 A 
ATOM     44  F   UNL A   1      43.161  25.757  35.238  1.00  0.00    -0.206 F 
ATOM     45  C   UNL A   1      45.427  25.811  35.848  1.00  0.00     0.040 A 
ATOM     46  C   UNL A   1      46.838  27.605  35.084  1.00  0.00     0.040 A 
ATOM     47  F   UNL A   1      45.947  29.315  33.749  1.00  0.00    -0.206 F 
ATOM     48  C   UNL A   1      46.676  26.429  35.813  1.00  0.00     0.006 A 
ENDBRANCH  27  41
BRANCH  28  49
ATOM     49  C   UNL A   1      36.983  31.742  29.245  1.00  0.00     0.057 A 
ATOM     50  C   UNL A   1      37.084  33.039  28.732  1.00  0.00     0.134 A 
ATOM     51  C   UNL A   1      35.764  31.076  29.081  1.00  0.00     0.134 A 
ATOM     52  F   UNL A   1      38.211  33.745  28.902  1.00  0.00    -0.206 F 
ATOM     53  C   UNL A   1      36.013  33.649  28.074  1.00  0.00     0.040 A 
ATOM     54  C   UNL A   1      34.688  31.671  28.419  1.00  0.00     0.040 A 
ATOM     55  F   UNL A   1      35.604  29.834  29.560  1.00  0.00    -0.206 F 
ATOM     56  C   UNL A   1      34.812  32.960  27.910  1.00  0.00     0.006 A 
ENDBRANCH  28  49
BRANCH  40  57
ATOM     57  C   UNL A   1      39.227  32.330  35.776  1.00  0.00     0.057 A 
ATOM     58  C   UNL A   1      38.314  31.840  36.716  1.00  0.00     0.134 A 
ATOM     59  C   UNL A   1      39.711  33.633  35.952  1.00  0.00     0.134 A 
ATOM     60  F   UNL A   1      37.802  30.606  36.587  1.00  0.00    -0.206 F 
ATOM     61  C   UNL A   1      37.880  32.625  37.784  1.00  0.00     0.040 A 
ATOM     62  C   UNL A   1      39.304  34.418  37.030  1.00  0.00     0.040 A 
ATOM     63  F   UNL A   1      40.591  34.156  35.086  1.00  0.00    -0.206 F 
ATOM     64  C   UNL A   1      38.382  33.916  37.946  1.00  0.00     0.006 A 
ENDBRANCH  40  57
ENDBRANCH  14  15
ENDBRANCH   7   9
ENDBRANCH   6   7
ENDBRANCH   5   6
ENDBRANCH   4   5
ENDBRANCH   3   4
ENDBRANCH   2   3
ENDBRANCH   1   2
BRANCH   1  65
ATOM     65  O   UNL A   1      38.612  21.344  25.372  1.00  0.00    -0.376 OA
BRANCH  65  66
ATOM     66  C   UNL A   1      37.285  21.873  25.304  1.00  0.00     0.202 C 
BRANCH  66  67
ATOM     67  C   UNL A   1      36.153  20.874  25.028  1.00  0.00     0.261 C 
BRANCH  67  68
ATOM     68  O   UNL A   1      34.955  21.179  25.777  1.00  0.00    -0.463 OA
BRANCH  68  69
ATOM     69  C   UNL A   1      33.973  21.832  25.087  1.00  0.00     0.312 C 
ATOM     70  O   UNL A   1      33.923  21.896  23.873  1.00  0.00    -0.252 OA
BRANCH  69  71
ATOM     71  C   UNL A   1      32.927  22.389  26.043  1.00  0.00     0.147 C 
ATOM     72  C   UNL A   1      32.846  23.956  26.100  1.00  0.00     0.129 C 
ATOM     73  C   UNL A   1      31.538  22.023  25.501  1.00  0.00     0.157 C 
ATOM     74  C   UNL A   1      31.480  24.180  25.456  1.00  0.00     0.155 C 
ATOM     75  C   UNL A   1      30.446  22.424  26.444  1.00  0.00     0.004 C 
ATOM     76  O   UNL A   1      31.379  23.076  24.525  1.00  0.00    -0.365 OA
ATOM     77  C   UNL A   1      30.417  23.761  26.434  1.00  0.00     0.004 C 
BRANCH  72  78
ATOM     78  C   UNL A   1      34.150  24.594  25.643  1.00  0.00     0.231 C 
ATOM     79  O   UNL A   1      35.147  24.418  26.363  1.00  0.00    -0.274 OA
ATOM     80  N   UNL A   1      34.365  25.193  24.446  1.00  0.00    -0.325 N 
ATOM     81  H   UNL A   1      35.315  25.303  24.212  1.00  0.00     0.169 HD
BRANCH  80  82
ATOM     82  C   UNL A   1      33.472  25.680  23.485  1.00  0.00     0.049 A 
ATOM     83  C   UNL A   1      33.442  24.946  22.291  1.00  0.00     0.027 A 
ATOM     84  C   UNL A   1      32.664  26.836  23.662  1.00  0.00     0.005 A 
ATOM     85  C   UNL A   1      32.515  25.248  21.304  1.00  0.00     0.002 A 
ATOM     86  C   UNL A   1      31.752  27.127  22.627  1.00  0.00     0.011 A 
ATOM     87  C   UNL A   1      31.658  26.329  21.479  1.00  0.00     0.001 A 
BRANCH  84  88
ATOM     88  C   UNL A   1      32.680  27.653  24.913  1.00  0.00    -0.016 A 
ATOM     89  C   UNL A   1      31.551  27.706  25.759  1.00  0.00     0.009 A 
ATOM     90  C   UNL A   1      33.861  28.231  25.393  1.00  0.00     0.009 A 
ATOM     91  C   UNL A   1      31.651  28.148  27.082  1.00  0.00     0.001 A 
ATOM     92  C   UNL A   1      33.969  28.647  26.720  1.00  0.00     0.001 A 
ATOM     93  C   UNL A   1      32.875  28.580  27.575  1.00  0.00     0.000 A 
ENDBRANCH  84  88
ENDBRANCH  80  82
ENDBRANCH  72  78
ENDBRANCH  69  71
ENDBRANCH  68  69
ENDBRANCH  67  68
ENDBRANCH  66  67
ENDBRANCH  65  66
ENDBRANCH   1  65
TORSDOF 20
ENDMDL
MODEL 2
REMARK VINA RESULT:     -11.3      1.200      2.413
REMARK SMILES O=C(OCCOCCOCCOC(=O)[C@H]1[C@@H](C(=O)Nc2ccccc2-c2ccccc2)[C@@H]2C=C[C@H]1O2)c1ccc(-c2c3nc(c(-c4c(F)cccc4F)c4ccc([nH]4)c(-c4c(F)cccc4F)c4nc(c(-c5c(F)cccc5F)c5ccc2[nH]5)C=C4)C=C3)cc1
REMARK SMILES IDX 8 1 7 2 6 3 5 4 4 5 3 6 2 7 1 8 37 9 38 10 90 11 39 12 89 13
REMARK SMILES IDX 40 14 41 15 42 16 83 17 43 18 88 19 82 20 84 21 44 22 87 23
REMARK SMILES IDX 81 24 80 25 45 27 71 28 54 29 70 30 55 31 58 32 69 33 85 34
REMARK SMILES IDX 56 35 57 36 68 38 86 39 59 40 46 41 47 42 52 43 48 44 49 45
REMARK SMILES IDX 51 46 53 47 50 48 72 49 73 50 78 51 74 52 75 53 77 54 79 55
REMARK SMILES IDX 76 56 60 57 61 58 66 59 62 60 63 61 65 62 67 63 64 64 9 65
REMARK SMILES IDX 10 66 11 67 12 68 13 69 14 70 15 71 16 72 35 73 32 74 34 75
REMARK SMILES IDX 36 76 33 77 17 78 18 79 19 80 20 82 21 83 25 84 22 85 24 86
REMARK SMILES IDX 23 87 26 88 27 89 31 90 28 91 30 92 29 93
REMARK H PARENT 84 26 58 37 19 81
REMARK Flexibility Score: inf
ROOT
ATOM      1  C   UNL A   1      40.070  22.173  26.428  1.00  0.00     0.188 C 
ENDROOT
BRANCH   1   2
ATOM      2  C   UNL A   1      40.667  20.847  26.915  1.00  0.00     0.188 C 
BRANCH   2   3
ATOM      3  O   UNL A   1      42.098  20.890  26.974  1.00  0.00    -0.376 OA
BRANCH   3   4
ATOM      4  C   UNL A   1      42.728  20.490  25.752  1.00  0.00     0.202 C 
BRANCH   4   5
ATOM      5  C   UNL A   1      43.978  21.307  25.390  1.00  0.00     0.261 C 
BRANCH   5   6
ATOM      6  O   UNL A   1      44.097  22.510  26.167  1.00  0.00    -0.460 OA
BRANCH   6   7
ATOM      7  C   UNL A   1      43.738  23.766  25.808  1.00  0.00     0.338 C 
ATOM      8  O   UNL A   1      43.835  24.098  24.629  1.00  0.00    -0.246 OA
BRANCH   7   9
ATOM      9  C   UNL A   1      43.190  24.772  26.767  1.00  0.00     0.060 A 
ATOM     10  C   UNL A   1      43.581  26.109  26.822  1.00  0.00     0.016 A 
ATOM     11  C   UNL A   1      42.125  24.362  27.591  1.00  0.00     0.016 A 
ATOM     12  C   UNL A   1      43.028  26.987  27.749  1.00  0.00     0.010 A 
ATOM     13  C   UNL A   1      41.512  25.258  28.473  1.00  0.00     0.010 A 
ATOM     14  C   UNL A   1      41.997  26.566  28.588  1.00  0.00    -0.014 A 
BRANCH  14  15
ATOM     15  C   UNL A   1      41.553  27.468  29.673  1.00  0.00     0.031 A 
ATOM     16  C   UNL A   1      42.329  27.466  30.957  1.00  0.00     0.074 A 
ATOM     17  C   UNL A   1      40.562  28.354  29.465  1.00  0.00     0.049 A 
ATOM     18  N   UNL A   1      42.134  28.159  32.046  1.00  0.00    -0.248 NA
ATOM     19  C   UNL A   1      43.497  26.569  31.016  1.00  0.00     0.031 C 
ATOM     20  C   UNL A   1      39.818  28.509  28.216  1.00  0.00     0.029 A 
ATOM     21  N   UNL A   1      40.028  29.311  30.285  1.00  0.00    -0.354 N 
ATOM     22  C   UNL A   1      43.142  27.775  32.920  1.00  0.00     0.074 A 
ATOM     23  C   UNL A   1      43.932  26.768  32.249  1.00  0.00     0.031 C 
ATOM     24  C   UNL A   1      38.932  29.510  28.343  1.00  0.00     0.029 A 
ATOM     25  C   UNL A   1      39.020  30.040  29.697  1.00  0.00     0.049 A 
ATOM     26  H   UNL A   1      40.335  29.464  31.207  1.00  0.00     0.167 HD
ATOM     27  C   UNL A   1      43.386  28.227  34.171  1.00  0.00     0.037 A 
ATOM     28  C   UNL A   1      38.249  31.014  30.216  1.00  0.00     0.037 A 
ATOM     29  C   UNL A   1      42.586  29.226  34.823  1.00  0.00     0.049 A 
ATOM     30  C   UNL A   1      38.474  31.420  31.643  1.00  0.00     0.074 A 
ATOM     31  C   UNL A   1      42.700  29.727  36.106  1.00  0.00     0.029 A 
ATOM     32  N   UNL A   1      41.512  29.877  34.230  1.00  0.00    -0.354 N 
ATOM     33  N   UNL A   1      39.383  30.999  32.488  1.00  0.00    -0.248 NA
ATOM     34  C   UNL A   1      37.554  32.425  32.191  1.00  0.00     0.031 C 
ATOM     35  C   UNL A   1      41.667  30.651  36.303  1.00  0.00     0.029 A 
ATOM     36  C   UNL A   1      40.941  30.761  35.127  1.00  0.00     0.049 A 
ATOM     37  H   UNL A   1      41.203  29.730  33.306  1.00  0.00     0.167 HD
ATOM     38  C   UNL A   1      39.155  31.693  33.665  1.00  0.00     0.074 A 
ATOM     39  C   UNL A   1      38.029  32.574  33.419  1.00  0.00     0.031 C 
ATOM     40  C   UNL A   1      39.814  31.613  34.847  1.00  0.00     0.037 A 
BRANCH  27  41
ATOM     41  C   UNL A   1      44.527  27.594  34.912  1.00  0.00     0.057 A 
ATOM     42  C   UNL A   1      45.825  28.121  34.873  1.00  0.00     0.134 A 
ATOM     43  C   UNL A   1      44.328  26.418  35.646  1.00  0.00     0.134 A 
ATOM     44  F   UNL A   1      46.089  29.228  34.162  1.00  0.00    -0.206 F 
ATOM     45  C   UNL A   1      46.890  27.484  35.514  1.00  0.00     0.040 A 
ATOM     46  C   UNL A   1      45.380  25.786  36.310  1.00  0.00     0.040 A 
ATOM     47  F   UNL A   1      43.112  25.858  35.717  1.00  0.00    -0.206 F 
ATOM     48  C   UNL A   1      46.667  26.314  36.237  1.00  0.00     0.006 A 
ENDBRANCH  27  41
BRANCH  28  49
ATOM     49  C   UNL A   1      37.158  31.626  29.423  1.00  0.00     0.057 A 
ATOM     50  C   UNL A   1      37.277  32.906  28.870  1.00  0.00     0.134 A 
ATOM     51  C   UNL A   1      35.940  30.961  29.253  1.00  0.00     0.134 A 
ATOM     52  F   UNL A   1      38.402  33.613  29.042  1.00  0.00    -0.206 F 
ATOM     53  C   UNL A   1      36.223  33.498  28.169  1.00  0.00     0.040 A 
ATOM     54  C   UNL A   1      34.882  31.537  28.547  1.00  0.00     0.040 A 
ATOM     55  F   UNL A   1      35.763  29.735  29.769  1.00  0.00    -0.206 F 
ATOM     56  C   UNL A   1      35.023  32.809  27.999  1.00  0.00     0.006 A 
ENDBRANCH  28  49
BRANCH  40  57
ATOM     57  C   UNL A   1      39.339  32.516  35.941  1.00  0.00     0.057 A 
ATOM     58  C   UNL A   1      39.854  33.807  36.107  1.00  0.00     0.134 A 
ATOM     59  C   UNL A   1      38.335  32.094  36.821  1.00  0.00     0.134 A 
ATOM     60  F   UNL A   1      40.831  34.258  35.305  1.00  0.00    -0.206 F 
ATOM     61  C   UNL A   1      39.400  34.643  37.127  1.00  0.00     0.040 A 
ATOM     62  C   UNL A   1      37.855  32.931  37.828  1.00  0.00     0.040 A 
ATOM     63  F   UNL A   1      37.800  30.869  36.709  1.00  0.00    -0.206 F 
ATOM     64  C   UNL A   1      38.392  34.207  37.986  1.00  0.00     0.006 A 
ENDBRANCH  40  57
ENDBRANCH  14  15
ENDBRANCH   7   9
ENDBRANCH   6   7
ENDBRANCH   5   6
ENDBRANCH   4   5
ENDBRANCH   3   4
ENDBRANCH   2   3
ENDBRANCH   1   2
BRANCH   1  65
ATOM     65  O   UNL A   1      38.670  22.148  26.160  1.00  0.00    -0.376 OA
BRANCH  65  66
ATOM     66  C   UNL A   1      38.067  23.373  25.736  1.00  0.00     0.202 C 
BRANCH  66  67
ATOM     67  C   UNL A   1      36.576  23.559  26.052  1.00  0.00     0.261 C 
BRANCH  67  68
ATOM     68  O   UNL A   1      35.920  24.440  25.114  1.00  0.00    -0.463 OA
BRANCH  68  69
ATOM     69  C   UNL A   1      35.158  23.830  24.158  1.00  0.00     0.312 C 
ATOM     70  O   UNL A   1      35.608  23.364  23.127  1.00  0.00    -0.252 OA
BRANCH  69  71
ATOM     71  C   UNL A   1      33.704  23.749  24.602  1.00  0.00     0.147 C 
ATOM     72  C   UNL A   1      32.707  24.635  23.773  1.00  0.00     0.129 C 
ATOM     73  C   UNL A   1      33.188  22.334  24.303  1.00  0.00     0.157 C 
ATOM     74  C   UNL A   1      31.904  23.548  23.062  1.00  0.00     0.155 C 
ATOM     75  C   UNL A   1      31.799  22.125  24.821  1.00  0.00     0.004 C 
ATOM     76  O   UNL A   1      32.876  22.486  22.901  1.00  0.00    -0.365 OA
ATOM     77  C   UNL A   1      31.001  22.887  24.067  1.00  0.00     0.004 C 
BRANCH  72  78
ATOM     78  C   UNL A   1      33.428  25.787  23.088  1.00  0.00     0.231 C 
ATOM     79  O   UNL A   1      33.905  25.565  21.962  1.00  0.00    -0.274 OA
ATOM     80  N   UNL A   1      33.454  27.073  23.514  1.00  0.00    -0.325 N 
ATOM     81  H   UNL A   1      33.727  27.723  22.827  1.00  0.00     0.169 HD
BRANCH  80  82
ATOM     82  C   UNL A   1      33.161  27.638  24.761  1.00  0.00     0.049 A 
ATOM     83  C   UNL A   1      34.252  27.712  25.639  1.00  0.00     0.027 A 
ATOM     84  C   UNL A   1      31.869  28.085  25.149  1.00  0.00     0.005 A 
ATOM     85  C   UNL A   1      34.127  28.359  26.860  1.00  0.00     0.002 A 
ATOM     86  C   UNL A   1      31.776  28.715  26.407  1.00  0.00     0.011 A 
ATOM     87  C   UNL A   1      32.893  28.875  27.237  1.00  0.00     0.001 A 
BRANCH  84  88
ATOM     88  C   UNL A   1      30.679  28.008  24.249  1.00  0.00    -0.016 A 
ATOM     89  C   UNL A   1      29.837  26.875  24.256  1.00  0.00     0.009 A 
ATOM     90  C   UNL A   1      30.243  29.120  23.518  1.00  0.00     0.009 A 
ATOM     91  C   UNL A   1      28.548  26.921  23.713  1.00  0.00     0.001 A 
ATOM     92  C   UNL A   1      28.949  29.175  23.001  1.00  0.00     0.001 A 
ATOM     93  C   UNL A   1      28.089  28.090  23.122  1.00  0.00     0.000 A 
ENDBRANCH  84  88
ENDBRANCH  80  82
ENDBRANCH  72  78
ENDBRANCH  69  71
ENDBRANCH  68  69
ENDBRANCH  67  68
ENDBRANCH  66  67
ENDBRANCH  65  66
ENDBRANCH   1  65
TORSDOF 20
ENDMDL
MODEL 3
REMARK VINA RESULT:     -10.8      2.849      8.126
REMARK SMILES O=C(OCCOCCOCCOC(=O)[C@H]1[C@@H](C(=O)Nc2ccccc2-c2ccccc2)[C@@H]2C=C[C@H]1O2)c1ccc(-c2c3nc(c(-c4c(F)cccc4F)c4ccc([nH]4)c(-c4c(F)cccc4F)c4nc(c(-c5c(F)cccc5F)c5ccc2[nH]5)C=C4)C=C3)cc1
REMARK SMILES IDX 8 1 7 2 6 3 5 4 4 5 3 6 2 7 1 8 37 9 38 10 90 11 39 12 89 13
REMARK SMILES IDX 40 14 41 15 42 16 83 17 43 18 88 19 82 20 84 21 44 22 87 23
REMARK SMILES IDX 81 24 80 25 45 27 71 28 54 29 70 30 55 31 58 32 69 33 85 34
REMARK SMILES IDX 56 35 57 36 68 38 86 39 59 40 46 41 47 42 52 43 48 44 49 45
REMARK SMILES IDX 51 46 53 47 50 48 72 49 73 50 78 51 74 52 75 53 77 54 79 55
REMARK SMILES IDX 76 56 60 57 61 58 66 59 62 60 63 61 65 62 67 63 64 64 9 65
REMARK SMILES IDX 10 66 11 67 12 68 13 69 14 70 15 71 16 72 35 73 32 74 34 75
REMARK SMILES IDX 36 76 33 77 17 78 18 79 19 80 20 82 21 83 25 84 22 85 24 86
REMARK SMILES IDX 23 87 26 88 27 89 31 90 28 91 30 92 29 93
REMARK H PARENT 84 26 58 37 19 81
REMARK Flexibility Score: inf
ROOT
ATOM      1  C   UNL A   1      31.700  28.141  26.448  1.00  0.00     0.188 C 
ENDROOT
BRANCH   1   2
ATOM      2  C   UNL A   1      32.191  29.346  27.260  1.00  0.00     0.188 C 
BRANCH   2   3
ATOM      3  O   UNL A   1      32.360  30.512  26.445  1.00  0.00    -0.376 OA
BRANCH   3   4
ATOM      4  C   UNL A   1      31.329  31.488  26.630  1.00  0.00     0.202 C 
BRANCH   4   5
ATOM      5  C   UNL A   1      31.807  32.943  26.512  1.00  0.00     0.261 C 
BRANCH   5   6
ATOM      6  O   UNL A   1      32.130  33.524  27.786  1.00  0.00    -0.460 OA
BRANCH   6   7
ATOM      7  C   UNL A   1      33.301  34.091  28.165  1.00  0.00     0.338 C 
ATOM      8  O   UNL A   1      33.403  35.316  28.144  1.00  0.00    -0.246 OA
BRANCH   7   9
ATOM      9  C   UNL A   1      34.479  33.308  28.646  1.00  0.00     0.060 A 
ATOM     10  C   UNL A   1      34.453  31.950  28.961  1.00  0.00     0.016 A 
ATOM     11  C   UNL A   1      35.722  33.966  28.671  1.00  0.00     0.016 A 
ATOM     12  C   UNL A   1      35.592  31.290  29.410  1.00  0.00     0.010 A 
ATOM     13  C   UNL A   1      36.887  33.290  29.048  1.00  0.00     0.010 A 
ATOM     14  C   UNL A   1      36.815  31.957  29.467  1.00  0.00    -0.014 A 
BRANCH  14  15
ATOM     15  C   UNL A   1      37.963  31.279  30.107  1.00  0.00     0.031 A 
ATOM     16  C   UNL A   1      38.210  31.532  31.566  1.00  0.00     0.074 A 
ATOM     17  C   UNL A   1      38.684  30.365  29.433  1.00  0.00     0.049 A 
ATOM     18  N   UNL A   1      39.148  31.062  32.343  1.00  0.00    -0.248 NA
ATOM     19  C   UNL A   1      37.259  32.430  32.246  1.00  0.00     0.031 C 
ATOM     20  C   UNL A   1      38.453  29.968  28.044  1.00  0.00     0.029 A 
ATOM     21  N   UNL A   1      39.734  29.581  29.827  1.00  0.00    -0.354 N 
ATOM     22  C   UNL A   1      38.908  31.613  33.595  1.00  0.00     0.074 A 
ATOM     23  C   UNL A   1      37.754  32.474  33.472  1.00  0.00     0.031 C 
ATOM     24  C   UNL A   1      39.326  29.006  27.702  1.00  0.00     0.029 A 
ATOM     25  C   UNL A   1      40.202  28.748  28.838  1.00  0.00     0.049 A 
ATOM     26  H   UNL A   1      40.119  29.611  30.732  1.00  0.00     0.167 HD
ATOM     27  C   UNL A   1      39.590  31.412  34.745  1.00  0.00     0.037 A 
ATOM     28  C   UNL A   1      41.238  27.890  28.857  1.00  0.00     0.037 A 
ATOM     29  C   UNL A   1      40.738  30.554  34.846  1.00  0.00     0.049 A 
ATOM     30  C   UNL A   1      42.043  27.767  30.117  1.00  0.00     0.074 A 
ATOM     31  C   UNL A   1      41.545  30.310  35.942  1.00  0.00     0.029 A 
ATOM     32  N   UNL A   1      41.242  29.795  33.798  1.00  0.00    -0.354 N 
ATOM     33  N   UNL A   1      41.854  28.348  31.277  1.00  0.00    -0.248 NA
ATOM     34  C   UNL A   1      43.214  26.883  30.064  1.00  0.00     0.031 C 
ATOM     35  C   UNL A   1      42.563  29.436  35.543  1.00  0.00     0.029 A 
ATOM     36  C   UNL A   1      42.361  29.098  34.214  1.00  0.00     0.049 A 
ATOM     37  H   UNL A   1      40.858  29.760  32.892  1.00  0.00     0.167 HD
ATOM     38  C   UNL A   1      42.874  27.893  32.098  1.00  0.00     0.074 A 
ATOM     39  C   UNL A   1      43.670  26.976  31.304  1.00  0.00     0.031 C 
ATOM     40  C   UNL A   1      43.133  28.203  33.391  1.00  0.00     0.037 A 
BRANCH  27  41
ATOM     41  C   UNL A   1      39.134  32.181  35.949  1.00  0.00     0.057 A 
ATOM     42  C   UNL A   1      38.242  31.640  36.885  1.00  0.00     0.134 A 
ATOM     43  C   UNL A   1      39.566  33.497  36.154  1.00  0.00     0.134 A 
ATOM     44  F   UNL A   1      37.765  30.395  36.731  1.00  0.00    -0.206 F 
ATOM     45  C   UNL A   1      37.774  32.391  37.966  1.00  0.00     0.040 A 
ATOM     46  C   UNL A   1      39.124  34.249  37.243  1.00  0.00     0.040 A 
ATOM     47  F   UNL A   1      40.413  34.077  35.291  1.00  0.00    -0.206 F 
ATOM     48  C   UNL A   1      38.218  33.700  38.147  1.00  0.00     0.006 A 
ENDBRANCH  27  41
BRANCH  28  49
ATOM     49  C   UNL A   1      41.621  27.130  27.643  1.00  0.00     0.057 A 
ATOM     50  C   UNL A   1      42.418  27.693  26.641  1.00  0.00     0.134 A 
ATOM     51  C   UNL A   1      41.140  25.833  27.433  1.00  0.00     0.134 A 
ATOM     52  F   UNL A   1      42.866  28.950  26.763  1.00  0.00    -0.206 F 
ATOM     53  C   UNL A   1      42.730  26.989  25.475  1.00  0.00     0.040 A 
ATOM     54  C   UNL A   1      41.451  25.116  26.276  1.00  0.00     0.040 A 
ATOM     55  F   UNL A   1      40.363  25.244  28.354  1.00  0.00    -0.206 F 
ATOM     56  C   UNL A   1      42.252  25.692  25.295  1.00  0.00     0.006 A 
ENDBRANCH  28  49
BRANCH  40  57
ATOM     57  C   UNL A   1      44.311  27.526  34.019  1.00  0.00     0.057 A 
ATOM     58  C   UNL A   1      45.583  28.111  34.021  1.00  0.00     0.134 A 
ATOM     59  C   UNL A   1      44.160  26.286  34.651  1.00  0.00     0.134 A 
ATOM     60  F   UNL A   1      45.789  29.290  33.414  1.00  0.00    -0.206 F 
ATOM     61  C   UNL A   1      46.672  27.475  34.615  1.00  0.00     0.040 A 
ATOM     62  C   UNL A   1      45.237  25.652  35.271  1.00  0.00     0.040 A 
ATOM     63  F   UNL A   1      42.965  25.678  34.685  1.00  0.00    -0.206 F 
ATOM     64  C   UNL A   1      46.498  26.245  35.248  1.00  0.00     0.006 A 
ENDBRANCH  40  57
ENDBRANCH  14  15
ENDBRANCH   7   9
ENDBRANCH   6   7
ENDBRANCH   5   6
ENDBRANCH   4   5
ENDBRANCH   3   4
ENDBRANCH   2   3
ENDBRANCH   1   2
BRANCH   1  65
ATOM     65  O   UNL A   1      31.407  26.972  27.209  1.00  0.00    -0.376 OA
BRANCH  65  66
ATOM     66  C   UNL A   1      30.893  25.844  26.498  1.00  0.00     0.202 C 
BRANCH  66  67
ATOM     67  C   UNL A   1      31.911  24.793  26.032  1.00  0.00     0.261 C 
BRANCH  67  68
ATOM     68  O   UNL A   1      31.379  23.927  25.006  1.00  0.00    -0.463 OA
BRANCH  68  69
ATOM     69  C   UNL A   1      31.358  24.445  23.742  1.00  0.00     0.312 C 
ATOM     70  O   UNL A   1      30.530  24.147  22.901  1.00  0.00    -0.252 OA
BRANCH  69  71
ATOM     71  C   UNL A   1      32.452  25.490  23.572  1.00  0.00     0.147 C 
ATOM     72  C   UNL A   1      33.483  25.191  22.425  1.00  0.00     0.129 C 
ATOM     73  C   UNL A   1      31.802  26.791  23.078  1.00  0.00     0.157 C 
ATOM     74  C   UNL A   1      33.125  26.304  21.443  1.00  0.00     0.155 C 
ATOM     75  C   UNL A   1      32.789  27.914  23.000  1.00  0.00     0.004 C 
ATOM     76  O   UNL A   1      31.707  26.488  21.669  1.00  0.00    -0.365 OA
ATOM     77  C   UNL A   1      33.622  27.610  22.000  1.00  0.00     0.004 C 
BRANCH  72  78
ATOM     78  C   UNL A   1      33.528  23.706  22.095  1.00  0.00     0.231 C 
ATOM     79  O   UNL A   1      33.069  23.358  20.995  1.00  0.00    -0.274 OA
ATOM     80  N   UNL A   1      34.170  22.752  22.813  1.00  0.00    -0.325 N 
ATOM     81  H   UNL A   1      34.325  21.912  22.325  1.00  0.00     0.169 HD
BRANCH  80  82
ATOM     82  C   UNL A   1      34.650  22.755  24.128  1.00  0.00     0.049 A 
ATOM     83  C   UNL A   1      35.307  23.934  24.506  1.00  0.00     0.027 A 
ATOM     84  C   UNL A   1      34.523  21.659  25.024  1.00  0.00     0.005 A 
ATOM     85  C   UNL A   1      35.724  24.115  25.818  1.00  0.00     0.002 A 
ATOM     86  C   UNL A   1      34.981  21.872  26.341  1.00  0.00     0.011 A 
ATOM     87  C   UNL A   1      35.546  23.090  26.739  1.00  0.00     0.001 A 
BRANCH  84  88
ATOM     88  C   UNL A   1      33.845  20.381  24.653  1.00  0.00    -0.016 A 
ATOM     89  C   UNL A   1      32.605  20.387  23.979  1.00  0.00     0.009 A 
ATOM     90  C   UNL A   1      34.495  19.147  24.777  1.00  0.00     0.009 A 
ATOM     91  C   UNL A   1      32.133  19.253  23.308  1.00  0.00     0.001 A 
ATOM     92  C   UNL A   1      34.040  18.024  24.087  1.00  0.00     0.001 A 
ATOM     93  C   UNL A   1      32.876  18.080  23.329  1.00  0.00     0.000 A 
ENDBRANCH  84  88
ENDBRANCH  80  82
ENDBRANCH  72  78
ENDBRANCH  69  71
ENDBRANCH  68  69
ENDBRANCH  67  68
ENDBRANCH  66  67
ENDBRANCH  65  66
ENDBRANCH   1  65
TORSDOF 20
ENDMDL
