MODEL 1
REMARK VINA RESULT:     -11.4      0.000      0.000
REMARK SMILES O=C(CCCN1C(=O)C(=O)/C(=C(/[O-])c2ccc(Cl)cc2)[C@@H]1c1ccccc1[N+](=O)[O-])OCCOCCOCCOC(=O)c1ccc(-c2c3nc(c(-c4c(F)cccc4F)c4ccc([nH]4)c(-c4c(F)cccc4F)c4nc(c(-c5c(F)cccc5F)c5ccc2[nH]5)C=C4)C=C3)cc1
REMARK SMILES IDX 34 1 33 2 32 3 31 4 2 5 1 6 3 7 4 8 5 9 6 10 7 11 21 12 8 13
REMARK SMILES IDX 9 14 11 15 10 16 12 17 13 18 22 19 23 20 27 21 24 22 26 23
REMARK SMILES IDX 25 24 28 25 29 26 30 27 14 28 15 29 20 30 16 31 19 32 17 33
REMARK SMILES IDX 18 34 35 35 36 36 37 37 38 38 39 39 40 40 41 41 42 42 43 43
REMARK SMILES IDX 44 44 96 45 45 46 95 47 46 48 47 49 48 50 89 51 49 52 94 53
REMARK SMILES IDX 88 54 90 55 50 56 93 57 87 58 86 59 51 61 77 62 60 63 76 64
REMARK SMILES IDX 61 65 64 66 75 67 91 68 62 69 63 70 74 72 92 73 65 74 52 75
REMARK SMILES IDX 53 76 58 77 54 78 55 79 57 80 59 81 56 82 78 83 79 84 84 85
REMARK SMILES IDX 80 86 81 87 83 88 85 89 82 90 66 91 67 92 72 93 68 94 69 95
REMARK SMILES IDX 71 96 73 97 70 98
REMARK H PARENT 90 60 64 71
REMARK Flexibility Score: inf
ROOT
ATOM      1  O   UNL A   1      34.610  30.907  27.260  1.00  0.00    -0.376 OA
ENDROOT
BRANCH   1   2
ATOM      2  C   UNL A   1      34.548  29.494  27.483  1.00  0.00     0.202 C 
BRANCH   2   3
ATOM      3  C   UNL A   1      34.325  28.605  26.236  1.00  0.00     0.261 C 
BRANCH   3   4
ATOM      4  O   UNL A   1      33.189  29.063  25.488  1.00  0.00    -0.463 OA
BRANCH   4   5
ATOM      5  C   UNL A   1      31.889  28.768  25.596  1.00  0.00     0.305 C 
ATOM      6  O   UNL A   1      31.076  29.585  25.158  1.00  0.00    -0.252 OA
BRANCH   5   7
ATOM      7  C   UNL A   1      31.397  27.416  26.051  1.00  0.00     0.124 C 
BRANCH   7   8
ATOM      8  C   UNL A   1      30.319  26.530  25.406  1.00  0.00     0.033 C 
BRANCH   8   9
ATOM      9  C   UNL A   1      30.127  25.048  25.711  1.00  0.00     0.121 C 
BRANCH   9  10
ATOM     10  N   UNL A   1      31.250  24.131  25.535  1.00  0.00    -0.324 N 
ATOM     11  C   UNL A   1      31.590  23.265  26.567  1.00  0.00     0.295 C 
ATOM     12  C   UNL A   1      31.662  23.599  24.226  1.00  0.00     0.157 C 
ATOM     13  O   UNL A   1      31.165  23.264  27.710  1.00  0.00    -0.265 OA
ATOM     14  C   UNL A   1      32.442  22.149  25.981  1.00  0.00     0.248 C 
ATOM     15  C   UNL A   1      32.313  22.252  24.511  1.00  0.00     0.025 C 
ATOM     16  O   UNL A   1      32.990  21.283  26.637  1.00  0.00    -0.283 OA
ATOM     17  C   UNL A   1      32.493  21.183  23.708  1.00  0.00    -0.092 C 
ATOM     18  O   UNL A   1      32.085  21.223  22.396  1.00  0.00    -0.872 OA
BRANCH  12  19
ATOM     19  C   UNL A   1      32.406  24.602  23.346  1.00  0.00     0.057 A 
ATOM     20  C   UNL A   1      31.766  25.008  22.172  1.00  0.00     0.013 A 
ATOM     21  C   UNL A   1      33.609  25.273  23.605  1.00  0.00     0.275 A 
ATOM     22  C   UNL A   1      32.185  26.098  21.403  1.00  0.00     0.001 A 
ATOM     23  C   UNL A   1      34.055  26.372  22.832  1.00  0.00     0.086 A 
ATOM     24  C   UNL A   1      33.313  26.810  21.748  1.00  0.00     0.007 A 
BRANCH  21  25
ATOM     25  N   UNL A   1      34.492  24.846  24.666  1.00  0.00     0.063 N 
ATOM     26  O   UNL A   1      34.313  25.340  25.787  1.00  0.00    -0.258 OA
ATOM     27  O   UNL A   1      35.384  24.047  24.362  1.00  0.00    -0.258 OA
ENDBRANCH  21  25
ENDBRANCH  12  19
BRANCH  17  28
ATOM     28  C   UNL A   1      33.104  19.891  24.086  1.00  0.00    -0.033 A 
ATOM     29  C   UNL A   1      34.469  19.758  24.383  1.00  0.00     0.009 A 
ATOM     30  C   UNL A   1      32.276  18.762  24.184  1.00  0.00     0.009 A 
ATOM     31  C   UNL A   1      35.004  18.503  24.707  1.00  0.00     0.021 A 
ATOM     32  C   UNL A   1      32.809  17.513  24.516  1.00  0.00     0.021 A 
ATOM     33  C   UNL A   1      34.173  17.385  24.758  1.00  0.00     0.041 A 
ATOM     34  Cl  UNL A   1      34.835  15.837  25.116  1.00  0.00    -0.084 Cl
ENDBRANCH  17  28
ENDBRANCH   9  10
ENDBRANCH   8   9
ENDBRANCH   7   8
ENDBRANCH   5   7
ENDBRANCH   4   5
ENDBRANCH   3   4
ENDBRANCH   2   3
ENDBRANCH   1   2
BRANCH   1  35
ATOM     35  C   UNL A   1      33.634  31.656  27.990  1.00  0.00     0.188 C 
BRANCH  35  36
ATOM     36  C   UNL A   1      33.901  33.180  27.989  1.00  0.00     0.188 C 
BRANCH  36  37
ATOM     37  O   UNL A   1      33.347  33.913  29.078  1.00  0.00    -0.376 OA
BRANCH  37  38
ATOM     38  C   UNL A   1      34.295  34.552  29.954  1.00  0.00     0.202 C 
BRANCH  38  39
ATOM     39  C   UNL A   1      34.206  34.153  31.460  1.00  0.00     0.261 C 
BRANCH  39  40
ATOM     40  O   UNL A   1      34.412  32.727  31.724  1.00  0.00    -0.460 OA
BRANCH  40  41
ATOM     41  C   UNL A   1      35.543  32.378  32.402  1.00  0.00     0.338 C 
ATOM     42  O   UNL A   1      35.766  32.621  33.577  1.00  0.00    -0.246 OA
BRANCH  41  43
ATOM     43  C   UNL A   1      36.469  31.515  31.603  1.00  0.00     0.060 A 
ATOM     44  C   UNL A   1      37.442  30.807  32.312  1.00  0.00     0.016 A 
ATOM     45  C   UNL A   1      36.563  31.536  30.205  1.00  0.00     0.016 A 
ATOM     46  C   UNL A   1      38.423  30.045  31.667  1.00  0.00     0.010 A 
ATOM     47  C   UNL A   1      37.599  30.818  29.547  1.00  0.00     0.010 A 
ATOM     48  C   UNL A   1      38.541  30.062  30.276  1.00  0.00    -0.014 A 
BRANCH  48  49
ATOM     49  C   UNL A   1      39.810  29.526  29.681  1.00  0.00     0.031 A 
ATOM     50  C   UNL A   1      41.009  30.441  29.637  1.00  0.00     0.074 A 
ATOM     51  C   UNL A   1      39.989  28.228  29.360  1.00  0.00     0.049 A 
ATOM     52  N   UNL A   1      42.188  30.263  29.097  1.00  0.00    -0.248 NA
ATOM     53  C   UNL A   1      40.855  31.730  30.329  1.00  0.00     0.031 C 
ATOM     54  C   UNL A   1      38.996  27.170  29.533  1.00  0.00     0.029 A 
ATOM     55  N   UNL A   1      41.083  27.570  28.839  1.00  0.00    -0.354 N 
ATOM     56  C   UNL A   1      42.898  31.433  29.344  1.00  0.00     0.074 A 
ATOM     57  C   UNL A   1      42.023  32.306  30.096  1.00  0.00     0.031 C 
ATOM     58  C   UNL A   1      39.519  26.002  29.116  1.00  0.00     0.029 A 
ATOM     59  C   UNL A   1      40.858  26.236  28.577  1.00  0.00     0.049 A 
ATOM     60  H   UNL A   1      41.946  28.012  28.670  1.00  0.00     0.167 HD
ATOM     61  C   UNL A   1      44.156  31.762  28.965  1.00  0.00     0.037 A 
ATOM     62  C   UNL A   1      41.619  25.328  27.927  1.00  0.00     0.037 A 
ATOM     63  C   UNL A   1      45.031  30.885  28.233  1.00  0.00     0.049 A 
ATOM     64  C   UNL A   1      42.964  25.751  27.379  1.00  0.00     0.074 A 
ATOM     65  C   UNL A   1      46.299  31.140  27.740  1.00  0.00     0.029 A 
ATOM     66  N   UNL A   1      44.724  29.577  27.892  1.00  0.00    -0.354 N 
ATOM     67  N   UNL A   1      43.588  26.898  27.512  1.00  0.00    -0.248 NA
ATOM     68  C   UNL A   1      43.701  24.766  26.571  1.00  0.00     0.031 C 
ATOM     69  C   UNL A   1      46.732  30.006  27.046  1.00  0.00     0.029 A 
ATOM     70  C   UNL A   1      45.765  29.020  27.169  1.00  0.00     0.049 A 
ATOM     71  H   UNL A   1      43.889  29.112  28.129  1.00  0.00     0.167 HD
ATOM     72  C   UNL A   1      44.794  26.763  26.831  1.00  0.00     0.074 A 
ATOM     73  C   UNL A   1      44.823  25.418  26.296  1.00  0.00     0.031 C 
ATOM     74  C   UNL A   1      45.787  27.671  26.661  1.00  0.00     0.037 A 
BRANCH  61  75
ATOM     75  C   UNL A   1      44.604  33.170  29.242  1.00  0.00     0.057 A 
ATOM     76  C   UNL A   1      44.396  34.225  28.344  1.00  0.00     0.134 A 
ATOM     77  C   UNL A   1      45.305  33.458  30.422  1.00  0.00     0.134 A 
ATOM     78  F   UNL A   1      43.753  34.015  27.186  1.00  0.00    -0.206 F 
ATOM     79  C   UNL A   1      44.910  35.501  28.587  1.00  0.00     0.040 A 
ATOM     80  C   UNL A   1      45.795  34.736  30.691  1.00  0.00     0.040 A 
ATOM     81  F   UNL A   1      45.537  32.496  31.329  1.00  0.00    -0.206 F 
ATOM     82  C   UNL A   1      45.611  35.760  29.764  1.00  0.00     0.006 A 
ENDBRANCH  61  75
BRANCH  62  83
ATOM     83  C   UNL A   1      41.105  23.952  27.655  1.00  0.00     0.057 A 
ATOM     84  C   UNL A   1      41.624  22.822  28.301  1.00  0.00     0.134 A 
ATOM     85  C   UNL A   1      40.125  23.727  26.678  1.00  0.00     0.134 A 
ATOM     86  F   UNL A   1      42.595  22.954  29.218  1.00  0.00    -0.206 F 
ATOM     87  C   UNL A   1      41.202  21.528  27.977  1.00  0.00     0.040 A 
ATOM     88  C   UNL A   1      39.670  22.443  26.368  1.00  0.00     0.040 A 
ATOM     89  F   UNL A   1      39.598  24.757  25.999  1.00  0.00    -0.206 F 
ATOM     90  C   UNL A   1      40.216  21.336  27.012  1.00  0.00     0.006 A 
ENDBRANCH  62  83
BRANCH  74  91
ATOM     91  C   UNL A   1      47.016  27.236  25.914  1.00  0.00     0.057 A 
ATOM     92  C   UNL A   1      47.183  27.483  24.545  1.00  0.00     0.134 A 
ATOM     93  C   UNL A   1      48.082  26.632  26.595  1.00  0.00     0.134 A 
ATOM     94  F   UNL A   1      46.199  28.049  23.830  1.00  0.00    -0.206 F 
ATOM     95  C   UNL A   1      48.360  27.132  23.879  1.00  0.00     0.040 A 
ATOM     96  C   UNL A   1      49.274  26.305  25.947  1.00  0.00     0.040 A 
ATOM     97  F   UNL A   1      47.992  26.378  27.909  1.00  0.00    -0.206 F 
ATOM     98  C   UNL A   1      49.414  26.551  24.584  1.00  0.00     0.006 A 
ENDBRANCH  74  91
ENDBRANCH  48  49
ENDBRANCH  41  43
ENDBRANCH  40  41
ENDBRANCH  39  40
ENDBRANCH  38  39
ENDBRANCH  37  38
ENDBRANCH  36  37
ENDBRANCH  35  36
ENDBRANCH   1  35
TORSDOF 23
ENDMDL
MODEL 2
REMARK VINA RESULT:     -11.2      2.114      6.381
REMARK SMILES O=C(CCCN1C(=O)C(=O)/C(=C(/[O-])c2ccc(Cl)cc2)[C@@H]1c1ccccc1[N+](=O)[O-])OCCOCCOCCOC(=O)c1ccc(-c2c3nc(c(-c4c(F)cccc4F)c4ccc([nH]4)c(-c4c(F)cccc4F)c4nc(c(-c5c(F)cccc5F)c5ccc2[nH]5)C=C4)C=C3)cc1
REMARK SMILES IDX 34 1 33 2 32 3 31 4 2 5 1 6 3 7 4 8 5 9 6 10 7 11 21 12 8 13
REMARK SMILES IDX 9 14 11 15 10 16 12 17 13 18 22 19 23 20 27 21 24 22 26 23
REMARK SMILES IDX 25 24 28 25 29 26 30 27 14 28 15 29 20 30 16 31 19 32 17 33
REMARK SMILES IDX 18 34 35 35 36 36 37 37 38 38 39 39 40 40 41 41 42 42 43 43
REMARK SMILES IDX 44 44 96 45 45 46 95 47 46 48 47 49 48 50 89 51 49 52 94 53
REMARK SMILES IDX 88 54 90 55 50 56 93 57 87 58 86 59 51 61 77 62 60 63 76 64
REMARK SMILES IDX 61 65 64 66 75 67 91 68 62 69 63 70 74 72 92 73 65 74 52 75
REMARK SMILES IDX 53 76 58 77 54 78 55 79 57 80 59 81 56 82 78 83 79 84 84 85
REMARK SMILES IDX 80 86 81 87 83 88 85 89 82 90 66 91 67 92 72 93 68 94 69 95
REMARK SMILES IDX 71 96 73 97 70 98
REMARK H PARENT 90 60 64 71
REMARK Flexibility Score: inf
ROOT
ATOM      1  O   UNL A   1      31.049  29.598  25.193  1.00  0.00    -0.376 OA
ENDROOT
BRANCH   1   2
ATOM      2  C   UNL A   1      30.297  30.049  24.061  1.00  0.00     0.202 C 
BRANCH   2   3
ATOM      3  C   UNL A   1      30.526  29.291  22.732  1.00  0.00     0.261 C 
BRANCH   3   4
ATOM      4  O   UNL A   1      29.359  28.535  22.375  1.00  0.00    -0.463 OA
BRANCH   4   5
ATOM      5  C   UNL A   1      28.366  28.046  23.127  1.00  0.00     0.305 C 
ATOM      6  O   UNL A   1      27.272  28.612  23.073  1.00  0.00    -0.252 OA
BRANCH   5   7
ATOM      7  C   UNL A   1      28.480  26.741  23.875  1.00  0.00     0.124 C 
BRANCH   7   8
ATOM      8  C   UNL A   1      29.721  25.850  24.049  1.00  0.00     0.033 C 
BRANCH   8   9
ATOM      9  C   UNL A   1      30.334  25.481  25.397  1.00  0.00     0.121 C 
BRANCH   9  10
ATOM     10  N   UNL A   1      31.748  25.125  25.465  1.00  0.00    -0.324 N 
ATOM     11  C   UNL A   1      32.191  24.287  26.481  1.00  0.00     0.295 C 
ATOM     12  C   UNL A   1      32.620  25.046  24.282  1.00  0.00     0.157 C 
ATOM     13  O   UNL A   1      31.570  23.911  27.461  1.00  0.00    -0.265 OA
ATOM     14  C   UNL A   1      33.540  23.720  26.068  1.00  0.00     0.248 C 
ATOM     15  C   UNL A   1      33.702  24.031  24.631  1.00  0.00     0.025 C 
ATOM     16  O   UNL A   1      34.247  23.032  26.780  1.00  0.00    -0.283 OA
ATOM     17  C   UNL A   1      34.487  23.284  23.828  1.00  0.00    -0.092 C 
ATOM     18  O   UNL A   1      34.396  23.401  22.461  1.00  0.00    -0.872 OA
BRANCH  12  19
ATOM     19  C   UNL A   1      33.039  26.402  23.718  1.00  0.00     0.057 A 
ATOM     20  C   UNL A   1      33.516  27.345  24.631  1.00  0.00     0.013 A 
ATOM     21  C   UNL A   1      33.124  26.806  22.378  1.00  0.00     0.275 A 
ATOM     22  C   UNL A   1      34.176  28.519  24.254  1.00  0.00     0.001 A 
ATOM     23  C   UNL A   1      33.777  27.996  21.977  1.00  0.00     0.086 A 
ATOM     24  C   UNL A   1      34.342  28.834  22.923  1.00  0.00     0.007 A 
BRANCH  21  25
ATOM     25  N   UNL A   1      32.501  26.039  21.323  1.00  0.00     0.063 N 
ATOM     26  O   UNL A   1      31.271  26.123  21.210  1.00  0.00    -0.258 OA
ATOM     27  O   UNL A   1      33.243  25.328  20.638  1.00  0.00    -0.258 OA
ENDBRANCH  21  25
ENDBRANCH  12  19
BRANCH  17  28
ATOM     28  C   UNL A   1      35.491  22.288  24.259  1.00  0.00    -0.033 A 
ATOM     29  C   UNL A   1      36.854  22.594  24.389  1.00  0.00     0.009 A 
ATOM     30  C   UNL A   1      35.054  20.994  24.583  1.00  0.00     0.009 A 
ATOM     31  C   UNL A   1      37.769  21.604  24.772  1.00  0.00     0.021 A 
ATOM     32  C   UNL A   1      35.966  20.010  24.974  1.00  0.00     0.021 A 
ATOM     33  C   UNL A   1      37.322  20.313  25.050  1.00  0.00     0.041 A 
ATOM     34  Cl  UNL A   1      38.448  19.086  25.481  1.00  0.00    -0.084 Cl
ENDBRANCH  17  28
ENDBRANCH   9  10
ENDBRANCH   8   9
ENDBRANCH   7   8
ENDBRANCH   5   7
ENDBRANCH   4   5
ENDBRANCH   3   4
ENDBRANCH   2   3
ENDBRANCH   1   2
BRANCH   1  35
ATOM     35  C   UNL A   1      31.697  30.648  25.917  1.00  0.00     0.188 C 
BRANCH  35  36
ATOM     36  C   UNL A   1      32.491  30.149  27.147  1.00  0.00     0.188 C 
BRANCH  36  37
ATOM     37  O   UNL A   1      33.846  30.580  27.235  1.00  0.00    -0.376 OA
BRANCH  37  38
ATOM     38  C   UNL A   1      34.087  31.734  28.062  1.00  0.00     0.202 C 
BRANCH  38  39
ATOM     39  C   UNL A   1      35.537  32.312  28.019  1.00  0.00     0.261 C 
BRANCH  39  40
ATOM     40  O   UNL A   1      36.121  32.585  29.333  1.00  0.00    -0.460 OA
BRANCH  40  41
ATOM     41  C   UNL A   1      36.320  31.517  30.159  1.00  0.00     0.338 C 
ATOM     42  O   UNL A   1      35.574  31.176  31.063  1.00  0.00    -0.246 OA
BRANCH  41  43
ATOM     43  C   UNL A   1      37.495  30.678  29.769  1.00  0.00     0.060 A 
ATOM     44  C   UNL A   1      38.564  30.632  30.667  1.00  0.00     0.016 A 
ATOM     45  C   UNL A   1      37.684  30.120  28.498  1.00  0.00     0.016 A 
ATOM     46  C   UNL A   1      39.756  29.961  30.370  1.00  0.00     0.010 A 
ATOM     47  C   UNL A   1      38.918  29.496  28.166  1.00  0.00     0.010 A 
ATOM     48  C   UNL A   1      39.969  29.410  29.105  1.00  0.00    -0.014 A 
BRANCH  48  49
ATOM     49  C   UNL A   1      41.374  29.032  28.741  1.00  0.00     0.031 A 
ATOM     50  C   UNL A   1      41.631  27.611  28.301  1.00  0.00     0.074 A 
ATOM     51  C   UNL A   1      42.373  29.930  28.606  1.00  0.00     0.049 A 
ATOM     52  N   UNL A   1      42.756  27.004  28.023  1.00  0.00    -0.248 NA
ATOM     53  C   UNL A   1      40.436  26.772  28.126  1.00  0.00     0.031 C 
ATOM     54  C   UNL A   1      42.244  31.372  28.796  1.00  0.00     0.029 A 
ATOM     55  N   UNL A   1      43.696  29.761  28.255  1.00  0.00    -0.354 N 
ATOM     56  C   UNL A   1      42.408  25.700  27.686  1.00  0.00     0.074 A 
ATOM     57  C   UNL A   1      40.967  25.611  27.777  1.00  0.00     0.031 C 
ATOM     58  C   UNL A   1      43.436  31.955  28.572  1.00  0.00     0.029 A 
ATOM     59  C   UNL A   1      44.435  30.924  28.295  1.00  0.00     0.049 A 
ATOM     60  H   UNL A   1      44.078  28.891  28.000  1.00  0.00     0.167 HD
ATOM     61  C   UNL A   1      43.213  24.664  27.349  1.00  0.00     0.037 A 
ATOM     62  C   UNL A   1      45.767  31.122  28.179  1.00  0.00     0.037 A 
ATOM     63  C   UNL A   1      44.645  24.759  27.241  1.00  0.00     0.049 A 
ATOM     64  C   UNL A   1      46.671  29.932  27.948  1.00  0.00     0.074 A 
ATOM     65  C   UNL A   1      45.562  23.759  26.972  1.00  0.00     0.029 A 
ATOM     66  N   UNL A   1      45.366  25.934  27.395  1.00  0.00    -0.354 N 
ATOM     67  N   UNL A   1      46.350  28.675  27.743  1.00  0.00    -0.248 NA
ATOM     68  C   UNL A   1      48.122  30.179  27.953  1.00  0.00     0.031 C 
ATOM     69  C   UNL A   1      46.843  24.317  27.027  1.00  0.00     0.029 A 
ATOM     70  C   UNL A   1      46.720  25.678  27.256  1.00  0.00     0.049 A 
ATOM     71  H   UNL A   1      44.974  26.818  27.575  1.00  0.00     0.167 HD
ATOM     72  C   UNL A   1      47.551  27.993  27.572  1.00  0.00     0.074 A 
ATOM     73  C   UNL A   1      48.609  28.975  27.683  1.00  0.00     0.031 C 
ATOM     74  C   UNL A   1      47.760  26.672  27.348  1.00  0.00     0.037 A 
BRANCH  61  75
ATOM     75  C   UNL A   1      42.561  23.320  27.188  1.00  0.00     0.057 A 
ATOM     76  C   UNL A   1      42.199  22.515  28.277  1.00  0.00     0.134 A 
ATOM     77  C   UNL A   1      42.336  22.804  25.904  1.00  0.00     0.134 A 
ATOM     78  F   UNL A   1      42.408  22.936  29.533  1.00  0.00    -0.206 F 
ATOM     79  C   UNL A   1      41.684  21.229  28.093  1.00  0.00     0.040 A 
ATOM     80  C   UNL A   1      41.790  21.535  25.708  1.00  0.00     0.040 A 
ATOM     81  F   UNL A   1      42.654  23.522  24.816  1.00  0.00    -0.206 F 
ATOM     82  C   UNL A   1      41.477  20.737  26.805  1.00  0.00     0.006 A 
ENDBRANCH  61  75
BRANCH  62  83
ATOM     83  C   UNL A   1      46.359  32.478  28.380  1.00  0.00     0.057 A 
ATOM     84  C   UNL A   1      46.539  33.377  27.320  1.00  0.00     0.134 A 
ATOM     85  C   UNL A   1      46.832  32.881  29.636  1.00  0.00     0.134 A 
ATOM     86  F   UNL A   1      46.150  33.045  26.079  1.00  0.00    -0.206 F 
ATOM     87  C   UNL A   1      47.176  34.610  27.497  1.00  0.00     0.040 A 
ATOM     88  C   UNL A   1      47.441  34.123  29.836  1.00  0.00     0.040 A 
ATOM     89  F   UNL A   1      46.719  32.065  30.695  1.00  0.00    -0.206 F 
ATOM     90  C   UNL A   1      47.623  34.989  28.761  1.00  0.00     0.006 A 
ENDBRANCH  62  83
BRANCH  74  91
ATOM     91  C   UNL A   1      49.176  26.208  27.150  1.00  0.00     0.057 A 
ATOM     92  C   UNL A   1      49.766  26.136  25.882  1.00  0.00     0.134 A 
ATOM     93  C   UNL A   1      49.983  25.906  28.256  1.00  0.00     0.134 A 
ATOM     94  F   UNL A   1      49.048  26.402  24.781  1.00  0.00    -0.206 F 
ATOM     95  C   UNL A   1      51.104  25.768  25.720  1.00  0.00     0.040 A 
ATOM     96  C   UNL A   1      51.328  25.566  28.109  1.00  0.00     0.040 A 
ATOM     97  F   UNL A   1      49.484  25.966  29.499  1.00  0.00    -0.206 F 
ATOM     98  C   UNL A   1      51.891  25.493  26.837  1.00  0.00     0.006 A 
ENDBRANCH  74  91
ENDBRANCH  48  49
ENDBRANCH  41  43
ENDBRANCH  40  41
ENDBRANCH  39  40
ENDBRANCH  38  39
ENDBRANCH  37  38
ENDBRANCH  36  37
ENDBRANCH  35  36
ENDBRANCH   1  35
TORSDOF 23
ENDMDL
MODEL 3
REMARK VINA RESULT:     -11.1      2.054      2.793
REMARK SMILES O=C(CCCN1C(=O)C(=O)/C(=C(/[O-])c2ccc(Cl)cc2)[C@@H]1c1ccccc1[N+](=O)[O-])OCCOCCOCCOC(=O)c1ccc(-c2c3nc(c(-c4c(F)cccc4F)c4ccc([nH]4)c(-c4c(F)cccc4F)c4nc(c(-c5c(F)cccc5F)c5ccc2[nH]5)C=C4)C=C3)cc1
REMARK SMILES IDX 34 1 33 2 32 3 31 4 2 5 1 6 3 7 4 8 5 9 6 10 7 11 21 12 8 13
REMARK SMILES IDX 9 14 11 15 10 16 12 17 13 18 22 19 23 20 27 21 24 22 26 23
REMARK SMILES IDX 25 24 28 25 29 26 30 27 14 28 15 29 20 30 16 31 19 32 17 33
REMARK SMILES IDX 18 34 35 35 36 36 37 37 38 38 39 39 40 40 41 41 42 42 43 43
REMARK SMILES IDX 44 44 96 45 45 46 95 47 46 48 47 49 48 50 89 51 49 52 94 53
REMARK SMILES IDX 88 54 90 55 50 56 93 57 87 58 86 59 51 61 77 62 60 63 76 64
REMARK SMILES IDX 61 65 64 66 75 67 91 68 62 69 63 70 74 72 92 73 65 74 52 75
REMARK SMILES IDX 53 76 58 77 54 78 55 79 57 80 59 81 56 82 78 83 79 84 84 85
REMARK SMILES IDX 80 86 81 87 83 88 85 89 82 90 66 91 67 92 72 93 68 94 69 95
REMARK SMILES IDX 71 96 73 97 70 98
REMARK H PARENT 90 60 64 71
REMARK Flexibility Score: inf
ROOT
ATOM      1  O   UNL A   1      31.076  29.531  24.862  1.00  0.00    -0.376 OA
ENDROOT
BRANCH   1   2
ATOM      2  C   UNL A   1      30.188  30.106  23.897  1.00  0.00     0.202 C 
BRANCH   2   3
ATOM      3  C   UNL A   1      30.255  29.527  22.463  1.00  0.00     0.261 C 
BRANCH   3   4
ATOM      4  O   UNL A   1      29.228  28.543  22.268  1.00  0.00    -0.463 OA
BRANCH   4   5
ATOM      5  C   UNL A   1      28.302  28.064  23.105  1.00  0.00     0.305 C 
ATOM      6  O   UNL A   1      27.195  28.607  23.110  1.00  0.00    -0.252 OA
BRANCH   5   7
ATOM      7  C   UNL A   1      28.495  26.789  23.888  1.00  0.00     0.124 C 
BRANCH   7   8
ATOM      8  C   UNL A   1      29.763  25.927  24.004  1.00  0.00     0.033 C 
BRANCH   8   9
ATOM      9  C   UNL A   1      30.316  25.379  25.316  1.00  0.00     0.121 C 
BRANCH   9  10
ATOM     10  N   UNL A   1      31.735  25.048  25.411  1.00  0.00    -0.324 N 
ATOM     11  C   UNL A   1      32.169  24.199  26.422  1.00  0.00     0.295 C 
ATOM     12  C   UNL A   1      32.635  25.008  24.248  1.00  0.00     0.157 C 
ATOM     13  O   UNL A   1      31.532  23.792  27.379  1.00  0.00    -0.265 OA
ATOM     14  C   UNL A   1      33.538  23.665  26.030  1.00  0.00     0.248 C 
ATOM     15  C   UNL A   1      33.728  24.007  24.603  1.00  0.00     0.025 C 
ATOM     16  O   UNL A   1      34.241  22.976  26.746  1.00  0.00    -0.283 OA
ATOM     17  C   UNL A   1      34.546  23.291  23.806  1.00  0.00    -0.092 C 
ATOM     18  O   UNL A   1      34.485  23.432  22.439  1.00  0.00    -0.872 OA
BRANCH  12  19
ATOM     19  C   UNL A   1      33.042  26.382  23.720  1.00  0.00     0.057 A 
ATOM     20  C   UNL A   1      33.525  27.300  24.656  1.00  0.00     0.013 A 
ATOM     21  C   UNL A   1      33.110  26.827  22.393  1.00  0.00     0.275 A 
ATOM     22  C   UNL A   1      34.175  28.488  24.307  1.00  0.00     0.001 A 
ATOM     23  C   UNL A   1      33.754  28.031  22.020  1.00  0.00     0.086 A 
ATOM     24  C   UNL A   1      34.325  28.844  22.985  1.00  0.00     0.007 A 
BRANCH  21  25
ATOM     25  N   UNL A   1      32.480  26.089  21.321  1.00  0.00     0.063 N 
ATOM     26  O   UNL A   1      33.184  25.287  20.694  1.00  0.00    -0.258 OA
ATOM     27  O   UNL A   1      31.294  26.345  21.090  1.00  0.00    -0.258 OA
ENDBRANCH  21  25
ENDBRANCH  12  19
BRANCH  17  28
ATOM     28  C   UNL A   1      35.558  22.305  24.241  1.00  0.00    -0.033 A 
ATOM     29  C   UNL A   1      36.920  22.620  24.359  1.00  0.00     0.009 A 
ATOM     30  C   UNL A   1      35.130  21.013  24.583  1.00  0.00     0.009 A 
ATOM     31  C   UNL A   1      37.843  21.639  24.748  1.00  0.00     0.021 A 
ATOM     32  C   UNL A   1      36.050  20.037  24.980  1.00  0.00     0.021 A 
ATOM     33  C   UNL A   1      37.405  20.349  25.043  1.00  0.00     0.041 A 
ATOM     34  Cl  UNL A   1      38.541  19.133  25.481  1.00  0.00    -0.084 Cl
ENDBRANCH  17  28
ENDBRANCH   9  10
ENDBRANCH   8   9
ENDBRANCH   7   8
ENDBRANCH   5   7
ENDBRANCH   4   5
ENDBRANCH   3   4
ENDBRANCH   2   3
ENDBRANCH   1   2
BRANCH   1  35
ATOM     35  C   UNL A   1      31.621  30.476  25.787  1.00  0.00     0.188 C 
BRANCH  35  36
ATOM     36  C   UNL A   1      32.186  29.825  27.071  1.00  0.00     0.188 C 
BRANCH  36  37
ATOM     37  O   UNL A   1      33.505  30.215  27.443  1.00  0.00    -0.376 OA
BRANCH  37  38
ATOM     38  C   UNL A   1      33.685  31.610  27.753  1.00  0.00     0.202 C 
BRANCH  38  39
ATOM     39  C   UNL A   1      35.161  32.118  27.774  1.00  0.00     0.261 C 
BRANCH  39  40
ATOM     40  O   UNL A   1      35.610  32.623  29.073  1.00  0.00    -0.460 OA
BRANCH  40  41
ATOM     41  C   UNL A   1      35.933  31.698  30.022  1.00  0.00     0.338 C 
ATOM     42  O   UNL A   1      35.338  31.528  31.074  1.00  0.00    -0.246 OA
BRANCH  41  43
ATOM     43  C   UNL A   1      37.030  30.773  29.598  1.00  0.00     0.060 A 
ATOM     44  C   UNL A   1      37.813  30.215  30.611  1.00  0.00     0.016 A 
ATOM     45  C   UNL A   1      37.453  30.600  28.273  1.00  0.00     0.016 A 
ATOM     46  C   UNL A   1      38.927  29.414  30.333  1.00  0.00     0.010 A 
ATOM     47  C   UNL A   1      38.622  29.843  27.988  1.00  0.00     0.010 A 
ATOM     48  C   UNL A   1      39.372  29.240  29.021  1.00  0.00    -0.014 A 
BRANCH  48  49
ATOM     49  C   UNL A   1      40.751  28.682  28.825  1.00  0.00     0.031 A 
ATOM     50  C   UNL A   1      41.925  29.580  29.131  1.00  0.00     0.074 A 
ATOM     51  C   UNL A   1      40.995  27.380  28.573  1.00  0.00     0.049 A 
ATOM     52  N   UNL A   1      43.207  29.381  28.960  1.00  0.00    -0.248 NA
ATOM     53  C   UNL A   1      41.594  30.876  29.744  1.00  0.00     0.031 C 
ATOM     54  C   UNL A   1      39.980  26.337  28.450  1.00  0.00     0.029 A 
ATOM     55  N   UNL A   1      42.184  26.702  28.396  1.00  0.00    -0.354 N 
ATOM     56  C   UNL A   1      43.831  30.543  29.401  1.00  0.00     0.074 A 
ATOM     57  C   UNL A   1      42.789  31.433  29.863  1.00  0.00     0.031 C 
ATOM     58  C   UNL A   1      40.583  25.159  28.206  1.00  0.00     0.029 A 
ATOM     59  C   UNL A   1      42.025  25.370  28.082  1.00  0.00     0.049 A 
ATOM     60  H   UNL A   1      43.065  27.131  28.485  1.00  0.00     0.167 HD
ATOM     61  C   UNL A   1      45.151  30.852  29.406  1.00  0.00     0.037 A 
ATOM     62  C   UNL A   1      42.929  24.447  27.686  1.00  0.00     0.037 A 
ATOM     63  C   UNL A   1      46.187  29.958  28.964  1.00  0.00     0.049 A 
ATOM     64  C   UNL A   1      44.381  24.848  27.554  1.00  0.00     0.074 A 
ATOM     65  C   UNL A   1      47.548  30.191  28.863  1.00  0.00     0.029 A 
ATOM     66  N   UNL A   1      45.973  28.651  28.550  1.00  0.00    -0.354 N 
ATOM     67  N   UNL A   1      44.957  25.987  27.862  1.00  0.00    -0.248 NA
ATOM     68  C   UNL A   1      45.308  23.847  26.999  1.00  0.00     0.031 C 
ATOM     69  C   UNL A   1      48.147  29.046  28.328  1.00  0.00     0.029 A 
ATOM     70  C   UNL A   1      47.171  28.075  28.165  1.00  0.00     0.049 A 
ATOM     71  H   UNL A   1      45.098  28.201  28.534  1.00  0.00     0.167 HD
ATOM     72  C   UNL A   1      46.307  25.830  27.564  1.00  0.00     0.074 A 
ATOM     73  C   UNL A   1      46.471  24.482  27.063  1.00  0.00     0.031 C 
ATOM     74  C   UNL A   1      47.320  26.723  27.689  1.00  0.00     0.037 A 
BRANCH  61  75
ATOM     75  C   UNL A   1      45.519  32.255  29.799  1.00  0.00     0.057 A 
ATOM     76  C   UNL A   1      45.623  33.301  28.873  1.00  0.00     0.134 A 
ATOM     77  C   UNL A   1      45.825  32.546  31.136  1.00  0.00     0.134 A 
ATOM     78  F   UNL A   1      45.368  33.088  27.573  1.00  0.00    -0.206 F 
ATOM     79  C   UNL A   1      46.063  34.572  29.255  1.00  0.00     0.040 A 
ATOM     80  C   UNL A   1      46.233  33.819  31.535  1.00  0.00     0.040 A 
ATOM     81  F   UNL A   1      45.742  31.593  32.077  1.00  0.00    -0.206 F 
ATOM     82  C   UNL A   1      46.368  34.833  30.590  1.00  0.00     0.006 A 
ENDBRANCH  61  75
BRANCH  62  83
ATOM     83  C   UNL A   1      42.496  23.077  27.278  1.00  0.00     0.057 A 
ATOM     84  C   UNL A   1      42.259  22.061  28.214  1.00  0.00     0.134 A 
ATOM     85  C   UNL A   1      42.379  22.728  25.925  1.00  0.00     0.134 A 
ATOM     86  F   UNL A   1      42.393  22.308  29.527  1.00  0.00    -0.206 F 
ATOM     87  C   UNL A   1      41.942  20.756  27.823  1.00  0.00     0.040 A 
ATOM     88  C   UNL A   1      42.030  21.437  25.520  1.00  0.00     0.040 A 
ATOM     89  F   UNL A   1      42.614  23.640  24.969  1.00  0.00    -0.206 F 
ATOM     90  C   UNL A   1      41.819  20.443  26.472  1.00  0.00     0.006 A 
ENDBRANCH  62  83
BRANCH  74  91
ATOM     91  C   UNL A   1      48.707  26.266  27.335  1.00  0.00     0.057 A 
ATOM     92  C   UNL A   1      49.246  26.441  26.054  1.00  0.00     0.134 A 
ATOM     93  C   UNL A   1      49.543  25.714  28.316  1.00  0.00     0.134 A 
ATOM     94  F   UNL A   1      48.499  26.954  25.065  1.00  0.00    -0.206 F 
ATOM     95  C   UNL A   1      50.561  26.071  25.759  1.00  0.00     0.040 A 
ATOM     96  C   UNL A   1      50.866  25.369  28.041  1.00  0.00     0.040 A 
ATOM     97  F   UNL A   1      49.093  25.530  29.567  1.00  0.00    -0.206 F 
ATOM     98  C   UNL A   1      51.378  25.544  26.758  1.00  0.00     0.006 A 
ENDBRANCH  74  91
ENDBRANCH  48  49
ENDBRANCH  41  43
ENDBRANCH  40  41
ENDBRANCH  39  40
ENDBRANCH  38  39
ENDBRANCH  37  38
ENDBRANCH  36  37
ENDBRANCH  35  36
ENDBRANCH   1  35
TORSDOF 23
ENDMDL
