MODEL 1
REMARK VINA RESULT:     -11.4      0.000      0.000
REMARK SMILES COC(=O)c1ccc([C@H]2CC(=O)Nc3c(C(=O)OCCOCCOCCOC(=O)c4ccc(-c5c6nc(c(-c7c(F)cccc7F)c7ccc([nH]7)c(-c7c(F)cccc7F)c7nc(c(-c8c(F)cccc8F)c8ccc5[nH]8)C=C7)C=C6)cc4)cn(-c4ccccc4)c32)cc1
REMARK SMILES IDX 22 1 21 2 20 3 19 4 18 5 16 6 17 7 15 8 9 9 10 10 92 11
REMARK SMILES IDX 11 12 14 13 85 14 12 15 13 16 84 17 8 19 5 20 6 21 94 22
REMARK SMILES IDX 7 23 93 24 3 25 4 26 2 27 1 28 86 29 87 30 91 31 88 32 90 33
REMARK SMILES IDX 89 34 23 35 24 36 25 37 26 38 27 39 28 40 29 41 30 42 31 43
REMARK SMILES IDX 83 44 32 45 82 46 33 47 34 48 35 49 76 50 36 51 81 52 75 53
REMARK SMILES IDX 77 54 37 55 80 56 74 57 73 58 38 60 64 61 47 62 63 63 48 64
REMARK SMILES IDX 51 65 62 66 78 67 49 68 50 69 61 71 79 72 52 73 39 74 40 75
REMARK SMILES IDX 45 76 41 77 42 78 44 79 46 80 43 81 65 82 66 83 71 84 67 85
REMARK SMILES IDX 68 86 70 87 72 88 69 89 53 90 54 91 59 92 55 93 56 94 58 95
REMARK SMILES IDX 60 96 57 97
REMARK H PARENT 13 18 77 59 51 70
REMARK Flexibility Score: inf
ROOT
ATOM      1  C   UNL A   1      34.121  32.838  28.712  1.00  0.00     0.188 C 
ENDROOT
BRANCH   1   2
ATOM      2  O   UNL A   1      33.489  32.269  27.578  1.00  0.00    -0.376 OA
BRANCH   2   3
ATOM      3  C   UNL A   1      33.421  30.863  27.401  1.00  0.00     0.202 C 
BRANCH   3   4
ATOM      4  C   UNL A   1      32.129  30.124  26.986  1.00  0.00     0.261 C 
BRANCH   4   5
ATOM      5  O   UNL A   1      32.237  28.719  26.718  1.00  0.00    -0.460 OA
BRANCH   5   6
ATOM      6  C   UNL A   1      33.453  28.294  26.268  1.00  0.00     0.341 C 
ATOM      7  O   UNL A   1      34.505  28.886  26.453  1.00  0.00    -0.246 OA
BRANCH   6   8
ATOM      8  C   UNL A   1      33.392  26.964  25.669  1.00  0.00     0.102 A 
ATOM      9  C   UNL A   1      31.967  24.069  23.798  1.00  0.00     0.078 C 
ATOM     10  C   UNL A   1      30.478  24.448  23.903  1.00  0.00     0.115 C 
ATOM     11  C   UNL A   1      32.798  25.041  24.599  1.00  0.00     0.055 A 
ATOM     12  C   UNL A   1      30.193  25.938  23.977  1.00  0.00     0.225 C 
ATOM     13  C   UNL A   1      32.354  26.291  24.981  1.00  0.00     0.078 A 
ATOM     14  N   UNL A   1      34.115  24.927  25.011  1.00  0.00    -0.317 N 
ATOM     15  O   UNL A   1      29.139  26.412  23.557  1.00  0.00    -0.275 OA
ATOM     16  N   UNL A   1      31.099  26.729  24.635  1.00  0.00    -0.324 N 
ATOM     17  C   UNL A   1      34.435  26.052  25.739  1.00  0.00     0.109 A 
ATOM     18  H   UNL A   1      30.840  27.648  24.870  1.00  0.00     0.170 HD
BRANCH   9  19
ATOM     19  C   UNL A   1      32.102  22.572  24.088  1.00  0.00    -0.038 A 
ATOM     20  C   UNL A   1      32.499  19.794  24.480  1.00  0.00     0.060 A 
ATOM     21  C   UNL A   1      32.356  20.314  23.190  1.00  0.00     0.016 A 
ATOM     22  C   UNL A   1      32.380  20.654  25.576  1.00  0.00     0.016 A 
ATOM     23  C   UNL A   1      32.165  21.685  22.997  1.00  0.00     0.005 A 
ATOM     24  C   UNL A   1      32.148  22.025  25.380  1.00  0.00     0.005 A 
BRANCH  20  25
ATOM     25  C   UNL A   1      32.794  18.342  24.620  1.00  0.00     0.337 C 
ATOM     26  O   UNL A   1      31.956  17.514  24.943  1.00  0.00    -0.246 OA
BRANCH  25  27
ATOM     27  O   UNL A   1      34.099  18.084  24.352  1.00  0.00    -0.465 OA
ATOM     28  C   UNL A   1      34.501  16.748  24.666  1.00  0.00     0.282 C 
ENDBRANCH  25  27
ENDBRANCH  20  25
ENDBRANCH   9  19
BRANCH  14  29
ATOM     29  C   UNL A   1      35.023  23.880  24.751  1.00  0.00     0.045 A 
ATOM     30  C   UNL A   1      35.516  23.115  25.811  1.00  0.00     0.026 A 
ATOM     31  C   UNL A   1      35.457  23.655  23.437  1.00  0.00     0.026 A 
ATOM     32  C   UNL A   1      36.478  22.141  25.559  1.00  0.00     0.002 A 
ATOM     33  C   UNL A   1      36.452  22.706  23.204  1.00  0.00     0.002 A 
ATOM     34  C   UNL A   1      36.961  21.952  24.264  1.00  0.00     0.000 A 
ENDBRANCH  14  29
ENDBRANCH   6   8
ENDBRANCH   5   6
ENDBRANCH   4   5
ENDBRANCH   3   4
ENDBRANCH   2   3
ENDBRANCH   1   2
BRANCH   1  35
ATOM     35  C   UNL A   1      33.948  34.333  29.057  1.00  0.00     0.188 C 
BRANCH  35  36
ATOM     36  O   UNL A   1      33.562  34.602  30.385  1.00  0.00    -0.376 OA
BRANCH  36  37
ATOM     37  C   UNL A   1      34.411  34.327  31.486  1.00  0.00     0.202 C 
BRANCH  37  38
ATOM     38  C   UNL A   1      34.285  33.110  32.404  1.00  0.00     0.261 C 
BRANCH  38  39
ATOM     39  O   UNL A   1      34.943  31.932  31.989  1.00  0.00    -0.460 OA
BRANCH  39  40
ATOM     40  C   UNL A   1      36.163  31.767  32.537  1.00  0.00     0.338 C 
ATOM     41  O   UNL A   1      36.531  32.122  33.642  1.00  0.00    -0.246 OA
BRANCH  40  42
ATOM     42  C   UNL A   1      37.044  31.153  31.542  1.00  0.00     0.060 A 
ATOM     43  C   UNL A   1      36.825  29.803  31.267  1.00  0.00     0.016 A 
ATOM     44  C   UNL A   1      38.228  31.816  31.185  1.00  0.00     0.016 A 
ATOM     45  C   UNL A   1      37.899  29.051  30.854  1.00  0.00     0.010 A 
ATOM     46  C   UNL A   1      39.303  31.060  30.790  1.00  0.00     0.010 A 
ATOM     47  C   UNL A   1      39.143  29.679  30.732  1.00  0.00    -0.014 A 
BRANCH  47  48
ATOM     48  C   UNL A   1      40.297  28.828  30.574  1.00  0.00     0.031 A 
ATOM     49  C   UNL A   1      41.055  28.605  31.818  1.00  0.00     0.074 A 
ATOM     50  C   UNL A   1      40.591  28.249  29.396  1.00  0.00     0.049 A 
ATOM     51  N   UNL A   1      42.254  28.992  32.091  1.00  0.00    -0.248 NA
ATOM     52  C   UNL A   1      40.335  27.996  32.946  1.00  0.00     0.031 C 
ATOM     53  C   UNL A   1      39.761  28.167  28.189  1.00  0.00     0.029 A 
ATOM     54  N   UNL A   1      41.680  27.508  29.072  1.00  0.00    -0.354 N 
ATOM     55  C   UNL A   1      42.515  28.507  33.366  1.00  0.00     0.074 A 
ATOM     56  C   UNL A   1      41.258  28.054  33.904  1.00  0.00     0.031 C 
ATOM     57  C   UNL A   1      40.278  27.227  27.365  1.00  0.00     0.029 A 
ATOM     58  C   UNL A   1      41.526  26.740  27.929  1.00  0.00     0.049 A 
ATOM     59  H   UNL A   1      42.508  27.514  29.603  1.00  0.00     0.167 HD
ATOM     60  C   UNL A   1      43.786  28.291  33.793  1.00  0.00     0.037 A 
ATOM     61  C   UNL A   1      42.330  25.716  27.550  1.00  0.00     0.037 A 
ATOM     62  C   UNL A   1      44.749  28.993  32.988  1.00  0.00     0.049 A 
ATOM     63  C   UNL A   1      43.616  25.859  28.282  1.00  0.00     0.074 A 
ATOM     64  C   UNL A   1      44.973  30.322  32.685  1.00  0.00     0.029 A 
ATOM     65  N   UNL A   1      45.458  28.274  32.058  1.00  0.00    -0.354 N 
ATOM     66  N   UNL A   1      44.486  26.805  28.058  1.00  0.00    -0.248 NA
ATOM     67  C   UNL A   1      43.736  25.202  29.577  1.00  0.00     0.031 C 
ATOM     68  C   UNL A   1      45.406  30.327  31.327  1.00  0.00     0.029 A 
ATOM     69  C   UNL A   1      45.458  29.002  30.896  1.00  0.00     0.049 A 
ATOM     70  H   UNL A   1      45.888  27.399  32.198  1.00  0.00     0.167 HD
ATOM     71  C   UNL A   1      44.968  27.150  29.313  1.00  0.00     0.074 A 
ATOM     72  C   UNL A   1      44.546  26.066  30.196  1.00  0.00     0.031 C 
ATOM     73  C   UNL A   1      45.412  28.414  29.577  1.00  0.00     0.037 A 
BRANCH  60  74
ATOM     74  C   UNL A   1      44.162  27.159  34.706  1.00  0.00     0.057 A 
ATOM     75  C   UNL A   1      43.989  25.837  34.272  1.00  0.00     0.134 A 
ATOM     76  C   UNL A   1      44.418  27.318  36.085  1.00  0.00     0.134 A 
ATOM     77  F   UNL A   1      43.709  25.566  32.988  1.00  0.00    -0.206 F 
ATOM     78  C   UNL A   1      44.017  24.753  35.157  1.00  0.00     0.040 A 
ATOM     79  C   UNL A   1      44.506  26.240  36.966  1.00  0.00     0.040 A 
ATOM     80  F   UNL A   1      44.493  28.522  36.666  1.00  0.00    -0.206 F 
ATOM     81  C   UNL A   1      44.275  24.953  36.508  1.00  0.00     0.006 A 
ENDBRANCH  60  74
BRANCH  61  82
ATOM     82  C   UNL A   1      41.943  24.461  26.867  1.00  0.00     0.057 A 
ATOM     83  C   UNL A   1      42.777  23.879  25.902  1.00  0.00     0.134 A 
ATOM     84  C   UNL A   1      40.885  23.657  27.329  1.00  0.00     0.134 A 
ATOM     85  F   UNL A   1      43.840  24.548  25.429  1.00  0.00    -0.206 F 
ATOM     86  C   UNL A   1      42.587  22.569  25.443  1.00  0.00     0.040 A 
ATOM     87  C   UNL A   1      40.675  22.353  26.871  1.00  0.00     0.040 A 
ATOM     88  F   UNL A   1      40.069  24.075  28.308  1.00  0.00    -0.206 F 
ATOM     89  C   UNL A   1      41.538  21.798  25.935  1.00  0.00     0.006 A 
ENDBRANCH  61  82
BRANCH  73  90
ATOM     90  C   UNL A   1      45.612  29.344  28.413  1.00  0.00     0.057 A 
ATOM     91  C   UNL A   1      44.602  30.159  27.879  1.00  0.00     0.134 A 
ATOM     92  C   UNL A   1      46.905  29.531  27.912  1.00  0.00     0.134 A 
ATOM     93  F   UNL A   1      43.357  30.130  28.369  1.00  0.00    -0.206 F 
ATOM     94  C   UNL A   1      44.860  31.080  26.859  1.00  0.00     0.040 A 
ATOM     95  C   UNL A   1      47.183  30.471  26.918  1.00  0.00     0.040 A 
ATOM     96  F   UNL A   1      47.934  28.830  28.418  1.00  0.00    -0.206 F 
ATOM     97  C   UNL A   1      46.156  31.241  26.378  1.00  0.00     0.006 A 
ENDBRANCH  73  90
ENDBRANCH  47  48
ENDBRANCH  40  42
ENDBRANCH  39  40
ENDBRANCH  38  39
ENDBRANCH  37  38
ENDBRANCH  36  37
ENDBRANCH  35  36
ENDBRANCH   1  35
TORSDOF 21
ENDMDL
MODEL 2
REMARK VINA RESULT:     -10.8      1.557      5.170
REMARK SMILES COC(=O)c1ccc([C@H]2CC(=O)Nc3c(C(=O)OCCOCCOCCOC(=O)c4ccc(-c5c6nc(c(-c7c(F)cccc7F)c7ccc([nH]7)c(-c7c(F)cccc7F)c7nc(c(-c8c(F)cccc8F)c8ccc5[nH]8)C=C7)C=C6)cc4)cn(-c4ccccc4)c32)cc1
REMARK SMILES IDX 22 1 21 2 20 3 19 4 18 5 16 6 17 7 15 8 9 9 10 10 92 11
REMARK SMILES IDX 11 12 14 13 85 14 12 15 13 16 84 17 8 19 5 20 6 21 94 22
REMARK SMILES IDX 7 23 93 24 3 25 4 26 2 27 1 28 86 29 87 30 91 31 88 32 90 33
REMARK SMILES IDX 89 34 23 35 24 36 25 37 26 38 27 39 28 40 29 41 30 42 31 43
REMARK SMILES IDX 83 44 32 45 82 46 33 47 34 48 35 49 76 50 36 51 81 52 75 53
REMARK SMILES IDX 77 54 37 55 80 56 74 57 73 58 38 60 64 61 47 62 63 63 48 64
REMARK SMILES IDX 51 65 62 66 78 67 49 68 50 69 61 71 79 72 52 73 39 74 40 75
REMARK SMILES IDX 45 76 41 77 42 78 44 79 46 80 43 81 65 82 66 83 71 84 67 85
REMARK SMILES IDX 68 86 70 87 72 88 69 89 53 90 54 91 59 92 55 93 56 94 58 95
REMARK SMILES IDX 60 96 57 97
REMARK H PARENT 13 18 77 59 51 70
REMARK Flexibility Score: inf
ROOT
ATOM      1  C   UNL A   1      33.993  32.576  28.939  1.00  0.00     0.188 C 
ENDROOT
BRANCH   1   2
ATOM      2  O   UNL A   1      33.660  32.315  27.585  1.00  0.00    -0.376 OA
BRANCH   2   3
ATOM      3  C   UNL A   1      33.463  30.989  27.119  1.00  0.00     0.202 C 
BRANCH   3   4
ATOM      4  C   UNL A   1      32.066  30.357  26.931  1.00  0.00     0.261 C 
BRANCH   4   5
ATOM      5  O   UNL A   1      32.013  28.940  26.716  1.00  0.00    -0.460 OA
BRANCH   5   6
ATOM      6  C   UNL A   1      33.215  28.292  26.742  1.00  0.00     0.341 C 
ATOM      7  O   UNL A   1      34.179  28.649  27.400  1.00  0.00    -0.246 OA
BRANCH   6   8
ATOM      8  C   UNL A   1      33.182  27.026  26.016  1.00  0.00     0.102 A 
ATOM      9  C   UNL A   1      31.850  24.336  23.801  1.00  0.00     0.078 C 
ATOM     10  C   UNL A   1      30.360  24.718  23.859  1.00  0.00     0.115 C 
ATOM     11  C   UNL A   1      32.640  25.219  24.736  1.00  0.00     0.055 A 
ATOM     12  C   UNL A   1      30.078  26.197  24.060  1.00  0.00     0.225 C 
ATOM     13  C   UNL A   1      32.181  26.432  25.210  1.00  0.00     0.078 A 
ATOM     14  N   UNL A   1      33.932  25.055  25.207  1.00  0.00    -0.317 N 
ATOM     15  O   UNL A   1      29.051  26.719  23.629  1.00  0.00    -0.275 OA
ATOM     16  N   UNL A   1      30.949  26.913  24.839  1.00  0.00    -0.324 N 
ATOM     17  C   UNL A   1      34.215  26.101  26.056  1.00  0.00     0.109 A 
ATOM     18  H   UNL A   1      30.681  27.808  25.146  1.00  0.00     0.170 HD
BRANCH   9  19
ATOM     19  C   UNL A   1      31.963  22.817  23.953  1.00  0.00    -0.038 A 
ATOM     20  C   UNL A   1      32.339  20.014  24.117  1.00  0.00     0.060 A 
ATOM     21  C   UNL A   1      32.397  20.665  22.881  1.00  0.00     0.016 A 
ATOM     22  C   UNL A   1      32.030  20.755  25.262  1.00  0.00     0.016 A 
ATOM     23  C   UNL A   1      32.215  22.049  22.802  1.00  0.00     0.005 A 
ATOM     24  C   UNL A   1      31.810  22.138  25.172  1.00  0.00     0.005 A 
BRANCH  20  25
ATOM     25  C   UNL A   1      32.633  18.555  24.152  1.00  0.00     0.337 C 
ATOM     26  O   UNL A   1      33.182  17.958  23.239  1.00  0.00    -0.246 OA
BRANCH  25  27
ATOM     27  O   UNL A   1      32.203  18.001  25.314  1.00  0.00    -0.465 OA
ATOM     28  C   UNL A   1      32.516  16.612  25.444  1.00  0.00     0.282 C 
ENDBRANCH  25  27
ENDBRANCH  20  25
ENDBRANCH   9  19
BRANCH  14  29
ATOM     29  C   UNL A   1      34.848  24.027  24.899  1.00  0.00     0.045 A 
ATOM     30  C   UNL A   1      35.291  23.869  23.584  1.00  0.00     0.026 A 
ATOM     31  C   UNL A   1      35.261  23.148  25.909  1.00  0.00     0.026 A 
ATOM     32  C   UNL A   1      36.125  22.800  23.269  1.00  0.00     0.002 A 
ATOM     33  C   UNL A   1      36.062  22.057  25.574  1.00  0.00     0.002 A 
ATOM     34  C   UNL A   1      36.492  21.884  24.256  1.00  0.00     0.000 A 
ENDBRANCH  14  29
ENDBRANCH   6   8
ENDBRANCH   5   6
ENDBRANCH   4   5
ENDBRANCH   3   4
ENDBRANCH   2   3
ENDBRANCH   1   2
BRANCH   1  35
ATOM     35  C   UNL A   1      34.159  34.022  29.456  1.00  0.00     0.188 C 
BRANCH  35  36
ATOM     36  O   UNL A   1      33.879  34.205  30.824  1.00  0.00    -0.376 OA
BRANCH  36  37
ATOM     37  C   UNL A   1      34.855  33.987  31.828  1.00  0.00     0.202 C 
BRANCH  37  38
ATOM     38  C   UNL A   1      34.806  32.864  32.865  1.00  0.00     0.261 C 
BRANCH  38  39
ATOM     39  O   UNL A   1      35.944  32.032  32.955  1.00  0.00    -0.460 OA
BRANCH  39  40
ATOM     40  C   UNL A   1      36.872  32.472  33.828  1.00  0.00     0.338 C 
ATOM     41  O   UNL A   1      36.686  32.884  34.959  1.00  0.00    -0.246 OA
BRANCH  40  42
ATOM     42  C   UNL A   1      38.178  32.464  33.168  1.00  0.00     0.060 A 
ATOM     43  C   UNL A   1      38.204  32.016  31.847  1.00  0.00     0.016 A 
ATOM     44  C   UNL A   1      39.335  32.568  33.954  1.00  0.00     0.016 A 
ATOM     45  C   UNL A   1      39.362  31.433  31.391  1.00  0.00     0.010 A 
ATOM     46  C   UNL A   1      40.485  31.969  33.503  1.00  0.00     0.010 A 
ATOM     47  C   UNL A   1      40.443  31.323  32.271  1.00  0.00    -0.014 A 
BRANCH  47  48
ATOM     48  C   UNL A   1      41.534  30.469  31.871  1.00  0.00     0.031 A 
ATOM     49  C   UNL A   1      42.479  31.100  30.933  1.00  0.00     0.074 A 
ATOM     50  C   UNL A   1      41.686  29.233  32.380  1.00  0.00     0.049 A 
ATOM     51  N   UNL A   1      42.704  30.779  29.704  1.00  0.00    -0.248 NA
ATOM     52  C   UNL A   1      43.154  32.328  31.379  1.00  0.00     0.031 C 
ATOM     53  C   UNL A   1      40.987  28.623  33.515  1.00  0.00     0.029 A 
ATOM     54  N   UNL A   1      42.598  28.288  32.036  1.00  0.00    -0.354 N 
ATOM     55  C   UNL A   1      43.696  31.650  29.273  1.00  0.00     0.074 A 
ATOM     56  C   UNL A   1      43.814  32.677  30.276  1.00  0.00     0.031 C 
ATOM     57  C   UNL A   1      41.662  27.517  33.903  1.00  0.00     0.029 A 
ATOM     58  C   UNL A   1      42.755  27.281  32.974  1.00  0.00     0.049 A 
ATOM     59  H   UNL A   1      43.104  28.317  31.193  1.00  0.00     0.167 HD
ATOM     60  C   UNL A   1      44.516  31.329  28.239  1.00  0.00     0.037 A 
ATOM     61  C   UNL A   1      43.778  26.393  33.015  1.00  0.00     0.037 A 
ATOM     62  C   UNL A   1      43.977  30.265  27.436  1.00  0.00     0.049 A 
ATOM     63  C   UNL A   1      44.417  26.378  31.672  1.00  0.00     0.074 A 
ATOM     64  C   UNL A   1      42.821  30.100  26.698  1.00  0.00     0.029 A 
ATOM     65  N   UNL A   1      44.497  29.005  27.601  1.00  0.00    -0.354 N 
ATOM     66  N   UNL A   1      43.856  25.891  30.600  1.00  0.00    -0.248 NA
ATOM     67  C   UNL A   1      45.509  27.310  31.431  1.00  0.00     0.031 C 
ATOM     68  C   UNL A   1      42.462  28.731  26.868  1.00  0.00     0.029 A 
ATOM     69  C   UNL A   1      43.440  28.135  27.665  1.00  0.00     0.049 A 
ATOM     70  H   UNL A   1      45.451  28.770  27.663  1.00  0.00     0.167 HD
ATOM     71  C   UNL A   1      44.222  26.760  29.582  1.00  0.00     0.074 A 
ATOM     72  C   UNL A   1      45.316  27.554  30.131  1.00  0.00     0.031 C 
ATOM     73  C   UNL A   1      43.418  26.951  28.494  1.00  0.00     0.037 A 
BRANCH  60  74
ATOM     74  C   UNL A   1      45.962  31.735  28.184  1.00  0.00     0.057 A 
ATOM     75  C   UNL A   1      46.453  32.379  27.039  1.00  0.00     0.134 A 
ATOM     76  C   UNL A   1      46.941  31.269  29.087  1.00  0.00     0.134 A 
ATOM     77  F   UNL A   1      45.617  32.835  26.094  1.00  0.00    -0.206 F 
ATOM     78  C   UNL A   1      47.824  32.503  26.785  1.00  0.00     0.040 A 
ATOM     79  C   UNL A   1      48.308  31.439  28.872  1.00  0.00     0.040 A 
ATOM     80  F   UNL A   1      46.631  30.538  30.165  1.00  0.00    -0.206 F 
ATOM     81  C   UNL A   1      48.756  32.031  27.703  1.00  0.00     0.006 A 
ENDBRANCH  60  74
BRANCH  61  82
ATOM     82  C   UNL A   1      44.436  25.818  34.211  1.00  0.00     0.057 A 
ATOM     83  C   UNL A   1      45.194  26.622  35.072  1.00  0.00     0.134 A 
ATOM     84  C   UNL A   1      44.121  24.532  34.688  1.00  0.00     0.134 A 
ATOM     85  F   UNL A   1      45.511  27.879  34.728  1.00  0.00    -0.206 F 
ATOM     86  C   UNL A   1      45.593  26.185  36.342  1.00  0.00     0.040 A 
ATOM     87  C   UNL A   1      44.523  24.078  35.947  1.00  0.00     0.040 A 
ATOM     88  F   UNL A   1      43.335  23.702  33.987  1.00  0.00    -0.206 F 
ATOM     89  C   UNL A   1      45.250  24.911  36.788  1.00  0.00     0.006 A 
ENDBRANCH  61  82
BRANCH  73  90
ATOM     90  C   UNL A   1      42.264  26.008  28.299  1.00  0.00     0.057 A 
ATOM     91  C   UNL A   1      40.962  26.258  28.761  1.00  0.00     0.134 A 
ATOM     92  C   UNL A   1      42.442  24.880  27.491  1.00  0.00     0.134 A 
ATOM     93  F   UNL A   1      40.672  27.369  29.449  1.00  0.00    -0.206 F 
ATOM     94  C   UNL A   1      39.899  25.397  28.472  1.00  0.00     0.040 A 
ATOM     95  C   UNL A   1      41.383  24.031  27.165  1.00  0.00     0.040 A 
ATOM     96  F   UNL A   1      43.647  24.611  26.963  1.00  0.00    -0.206 F 
ATOM     97  C   UNL A   1      40.108  24.280  27.667  1.00  0.00     0.006 A 
ENDBRANCH  73  90
ENDBRANCH  47  48
ENDBRANCH  40  42
ENDBRANCH  39  40
ENDBRANCH  38  39
ENDBRANCH  37  38
ENDBRANCH  36  37
ENDBRANCH  35  36
ENDBRANCH   1  35
TORSDOF 21
ENDMDL
MODEL 3
REMARK VINA RESULT:     -10.7      3.040      9.003
REMARK SMILES COC(=O)c1ccc([C@H]2CC(=O)Nc3c(C(=O)OCCOCCOCCOC(=O)c4ccc(-c5c6nc(c(-c7c(F)cccc7F)c7ccc([nH]7)c(-c7c(F)cccc7F)c7nc(c(-c8c(F)cccc8F)c8ccc5[nH]8)C=C7)C=C6)cc4)cn(-c4ccccc4)c32)cc1
REMARK SMILES IDX 22 1 21 2 20 3 19 4 18 5 16 6 17 7 15 8 9 9 10 10 92 11
REMARK SMILES IDX 11 12 14 13 85 14 12 15 13 16 84 17 8 19 5 20 6 21 94 22
REMARK SMILES IDX 7 23 93 24 3 25 4 26 2 27 1 28 86 29 87 30 91 31 88 32 90 33
REMARK SMILES IDX 89 34 23 35 24 36 25 37 26 38 27 39 28 40 29 41 30 42 31 43
REMARK SMILES IDX 83 44 32 45 82 46 33 47 34 48 35 49 76 50 36 51 81 52 75 53
REMARK SMILES IDX 77 54 37 55 80 56 74 57 73 58 38 60 64 61 47 62 63 63 48 64
REMARK SMILES IDX 51 65 62 66 78 67 49 68 50 69 61 71 79 72 52 73 39 74 40 75
REMARK SMILES IDX 45 76 41 77 42 78 44 79 46 80 43 81 65 82 66 83 71 84 67 85
REMARK SMILES IDX 68 86 70 87 72 88 69 89 53 90 54 91 59 92 55 93 56 94 58 95
REMARK SMILES IDX 60 96 57 97
REMARK H PARENT 13 18 77 59 51 70
REMARK Flexibility Score: inf
ROOT
ATOM      1  C   UNL A   1      34.006  24.027  25.244  1.00  0.00     0.188 C 
ENDROOT
BRANCH   1   2
ATOM      2  O   UNL A   1      34.217  25.429  25.252  1.00  0.00    -0.376 OA
BRANCH   2   3
ATOM      3  C   UNL A   1      33.242  26.323  24.736  1.00  0.00     0.202 C 
BRANCH   3   4
ATOM      4  C   UNL A   1      32.823  27.624  25.454  1.00  0.00     0.261 C 
BRANCH   4   5
ATOM      5  O   UNL A   1      33.871  28.441  25.993  1.00  0.00    -0.460 OA
BRANCH   5   6
ATOM      6  C   UNL A   1      33.526  29.729  26.285  1.00  0.00     0.341 C 
ATOM      7  O   UNL A   1      32.535  30.295  25.853  1.00  0.00    -0.246 OA
BRANCH   6   8
ATOM      8  C   UNL A   1      34.389  30.320  27.304  1.00  0.00     0.102 A 
ATOM      9  C   UNL A   1      35.628  32.840  29.760  1.00  0.00     0.078 C 
ATOM     10  C   UNL A   1      34.883  34.070  29.211  1.00  0.00     0.115 C 
ATOM     11  C   UNL A   1      35.395  31.655  28.854  1.00  0.00     0.055 A 
ATOM     12  C   UNL A   1      33.555  33.774  28.535  1.00  0.00     0.225 C 
ATOM     13  C   UNL A   1      34.350  31.576  27.955  1.00  0.00     0.078 A 
ATOM     14  N   UNL A   1      36.076  30.451  28.801  1.00  0.00    -0.317 N 
ATOM     15  O   UNL A   1      32.645  34.602  28.518  1.00  0.00    -0.275 OA
ATOM     16  N   UNL A   1      33.440  32.598  27.842  1.00  0.00    -0.324 N 
ATOM     17  C   UNL A   1      35.523  29.689  27.796  1.00  0.00     0.109 A 
ATOM     18  H   UNL A   1      32.673  32.481  27.236  1.00  0.00     0.170 HD
BRANCH   9  19
ATOM     19  C   UNL A   1      37.068  33.252  30.076  1.00  0.00    -0.038 A 
ATOM     20  C   UNL A   1      39.758  33.831  30.750  1.00  0.00     0.060 A 
ATOM     21  C   UNL A   1      38.890  33.291  31.703  1.00  0.00     0.016 A 
ATOM     22  C   UNL A   1      39.264  34.141  29.479  1.00  0.00     0.016 A 
ATOM     23  C   UNL A   1      37.564  33.001  31.369  1.00  0.00     0.005 A 
ATOM     24  C   UNL A   1      37.921  33.885  29.159  1.00  0.00     0.005 A 
BRANCH  20  25
ATOM     25  C   UNL A   1      41.182  34.031  31.134  1.00  0.00     0.337 C 
ATOM     26  O   UNL A   1      41.552  34.894  31.916  1.00  0.00    -0.246 OA
BRANCH  25  27
ATOM     27  O   UNL A   1      41.986  33.143  30.498  1.00  0.00    -0.465 OA
ATOM     28  C   UNL A   1      42.554  32.154  31.362  1.00  0.00     0.282 C 
ENDBRANCH  25  27
ENDBRANCH  20  25
ENDBRANCH   9  19
BRANCH  14  29
ATOM     29  C   UNL A   1      37.145  30.017  29.614  1.00  0.00     0.045 A 
ATOM     30  C   UNL A   1      38.456  30.128  29.146  1.00  0.00     0.026 A 
ATOM     31  C   UNL A   1      36.870  29.433  30.858  1.00  0.00     0.026 A 
ATOM     32  C   UNL A   1      39.499  29.617  29.914  1.00  0.00     0.002 A 
ATOM     33  C   UNL A   1      37.919  28.888  31.598  1.00  0.00     0.002 A 
ATOM     34  C   UNL A   1      39.229  28.981  31.126  1.00  0.00     0.000 A 
ENDBRANCH  14  29
ENDBRANCH   6   8
ENDBRANCH   5   6
ENDBRANCH   4   5
ENDBRANCH   3   4
ENDBRANCH   2   3
ENDBRANCH   1   2
BRANCH   1  35
ATOM     35  C   UNL A   1      35.092  23.060  24.723  1.00  0.00     0.188 C 
BRANCH  35  36
ATOM     36  O   UNL A   1      36.197  22.884  25.579  1.00  0.00    -0.376 OA
BRANCH  36  37
ATOM     37  C   UNL A   1      37.476  22.515  25.092  1.00  0.00     0.202 C 
BRANCH  37  38
ATOM     38  C   UNL A   1      38.295  21.326  25.598  1.00  0.00     0.261 C 
BRANCH  38  39
ATOM     39  O   UNL A   1      39.297  21.606  26.552  1.00  0.00    -0.460 OA
BRANCH  39  40
ATOM     40  C   UNL A   1      40.504  21.095  26.239  1.00  0.00     0.338 C 
ATOM     41  O   UNL A   1      40.811  19.920  26.158  1.00  0.00    -0.246 OA
BRANCH  40  42
ATOM     42  C   UNL A   1      41.455  22.198  26.090  1.00  0.00     0.060 A 
ATOM     43  C   UNL A   1      42.790  21.846  25.892  1.00  0.00     0.016 A 
ATOM     44  C   UNL A   1      41.063  23.487  26.480  1.00  0.00     0.016 A 
ATOM     45  C   UNL A   1      43.755  22.721  26.328  1.00  0.00     0.010 A 
ATOM     46  C   UNL A   1      42.028  24.353  26.931  1.00  0.00     0.010 A 
ATOM     47  C   UNL A   1      43.347  23.910  26.941  1.00  0.00    -0.014 A 
BRANCH  47  48
ATOM     48  C   UNL A   1      44.356  24.673  27.635  1.00  0.00     0.031 A 
ATOM     49  C   UNL A   1      44.277  24.577  29.103  1.00  0.00     0.074 A 
ATOM     50  C   UNL A   1      45.312  25.347  26.971  1.00  0.00     0.049 A 
ATOM     51  N   UNL A   1      43.994  25.516  29.941  1.00  0.00    -0.248 NA
ATOM     52  C   UNL A   1      44.393  23.239  29.699  1.00  0.00     0.031 C 
ATOM     53  C   UNL A   1      45.654  25.276  25.547  1.00  0.00     0.029 A 
ATOM     54  N   UNL A   1      46.261  26.175  27.476  1.00  0.00    -0.354 N 
ATOM     55  C   UNL A   1      44.083  24.928  31.195  1.00  0.00     0.074 A 
ATOM     56  C   UNL A   1      44.164  23.506  30.984  1.00  0.00     0.031 C 
ATOM     57  C   UNL A   1      46.869  25.842  25.360  1.00  0.00     0.029 A 
ATOM     58  C   UNL A   1      47.321  26.416  26.617  1.00  0.00     0.049 A 
ATOM     59  H   UNL A   1      46.202  26.570  28.375  1.00  0.00     0.167 HD
ATOM     60  C   UNL A   1      44.327  25.669  32.307  1.00  0.00     0.037 A 
ATOM     61  C   UNL A   1      48.513  26.959  26.965  1.00  0.00     0.037 A 
ATOM     62  C   UNL A   1      44.056  27.065  32.092  1.00  0.00     0.049 A 
ATOM     63  C   UNL A   1      48.326  27.660  28.263  1.00  0.00     0.074 A 
ATOM     64  C   UNL A   1      42.934  27.789  31.736  1.00  0.00     0.029 A 
ATOM     65  N   UNL A   1      45.122  27.905  31.891  1.00  0.00    -0.354 N 
ATOM     66  N   UNL A   1      47.629  28.753  28.412  1.00  0.00    -0.248 NA
ATOM     67  C   UNL A   1      48.551  26.898  29.484  1.00  0.00     0.031 C 
ATOM     68  C   UNL A   1      43.418  28.839  30.902  1.00  0.00     0.029 A 
ATOM     69  C   UNL A   1      44.806  28.716  30.831  1.00  0.00     0.049 A 
ATOM     70  H   UNL A   1      45.959  27.923  32.410  1.00  0.00     0.167 HD
ATOM     71  C   UNL A   1      46.976  28.595  29.627  1.00  0.00     0.074 A 
ATOM     72  C   UNL A   1      47.656  27.485  30.285  1.00  0.00     0.031 C 
ATOM     73  C   UNL A   1      45.768  29.187  29.861  1.00  0.00     0.037 A 
BRANCH  60  74
ATOM     74  C   UNL A   1      45.153  25.171  33.459  1.00  0.00     0.057 A 
ATOM     75  C   UNL A   1      44.580  25.098  34.737  1.00  0.00     0.134 A 
ATOM     76  C   UNL A   1      46.556  25.031  33.412  1.00  0.00     0.134 A 
ATOM     77  F   UNL A   1      43.258  25.249  34.908  1.00  0.00    -0.206 F 
ATOM     78  C   UNL A   1      45.355  24.949  35.892  1.00  0.00     0.040 A 
ATOM     79  C   UNL A   1      47.333  24.823  34.552  1.00  0.00     0.040 A 
ATOM     80  F   UNL A   1      47.255  25.191  32.282  1.00  0.00    -0.206 F 
ATOM     81  C   UNL A   1      46.736  24.812  35.803  1.00  0.00     0.006 A 
ENDBRANCH  60  74
BRANCH  61  82
ATOM     82  C   UNL A   1      49.854  26.633  26.428  1.00  0.00     0.057 A 
ATOM     83  C   UNL A   1      50.648  27.618  25.826  1.00  0.00     0.134 A 
ATOM     84  C   UNL A   1      50.501  25.420  26.729  1.00  0.00     0.134 A 
ATOM     85  F   UNL A   1      50.135  28.824  25.538  1.00  0.00    -0.206 F 
ATOM     86  C   UNL A   1      52.009  27.420  25.562  1.00  0.00     0.040 A 
ATOM     87  C   UNL A   1      51.856  25.205  26.460  1.00  0.00     0.040 A 
ATOM     88  F   UNL A   1      49.865  24.433  27.377  1.00  0.00    -0.206 F 
ATOM     89  C   UNL A   1      52.620  26.213  25.888  1.00  0.00     0.006 A 
ENDBRANCH  61  82
BRANCH  73  90
ATOM     90  C   UNL A   1      45.290  30.220  28.879  1.00  0.00     0.057 A 
ATOM     91  C   UNL A   1      44.553  29.919  27.723  1.00  0.00     0.134 A 
ATOM     92  C   UNL A   1      45.453  31.574  29.190  1.00  0.00     0.134 A 
ATOM     93  F   UNL A   1      44.252  28.654  27.402  1.00  0.00    -0.206 F 
ATOM     94  C   UNL A   1      44.047  30.921  26.890  1.00  0.00     0.040 A 
ATOM     95  C   UNL A   1      44.922  32.584  28.386  1.00  0.00     0.040 A 
ATOM     96  F   UNL A   1      46.093  31.938  30.313  1.00  0.00    -0.206 F 
ATOM     97  C   UNL A   1      44.227  32.260  27.223  1.00  0.00     0.006 A 
ENDBRANCH  73  90
ENDBRANCH  47  48
ENDBRANCH  40  42
ENDBRANCH  39  40
ENDBRANCH  38  39
ENDBRANCH  37  38
ENDBRANCH  36  37
ENDBRANCH  35  36
ENDBRANCH   1  35
TORSDOF 21
ENDMDL
