MODEL 1
REMARK VINA RESULT:     -10.0      0.000      0.000
REMARK SMILES CC(C)C[C@H](NC(=O)CNC(=O)[C@@H](NC(=O)OCc1ccccc1)C(C)C)C(=O)N[C@@H](C)C(=O)OCCOCCOCCOC(=O)c1ccc(-c2c3nc(c(-c4c(F)cccc4F)c4ccc([nH]4)c(-c4c(F)cccc4F)c4nc(c(-c5c(F)cccc5F)c5ccc2[nH]5)C=C4)C=C3)cc1
REMARK SMILES IDX 36 1 35 2 33 3 34 4 31 5 32 6 30 7 28 8 29 9 5 11 4 12 2 13
REMARK SMILES IDX 1 14 3 15 6 16 7 17 8 19 9 20 10 21 11 22 12 24 13 25 14 26
REMARK SMILES IDX 15 27 16 29 17 30 18 31 19 32 20 33 24 34 21 35 23 36 22 37
REMARK SMILES IDX 25 38 26 39 27 40 37 41 38 42 39 43 40 44 41 45 42 46 43 47
REMARK SMILES IDX 44 48 45 49 46 50 47 51 48 52 100 53 49 54 99 55 50 56 51 57
REMARK SMILES IDX 52 58 93 59 53 60 98 61 92 62 94 63 54 64 97 65 91 66 90 67
REMARK SMILES IDX 55 69 81 70 64 71 80 72 65 73 68 74 79 75 95 76 66 77 67 78
REMARK SMILES IDX 78 80 96 81 69 82 56 83 57 84 62 85 58 86 59 87 61 88 63 89
REMARK SMILES IDX 60 90 82 91 83 92 88 93 84 94 85 95 87 96 89 97 86 98 70 99
REMARK SMILES IDX 71 100 76 101 72 102 73 103 75 104 77 105 74 106
REMARK H PARENT 30 10 6 18 10 23 14 28 94 68 68 79
REMARK Flexibility Score: inf
ROOT
ATOM      1  C   UNL A   1      35.275  31.184  27.645  1.00  0.00     0.261 C 
ENDROOT
BRANCH   1   2
ATOM      2  O   UNL A   1      34.805  29.849  27.969  1.00  0.00    -0.462 OA
BRANCH   2   3
ATOM      3  C   UNL A   1      34.077  29.242  26.986  1.00  0.00     0.328 C 
ATOM      4  O   UNL A   1      34.556  28.813  25.940  1.00  0.00    -0.250 OA
BRANCH   3   5
ATOM      5  C   UNL A   1      32.573  29.073  27.304  1.00  0.00     0.189 C 
ATOM      6  C   UNL A   1      32.199  27.632  26.962  1.00  0.00     0.043 C 
BRANCH   5   7
ATOM      7  N   UNL A   1      31.612  29.955  26.656  1.00  0.00    -0.341 N 
ATOM      8  C   UNL A   1      31.198  29.941  25.354  1.00  0.00     0.243 C 
ATOM      9  O   UNL A   1      30.589  30.937  24.952  1.00  0.00    -0.273 OA
ATOM     10  H   UNL A   1      31.212  30.649  27.227  1.00  0.00     0.164 HD
BRANCH   8  11
ATOM     11  C   UNL A   1      31.303  28.681  24.447  1.00  0.00     0.171 C 
BRANCH  11  12
ATOM     12  C   UNL A   1      30.764  27.414  25.094  1.00  0.00     0.038 C 
BRANCH  12  13
ATOM     13  C   UNL A   1      29.761  26.557  24.322  1.00  0.00    -0.015 C 
ATOM     14  C   UNL A   1      28.801  27.386  23.472  1.00  0.00     0.007 C 
ATOM     15  C   UNL A   1      30.507  25.579  23.434  1.00  0.00     0.007 C 
ENDBRANCH  12  13
ENDBRANCH  11  12
BRANCH  11  16
ATOM     16  N   UNL A   1      32.515  28.574  23.593  1.00  0.00    -0.343 N 
ATOM     17  C   UNL A   1      33.583  27.817  23.271  1.00  0.00     0.240 C 
ATOM     18  H   UNL A   1      32.554  29.386  23.037  1.00  0.00     0.164 HD
ATOM     19  O   UNL A   1      34.283  28.311  22.368  1.00  0.00    -0.273 OA
BRANCH  17  20
ATOM     20  C   UNL A   1      33.978  26.415  23.745  1.00  0.00     0.216 C 
BRANCH  20  21
ATOM     21  N   UNL A   1      34.025  25.315  22.830  1.00  0.00    -0.345 N 
ATOM     22  C   UNL A   1      34.097  23.992  23.101  1.00  0.00     0.243 C 
ATOM     23  H   UNL A   1      34.002  25.553  21.875  1.00  0.00     0.164 HD
ATOM     24  O   UNL A   1      33.835  23.249  22.146  1.00  0.00    -0.273 OA
BRANCH  22  25
ATOM     25  C   UNL A   1      34.344  23.410  24.528  1.00  0.00     0.177 C 
BRANCH  25  26
ATOM     26  N   UNL A   1      33.150  23.109  25.338  1.00  0.00    -0.309 N 
ATOM     27  C   UNL A   1      32.269  22.069  25.412  1.00  0.00     0.408 C 
ATOM     28  H   UNL A   1      32.938  23.828  25.976  1.00  0.00     0.167 HD
ATOM     29  O   UNL A   1      31.232  22.194  26.014  1.00  0.00    -0.225 OA
BRANCH  27  30
ATOM     30  O   UNL A   1      32.720  20.941  24.823  1.00  0.00    -0.445 OA
BRANCH  30  31
ATOM     31  C   UNL A   1      33.345  19.948  25.660  1.00  0.00     0.270 C 
BRANCH  31  32
ATOM     32  C   UNL A   1      33.320  18.515  25.146  1.00  0.00    -0.011 A 
ATOM     33  C   UNL A   1      34.147  18.131  24.079  1.00  0.00     0.007 A 
ATOM     34  C   UNL A   1      32.515  17.534  25.746  1.00  0.00     0.007 A 
ATOM     35  C   UNL A   1      34.178  16.814  23.623  1.00  0.00     0.000 A 
ATOM     36  C   UNL A   1      32.576  16.206  25.313  1.00  0.00     0.000 A 
ATOM     37  C   UNL A   1      33.410  15.849  24.258  1.00  0.00     0.000 A 
ENDBRANCH  31  32
ENDBRANCH  30  31
ENDBRANCH  27  30
ENDBRANCH  25  26
BRANCH  25  38
ATOM     38  C   UNL A   1      35.417  22.324  24.451  1.00  0.00     0.015 C 
ATOM     39  C   UNL A   1      36.548  22.754  23.507  1.00  0.00     0.010 C 
ATOM     40  C   UNL A   1      35.994  22.097  25.841  1.00  0.00     0.010 C 
ENDBRANCH  25  38
ENDBRANCH  22  25
ENDBRANCH  20  21
ENDBRANCH  17  20
ENDBRANCH  11  16
ENDBRANCH   8  11
ENDBRANCH   5   7
ENDBRANCH   3   5
ENDBRANCH   2   3
ENDBRANCH   1   2
BRANCH   1  41
ATOM     41  C   UNL A   1      34.182  32.259  27.680  1.00  0.00     0.202 C 
BRANCH  41  42
ATOM     42  O   UNL A   1      34.648  33.567  27.989  1.00  0.00    -0.376 OA
BRANCH  42  43
ATOM     43  C   UNL A   1      34.040  34.211  29.105  1.00  0.00     0.188 C 
BRANCH  43  44
ATOM     44  C   UNL A   1      34.515  33.758  30.486  1.00  0.00     0.188 C 
BRANCH  44  45
ATOM     45  O   UNL A   1      33.796  34.394  31.539  1.00  0.00    -0.376 OA
BRANCH  45  46
ATOM     46  C   UNL A   1      34.601  34.475  32.715  1.00  0.00     0.202 C 
BRANCH  46  47
ATOM     47  C   UNL A   1      34.665  33.148  33.504  1.00  0.00     0.261 C 
BRANCH  47  48
ATOM     48  O   UNL A   1      35.590  32.124  33.031  1.00  0.00    -0.460 OA
BRANCH  48  49
ATOM     49  C   UNL A   1      36.791  32.021  33.673  1.00  0.00     0.338 C 
ATOM     50  O   UNL A   1      36.972  32.243  34.861  1.00  0.00    -0.246 OA
BRANCH  49  51
ATOM     51  C   UNL A   1      37.901  31.486  32.799  1.00  0.00     0.060 A 
ATOM     52  C   UNL A   1      38.708  30.455  33.296  1.00  0.00     0.016 A 
ATOM     53  C   UNL A   1      38.211  31.988  31.530  1.00  0.00     0.016 A 
ATOM     54  C   UNL A   1      39.744  29.894  32.517  1.00  0.00     0.010 A 
ATOM     55  C   UNL A   1      39.326  31.487  30.791  1.00  0.00     0.010 A 
ATOM     56  C   UNL A   1      40.122  30.429  31.264  1.00  0.00    -0.014 A 
BRANCH  56  57
ATOM     57  C   UNL A   1      41.401  29.912  30.593  1.00  0.00     0.031 A 
ATOM     58  C   UNL A   1      41.303  28.656  29.745  1.00  0.00     0.074 A 
ATOM     59  C   UNL A   1      42.601  30.557  30.586  1.00  0.00     0.049 A 
ATOM     60  N   UNL A   1      42.143  28.168  28.863  1.00  0.00    -0.248 NA
ATOM     61  C   UNL A   1      40.101  27.829  29.940  1.00  0.00     0.031 C 
ATOM     62  C   UNL A   1      42.916  31.755  31.349  1.00  0.00     0.029 A 
ATOM     63  N   UNL A   1      43.717  30.414  29.751  1.00  0.00    -0.354 N 
ATOM     64  C   UNL A   1      41.596  26.957  28.448  1.00  0.00     0.074 A 
ATOM     65  C   UNL A   1      40.304  26.838  29.086  1.00  0.00     0.031 C 
ATOM     66  C   UNL A   1      44.012  32.339  30.827  1.00  0.00     0.029 A 
ATOM     67  C   UNL A   1      44.507  31.564  29.694  1.00  0.00     0.049 A 
ATOM     68  H   UNL A   1      43.923  29.587  29.256  1.00  0.00     0.167 HD
ATOM     69  C   UNL A   1      42.150  25.984  27.685  1.00  0.00     0.037 A 
ATOM     70  C   UNL A   1      45.423  31.983  28.774  1.00  0.00     0.037 A 
ATOM     71  C   UNL A   1      43.466  26.057  27.104  1.00  0.00     0.049 A 
ATOM     72  C   UNL A   1      45.947  30.958  27.788  1.00  0.00     0.074 A 
ATOM     73  C   UNL A   1      44.189  25.068  26.459  1.00  0.00     0.029 A 
ATOM     74  N   UNL A   1      44.257  27.194  27.095  1.00  0.00    -0.354 N 
ATOM     75  N   UNL A   1      45.452  29.792  27.457  1.00  0.00    -0.248 NA
ATOM     76  C   UNL A   1      47.228  31.273  27.123  1.00  0.00     0.031 C 
ATOM     77  C   UNL A   1      45.426  25.601  26.079  1.00  0.00     0.029 A 
ATOM     78  C   UNL A   1      45.450  26.936  26.441  1.00  0.00     0.049 A 
ATOM     79  H   UNL A   1      44.008  28.058  27.495  1.00  0.00     0.167 HD
ATOM     80  C   UNL A   1      46.406  29.201  26.635  1.00  0.00     0.074 A 
ATOM     81  C   UNL A   1      47.430  30.190  26.387  1.00  0.00     0.031 C 
ATOM     82  C   UNL A   1      46.474  27.918  26.207  1.00  0.00     0.037 A 
BRANCH  69  83
ATOM     83  C   UNL A   1      41.383  24.696  27.571  1.00  0.00     0.057 A 
ATOM     84  C   UNL A   1      41.682  23.563  28.336  1.00  0.00     0.134 A 
ATOM     85  C   UNL A   1      40.349  24.581  26.634  1.00  0.00     0.134 A 
ATOM     86  F   UNL A   1      42.694  23.583  29.212  1.00  0.00    -0.206 F 
ATOM     87  C   UNL A   1      40.997  22.360  28.166  1.00  0.00     0.040 A 
ATOM     88  C   UNL A   1      39.641  23.391  26.468  1.00  0.00     0.040 A 
ATOM     89  F   UNL A   1      40.017  25.623  25.856  1.00  0.00    -0.206 F 
ATOM     90  C   UNL A   1      39.969  22.272  27.230  1.00  0.00     0.006 A 
ENDBRANCH  69  83
BRANCH  70  91
ATOM     91  C   UNL A   1      45.955  33.399  28.658  1.00  0.00     0.057 A 
ATOM     92  C   UNL A   1      45.518  34.255  27.619  1.00  0.00     0.134 A 
ATOM     93  C   UNL A   1      46.968  33.918  29.472  1.00  0.00     0.134 A 
ATOM     94  F   UNL A   1      44.573  33.847  26.757  1.00  0.00    -0.206 F 
ATOM     95  C   UNL A   1      46.086  35.517  27.382  1.00  0.00     0.040 A 
ATOM     96  C   UNL A   1      47.494  35.206  29.290  1.00  0.00     0.040 A 
ATOM     97  F   UNL A   1      47.509  33.172  30.444  1.00  0.00    -0.206 F 
ATOM     98  C   UNL A   1      47.070  36.003  28.231  1.00  0.00     0.006 A 
ENDBRANCH  70  91
BRANCH  82  99
ATOM     99  C   UNL A   1      47.730  27.491  25.502  1.00  0.00     0.057 A 
ATOM    100  C   UNL A   1      48.820  26.971  26.217  1.00  0.00     0.134 A 
ATOM    101  C   UNL A   1      47.842  27.546  24.108  1.00  0.00     0.134 A 
ATOM    102  F   UNL A   1      48.782  26.897  27.556  1.00  0.00    -0.206 F 
ATOM    103  C   UNL A   1      49.983  26.542  25.574  1.00  0.00     0.040 A 
ATOM    104  C   UNL A   1      48.992  27.098  23.452  1.00  0.00     0.040 A 
ATOM    105  F   UNL A   1      46.836  28.025  23.363  1.00  0.00    -0.206 F 
ATOM    106  C   UNL A   1      50.067  26.599  24.186  1.00  0.00     0.006 A 
ENDBRANCH  82  99
ENDBRANCH  56  57
ENDBRANCH  49  51
ENDBRANCH  48  49
ENDBRANCH  47  48
ENDBRANCH  46  47
ENDBRANCH  45  46
ENDBRANCH  44  45
ENDBRANCH  43  44
ENDBRANCH  42  43
ENDBRANCH  41  42
ENDBRANCH   1  41
TORSDOF 30
ENDMDL
MODEL 2
REMARK VINA RESULT:     -10.0      1.402      5.722
REMARK SMILES CC(C)C[C@H](NC(=O)CNC(=O)[C@@H](NC(=O)OCc1ccccc1)C(C)C)C(=O)N[C@@H](C)C(=O)OCCOCCOCCOC(=O)c1ccc(-c2c3nc(c(-c4c(F)cccc4F)c4ccc([nH]4)c(-c4c(F)cccc4F)c4nc(c(-c5c(F)cccc5F)c5ccc2[nH]5)C=C4)C=C3)cc1
REMARK SMILES IDX 36 1 35 2 33 3 34 4 31 5 32 6 30 7 28 8 29 9 5 11 4 12 2 13
REMARK SMILES IDX 1 14 3 15 6 16 7 17 8 19 9 20 10 21 11 22 12 24 13 25 14 26
REMARK SMILES IDX 15 27 16 29 17 30 18 31 19 32 20 33 24 34 21 35 23 36 22 37
REMARK SMILES IDX 25 38 26 39 27 40 37 41 38 42 39 43 40 44 41 45 42 46 43 47
REMARK SMILES IDX 44 48 45 49 46 50 47 51 48 52 100 53 49 54 99 55 50 56 51 57
REMARK SMILES IDX 52 58 93 59 53 60 98 61 92 62 94 63 54 64 97 65 91 66 90 67
REMARK SMILES IDX 55 69 81 70 64 71 80 72 65 73 68 74 79 75 95 76 66 77 67 78
REMARK SMILES IDX 78 80 96 81 69 82 56 83 57 84 62 85 58 86 59 87 61 88 63 89
REMARK SMILES IDX 60 90 82 91 83 92 88 93 84 94 85 95 87 96 89 97 86 98 70 99
REMARK SMILES IDX 71 100 76 101 72 102 73 103 75 104 77 105 74 106
REMARK H PARENT 30 10 6 18 10 23 14 28 94 68 68 79
REMARK Flexibility Score: inf
ROOT
ATOM      1  C   UNL A   1      35.146  30.589  27.357  1.00  0.00     0.261 C 
ENDROOT
BRANCH   1   2
ATOM      2  O   UNL A   1      34.704  29.344  27.960  1.00  0.00    -0.462 OA
BRANCH   2   3
ATOM      3  C   UNL A   1      33.906  28.573  27.166  1.00  0.00     0.328 C 
ATOM      4  O   UNL A   1      34.325  27.820  26.291  1.00  0.00    -0.250 OA
BRANCH   3   5
ATOM      5  C   UNL A   1      32.394  28.666  27.481  1.00  0.00     0.189 C 
ATOM      6  C   UNL A   1      31.722  27.460  26.828  1.00  0.00     0.043 C 
BRANCH   5   7
ATOM      7  N   UNL A   1      31.664  29.861  27.082  1.00  0.00    -0.341 N 
ATOM      8  C   UNL A   1      31.409  30.312  25.818  1.00  0.00     0.243 C 
ATOM      9  O   UNL A   1      31.012  31.477  25.710  1.00  0.00    -0.273 OA
ATOM     10  H   UNL A   1      31.310  30.414  27.816  1.00  0.00     0.164 HD
BRANCH   8  11
ATOM     11  C   UNL A   1      31.427  29.385  24.569  1.00  0.00     0.171 C 
BRANCH  11  12
ATOM     12  C   UNL A   1      30.558  28.144  24.716  1.00  0.00     0.038 C 
BRANCH  12  13
ATOM     13  C   UNL A   1      29.778  27.638  23.503  1.00  0.00    -0.015 C 
ATOM     14  C   UNL A   1      28.726  26.593  23.866  1.00  0.00     0.007 C 
ATOM     15  C   UNL A   1      29.110  28.808  22.805  1.00  0.00     0.007 C 
ENDBRANCH  12  13
ENDBRANCH  11  12
BRANCH  11  16
ATOM     16  N   UNL A   1      32.724  29.254  23.854  1.00  0.00    -0.343 N 
ATOM     17  C   UNL A   1      33.686  28.402  23.445  1.00  0.00     0.240 C 
ATOM     18  H   UNL A   1      32.987  30.156  23.559  1.00  0.00     0.164 HD
ATOM     19  O   UNL A   1      34.593  28.958  22.800  1.00  0.00    -0.273 OA
BRANCH  17  20
ATOM     20  C   UNL A   1      33.758  26.876  23.540  1.00  0.00     0.216 C 
BRANCH  20  21
ATOM     21  N   UNL A   1      33.768  26.064  22.361  1.00  0.00    -0.345 N 
ATOM     22  C   UNL A   1      33.409  24.768  22.222  1.00  0.00     0.243 C 
ATOM     23  H   UNL A   1      34.078  26.511  21.539  1.00  0.00     0.164 HD
ATOM     24  O   UNL A   1      33.240  24.395  21.054  1.00  0.00    -0.273 OA
BRANCH  22  25
ATOM     25  C   UNL A   1      33.083  23.825  23.422  1.00  0.00     0.177 C 
BRANCH  25  26
ATOM     26  N   UNL A   1      34.158  23.609  24.407  1.00  0.00    -0.309 N 
ATOM     27  C   UNL A   1      34.542  22.572  25.208  1.00  0.00     0.408 C 
ATOM     28  H   UNL A   1      34.736  24.399  24.512  1.00  0.00     0.167 HD
ATOM     29  O   UNL A   1      35.332  22.756  26.101  1.00  0.00    -0.225 OA
BRANCH  27  30
ATOM     30  O   UNL A   1      34.011  21.386  24.842  1.00  0.00    -0.445 OA
BRANCH  30  31
ATOM     31  C   UNL A   1      34.906  20.269  24.677  1.00  0.00     0.270 C 
BRANCH  31  32
ATOM     32  C   UNL A   1      34.266  18.889  24.628  1.00  0.00    -0.011 A 
ATOM     33  C   UNL A   1      35.055  17.751  24.398  1.00  0.00     0.007 A 
ATOM     34  C   UNL A   1      32.892  18.707  24.854  1.00  0.00     0.007 A 
ATOM     35  C   UNL A   1      34.500  16.472  24.396  1.00  0.00     0.000 A 
ATOM     36  C   UNL A   1      32.345  17.422  24.892  1.00  0.00     0.000 A 
ATOM     37  C   UNL A   1      33.150  16.308  24.668  1.00  0.00     0.000 A 
ENDBRANCH  31  32
ENDBRANCH  30  31
ENDBRANCH  27  30
ENDBRANCH  25  26
BRANCH  25  38
ATOM     38  C   UNL A   1      31.701  24.172  23.976  1.00  0.00     0.015 C 
ATOM     39  C   UNL A   1      30.656  23.165  23.476  1.00  0.00     0.010 C 
ATOM     40  C   UNL A   1      31.749  24.121  25.496  1.00  0.00     0.010 C 
ENDBRANCH  25  38
ENDBRANCH  22  25
ENDBRANCH  20  21
ENDBRANCH  17  20
ENDBRANCH  11  16
ENDBRANCH   8  11
ENDBRANCH   5   7
ENDBRANCH   3   5
ENDBRANCH   2   3
ENDBRANCH   1   2
BRANCH   1  41
ATOM     41  C   UNL A   1      34.782  31.840  28.164  1.00  0.00     0.202 C 
BRANCH  41  42
ATOM     42  O   UNL A   1      35.282  33.059  27.627  1.00  0.00    -0.376 OA
BRANCH  42  43
ATOM     43  C   UNL A   1      34.741  34.261  28.167  1.00  0.00     0.188 C 
BRANCH  43  44
ATOM     44  C   UNL A   1      33.831  34.102  29.385  1.00  0.00     0.188 C 
BRANCH  44  45
ATOM     45  O   UNL A   1      34.029  35.138  30.343  1.00  0.00    -0.376 OA
BRANCH  45  46
ATOM     46  C   UNL A   1      34.464  34.591  31.588  1.00  0.00     0.202 C 
BRANCH  46  47
ATOM     47  C   UNL A   1      34.764  33.076  31.518  1.00  0.00     0.261 C 
BRANCH  47  48
ATOM     48  O   UNL A   1      36.162  32.662  31.530  1.00  0.00    -0.460 OA
BRANCH  48  49
ATOM     49  C   UNL A   1      36.417  31.320  31.508  1.00  0.00     0.338 C 
ATOM     50  O   UNL A   1      35.613  30.449  31.804  1.00  0.00    -0.246 OA
BRANCH  49  51
ATOM     51  C   UNL A   1      37.785  30.973  30.968  1.00  0.00     0.060 A 
ATOM     52  C   UNL A   1      38.146  31.452  29.702  1.00  0.00     0.016 A 
ATOM     53  C   UNL A   1      38.707  30.158  31.633  1.00  0.00     0.016 A 
ATOM     54  C   UNL A   1      39.420  31.185  29.153  1.00  0.00     0.010 A 
ATOM     55  C   UNL A   1      39.952  29.806  31.026  1.00  0.00     0.010 A 
ATOM     56  C   UNL A   1      40.340  30.308  29.771  1.00  0.00    -0.014 A 
BRANCH  56  57
ATOM     57  C   UNL A   1      41.599  29.890  29.000  1.00  0.00     0.031 A 
ATOM     58  C   UNL A   1      42.872  30.687  29.228  1.00  0.00     0.074 A 
ATOM     59  C   UNL A   1      41.709  28.781  28.218  1.00  0.00     0.049 A 
ATOM     60  N   UNL A   1      44.115  30.392  28.929  1.00  0.00    -0.248 NA
ATOM     61  C   UNL A   1      42.712  32.006  29.861  1.00  0.00     0.031 C 
ATOM     62  C   UNL A   1      40.612  27.899  27.850  1.00  0.00     0.029 A 
ATOM     63  N   UNL A   1      42.838  28.086  27.762  1.00  0.00    -0.354 N 
ATOM     64  C   UNL A   1      44.865  31.509  29.284  1.00  0.00     0.074 A 
ATOM     65  C   UNL A   1      43.961  32.439  29.922  1.00  0.00     0.031 C 
ATOM     66  C   UNL A   1      41.112  26.723  27.422  1.00  0.00     0.029 A 
ATOM     67  C   UNL A   1      42.570  26.748  27.461  1.00  0.00     0.049 A 
ATOM     68  H   UNL A   1      43.727  28.499  27.663  1.00  0.00     0.167 HD
ATOM     69  C   UNL A   1      46.166  31.785  29.021  1.00  0.00     0.037 A 
ATOM     70  C   UNL A   1      43.395  25.667  27.354  1.00  0.00     0.037 A 
ATOM     71  C   UNL A   1      47.060  30.899  28.320  1.00  0.00     0.049 A 
ATOM     72  C   UNL A   1      44.882  25.928  27.225  1.00  0.00     0.074 A 
ATOM     73  C   UNL A   1      48.340  31.144  27.854  1.00  0.00     0.029 A 
ATOM     74  N   UNL A   1      46.763  29.587  27.989  1.00  0.00    -0.354 N 
ATOM     75  N   UNL A   1      45.564  27.011  27.504  1.00  0.00    -0.248 NA
ATOM     76  C   UNL A   1      45.701  24.836  26.661  1.00  0.00     0.031 C 
ATOM     77  C   UNL A   1      48.810  29.987  27.221  1.00  0.00     0.029 A 
ATOM     78  C   UNL A   1      47.840  29.006  27.342  1.00  0.00     0.049 A 
ATOM     79  H   UNL A   1      45.911  29.134  28.184  1.00  0.00     0.167 HD
ATOM     80  C   UNL A   1      46.858  26.763  27.055  1.00  0.00     0.074 A 
ATOM     81  C   UNL A   1      46.908  25.382  26.634  1.00  0.00     0.031 C 
ATOM     82  C   UNL A   1      47.884  27.635  26.911  1.00  0.00     0.037 A 
BRANCH  69  83
ATOM     83  C   UNL A   1      46.645  33.168  29.363  1.00  0.00     0.057 A 
ATOM     84  C   UNL A   1      47.274  33.477  30.574  1.00  0.00     0.134 A 
ATOM     85  C   UNL A   1      46.424  34.223  28.470  1.00  0.00     0.134 A 
ATOM     86  F   UNL A   1      47.469  32.529  31.499  1.00  0.00    -0.206 F 
ATOM     87  C   UNL A   1      47.652  34.781  30.895  1.00  0.00     0.040 A 
ATOM     88  C   UNL A   1      46.815  35.529  28.768  1.00  0.00     0.040 A 
ATOM     89  F   UNL A   1      45.813  34.004  27.295  1.00  0.00    -0.206 F 
ATOM     90  C   UNL A   1      47.424  35.812  29.988  1.00  0.00     0.006 A 
ENDBRANCH  69  83
BRANCH  70  91
ATOM     91  C   UNL A   1      42.938  24.220  27.358  1.00  0.00     0.057 A 
ATOM     92  C   UNL A   1      42.559  23.577  26.156  1.00  0.00     0.134 A 
ATOM     93  C   UNL A   1      42.753  23.467  28.522  1.00  0.00     0.134 A 
ATOM     94  F   UNL A   1      42.662  24.219  24.982  1.00  0.00    -0.206 F 
ATOM     95  C   UNL A   1      41.993  22.292  26.125  1.00  0.00     0.040 A 
ATOM     96  C   UNL A   1      42.254  22.155  28.498  1.00  0.00     0.040 A 
ATOM     97  F   UNL A   1      43.011  23.997  29.724  1.00  0.00    -0.206 F 
ATOM     98  C   UNL A   1      41.852  21.570  27.301  1.00  0.00     0.006 A 
ENDBRANCH  70  91
BRANCH  82  99
ATOM     99  C   UNL A   1      49.113  27.145  26.199  1.00  0.00     0.057 A 
ATOM    100  C   UNL A   1      50.172  26.556  26.908  1.00  0.00     0.134 A 
ATOM    101  C   UNL A   1      49.226  27.208  24.806  1.00  0.00     0.134 A 
ATOM    102  F   UNL A   1      50.131  26.470  28.246  1.00  0.00    -0.206 F 
ATOM    103  C   UNL A   1      51.308  26.068  26.257  1.00  0.00     0.040 A 
ATOM    104  C   UNL A   1      50.347  26.702  24.143  1.00  0.00     0.040 A 
ATOM    105  F   UNL A   1      48.248  27.751  24.068  1.00  0.00    -0.206 F 
ATOM    106  C   UNL A   1      51.393  26.135  24.870  1.00  0.00     0.006 A 
ENDBRANCH  82  99
ENDBRANCH  56  57
ENDBRANCH  49  51
ENDBRANCH  48  49
ENDBRANCH  47  48
ENDBRANCH  46  47
ENDBRANCH  45  46
ENDBRANCH  44  45
ENDBRANCH  43  44
ENDBRANCH  42  43
ENDBRANCH  41  42
ENDBRANCH   1  41
TORSDOF 30
ENDMDL
MODEL 3
REMARK VINA RESULT:      -8.9      3.210      5.024
REMARK SMILES CC(C)C[C@H](NC(=O)CNC(=O)[C@@H](NC(=O)OCc1ccccc1)C(C)C)C(=O)N[C@@H](C)C(=O)OCCOCCOCCOC(=O)c1ccc(-c2c3nc(c(-c4c(F)cccc4F)c4ccc([nH]4)c(-c4c(F)cccc4F)c4nc(c(-c5c(F)cccc5F)c5ccc2[nH]5)C=C4)C=C3)cc1
REMARK SMILES IDX 36 1 35 2 33 3 34 4 31 5 32 6 30 7 28 8 29 9 5 11 4 12 2 13
REMARK SMILES IDX 1 14 3 15 6 16 7 17 8 19 9 20 10 21 11 22 12 24 13 25 14 26
REMARK SMILES IDX 15 27 16 29 17 30 18 31 19 32 20 33 24 34 21 35 23 36 22 37
REMARK SMILES IDX 25 38 26 39 27 40 37 41 38 42 39 43 40 44 41 45 42 46 43 47
REMARK SMILES IDX 44 48 45 49 46 50 47 51 48 52 100 53 49 54 99 55 50 56 51 57
REMARK SMILES IDX 52 58 93 59 53 60 98 61 92 62 94 63 54 64 97 65 91 66 90 67
REMARK SMILES IDX 55 69 81 70 64 71 80 72 65 73 68 74 79 75 95 76 66 77 67 78
REMARK SMILES IDX 78 80 96 81 69 82 56 83 57 84 62 85 58 86 59 87 61 88 63 89
REMARK SMILES IDX 60 90 82 91 83 92 88 93 84 94 85 95 87 96 89 97 86 98 70 99
REMARK SMILES IDX 71 100 76 101 72 102 73 103 75 104 77 105 74 106
REMARK H PARENT 30 10 6 18 10 23 14 28 94 68 68 79
REMARK Flexibility Score: inf
ROOT
ATOM      1  C   UNL A   1      35.847  30.577  28.028  1.00  0.00     0.261 C 
ENDROOT
BRANCH   1   2
ATOM      2  O   UNL A   1      35.068  29.364  28.201  1.00  0.00    -0.462 OA
BRANCH   2   3
ATOM      3  C   UNL A   1      34.256  29.048  27.151  1.00  0.00     0.328 C 
ATOM      4  O   UNL A   1      34.660  28.786  26.021  1.00  0.00    -0.250 OA
BRANCH   3   5
ATOM      5  C   UNL A   1      32.748  28.985  27.493  1.00  0.00     0.189 C 
ATOM      6  C   UNL A   1      32.188  27.727  26.832  1.00  0.00     0.043 C 
BRANCH   5   7
ATOM      7  N   UNL A   1      31.895  30.107  27.125  1.00  0.00    -0.341 N 
ATOM      8  C   UNL A   1      31.500  30.492  25.875  1.00  0.00     0.243 C 
ATOM      9  O   UNL A   1      31.004  31.619  25.770  1.00  0.00    -0.273 OA
ATOM     10  H   UNL A   1      31.562  30.657  27.871  1.00  0.00     0.164 HD
BRANCH   8  11
ATOM     11  C   UNL A   1      31.484  29.525  24.657  1.00  0.00     0.171 C 
BRANCH  11  12
ATOM     12  C   UNL A   1      30.640  28.278  24.876  1.00  0.00     0.038 C 
BRANCH  12  13
ATOM     13  C   UNL A   1      30.006  27.591  23.667  1.00  0.00    -0.015 C 
ATOM     14  C   UNL A   1      29.116  26.411  24.052  1.00  0.00     0.007 C 
ATOM     15  C   UNL A   1      29.194  28.601  22.878  1.00  0.00     0.007 C 
ENDBRANCH  12  13
ENDBRANCH  11  12
BRANCH  11  16
ATOM     16  N   UNL A   1      32.755  29.389  23.898  1.00  0.00    -0.343 N 
ATOM     17  C   UNL A   1      33.666  28.527  23.401  1.00  0.00     0.240 C 
ATOM     18  H   UNL A   1      33.053  30.298  23.662  1.00  0.00     0.164 HD
ATOM     19  O   UNL A   1      34.582  29.087  22.773  1.00  0.00    -0.273 OA
BRANCH  17  20
ATOM     20  C   UNL A   1      33.668  26.996  23.383  1.00  0.00     0.216 C 
BRANCH  20  21
ATOM     21  N   UNL A   1      33.637  26.274  22.147  1.00  0.00    -0.345 N 
ATOM     22  C   UNL A   1      33.401  24.959  21.940  1.00  0.00     0.243 C 
ATOM     23  H   UNL A   1      33.811  26.808  21.337  1.00  0.00     0.164 HD
ATOM     24  O   UNL A   1      33.150  24.651  20.768  1.00  0.00    -0.273 OA
BRANCH  22  25
ATOM     25  C   UNL A   1      33.303  23.904  23.087  1.00  0.00     0.177 C 
BRANCH  25  26
ATOM     26  N   UNL A   1      34.432  23.845  24.033  1.00  0.00    -0.309 N 
ATOM     27  C   UNL A   1      35.084  22.848  24.700  1.00  0.00     0.408 C 
ATOM     28  H   UNL A   1      34.805  24.735  24.229  1.00  0.00     0.167 HD
ATOM     29  O   UNL A   1      35.836  23.115  25.604  1.00  0.00    -0.225 OA
BRANCH  27  30
ATOM     30  O   UNL A   1      34.842  21.619  24.197  1.00  0.00    -0.445 OA
BRANCH  30  31
ATOM     31  C   UNL A   1      34.064  20.706  24.995  1.00  0.00     0.270 C 
BRANCH  31  32
ATOM     32  C   UNL A   1      33.821  19.325  24.403  1.00  0.00    -0.011 A 
ATOM     33  C   UNL A   1      32.721  19.100  23.560  1.00  0.00     0.007 A 
ATOM     34  C   UNL A   1      34.704  18.259  24.638  1.00  0.00     0.007 A 
ATOM     35  C   UNL A   1      32.504  17.858  22.966  1.00  0.00     0.000 A 
ATOM     36  C   UNL A   1      34.507  17.026  24.010  1.00  0.00     0.000 A 
ATOM     37  C   UNL A   1      33.413  16.830  23.173  1.00  0.00     0.000 A 
ENDBRANCH  31  32
ENDBRANCH  30  31
ENDBRANCH  27  30
ENDBRANCH  25  26
BRANCH  25  38
ATOM     38  C   UNL A   1      31.900  23.946  23.692  1.00  0.00     0.015 C 
ATOM     39  C   UNL A   1      31.224  22.573  23.572  1.00  0.00     0.010 C 
ATOM     40  C   UNL A   1      32.005  24.318  25.164  1.00  0.00     0.010 C 
ENDBRANCH  25  38
ENDBRANCH  22  25
ENDBRANCH  20  21
ENDBRANCH  17  20
ENDBRANCH  11  16
ENDBRANCH   8  11
ENDBRANCH   5   7
ENDBRANCH   3   5
ENDBRANCH   2   3
ENDBRANCH   1   2
BRANCH   1  41
ATOM     41  C   UNL A   1      35.006  31.826  27.747  1.00  0.00     0.202 C 
BRANCH  41  42
ATOM     42  O   UNL A   1      35.752  33.033  27.640  1.00  0.00    -0.376 OA
BRANCH  42  43
ATOM     43  C   UNL A   1      36.249  33.583  28.857  1.00  0.00     0.188 C 
BRANCH  43  44
ATOM     44  C   UNL A   1      37.766  33.545  29.044  1.00  0.00     0.188 C 
BRANCH  44  45
ATOM     45  O   UNL A   1      38.268  34.752  29.611  1.00  0.00    -0.376 OA
BRANCH  45  46
ATOM     46  C   UNL A   1      39.656  34.621  29.917  1.00  0.00     0.202 C 
BRANCH  46  47
ATOM     47  C   UNL A   1      40.579  34.946  28.721  1.00  0.00     0.261 C 
BRANCH  47  48
ATOM     48  O   UNL A   1      41.160  36.282  28.658  1.00  0.00    -0.460 OA
BRANCH  48  49
ATOM     49  C   UNL A   1      42.092  36.514  27.686  1.00  0.00     0.338 C 
ATOM     50  O   UNL A   1      42.036  37.413  26.862  1.00  0.00    -0.246 OA
BRANCH  49  51
ATOM     51  C   UNL A   1      43.298  35.608  27.776  1.00  0.00     0.060 A 
ATOM     52  C   UNL A   1      43.733  34.956  26.615  1.00  0.00     0.016 A 
ATOM     53  C   UNL A   1      43.988  35.335  28.962  1.00  0.00     0.016 A 
ATOM     54  C   UNL A   1      44.870  34.118  26.627  1.00  0.00     0.010 A 
ATOM     55  C   UNL A   1      45.072  34.405  28.987  1.00  0.00     0.010 A 
ATOM     56  C   UNL A   1      45.541  33.771  27.822  1.00  0.00    -0.014 A 
BRANCH  56  57
ATOM     57  C   UNL A   1      46.615  32.676  27.779  1.00  0.00     0.031 A 
ATOM     58  C   UNL A   1      46.176  31.260  27.448  1.00  0.00     0.074 A 
ATOM     59  C   UNL A   1      47.956  32.887  27.885  1.00  0.00     0.049 A 
ATOM     60  N   UNL A   1      46.889  30.222  27.080  1.00  0.00    -0.248 NA
ATOM     61  C   UNL A   1      44.736  30.976  27.572  1.00  0.00     0.031 C 
ATOM     62  C   UNL A   1      48.584  34.155  28.223  1.00  0.00     0.029 A 
ATOM     63  N   UNL A   1      49.045  32.086  27.514  1.00  0.00    -0.354 N 
ATOM     64  C   UNL A   1      45.994  29.160  26.989  1.00  0.00     0.074 A 
ATOM     65  C   UNL A   1      44.674  29.700  27.228  1.00  0.00     0.031 C 
ATOM     66  C   UNL A   1      49.881  34.118  27.864  1.00  0.00     0.029 A 
ATOM     67  C   UNL A   1      50.208  32.822  27.278  1.00  0.00     0.049 A 
ATOM     68  H   UNL A   1      48.994  31.105  27.430  1.00  0.00     0.167 HD
ATOM     69  C   UNL A   1      46.247  27.839  26.819  1.00  0.00     0.037 A 
ATOM     70  C   UNL A   1      51.336  32.522  26.572  1.00  0.00     0.037 A 
ATOM     71  C   UNL A   1      47.563  27.278  26.654  1.00  0.00     0.049 A 
ATOM     72  C   UNL A   1      51.574  31.068  26.214  1.00  0.00     0.074 A 
ATOM     73  C   UNL A   1      47.947  25.948  26.643  1.00  0.00     0.029 A 
ATOM     74  N   UNL A   1      48.714  28.024  26.464  1.00  0.00    -0.354 N 
ATOM     75  N   UNL A   1      50.731  30.066  26.197  1.00  0.00    -0.248 NA
ATOM     76  C   UNL A   1      52.961  30.687  25.878  1.00  0.00     0.031 C 
ATOM     77  C   UNL A   1      49.335  25.890  26.469  1.00  0.00     0.029 A 
ATOM     78  C   UNL A   1      49.805  27.183  26.318  1.00  0.00     0.049 A 
ATOM     79  H   UNL A   1      48.753  29.007  26.439  1.00  0.00     0.167 HD
ATOM     80  C   UNL A   1      51.502  28.934  25.952  1.00  0.00     0.074 A 
ATOM     81  C   UNL A   1      52.846  29.383  25.670  1.00  0.00     0.031 C 
ATOM     82  C   UNL A   1      51.145  27.631  26.052  1.00  0.00     0.037 A 
BRANCH  69  83
ATOM     83  C   UNL A   1      45.078  26.905  26.960  1.00  0.00     0.057 A 
ATOM     84  C   UNL A   1      44.771  26.246  28.156  1.00  0.00     0.134 A 
ATOM     85  C   UNL A   1      44.270  26.626  25.851  1.00  0.00     0.134 A 
ATOM     86  F   UNL A   1      45.532  26.423  29.243  1.00  0.00    -0.206 F 
ATOM     87  C   UNL A   1      43.718  25.335  28.244  1.00  0.00     0.040 A 
ATOM     88  C   UNL A   1      43.202  25.732  25.929  1.00  0.00     0.040 A 
ATOM     89  F   UNL A   1      44.515  27.209  24.667  1.00  0.00    -0.206 F 
ATOM     90  C   UNL A   1      42.928  25.077  27.127  1.00  0.00     0.006 A 
ENDBRANCH  69  83
BRANCH  70  91
ATOM     91  C   UNL A   1      52.371  33.532  26.114  1.00  0.00     0.057 A 
ATOM     92  C   UNL A   1      52.335  34.062  24.802  1.00  0.00     0.134 A 
ATOM     93  C   UNL A   1      53.470  33.923  26.886  1.00  0.00     0.134 A 
ATOM     94  F   UNL A   1      51.342  33.727  23.963  1.00  0.00    -0.206 F 
ATOM     95  C   UNL A   1      53.349  34.883  24.284  1.00  0.00     0.040 A 
ATOM     96  C   UNL A   1      54.454  34.800  26.404  1.00  0.00     0.040 A 
ATOM     97  F   UNL A   1      53.647  33.429  28.118  1.00  0.00    -0.206 F 
ATOM     98  C   UNL A   1      54.409  35.267  25.094  1.00  0.00     0.006 A 
ENDBRANCH  70  91
BRANCH  82  99
ATOM     99  C   UNL A   1      52.236  26.605  25.939  1.00  0.00     0.057 A 
ATOM    100  C   UNL A   1      52.589  26.059  24.695  1.00  0.00     0.134 A 
ATOM    101  C   UNL A   1      52.974  26.196  27.055  1.00  0.00     0.134 A 
ATOM    102  F   UNL A   1      51.917  26.402  23.586  1.00  0.00    -0.206 F 
ATOM    103  C   UNL A   1      53.621  25.127  24.570  1.00  0.00     0.040 A 
ATOM    104  C   UNL A   1      54.025  25.282  26.937  1.00  0.00     0.040 A 
ATOM    105  F   UNL A   1      52.696  26.685  28.272  1.00  0.00    -0.206 F 
ATOM    106  C   UNL A   1      54.347  24.742  25.694  1.00  0.00     0.006 A 
ENDBRANCH  82  99
ENDBRANCH  56  57
ENDBRANCH  49  51
ENDBRANCH  48  49
ENDBRANCH  47  48
ENDBRANCH  46  47
ENDBRANCH  45  46
ENDBRANCH  44  45
ENDBRANCH  43  44
ENDBRANCH  42  43
ENDBRANCH  41  42
ENDBRANCH   1  41
TORSDOF 30
ENDMDL
