MODEL 1
REMARK VINA RESULT:     -12.4      0.000      0.000
REMARK SMILES O=C(OCCOCCOCCOC(=O)c1ccc(-c2c3nc(c(-c4c(F)cccc4F)c4ccc([nH]4)c(-c4c(F)cccc4F)c4nc(c(-c5c(F)cccc5F)c5ccc2[nH]5)C=C4)C=C3)cc1)C1=Cc2cc(Cl)ccc2O[C@@H]1C(F)(F)F
REMARK SMILES IDX 8 1 7 2 6 3 5 4 4 5 3 6 2 7 1 8 69 9 70 10 79 11 71 12 78 13
REMARK SMILES IDX 72 14 77 15 73 16 76 17 74 18 75 19 80 20 81 21 82 22 83 23
REMARK SMILES IDX 9 24 10 25 11 26 12 27 13 28 14 29 15 30 16 31 68 32 17 33
REMARK SMILES IDX 67 34 18 35 19 36 20 37 61 38 21 39 66 40 60 41 62 42 22 43
REMARK SMILES IDX 65 44 59 45 58 46 23 48 49 49 32 50 48 51 33 52 36 53 47 54
REMARK SMILES IDX 63 55 34 56 35 57 46 59 64 60 37 61 24 62 25 63 30 64 26 65
REMARK SMILES IDX 27 66 29 67 31 68 28 69 50 70 51 71 56 72 52 73 53 74 55 75
REMARK SMILES IDX 57 76 54 77 38 78 39 79 44 80 40 81 41 82 43 83 45 84 42 85
REMARK H PARENT 62 47 36 58
REMARK Flexibility Score: inf
ROOT
ATOM      1  C   UNL A   1      39.222  21.474  25.832  1.00  0.00     0.188 C 
ENDROOT
BRANCH   1   2
ATOM      2  C   UNL A   1      38.200  22.614  25.964  1.00  0.00     0.188 C 
BRANCH   2   3
ATOM      3  O   UNL A   1      36.782  22.469  25.507  1.00  0.00    -0.376 OA
BRANCH   3   4
ATOM      4  C   UNL A   1      35.520  23.655  25.556  1.00  0.00     0.202 C 
BRANCH   4   5
ATOM      5  C   UNL A   1      34.362  24.275  23.824  1.00  0.00     0.261 C 
BRANCH   5   6
ATOM      6  O   UNL A   1      34.018  25.705  23.438  1.00  0.00    -0.460 OA
BRANCH   6   7
ATOM      7  C   UNL A   1      32.762  25.805  22.980  1.00  0.00     0.338 C 
ATOM      8  O   UNL A   1      32.313  25.375  21.946  1.00  0.00    -0.246 OA
BRANCH   7   9
ATOM      9  C   UNL A   1      32.379  26.968  23.768  1.00  0.00     0.087 C 
ATOM     10  C   UNL A   1      32.018  28.172  23.028  1.00  0.00     0.027 C 
ATOM     11  C   UNL A   1      31.167  25.941  24.843  1.00  0.00     0.316 C 
ATOM     12  C   UNL A   1      30.330  28.719  22.751  1.00  0.00     0.019 A 
ATOM     13  O   UNL A   1      29.314  26.394  24.420  1.00  0.00    -0.475 OA
ATOM     14  C   UNL A   1      30.094  29.825  21.982  1.00  0.00     0.032 A 
ATOM     15  C   UNL A   1      28.969  27.848  23.364  1.00  0.00     0.128 A 
ATOM     16  C   UNL A   1      28.735  30.157  21.830  1.00  0.00     0.041 A 
ATOM     17  C   UNL A   1      27.675  28.245  23.182  1.00  0.00     0.048 A 
ATOM     18  Cl  UNL A   1      28.388  31.568  20.878  1.00  0.00    -0.084 Cl
ATOM     19  C   UNL A   1      27.601  29.427  22.401  1.00  0.00     0.024 A 
BRANCH  11  20
ATOM     20  C   UNL A   1      32.084  26.159  26.244  1.00  0.00     0.430 C 
ATOM     21  F   UNL A   1      33.367  26.520  26.194  1.00  0.00    -0.167 F 
ATOM     22  F   UNL A   1      31.456  27.050  27.052  1.00  0.00    -0.167 F 
ATOM     23  F   UNL A   1      32.130  25.000  26.979  1.00  0.00    -0.167 F 
ENDBRANCH  11  20
ENDBRANCH   7   9
ENDBRANCH   6   7
ENDBRANCH   5   6
ENDBRANCH   4   5
ENDBRANCH   3   4
ENDBRANCH   2   3
ENDBRANCH   1   2
BRANCH   1  24
ATOM     24  O   UNL A   1      39.960  21.097  26.967  1.00  0.00    -0.376 OA
BRANCH  24  25
ATOM     25  C   UNL A   1      40.982  20.139  26.729  1.00  0.00     0.202 C 
BRANCH  25  26
ATOM     26  C   UNL A   1      42.280  20.620  26.052  1.00  0.00     0.261 C 
BRANCH  26  27
ATOM     27  O   UNL A   1      42.839  21.832  26.614  1.00  0.00    -0.460 OA
BRANCH  27  28
ATOM     28  C   UNL A   1      42.848  22.948  25.838  1.00  0.00     0.338 C 
ATOM     29  O   UNL A   1      43.036  23.010  24.635  1.00  0.00    -0.246 OA
BRANCH  28  30
ATOM     30  C   UNL A   1      42.463  24.121  26.653  1.00  0.00     0.060 A 
ATOM     31  C   UNL A   1      43.164  25.333  26.530  1.00  0.00     0.016 A 
ATOM     32  C   UNL A   1      41.429  24.004  27.579  1.00  0.00     0.016 A 
ATOM     33  C   UNL A   1      42.782  26.450  27.284  1.00  0.00     0.010 A 
ATOM     34  C   UNL A   1      41.087  25.103  28.373  1.00  0.00     0.010 A 
ATOM     35  C   UNL A   1      41.756  26.333  28.230  1.00  0.00    -0.014 A 
BRANCH  35  36
ATOM     36  C   UNL A   1      41.497  27.409  29.220  1.00  0.00     0.031 A 
ATOM     37  C   UNL A   1      42.298  27.400  30.490  1.00  0.00     0.074 A 
ATOM     38  C   UNL A   1      40.529  28.327  29.038  1.00  0.00     0.049 A 
ATOM     39  N   UNL A   1      42.155  28.122  31.570  1.00  0.00    -0.248 NA
ATOM     40  C   UNL A   1      43.404  26.429  30.555  1.00  0.00     0.031 C 
ATOM     41  C   UNL A   1      39.708  28.461  27.839  1.00  0.00     0.029 A 
ATOM     42  N   UNL A   1      40.055  29.305  29.881  1.00  0.00    -0.354 N 
ATOM     43  C   UNL A   1      43.132  27.676  32.451  1.00  0.00     0.074 A 
ATOM     44  C   UNL A   1      43.859  26.619  31.784  1.00  0.00     0.031 C 
ATOM     45  C   UNL A   1      38.811  29.445  28.032  1.00  0.00     0.029 A 
ATOM     46  C   UNL A   1      38.961  29.978  29.386  1.00  0.00     0.049 A 
ATOM     47  H   UNL A   1      40.457  29.503  30.758  1.00  0.00     0.167 HD
ATOM     48  C   UNL A   1      43.388  28.102  33.709  1.00  0.00     0.037 A 
ATOM     49  C   UNL A   1      38.152  30.882  29.975  1.00  0.00     0.037 A 
ATOM     50  C   UNL A   1      42.652  29.146  34.371  1.00  0.00     0.049 A 
ATOM     51  C   UNL A   1      38.418  31.289  31.407  1.00  0.00     0.074 A 
ATOM     52  C   UNL A   1      42.865  29.677  35.630  1.00  0.00     0.029 A 
ATOM     53  N   UNL A   1      41.550  29.796  33.840  1.00  0.00    -0.354 N 
ATOM     54  N   UNL A   1      39.379  30.904  32.213  1.00  0.00    -0.248 NA
ATOM     55  C   UNL A   1      37.481  32.247  32.018  1.00  0.00     0.031 C 
ATOM     56  C   UNL A   1      41.840  30.587  35.896  1.00  0.00     0.029 A 
ATOM     57  C   UNL A   1      41.039  30.687  34.768  1.00  0.00     0.049 A 
ATOM     58  H   UNL A   1      41.184  29.646  32.938  1.00  0.00     0.167 HD
ATOM     59  C   UNL A   1      39.178  31.590  33.407  1.00  0.00     0.074 A 
ATOM     60  C   UNL A   1      38.017  32.431  33.215  1.00  0.00     0.031 C 
ATOM     61  C   UNL A   1      39.888  31.525  34.560  1.00  0.00     0.037 A 
BRANCH  48  62
ATOM     62  C   UNL A   1      44.473  27.406  34.477  1.00  0.00     0.057 A 
ATOM     63  C   UNL A   1      45.786  27.888  34.518  1.00  0.00     0.134 A 
ATOM     64  C   UNL A   1      44.176  26.267  35.238  1.00  0.00     0.134 A 
ATOM     65  F   UNL A   1      46.140  28.965  33.802  1.00  0.00    -0.206 F 
ATOM     66  C   UNL A   1      46.771  27.251  35.275  1.00  0.00     0.040 A 
ATOM     67  C   UNL A   1      45.143  25.641  36.023  1.00  0.00     0.040 A 
ATOM     68  F   UNL A   1      42.936  25.755  35.243  1.00  0.00    -0.206 F 
ATOM     69  C   UNL A   1      46.448  26.130  36.040  1.00  0.00     0.006 A 
ENDBRANCH  48  62
BRANCH  49  70
ATOM     70  C   UNL A   1      36.971  31.434  29.253  1.00  0.00     0.057 A 
ATOM     71  C   UNL A   1      35.822  30.663  29.027  1.00  0.00     0.134 A 
ATOM     72  C   UNL A   1      36.986  32.726  28.706  1.00  0.00     0.134 A 
ATOM     73  F   UNL A   1      35.750  29.408  29.494  1.00  0.00    -0.206 F 
ATOM     74  C   UNL A   1      34.755  31.139  28.261  1.00  0.00     0.040 A 
ATOM     75  C   UNL A   1      35.911  33.227  27.971  1.00  0.00     0.040 A 
ATOM     76  F   UNL A   1      38.055  33.520  28.874  1.00  0.00    -0.206 F 
ATOM     77  C   UNL A   1      34.796  32.427  27.734  1.00  0.00     0.006 A 
ENDBRANCH  49  70
BRANCH  61  78
ATOM     78  C   UNL A   1      39.460  32.409  35.700  1.00  0.00     0.057 A 
ATOM     79  C   UNL A   1      39.927  33.722  35.839  1.00  0.00     0.134 A 
ATOM     80  C   UNL A   1      38.505  31.963  36.624  1.00  0.00     0.134 A 
ATOM     81  F   UNL A   1      40.848  34.210  34.994  1.00  0.00    -0.206 F 
ATOM     82  C   UNL A   1      39.473  34.552  36.865  1.00  0.00     0.040 A 
ATOM     83  C   UNL A   1      38.018  32.794  37.632  1.00  0.00     0.040 A 
ATOM     84  F   UNL A   1      38.004  30.720  36.542  1.00  0.00    -0.206 F 
ATOM     85  C   UNL A   1      38.507  34.093  37.758  1.00  0.00     0.006 A 
ENDBRANCH  61  78
ENDBRANCH  35  36
ENDBRANCH  28  30
ENDBRANCH  27  28
ENDBRANCH  26  27
ENDBRANCH  25  26
ENDBRANCH  24  25
ENDBRANCH   1  24
TORSDOF 18
ENDMDL
MODEL 2
REMARK VINA RESULT:     -12.2      1.895      2.442
REMARK SMILES O=C(OCCOCCOCCOC(=O)c1ccc(-c2c3nc(c(-c4c(F)cccc4F)c4ccc([nH]4)c(-c4c(F)cccc4F)c4nc(c(-c5c(F)cccc5F)c5ccc2[nH]5)C=C4)C=C3)cc1)C1=Cc2cc(Cl)ccc2O[C@@H]1C(F)(F)F
REMARK SMILES IDX 8 1 7 2 6 3 5 4 4 5 3 6 2 7 1 8 69 9 70 10 79 11 71 12 78 13
REMARK SMILES IDX 72 14 77 15 73 16 76 17 74 18 75 19 80 20 81 21 82 22 83 23
REMARK SMILES IDX 9 24 10 25 11 26 12 27 13 28 14 29 15 30 16 31 68 32 17 33
REMARK SMILES IDX 67 34 18 35 19 36 20 37 61 38 21 39 66 40 60 41 62 42 22 43
REMARK SMILES IDX 65 44 59 45 58 46 23 48 49 49 32 50 48 51 33 52 36 53 47 54
REMARK SMILES IDX 63 55 34 56 35 57 46 59 64 60 37 61 24 62 25 63 30 64 26 65
REMARK SMILES IDX 27 66 29 67 31 68 28 69 50 70 51 71 56 72 52 73 53 74 55 75
REMARK SMILES IDX 57 76 54 77 38 78 39 79 44 80 40 81 41 82 43 83 45 84 42 85
REMARK H PARENT 62 47 36 58
REMARK Flexibility Score: inf
ROOT
ATOM      1  C   UNL A   1      38.015  21.867  25.840  1.00  0.00     0.188 C 
ENDROOT
BRANCH   1   2
ATOM      2  C   UNL A   1      37.693  20.774  24.810  1.00  0.00     0.188 C 
BRANCH   2   3
ATOM      3  O   UNL A   1      36.505  19.874  24.948  1.00  0.00    -0.376 OA
BRANCH   3   4
ATOM      4  C   UNL A   1      34.830  20.316  24.976  1.00  0.00     0.202 C 
BRANCH   4   5
ATOM      5  C   UNL A   1      33.797  21.068  26.733  1.00  0.00     0.261 C 
BRANCH   5   6
ATOM      6  O   UNL A   1      32.987  22.353  26.818  1.00  0.00    -0.460 OA
BRANCH   6   7
ATOM      7  C   UNL A   1      33.645  23.389  26.278  1.00  0.00     0.338 C 
ATOM      8  O   UNL A   1      34.698  23.863  26.629  1.00  0.00    -0.246 OA
BRANCH   7   9
ATOM      9  C   UNL A   1      32.500  24.005  25.625  1.00  0.00     0.087 C 
ATOM     10  C   UNL A   1      32.040  25.278  26.171  1.00  0.00     0.027 C 
ATOM     11  C   UNL A   1      33.268  23.777  23.883  1.00  0.00     0.316 C 
ATOM     12  C   UNL A   1      32.390  26.878  25.435  1.00  0.00     0.019 A 
ATOM     13  O   UNL A   1      33.826  25.497  23.143  1.00  0.00    -0.475 OA
ATOM     14  C   UNL A   1      31.973  28.019  26.064  1.00  0.00     0.032 A 
ATOM     15  C   UNL A   1      33.312  27.040  23.982  1.00  0.00     0.128 A 
ATOM     16  C   UNL A   1      32.308  29.213  25.399  1.00  0.00     0.041 A 
ATOM     17  C   UNL A   1      33.585  28.240  23.391  1.00  0.00     0.048 A 
ATOM     18  Cl  UNL A   1      31.779  30.687  26.151  1.00  0.00    -0.084 Cl
ATOM     19  C   UNL A   1      33.051  29.319  24.142  1.00  0.00     0.024 A 
BRANCH  11  20
ATOM     20  C   UNL A   1      32.075  22.683  23.402  1.00  0.00     0.430 C 
ATOM     21  F   UNL A   1      31.718  21.652  24.170  1.00  0.00    -0.167 F 
ATOM     22  F   UNL A   1      30.939  23.364  23.106  1.00  0.00    -0.167 F 
ATOM     23  F   UNL A   1      32.425  22.069  22.225  1.00  0.00    -0.167 F 
ENDBRANCH  11  20
ENDBRANCH   7   9
ENDBRANCH   6   7
ENDBRANCH   5   6
ENDBRANCH   4   5
ENDBRANCH   3   4
ENDBRANCH   2   3
ENDBRANCH   1   2
BRANCH   1  24
ATOM     24  O   UNL A   1      39.363  22.161  26.108  1.00  0.00    -0.376 OA
BRANCH  24  25
ATOM     25  C   UNL A   1      40.232  21.036  26.129  1.00  0.00     0.202 C 
BRANCH  25  26
ATOM     26  C   UNL A   1      41.750  21.297  26.130  1.00  0.00     0.261 C 
BRANCH  26  27
ATOM     27  O   UNL A   1      42.163  22.462  25.375  1.00  0.00    -0.460 OA
BRANCH  27  28
ATOM     28  C   UNL A   1      43.247  23.154  25.814  1.00  0.00     0.338 C 
ATOM     29  O   UNL A   1      44.414  22.969  25.513  1.00  0.00    -0.246 OA
BRANCH  28  30
ATOM     30  C   UNL A   1      42.803  24.293  26.648  1.00  0.00     0.060 A 
ATOM     31  C   UNL A   1      43.453  25.536  26.557  1.00  0.00     0.016 A 
ATOM     32  C   UNL A   1      41.765  24.113  27.559  1.00  0.00     0.016 A 
ATOM     33  C   UNL A   1      43.016  26.620  27.330  1.00  0.00     0.010 A 
ATOM     34  C   UNL A   1      41.368  25.180  28.371  1.00  0.00     0.010 A 
ATOM     35  C   UNL A   1      41.985  26.440  28.261  1.00  0.00    -0.014 A 
BRANCH  35  36
ATOM     36  C   UNL A   1      41.670  27.484  29.270  1.00  0.00     0.031 A 
ATOM     37  C   UNL A   1      42.441  27.467  30.559  1.00  0.00     0.074 A 
ATOM     38  C   UNL A   1      40.679  28.375  29.086  1.00  0.00     0.049 A 
ATOM     39  N   UNL A   1      42.250  28.158  31.652  1.00  0.00    -0.248 NA
ATOM     40  C   UNL A   1      43.574  26.529  30.627  1.00  0.00     0.031 C 
ATOM     41  C   UNL A   1      39.883  28.514  27.870  1.00  0.00     0.029 A 
ATOM     42  N   UNL A   1      40.155  29.318  29.940  1.00  0.00    -0.354 N 
ATOM     43  C   UNL A   1      43.219  27.720  32.545  1.00  0.00     0.074 A 
ATOM     44  C   UNL A   1      43.994  26.702  31.872  1.00  0.00     0.031 C 
ATOM     45  C   UNL A   1      38.951  29.466  28.065  1.00  0.00     0.029 A 
ATOM     46  C   UNL A   1      39.053  29.969  29.434  1.00  0.00     0.049 A 
ATOM     47  H   UNL A   1      40.530  29.507  30.831  1.00  0.00     0.167 HD
ATOM     48  C   UNL A   1      43.432  28.124  33.819  1.00  0.00     0.037 A 
ATOM     49  C   UNL A   1      38.202  30.835  30.025  1.00  0.00     0.037 A 
ATOM     50  C   UNL A   1      42.649  29.128  34.487  1.00  0.00     0.049 A 
ATOM     51  C   UNL A   1      38.423  31.214  31.472  1.00  0.00     0.074 A 
ATOM     52  C   UNL A   1      42.816  29.635  35.763  1.00  0.00     0.029 A 
ATOM     53  N   UNL A   1      41.540  29.757  33.945  1.00  0.00    -0.354 N 
ATOM     54  N   UNL A   1      39.376  30.839  32.292  1.00  0.00    -0.248 NA
ATOM     55  C   UNL A   1      37.442  32.128  32.082  1.00  0.00     0.031 C 
ATOM     56  C   UNL A   1      41.757  30.507  36.025  1.00  0.00     0.029 A 
ATOM     57  C   UNL A   1      40.981  30.610  34.881  1.00  0.00     0.049 A 
ATOM     58  H   UNL A   1      41.201  29.618  33.031  1.00  0.00     0.167 HD
ATOM     59  C   UNL A   1      39.126  31.489  33.497  1.00  0.00     0.074 A 
ATOM     60  C   UNL A   1      37.944  32.299  33.297  1.00  0.00     0.031 C 
ATOM     61  C   UNL A   1      39.809  31.418  34.665  1.00  0.00     0.037 A 
BRANCH  48  62
ATOM     62  C   UNL A   1      44.519  27.442  34.596  1.00  0.00     0.057 A 
ATOM     63  C   UNL A   1      45.822  27.949  34.662  1.00  0.00     0.134 A 
ATOM     64  C   UNL A   1      44.235  26.289  35.342  1.00  0.00     0.134 A 
ATOM     65  F   UNL A   1      46.165  29.041  33.961  1.00  0.00    -0.206 F 
ATOM     66  C   UNL A   1      46.809  27.325  35.428  1.00  0.00     0.040 A 
ATOM     67  C   UNL A   1      45.203  25.676  36.135  1.00  0.00     0.040 A 
ATOM     68  F   UNL A   1      43.005  25.753  35.324  1.00  0.00    -0.206 F 
ATOM     69  C   UNL A   1      46.497  26.191  36.177  1.00  0.00     0.006 A 
ENDBRANCH  48  62
BRANCH  49  70
ATOM     70  C   UNL A   1      37.023  31.368  29.287  1.00  0.00     0.057 A 
ATOM     71  C   UNL A   1      35.892  30.577  29.040  1.00  0.00     0.134 A 
ATOM     72  C   UNL A   1      37.022  32.662  28.748  1.00  0.00     0.134 A 
ATOM     73  F   UNL A   1      35.837  29.318  29.499  1.00  0.00    -0.206 F 
ATOM     74  C   UNL A   1      34.829  31.036  28.260  1.00  0.00     0.040 A 
ATOM     75  C   UNL A   1      35.949  33.148  27.999  1.00  0.00     0.040 A 
ATOM     76  F   UNL A   1      38.072  33.476  28.936  1.00  0.00    -0.206 F 
ATOM     77  C   UNL A   1      34.853  32.328  27.741  1.00  0.00     0.006 A 
ENDBRANCH  49  70
BRANCH  61  78
ATOM     78  C   UNL A   1      39.328  32.260  35.814  1.00  0.00     0.057 A 
ATOM     79  C   UNL A   1      39.815  33.552  36.044  1.00  0.00     0.134 A 
ATOM     80  C   UNL A   1      38.304  31.798  36.652  1.00  0.00     0.134 A 
ATOM     81  F   UNL A   1      40.801  34.054  35.285  1.00  0.00    -0.206 F 
ATOM     82  C   UNL A   1      39.313  34.347  37.076  1.00  0.00     0.040 A 
ATOM     83  C   UNL A   1      37.771  32.596  37.665  1.00  0.00     0.040 A 
ATOM     84  F   UNL A   1      37.780  30.574  36.480  1.00  0.00    -0.206 F 
ATOM     85  C   UNL A   1      38.280  33.874  37.882  1.00  0.00     0.006 A 
ENDBRANCH  61  78
ENDBRANCH  35  36
ENDBRANCH  28  30
ENDBRANCH  27  28
ENDBRANCH  26  27
ENDBRANCH  25  26
ENDBRANCH  24  25
ENDBRANCH   1  24
TORSDOF 18
ENDMDL
MODEL 3
REMARK VINA RESULT:     -12.0      1.227      2.083
REMARK SMILES O=C(OCCOCCOCCOC(=O)c1ccc(-c2c3nc(c(-c4c(F)cccc4F)c4ccc([nH]4)c(-c4c(F)cccc4F)c4nc(c(-c5c(F)cccc5F)c5ccc2[nH]5)C=C4)C=C3)cc1)C1=Cc2cc(Cl)ccc2O[C@@H]1C(F)(F)F
REMARK SMILES IDX 8 1 7 2 6 3 5 4 4 5 3 6 2 7 1 8 69 9 70 10 79 11 71 12 78 13
REMARK SMILES IDX 72 14 77 15 73 16 76 17 74 18 75 19 80 20 81 21 82 22 83 23
REMARK SMILES IDX 9 24 10 25 11 26 12 27 13 28 14 29 15 30 16 31 68 32 17 33
REMARK SMILES IDX 67 34 18 35 19 36 20 37 61 38 21 39 66 40 60 41 62 42 22 43
REMARK SMILES IDX 65 44 59 45 58 46 23 48 49 49 32 50 48 51 33 52 36 53 47 54
REMARK SMILES IDX 63 55 34 56 35 57 46 59 64 60 37 61 24 62 25 63 30 64 26 65
REMARK SMILES IDX 27 66 29 67 31 68 28 69 50 70 51 71 56 72 52 73 53 74 55 75
REMARK SMILES IDX 57 76 54 77 38 78 39 79 44 80 40 81 41 82 43 83 45 84 42 85
REMARK H PARENT 62 47 36 58
REMARK Flexibility Score: inf
ROOT
ATOM      1  C   UNL A   1      40.668  19.742  26.116  1.00  0.00     0.188 C 
ENDROOT
BRANCH   1   2
ATOM      2  C   UNL A   1      39.892  21.062  26.239  1.00  0.00     0.188 C 
BRANCH   2   3
ATOM      3  O   UNL A   1      38.502  21.221  25.708  1.00  0.00    -0.376 OA
BRANCH   3   4
ATOM      4  C   UNL A   1      37.630  22.691  25.427  1.00  0.00     0.202 C 
BRANCH   4   5
ATOM      5  C   UNL A   1      35.527  22.971  25.899  1.00  0.00     0.261 C 
BRANCH   5   6
ATOM      6  O   UNL A   1      34.811  24.303  26.056  1.00  0.00    -0.460 OA
BRANCH   6   7
ATOM      7  C   UNL A   1      34.025  24.569  25.002  1.00  0.00     0.338 C 
ATOM      8  O   UNL A   1      34.362  24.810  23.868  1.00  0.00    -0.246 OA
BRANCH   7   9
ATOM      9  C   UNL A   1      32.859  25.004  25.757  1.00  0.00     0.087 C 
ATOM     10  C   UNL A   1      32.695  26.443  25.939  1.00  0.00     0.027 C 
ATOM     11  C   UNL A   1      31.681  23.891  24.732  1.00  0.00     0.316 C 
ATOM     12  C   UNL A   1      31.550  27.456  24.997  1.00  0.00     0.019 A 
ATOM     13  O   UNL A   1      30.552  24.973  23.561  1.00  0.00    -0.475 OA
ATOM     14  C   UNL A   1      31.522  28.809  25.195  1.00  0.00     0.032 A 
ATOM     15  C   UNL A   1      30.520  26.790  23.779  1.00  0.00     0.128 A 
ATOM     16  C   UNL A   1      30.591  29.501  24.399  1.00  0.00     0.041 A 
ATOM     17  C   UNL A   1      29.631  27.531  23.055  1.00  0.00     0.048 A 
ATOM     18  Cl  UNL A   1      30.506  31.221  24.631  1.00  0.00    -0.084 Cl
ATOM     19  C   UNL A   1      29.696  28.904  23.406  1.00  0.00     0.024 A 
BRANCH  11  20
ATOM     20  C   UNL A   1      31.310  22.911  26.056  1.00  0.00     0.430 C 
ATOM     21  F   UNL A   1      32.232  22.573  26.959  1.00  0.00    -0.167 F 
ATOM     22  F   UNL A   1      30.275  23.461  26.740  1.00  0.00    -0.167 F 
ATOM     23  F   UNL A   1      30.838  21.691  25.641  1.00  0.00    -0.167 F 
ENDBRANCH  11  20
ENDBRANCH   7   9
ENDBRANCH   6   7
ENDBRANCH   5   6
ENDBRANCH   4   5
ENDBRANCH   3   4
ENDBRANCH   2   3
ENDBRANCH   1   2
BRANCH   1  24
ATOM     24  O   UNL A   1      41.869  19.598  26.832  1.00  0.00    -0.376 OA
BRANCH  24  25
ATOM     25  C   UNL A   1      43.038  19.487  26.032  1.00  0.00     0.202 C 
BRANCH  25  26
ATOM     26  C   UNL A   1      43.653  20.783  25.468  1.00  0.00     0.261 C 
BRANCH  26  27
ATOM     27  O   UNL A   1      43.198  21.996  26.114  1.00  0.00    -0.460 OA
BRANCH  27  28
ATOM     28  C   UNL A   1      43.167  23.137  25.376  1.00  0.00     0.338 C 
ATOM     29  O   UNL A   1      43.360  23.247  24.177  1.00  0.00    -0.246 OA
BRANCH  28  30
ATOM     30  C   UNL A   1      42.730  24.266  26.227  1.00  0.00     0.060 A 
ATOM     31  C   UNL A   1      43.353  25.521  26.118  1.00  0.00     0.016 A 
ATOM     32  C   UNL A   1      41.725  24.066  27.170  1.00  0.00     0.016 A 
ATOM     33  C   UNL A   1      42.921  26.595  26.907  1.00  0.00     0.010 A 
ATOM     34  C   UNL A   1      41.335  25.123  27.997  1.00  0.00     0.010 A 
ATOM     35  C   UNL A   1      41.925  26.395  27.870  1.00  0.00    -0.014 A 
BRANCH  35  36
ATOM     36  C   UNL A   1      41.623  27.431  28.890  1.00  0.00     0.031 A 
ATOM     37  C   UNL A   1      42.406  27.400  30.172  1.00  0.00     0.074 A 
ATOM     38  C   UNL A   1      40.635  28.328  28.724  1.00  0.00     0.049 A 
ATOM     39  N   UNL A   1      42.228  28.082  31.273  1.00  0.00    -0.248 NA
ATOM     40  C   UNL A   1      43.536  26.457  30.222  1.00  0.00     0.031 C 
ATOM     41  C   UNL A   1      39.828  28.481  27.517  1.00  0.00     0.029 A 
ATOM     42  N   UNL A   1      40.122  29.265  29.591  1.00  0.00    -0.354 N 
ATOM     43  C   UNL A   1      43.203  27.632  32.154  1.00  0.00     0.074 A 
ATOM     44  C   UNL A   1      43.968  26.618  31.464  1.00  0.00     0.031 C 
ATOM     45  C   UNL A   1      38.902  29.435  27.728  1.00  0.00     0.029 A 
ATOM     46  C   UNL A   1      39.018  29.926  29.101  1.00  0.00     0.049 A 
ATOM     47  H   UNL A   1      40.506  29.445  30.479  1.00  0.00     0.167 HD
ATOM     48  C   UNL A   1      43.430  28.024  33.428  1.00  0.00     0.037 A 
ATOM     49  C   UNL A   1      38.177  30.789  29.707  1.00  0.00     0.037 A 
ATOM     50  C   UNL A   1      42.657  29.025  34.113  1.00  0.00     0.049 A 
ATOM     51  C   UNL A   1      38.412  31.155  31.155  1.00  0.00     0.074 A 
ATOM     52  C   UNL A   1      42.837  29.520  35.392  1.00  0.00     0.029 A 
ATOM     53  N   UNL A   1      41.546  29.664  33.587  1.00  0.00    -0.354 N 
ATOM     54  N   UNL A   1      39.370  30.769  31.963  1.00  0.00    -0.248 NA
ATOM     55  C   UNL A   1      37.440  32.067  31.782  1.00  0.00     0.031 C 
ATOM     56  C   UNL A   1      41.785  30.394  35.671  1.00  0.00     0.029 A 
ATOM     57  C   UNL A   1      40.998  30.510  34.535  1.00  0.00     0.049 A 
ATOM     58  H   UNL A   1      41.197  29.534  32.675  1.00  0.00     0.167 HD
ATOM     59  C   UNL A   1      39.134  31.409  33.176  1.00  0.00     0.074 A 
ATOM     60  C   UNL A   1      37.954  32.226  32.994  1.00  0.00     0.031 C 
ATOM     61  C   UNL A   1      39.828  31.325  34.337  1.00  0.00     0.037 A 
BRANCH  48  62
ATOM     62  C   UNL A   1      44.521  27.331  34.190  1.00  0.00     0.057 A 
ATOM     63  C   UNL A   1      45.820  27.847  34.271  1.00  0.00     0.134 A 
ATOM     64  C   UNL A   1      44.245  26.157  34.904  1.00  0.00     0.134 A 
ATOM     65  F   UNL A   1      46.154  28.960  33.601  1.00  0.00    -0.206 F 
ATOM     66  C   UNL A   1      46.810  27.211  35.022  1.00  0.00     0.040 A 
ATOM     67  C   UNL A   1      45.217  25.531  35.683  1.00  0.00     0.040 A 
ATOM     68  F   UNL A   1      43.020  25.611  34.870  1.00  0.00    -0.206 F 
ATOM     69  C   UNL A   1      46.506  26.056  35.741  1.00  0.00     0.006 A 
ENDBRANCH  48  62
BRANCH  49  70
ATOM     70  C   UNL A   1      36.992  31.334  28.985  1.00  0.00     0.057 A 
ATOM     71  C   UNL A   1      36.953  32.661  28.536  1.00  0.00     0.134 A 
ATOM     72  C   UNL A   1      35.839  30.562  28.787  1.00  0.00     0.134 A 
ATOM     73  F   UNL A   1      38.010  33.466  28.720  1.00  0.00    -0.206 F 
ATOM     74  C   UNL A   1      35.808  33.207  27.952  1.00  0.00     0.040 A 
ATOM     75  C   UNL A   1      34.700  31.084  28.171  1.00  0.00     0.040 A 
ATOM     76  F   UNL A   1      35.798  29.285  29.197  1.00  0.00    -0.206 F 
ATOM     77  C   UNL A   1      34.677  32.416  27.764  1.00  0.00     0.006 A 
ENDBRANCH  49  70
BRANCH  61  78
ATOM     78  C   UNL A   1      39.361  32.159  35.498  1.00  0.00     0.057 A 
ATOM     79  C   UNL A   1      38.479  31.659  36.465  1.00  0.00     0.134 A 
ATOM     80  C   UNL A   1      39.864  33.452  35.691  1.00  0.00     0.134 A 
ATOM     81  F   UNL A   1      37.953  30.432  36.336  1.00  0.00    -0.206 F 
ATOM     82  C   UNL A   1      38.103  32.422  37.571  1.00  0.00     0.040 A 
ATOM     83  C   UNL A   1      39.523  34.211  36.811  1.00  0.00     0.040 A 
ATOM     84  F   UNL A   1      40.724  33.989  34.811  1.00  0.00    -0.206 F 
ATOM     85  C   UNL A   1      38.635  33.697  37.754  1.00  0.00     0.006 A 
ENDBRANCH  61  78
ENDBRANCH  35  36
ENDBRANCH  28  30
ENDBRANCH  27  28
ENDBRANCH  26  27
ENDBRANCH  25  26
ENDBRANCH  24  25
ENDBRANCH   1  24
TORSDOF 18
ENDMDL
