MODEL 1
REMARK VINA RESULT:     -11.2      0.000      0.000
REMARK SMILES COCc1cc(N2CCCC[C@H]2C(=O)OCCOCCOCCOC(=O)c2ccc(-c3c4nc(c(-c5c(F)cccc5F)c5ccc([nH]5)c(-c5c(F)cccc5F)c5nc(c(-c6c(F)cccc6F)c6ccc3[nH]6)C=C5)C=C4)cc2)nc(-c2ccc(Cl)cc2)n1
REMARK SMILES IDX 19 1 18 2 17 3 16 4 15 5 13 6 14 7 12 8 7 9 8 10 9 11 11 12
REMARK SMILES IDX 10 13 6 14 4 15 5 16 90 17 82 18 81 19 3 20 2 21 1 22 83 23
REMARK SMILES IDX 84 24 89 25 85 26 88 27 86 28 87 29 20 30 21 31 22 32 23 33
REMARK SMILES IDX 24 34 25 35 26 36 27 37 28 38 80 39 29 40 79 41 30 42 31 43
REMARK SMILES IDX 32 44 73 45 33 46 78 47 72 48 74 49 34 50 77 51 71 52 70 53
REMARK SMILES IDX 35 55 61 56 44 57 60 58 45 59 48 60 59 61 75 62 46 63 47 64
REMARK SMILES IDX 58 66 76 67 49 68 36 69 37 70 42 71 38 72 39 73 41 74 43 75
REMARK SMILES IDX 40 76 62 77 63 78 68 79 64 80 65 81 67 82 69 83 66 84 50 85
REMARK SMILES IDX 51 86 56 87 52 88 53 89 55 90 57 91 54 92
REMARK H PARENT 74 54 48 65
REMARK Flexibility Score: inf
ROOT
ATOM      1  C   UNL A   1      29.206  30.824  21.970  1.00  0.00     0.188 C 
ENDROOT
BRANCH   1   2
ATOM      2  O   UNL A   1      29.694  29.554  21.570  1.00  0.00    -0.376 OA
BRANCH   2   3
ATOM      3  C   UNL A   1      29.935  28.610  22.603  1.00  0.00     0.202 C 
BRANCH   3   4
ATOM      4  C   UNL A   1      31.415  28.291  22.813  1.00  0.00     0.261 C 
BRANCH   4   5
ATOM      5  O   UNL A   1      31.691  27.407  23.913  1.00  0.00    -0.462 OA
BRANCH   5   6
ATOM      6  C   UNL A   1      32.867  26.718  23.904  1.00  0.00     0.328 C 
ATOM      7  O   UNL A   1      33.973  27.235  23.835  1.00  0.00    -0.250 OA
BRANCH   6   8
ATOM      8  C   UNL A   1      32.572  25.214  24.023  1.00  0.00     0.193 C 
ATOM      9  N   UNL A   1      32.871  24.738  25.377  1.00  0.00    -0.343 N 
ATOM     10  C   UNL A   1      31.921  25.005  26.452  1.00  0.00     0.119 C 
ATOM     11  C   UNL A   1      30.497  24.627  26.049  1.00  0.00     0.022 C 
ATOM     12  C   UNL A   1      31.141  24.813  23.639  1.00  0.00     0.037 C 
ATOM     13  C   UNL A   1      30.113  25.208  24.691  1.00  0.00     0.005 C 
BRANCH   9  14
ATOM     14  C   UNL A   1      33.860  23.789  25.523  1.00  0.00     0.133 A 
ATOM     15  C   UNL A   1      36.139  23.202  25.821  1.00  0.00     0.072 A 
ATOM     16  C   UNL A   1      35.158  24.172  25.809  1.00  0.00     0.073 A 
ATOM     17  N   UNL A   1      35.846  21.902  25.626  1.00  0.00    -0.230 NA
ATOM     18  C   UNL A   1      34.552  21.617  25.390  1.00  0.00     0.161 A 
ATOM     19  N   UNL A   1      33.548  22.506  25.328  1.00  0.00    -0.211 NA
BRANCH  15  20
ATOM     20  C   UNL A   1      37.584  23.572  26.075  1.00  0.00     0.216 C 
BRANCH  20  21
ATOM     21  O   UNL A   1      38.525  22.620  25.558  1.00  0.00    -0.378 OA
ATOM     22  C   UNL A   1      39.510  22.237  26.512  1.00  0.00     0.195 C 
ENDBRANCH  20  21
ENDBRANCH  15  20
BRANCH  18  23
ATOM     23  C   UNL A   1      34.193  20.224  25.144  1.00  0.00     0.019 A 
ATOM     24  C   UNL A   1      35.144  19.310  24.660  1.00  0.00     0.013 A 
ATOM     25  C   UNL A   1      32.896  19.760  25.425  1.00  0.00     0.013 A 
ATOM     26  C   UNL A   1      34.811  17.965  24.477  1.00  0.00     0.021 A 
ATOM     27  C   UNL A   1      32.556  18.420  25.229  1.00  0.00     0.021 A 
ATOM     28  C   UNL A   1      33.519  17.528  24.762  1.00  0.00     0.041 A 
ATOM     29  Cl  UNL A   1      33.111  15.871  24.543  1.00  0.00    -0.084 Cl
ENDBRANCH  18  23
ENDBRANCH   9  14
ENDBRANCH   6   8
ENDBRANCH   5   6
ENDBRANCH   4   5
ENDBRANCH   3   4
ENDBRANCH   2   3
ENDBRANCH   1   2
BRANCH   1  30
ATOM     30  C   UNL A   1      28.819  30.896  23.462  1.00  0.00     0.188 C 
BRANCH  30  31
ATOM     31  O   UNL A   1      29.472  31.822  24.321  1.00  0.00    -0.376 OA
BRANCH  31  32
ATOM     32  C   UNL A   1      30.492  31.360  25.193  1.00  0.00     0.202 C 
BRANCH  32  33
ATOM     33  C   UNL A   1      30.989  32.334  26.265  1.00  0.00     0.261 C 
BRANCH  33  34
ATOM     34  O   UNL A   1      32.216  31.932  26.903  1.00  0.00    -0.460 OA
BRANCH  34  35
ATOM     35  C   UNL A   1      32.923  32.927  27.493  1.00  0.00     0.338 C 
ATOM     36  O   UNL A   1      32.525  34.042  27.779  1.00  0.00    -0.246 OA
BRANCH  35  37
ATOM     37  C   UNL A   1      34.257  32.439  27.910  1.00  0.00     0.060 A 
ATOM     38  C   UNL A   1      34.412  31.064  28.134  1.00  0.00     0.016 A 
ATOM     39  C   UNL A   1      35.313  33.316  28.167  1.00  0.00     0.016 A 
ATOM     40  C   UNL A   1      35.604  30.567  28.666  1.00  0.00     0.010 A 
ATOM     41  C   UNL A   1      36.501  32.818  28.718  1.00  0.00     0.010 A 
ATOM     42  C   UNL A   1      36.639  31.448  29.006  1.00  0.00    -0.014 A 
BRANCH  42  43
ATOM     43  C   UNL A   1      37.778  30.967  29.828  1.00  0.00     0.031 A 
ATOM     44  C   UNL A   1      38.772  30.021  29.207  1.00  0.00     0.074 A 
ATOM     45  C   UNL A   1      37.948  31.366  31.100  1.00  0.00     0.049 A 
ATOM     46  N   UNL A   1      39.814  29.436  29.742  1.00  0.00    -0.248 NA
ATOM     47  C   UNL A   1      38.559  29.693  27.789  1.00  0.00     0.031 C 
ATOM     48  C   UNL A   1      37.096  32.315  31.811  1.00  0.00     0.029 A 
ATOM     49  N   UNL A   1      38.901  31.008  32.023  1.00  0.00    -0.354 N 
ATOM     50  C   UNL A   1      40.376  28.667  28.731  1.00  0.00     0.074 A 
ATOM     51  C   UNL A   1      39.546  28.841  27.557  1.00  0.00     0.031 C 
ATOM     52  C   UNL A   1      37.558  32.456  33.067  1.00  0.00     0.029 A 
ATOM     53  C   UNL A   1      38.717  31.584  33.256  1.00  0.00     0.049 A 
ATOM     54  H   UNL A   1      39.645  30.397  31.820  1.00  0.00     0.167 HD
ATOM     55  C   UNL A   1      41.485  27.889  28.770  1.00  0.00     0.037 A 
ATOM     56  C   UNL A   1      39.394  31.410  34.408  1.00  0.00     0.037 A 
ATOM     57  C   UNL A   1      42.309  27.702  29.934  1.00  0.00     0.049 A 
ATOM     58  C   UNL A   1      40.567  30.466  34.455  1.00  0.00     0.074 A 
ATOM     59  C   UNL A   1      43.464  26.949  30.062  1.00  0.00     0.029 A 
ATOM     60  N   UNL A   1      42.060  28.265  31.177  1.00  0.00    -0.354 N 
ATOM     61  N   UNL A   1      41.105  29.763  33.488  1.00  0.00    -0.248 NA
ATOM     62  C   UNL A   1      41.224  30.287  35.760  1.00  0.00     0.031 C 
ATOM     63  C   UNL A   1      43.883  27.013  31.395  1.00  0.00     0.029 A 
ATOM     64  C   UNL A   1      43.019  27.848  32.086  1.00  0.00     0.049 A 
ATOM     65  H   UNL A   1      41.312  28.869  31.383  1.00  0.00     0.167 HD
ATOM     66  C   UNL A   1      42.180  29.088  34.058  1.00  0.00     0.074 A 
ATOM     67  C   UNL A   1      42.219  29.467  35.454  1.00  0.00     0.031 C 
ATOM     68  C   UNL A   1      43.055  28.234  33.474  1.00  0.00     0.037 A 
BRANCH  55  69
ATOM     69  C   UNL A   1      41.842  27.148  27.516  1.00  0.00     0.057 A 
ATOM     70  C   UNL A   1      42.576  27.748  26.484  1.00  0.00     0.134 A 
ATOM     71  C   UNL A   1      41.450  25.815  27.340  1.00  0.00     0.134 A 
ATOM     72  F   UNL A   1      42.968  29.028  26.583  1.00  0.00    -0.206 F 
ATOM     73  C   UNL A   1      42.880  27.059  25.308  1.00  0.00     0.040 A 
ATOM     74  C   UNL A   1      41.769  25.108  26.180  1.00  0.00     0.040 A 
ATOM     75  F   UNL A   1      40.749  25.181  28.292  1.00  0.00    -0.206 F 
ATOM     76  C   UNL A   1      42.478  25.732  25.157  1.00  0.00     0.006 A 
ENDBRANCH  55  69
BRANCH  56  77
ATOM     77  C   UNL A   1      38.976  32.142  35.630  1.00  0.00     0.057 A 
ATOM     78  C   UNL A   1      39.364  33.468  35.846  1.00  0.00     0.134 A 
ATOM     79  C   UNL A   1      38.200  31.525  36.620  1.00  0.00     0.134 A 
ATOM     80  F   UNL A   1      40.133  34.101  34.946  1.00  0.00    -0.206 F 
ATOM     81  C   UNL A   1      39.005  34.155  37.007  1.00  0.00     0.040 A 
ATOM     82  C   UNL A   1      37.815  32.208  37.775  1.00  0.00     0.040 A 
ATOM     83  F   UNL A   1      37.802  30.254  36.474  1.00  0.00    -0.206 F 
ATOM     84  C   UNL A   1      38.223  33.526  37.973  1.00  0.00     0.006 A 
ENDBRANCH  56  77
BRANCH  68  85
ATOM     85  C   UNL A   1      44.159  27.678  34.327  1.00  0.00     0.057 A 
ATOM     86  C   UNL A   1      45.370  28.358  34.510  1.00  0.00     0.134 A 
ATOM     87  C   UNL A   1      43.990  26.466  35.012  1.00  0.00     0.134 A 
ATOM     88  F   UNL A   1      45.602  29.516  33.874  1.00  0.00    -0.206 F 
ATOM     89  C   UNL A   1      46.378  27.845  35.329  1.00  0.00     0.040 A 
ATOM     90  C   UNL A   1      44.980  25.957  35.853  1.00  0.00     0.040 A 
ATOM     91  F   UNL A   1      42.851  25.769  34.888  1.00  0.00    -0.206 F 
ATOM     92  C   UNL A   1      46.182  26.645  36.009  1.00  0.00     0.006 A 
ENDBRANCH  68  85
ENDBRANCH  42  43
ENDBRANCH  35  37
ENDBRANCH  34  35
ENDBRANCH  33  34
ENDBRANCH  32  33
ENDBRANCH  31  32
ENDBRANCH  30  31
ENDBRANCH   1  30
TORSDOF 21
ENDMDL
MODEL 2
REMARK VINA RESULT:     -10.9      2.041      6.558
REMARK SMILES COCc1cc(N2CCCC[C@H]2C(=O)OCCOCCOCCOC(=O)c2ccc(-c3c4nc(c(-c5c(F)cccc5F)c5ccc([nH]5)c(-c5c(F)cccc5F)c5nc(c(-c6c(F)cccc6F)c6ccc3[nH]6)C=C5)C=C4)cc2)nc(-c2ccc(Cl)cc2)n1
REMARK SMILES IDX 19 1 18 2 17 3 16 4 15 5 13 6 14 7 12 8 7 9 8 10 9 11 11 12
REMARK SMILES IDX 10 13 6 14 4 15 5 16 90 17 82 18 81 19 3 20 2 21 1 22 83 23
REMARK SMILES IDX 84 24 89 25 85 26 88 27 86 28 87 29 20 30 21 31 22 32 23 33
REMARK SMILES IDX 24 34 25 35 26 36 27 37 28 38 80 39 29 40 79 41 30 42 31 43
REMARK SMILES IDX 32 44 73 45 33 46 78 47 72 48 74 49 34 50 77 51 71 52 70 53
REMARK SMILES IDX 35 55 61 56 44 57 60 58 45 59 48 60 59 61 75 62 46 63 47 64
REMARK SMILES IDX 58 66 76 67 49 68 36 69 37 70 42 71 38 72 39 73 41 74 43 75
REMARK SMILES IDX 40 76 62 77 63 78 68 79 64 80 65 81 67 82 69 83 66 84 50 85
REMARK SMILES IDX 51 86 56 87 52 88 53 89 55 90 57 91 54 92
REMARK H PARENT 74 54 48 65
REMARK Flexibility Score: inf
ROOT
ATOM      1  C   UNL A   1      31.595  29.286  25.939  1.00  0.00     0.188 C 
ENDROOT
BRANCH   1   2
ATOM      2  O   UNL A   1      31.131  30.035  24.827  1.00  0.00    -0.376 OA
BRANCH   2   3
ATOM      3  C   UNL A   1      30.624  29.293  23.728  1.00  0.00     0.202 C 
BRANCH   3   4
ATOM      4  C   UNL A   1      31.700  28.838  22.742  1.00  0.00     0.261 C 
BRANCH   4   5
ATOM      5  O   UNL A   1      31.728  27.423  22.490  1.00  0.00    -0.462 OA
BRANCH   5   6
ATOM      6  C   UNL A   1      32.534  26.648  23.270  1.00  0.00     0.328 C 
ATOM      7  O   UNL A   1      33.627  26.994  23.696  1.00  0.00    -0.250 OA
BRANCH   6   8
ATOM      8  C   UNL A   1      31.835  25.306  23.542  1.00  0.00     0.193 C 
ATOM      9  N   UNL A   1      32.305  24.730  24.806  1.00  0.00    -0.343 N 
ATOM     10  C   UNL A   1      31.784  25.252  26.064  1.00  0.00     0.119 C 
ATOM     11  C   UNL A   1      30.259  25.341  26.046  1.00  0.00     0.022 C 
ATOM     12  C   UNL A   1      30.302  25.375  23.546  1.00  0.00     0.037 C 
ATOM     13  C   UNL A   1      29.743  26.043  24.795  1.00  0.00     0.005 C 
BRANCH   9  14
ATOM     14  C   UNL A   1      32.962  23.519  24.757  1.00  0.00     0.133 A 
ATOM     15  C   UNL A   1      32.933  21.151  24.602  1.00  0.00     0.072 A 
ATOM     16  C   UNL A   1      32.258  22.352  24.516  1.00  0.00     0.073 A 
ATOM     17  N   UNL A   1      34.256  21.103  24.847  1.00  0.00    -0.230 NA
ATOM     18  C   UNL A   1      34.866  22.288  25.033  1.00  0.00     0.161 A 
ATOM     19  N   UNL A   1      34.274  23.493  25.000  1.00  0.00    -0.211 NA
BRANCH  15  20
ATOM     20  C   UNL A   1      32.201  19.842  24.401  1.00  0.00     0.216 C 
BRANCH  20  21
ATOM     21  O   UNL A   1      32.405  18.897  25.461  1.00  0.00    -0.378 OA
ATOM     22  C   UNL A   1      32.548  17.559  24.995  1.00  0.00     0.195 C 
ENDBRANCH  20  21
ENDBRANCH  15  20
BRANCH  18  23
ATOM     23  C   UNL A   1      36.295  22.282  25.331  1.00  0.00     0.019 A 
ATOM     24  C   UNL A   1      36.927  23.424  25.850  1.00  0.00     0.013 A 
ATOM     25  C   UNL A   1      37.059  21.118  25.142  1.00  0.00     0.013 A 
ATOM     26  C   UNL A   1      38.283  23.397  26.185  1.00  0.00     0.021 A 
ATOM     27  C   UNL A   1      38.418  21.092  25.462  1.00  0.00     0.021 A 
ATOM     28  C   UNL A   1      39.022  22.232  25.989  1.00  0.00     0.041 A 
ATOM     29  Cl  UNL A   1      40.690  22.197  26.407  1.00  0.00    -0.084 Cl
ENDBRANCH  18  23
ENDBRANCH   9  14
ENDBRANCH   6   8
ENDBRANCH   5   6
ENDBRANCH   4   5
ENDBRANCH   3   4
ENDBRANCH   2   3
ENDBRANCH   1   2
BRANCH   1  30
ATOM     30  C   UNL A   1      33.122  29.372  26.148  1.00  0.00     0.188 C 
BRANCH  30  31
ATOM     31  O   UNL A   1      33.689  30.518  26.770  1.00  0.00    -0.376 OA
BRANCH  31  32
ATOM     32  C   UNL A   1      32.831  31.502  27.327  1.00  0.00     0.202 C 
BRANCH  32  33
ATOM     33  C   UNL A   1      33.452  32.860  27.666  1.00  0.00     0.261 C 
BRANCH  33  34
ATOM     34  O   UNL A   1      32.490  33.889  27.965  1.00  0.00    -0.460 OA
BRANCH  34  35
ATOM     35  C   UNL A   1      32.965  34.949  28.664  1.00  0.00     0.338 C 
ATOM     36  O   UNL A   1      32.468  36.058  28.748  1.00  0.00    -0.246 OA
BRANCH  35  37
ATOM     37  C   UNL A   1      34.136  34.550  29.477  1.00  0.00     0.060 A 
ATOM     38  C   UNL A   1      35.405  34.634  28.886  1.00  0.00     0.016 A 
ATOM     39  C   UNL A   1      33.994  34.018  30.760  1.00  0.00     0.016 A 
ATOM     40  C   UNL A   1      36.528  34.138  29.553  1.00  0.00     0.010 A 
ATOM     41  C   UNL A   1      35.118  33.503  31.420  1.00  0.00     0.010 A 
ATOM     42  C   UNL A   1      36.384  33.526  30.804  1.00  0.00    -0.014 A 
BRANCH  42  43
ATOM     43  C   UNL A   1      37.509  32.748  31.380  1.00  0.00     0.031 A 
ATOM     44  C   UNL A   1      38.078  33.171  32.709  1.00  0.00     0.074 A 
ATOM     45  C   UNL A   1      38.019  31.674  30.753  1.00  0.00     0.049 A 
ATOM     46  N   UNL A   1      39.086  32.676  33.381  1.00  0.00    -0.248 NA
ATOM     47  C   UNL A   1      37.415  34.308  33.368  1.00  0.00     0.031 C 
ATOM     48  C   UNL A   1      37.536  31.122  29.491  1.00  0.00     0.029 A 
ATOM     49  N   UNL A   1      39.070  30.861  31.099  1.00  0.00    -0.354 N 
ATOM     50  C   UNL A   1      39.183  33.443  34.536  1.00  0.00     0.074 A 
ATOM     51  C   UNL A   1      38.147  34.451  34.461  1.00  0.00     0.031 C 
ATOM     52  C   UNL A   1      38.299  30.065  29.159  1.00  0.00     0.029 A 
ATOM     53  C   UNL A   1      39.342  29.886  30.170  1.00  0.00     0.049 A 
ATOM     54  H   UNL A   1      39.582  30.966  31.934  1.00  0.00     0.167 HD
ATOM     55  C   UNL A   1      40.052  33.319  35.569  1.00  0.00     0.037 A 
ATOM     56  C   UNL A   1      40.329  28.970  30.131  1.00  0.00     0.037 A 
ATOM     57  C   UNL A   1      41.091  32.327  35.646  1.00  0.00     0.049 A 
ATOM     58  C   UNL A   1      41.344  28.912  31.243  1.00  0.00     0.074 A 
ATOM     59  C   UNL A   1      42.004  32.112  36.664  1.00  0.00     0.029 A 
ATOM     60  N   UNL A   1      41.362  31.389  34.661  1.00  0.00    -0.354 N 
ATOM     61  N   UNL A   1      41.412  29.624  32.342  1.00  0.00    -0.248 NA
ATOM     62  C   UNL A   1      42.424  27.921  31.106  1.00  0.00     0.031 C 
ATOM     63  C   UNL A   1      42.863  31.079  36.271  1.00  0.00     0.029 A 
ATOM     64  C   UNL A   1      42.451  30.617  35.031  1.00  0.00     0.049 A 
ATOM     65  H   UNL A   1      40.857  31.289  33.823  1.00  0.00     0.167 HD
ATOM     66  C   UNL A   1      42.518  29.148  33.039  1.00  0.00     0.074 A 
ATOM     67  C   UNL A   1      43.089  28.084  32.241  1.00  0.00     0.031 C 
ATOM     68  C   UNL A   1      43.011  29.555  34.234  1.00  0.00     0.037 A 
BRANCH  55  69
ATOM     69  C   UNL A   1      39.933  34.317  36.682  1.00  0.00     0.057 A 
ATOM     70  C   UNL A   1      40.567  35.566  36.630  1.00  0.00     0.134 A 
ATOM     71  C   UNL A   1      39.173  34.025  37.821  1.00  0.00     0.134 A 
ATOM     72  F   UNL A   1      41.324  35.900  35.574  1.00  0.00    -0.206 F 
ATOM     73  C   UNL A   1      40.473  36.476  37.684  1.00  0.00     0.040 A 
ATOM     74  C   UNL A   1      39.050  34.937  38.870  1.00  0.00     0.040 A 
ATOM     75  F   UNL A   1      38.537  32.849  37.932  1.00  0.00    -0.206 F 
ATOM     76  C   UNL A   1      39.709  36.163  38.808  1.00  0.00     0.006 A 
ENDBRANCH  55  69
BRANCH  56  77
ATOM     77  C   UNL A   1      40.422  28.029  28.987  1.00  0.00     0.057 A 
ATOM     78  C   UNL A   1      41.184  28.340  27.856  1.00  0.00     0.134 A 
ATOM     79  C   UNL A   1      39.733  26.810  28.988  1.00  0.00     0.134 A 
ATOM     80  F   UNL A   1      41.841  29.507  27.786  1.00  0.00    -0.206 F 
ATOM     81  C   UNL A   1      41.251  27.478  26.760  1.00  0.00     0.040 A 
ATOM     82  C   UNL A   1      39.810  25.928  27.908  1.00  0.00     0.040 A 
ATOM     83  F   UNL A   1      38.981  26.457  30.040  1.00  0.00    -0.206 F 
ATOM     84  C   UNL A   1      40.567  26.264  26.788  1.00  0.00     0.006 A 
ENDBRANCH  56  77
BRANCH  68  85
ATOM     85  C   UNL A   1      44.206  28.824  34.778  1.00  0.00     0.057 A 
ATOM     86  C   UNL A   1      44.075  27.668  35.557  1.00  0.00     0.134 A 
ATOM     87  C   UNL A   1      45.504  29.260  34.480  1.00  0.00     0.134 A 
ATOM     88  F   UNL A   1      42.862  27.205  35.890  1.00  0.00    -0.206 F 
ATOM     89  C   UNL A   1      45.194  26.980  36.034  1.00  0.00     0.040 A 
ATOM     90  C   UNL A   1      46.629  28.567  34.930  1.00  0.00     0.040 A 
ATOM     91  F   UNL A   1      45.699  30.355  33.731  1.00  0.00    -0.206 F 
ATOM     92  C   UNL A   1      46.475  27.425  35.715  1.00  0.00     0.006 A 
ENDBRANCH  68  85
ENDBRANCH  42  43
ENDBRANCH  35  37
ENDBRANCH  34  35
ENDBRANCH  33  34
ENDBRANCH  32  33
ENDBRANCH  31  32
ENDBRANCH  30  31
ENDBRANCH   1  30
TORSDOF 21
ENDMDL
MODEL 3
REMARK VINA RESULT:     -10.9      4.085      6.423
REMARK SMILES COCc1cc(N2CCCC[C@H]2C(=O)OCCOCCOCCOC(=O)c2ccc(-c3c4nc(c(-c5c(F)cccc5F)c5ccc([nH]5)c(-c5c(F)cccc5F)c5nc(c(-c6c(F)cccc6F)c6ccc3[nH]6)C=C5)C=C4)cc2)nc(-c2ccc(Cl)cc2)n1
REMARK SMILES IDX 19 1 18 2 17 3 16 4 15 5 13 6 14 7 12 8 7 9 8 10 9 11 11 12
REMARK SMILES IDX 10 13 6 14 4 15 5 16 90 17 82 18 81 19 3 20 2 21 1 22 83 23
REMARK SMILES IDX 84 24 89 25 85 26 88 27 86 28 87 29 20 30 21 31 22 32 23 33
REMARK SMILES IDX 24 34 25 35 26 36 27 37 28 38 80 39 29 40 79 41 30 42 31 43
REMARK SMILES IDX 32 44 73 45 33 46 78 47 72 48 74 49 34 50 77 51 71 52 70 53
REMARK SMILES IDX 35 55 61 56 44 57 60 58 45 59 48 60 59 61 75 62 46 63 47 64
REMARK SMILES IDX 58 66 76 67 49 68 36 69 37 70 42 71 38 72 39 73 41 74 43 75
REMARK SMILES IDX 40 76 62 77 63 78 68 79 64 80 65 81 67 82 69 83 66 84 50 85
REMARK SMILES IDX 51 86 56 87 52 88 53 89 55 90 57 91 54 92
REMARK H PARENT 74 54 48 65
REMARK Flexibility Score: inf
ROOT
ATOM      1  C   UNL A   1      32.901  29.949  25.661  1.00  0.00     0.188 C 
ENDROOT
BRANCH   1   2
ATOM      2  O   UNL A   1      32.727  29.153  24.500  1.00  0.00    -0.376 OA
BRANCH   2   3
ATOM      3  C   UNL A   1      33.907  28.662  23.883  1.00  0.00     0.202 C 
BRANCH   3   4
ATOM      4  C   UNL A   1      33.669  28.033  22.509  1.00  0.00     0.261 C 
BRANCH   4   5
ATOM      5  O   UNL A   1      33.443  26.613  22.527  1.00  0.00    -0.462 OA
BRANCH   5   6
ATOM      6  C   UNL A   1      32.174  26.162  22.321  1.00  0.00     0.328 C 
ATOM      7  O   UNL A   1      31.383  26.654  21.528  1.00  0.00    -0.250 OA
BRANCH   6   8
ATOM      8  C   UNL A   1      31.922  24.936  23.214  1.00  0.00     0.193 C 
ATOM      9  N   UNL A   1      32.629  25.077  24.490  1.00  0.00    -0.343 N 
ATOM     10  C   UNL A   1      32.067  25.940  25.524  1.00  0.00     0.119 C 
ATOM     11  C   UNL A   1      30.587  25.645  25.756  1.00  0.00     0.022 C 
ATOM     12  C   UNL A   1      30.442  24.631  23.475  1.00  0.00     0.037 C 
ATOM     13  C   UNL A   1      29.799  25.608  24.450  1.00  0.00     0.005 C 
BRANCH   9  14
ATOM     14  C   UNL A   1      33.608  24.154  24.790  1.00  0.00     0.133 A 
ATOM     15  C   UNL A   1      35.843  23.625  25.387  1.00  0.00     0.072 A 
ATOM     16  C   UNL A   1      34.855  24.573  25.220  1.00  0.00     0.073 A 
ATOM     17  N   UNL A   1      35.597  22.313  25.204  1.00  0.00    -0.230 NA
ATOM     18  C   UNL A   1      34.348  21.993  24.820  1.00  0.00     0.161 A 
ATOM     19  N   UNL A   1      33.345  22.859  24.604  1.00  0.00    -0.211 NA
BRANCH  15  20
ATOM     20  C   UNL A   1      37.239  24.033  25.805  1.00  0.00     0.216 C 
BRANCH  20  21
ATOM     21  O   UNL A   1      38.195  22.965  25.750  1.00  0.00    -0.378 OA
ATOM     22  C   UNL A   1      39.132  23.000  26.821  1.00  0.00     0.195 C 
ENDBRANCH  20  21
ENDBRANCH  15  20
BRANCH  18  23
ATOM     23  C   UNL A   1      34.045  20.586  24.580  1.00  0.00     0.019 A 
ATOM     24  C   UNL A   1      32.800  20.195  24.061  1.00  0.00     0.013 A 
ATOM     25  C   UNL A   1      35.012  19.596  24.826  1.00  0.00     0.013 A 
ATOM     26  C   UNL A   1      32.534  18.852  23.782  1.00  0.00     0.021 A 
ATOM     27  C   UNL A   1      34.744  18.251  24.562  1.00  0.00     0.021 A 
ATOM     28  C   UNL A   1      33.507  17.887  24.035  1.00  0.00     0.041 A 
ATOM     29  Cl  UNL A   1      33.182  16.235  23.685  1.00  0.00    -0.084 Cl
ENDBRANCH  18  23
ENDBRANCH   9  14
ENDBRANCH   6   8
ENDBRANCH   5   6
ENDBRANCH   4   5
ENDBRANCH   3   4
ENDBRANCH   2   3
ENDBRANCH   1   2
BRANCH   1  30
ATOM     30  C   UNL A   1      33.606  29.209  26.818  1.00  0.00     0.188 C 
BRANCH  30  31
ATOM     31  O   UNL A   1      34.556  29.895  27.624  1.00  0.00    -0.376 OA
BRANCH  31  32
ATOM     32  C   UNL A   1      34.495  31.310  27.716  1.00  0.00     0.202 C 
BRANCH  32  33
ATOM     33  C   UNL A   1      34.790  31.934  29.084  1.00  0.00     0.261 C 
BRANCH  33  34
ATOM     34  O   UNL A   1      36.183  31.912  29.452  1.00  0.00    -0.460 OA
BRANCH  34  35
ATOM     35  C   UNL A   1      36.536  30.957  30.347  1.00  0.00     0.338 C 
ATOM     36  O   UNL A   1      35.926  30.624  31.347  1.00  0.00    -0.246 OA
BRANCH  35  37
ATOM     37  C   UNL A   1      37.730  30.220  29.875  1.00  0.00     0.060 A 
ATOM     38  C   UNL A   1      38.646  29.770  30.836  1.00  0.00     0.016 A 
ATOM     39  C   UNL A   1      37.999  30.050  28.515  1.00  0.00     0.016 A 
ATOM     40  C   UNL A   1      39.858  29.197  30.442  1.00  0.00     0.010 A 
ATOM     41  C   UNL A   1      39.223  29.492  28.121  1.00  0.00     0.010 A 
ATOM     42  C   UNL A   1      40.174  29.099  29.081  1.00  0.00    -0.014 A 
BRANCH  42  43
ATOM     43  C   UNL A   1      41.560  28.764  28.666  1.00  0.00     0.031 A 
ATOM     44  C   UNL A   1      41.875  27.346  28.266  1.00  0.00     0.074 A 
ATOM     45  C   UNL A   1      42.529  29.694  28.628  1.00  0.00     0.049 A 
ATOM     46  N   UNL A   1      43.017  26.812  27.915  1.00  0.00    -0.248 NA
ATOM     47  C   UNL A   1      40.743  26.406  28.261  1.00  0.00     0.031 C 
ATOM     48  C   UNL A   1      42.357  31.110  28.938  1.00  0.00     0.029 A 
ATOM     49  N   UNL A   1      43.861  29.575  28.316  1.00  0.00    -0.354 N 
ATOM     50  C   UNL A   1      42.745  25.475  27.655  1.00  0.00     0.074 A 
ATOM     51  C   UNL A   1      41.334  25.274  27.911  1.00  0.00     0.031 C 
ATOM     52  C   UNL A   1      43.544  31.730  28.813  1.00  0.00     0.029 A 
ATOM     53  C   UNL A   1      44.564  30.748  28.445  1.00  0.00     0.049 A 
ATOM     54  H   UNL A   1      44.274  28.729  28.027  1.00  0.00     0.167 HD
ATOM     55  C   UNL A   1      43.589  24.501  27.235  1.00  0.00     0.037 A 
ATOM     56  C   UNL A   1      45.881  30.994  28.303  1.00  0.00     0.037 A 
ATOM     57  C   UNL A   1      44.993  24.690  26.988  1.00  0.00     0.049 A 
ATOM     58  C   UNL A   1      46.819  29.876  27.930  1.00  0.00     0.074 A 
ATOM     59  C   UNL A   1      45.922  23.766  26.541  1.00  0.00     0.029 A 
ATOM     60  N   UNL A   1      45.675  25.882  27.178  1.00  0.00    -0.354 N 
ATOM     61  N   UNL A   1      46.548  28.621  27.661  1.00  0.00    -0.248 NA
ATOM     62  C   UNL A   1      48.250  30.209  27.844  1.00  0.00     0.031 C 
ATOM     63  C   UNL A   1      47.177  24.385  26.511  1.00  0.00     0.029 A 
ATOM     64  C   UNL A   1      47.019  25.709  26.891  1.00  0.00     0.049 A 
ATOM     65  H   UNL A   1      45.265  26.726  27.475  1.00  0.00     0.167 HD
ATOM     66  C   UNL A   1      47.765  28.026  27.344  1.00  0.00     0.074 A 
ATOM     67  C   UNL A   1      48.775  29.057  27.451  1.00  0.00     0.031 C 
ATOM     68  C   UNL A   1      48.019  26.742  26.994  1.00  0.00     0.037 A 
BRANCH  55  69
ATOM     69  C   UNL A   1      43.011  23.129  27.058  1.00  0.00     0.057 A 
ATOM     70  C   UNL A   1      42.753  22.591  25.789  1.00  0.00     0.134 A 
ATOM     71  C   UNL A   1      42.711  22.333  28.171  1.00  0.00     0.134 A 
ATOM     72  F   UNL A   1      43.002  23.308  24.683  1.00  0.00    -0.206 F 
ATOM     73  C   UNL A   1      42.188  21.323  25.636  1.00  0.00     0.040 A 
ATOM     74  C   UNL A   1      42.171  21.054  28.029  1.00  0.00     0.040 A 
ATOM     75  F   UNL A   1      42.939  22.787  29.412  1.00  0.00    -0.206 F 
ATOM     76  C   UNL A   1      41.899  20.550  26.759  1.00  0.00     0.006 A 
ENDBRANCH  55  69
BRANCH  56  77
ATOM     77  C   UNL A   1      46.407  32.365  28.525  1.00  0.00     0.057 A 
ATOM     78  C   UNL A   1      46.561  33.260  27.461  1.00  0.00     0.134 A 
ATOM     79  C   UNL A   1      46.788  32.802  29.799  1.00  0.00     0.134 A 
ATOM     80  F   UNL A   1      46.240  32.886  26.213  1.00  0.00    -0.206 F 
ATOM     81  C   UNL A   1      47.085  34.539  27.653  1.00  0.00     0.040 A 
ATOM     82  C   UNL A   1      47.292  34.087  30.008  1.00  0.00     0.040 A 
ATOM     83  F   UNL A   1      46.670  31.989  30.858  1.00  0.00    -0.206 F 
ATOM     84  C   UNL A   1      47.447  34.958  28.932  1.00  0.00     0.006 A 
ENDBRANCH  56  77
BRANCH  68  85
ATOM     85  C   UNL A   1      49.438  26.380  26.658  1.00  0.00     0.057 A 
ATOM     86  C   UNL A   1      50.306  25.827  27.608  1.00  0.00     0.134 A 
ATOM     87  C   UNL A   1      49.927  26.546  25.355  1.00  0.00     0.134 A 
ATOM     88  F   UNL A   1      49.906  25.655  28.876  1.00  0.00    -0.206 F 
ATOM     89  C   UNL A   1      51.615  25.468  27.277  1.00  0.00     0.040 A 
ATOM     90  C   UNL A   1      51.224  26.167  25.008  1.00  0.00     0.040 A 
ATOM     91  F   UNL A   1      49.145  27.061  24.395  1.00  0.00    -0.206 F 
ATOM     92  C   UNL A   1      52.075  25.631  25.972  1.00  0.00     0.006 A 
ENDBRANCH  68  85
ENDBRANCH  42  43
ENDBRANCH  35  37
ENDBRANCH  34  35
ENDBRANCH  33  34
ENDBRANCH  32  33
ENDBRANCH  31  32
ENDBRANCH  30  31
ENDBRANCH   1  30
TORSDOF 21
ENDMDL
