MODEL 1
REMARK VINA RESULT:     -11.3      0.000      0.000
REMARK SMILES NS(=O)(=O)c1ccc(-n2ccnc2-c2ccc(O)c(C(=O)OCCOCCOCCOC(=O)c3ccc(-c4c5nc(c(-c6c(F)cccc6F)c6ccc([nH]6)c(-c6c(F)cccc6F)c6nc(c(-c7c(F)cccc7F)c7ccc4[nH]7)C=C6)C=C5)cc3)c2)cc1
REMARK SMILES IDX 26 1 25 2 24 3 23 4 22 5 20 6 21 7 19 8 14 9 15 10 88 11
REMARK SMILES IDX 16 12 17 13 13 14 9 15 10 16 11 17 12 18 8 19 5 20 6 21
REMARK SMILES IDX 90 22 7 23 89 24 2 25 3 26 4 27 1 28 18 31 27 33 28 34 29 35
REMARK SMILES IDX 30 36 31 37 32 38 33 39 34 40 35 41 87 42 36 43 86 44 37 45
REMARK SMILES IDX 38 46 39 47 80 48 40 49 85 50 79 51 81 52 41 53 84 54 78 55
REMARK SMILES IDX 77 56 42 58 68 59 51 60 67 61 52 62 55 63 66 64 82 65 53 66
REMARK SMILES IDX 54 67 65 69 83 70 56 71 43 72 44 73 49 74 45 75 46 76 48 77
REMARK SMILES IDX 50 78 47 79 69 80 70 81 75 82 71 83 72 84 74 85 76 86 73 87
REMARK SMILES IDX 57 88 58 89 63 90 59 91 60 92 62 93 64 94 61 95
REMARK H PARENT 1 29 1 30 18 32 81 57 55 68
REMARK Flexibility Score: inf
ROOT
ATOM      1  C   UNL A   1      32.193  29.927  26.764  1.00  0.00     0.188 C 
ENDROOT
BRANCH   1   2
ATOM      2  O   UNL A   1      31.470  29.422  25.652  1.00  0.00    -0.376 OA
BRANCH   2   3
ATOM      3  C   UNL A   1      31.472  28.029  25.367  1.00  0.00     0.202 C 
BRANCH   3   4
ATOM      4  C   UNL A   1      31.170  26.963  26.440  1.00  0.00     0.261 C 
BRANCH   4   5
ATOM      5  O   UNL A   1      30.452  25.806  25.988  1.00  0.00    -0.460 OA
BRANCH   5   6
ATOM      6  C   UNL A   1      30.994  24.610  26.313  1.00  0.00     0.342 C 
ATOM      7  O   UNL A   1      30.594  23.832  27.167  1.00  0.00    -0.246 OA
BRANCH   6   8
ATOM      8  C   UNL A   1      32.030  24.209  25.333  1.00  0.00     0.102 A 
ATOM      9  C   UNL A   1      34.328  23.614  24.765  1.00  0.00     0.019 A 
ATOM     10  C   UNL A   1      33.952  23.522  23.419  1.00  0.00     0.016 A 
ATOM     11  C   UNL A   1      33.366  24.023  25.709  1.00  0.00     0.031 A 
ATOM     12  C   UNL A   1      32.629  23.754  23.031  1.00  0.00     0.048 A 
ATOM     13  C   UNL A   1      31.669  24.065  23.989  1.00  0.00     0.130 A 
BRANCH   9  14
ATOM     14  C   UNL A   1      35.707  23.273  25.157  1.00  0.00     0.144 A 
ATOM     15  N   UNL A   1      36.212  21.979  25.298  1.00  0.00    -0.300 N 
ATOM     16  C   UNL A   1      37.439  22.093  25.909  1.00  0.00     0.113 A 
ATOM     17  C   UNL A   1      37.704  23.439  25.947  1.00  0.00     0.132 A 
ATOM     18  N   UNL A   1      36.642  24.158  25.470  1.00  0.00    -0.236 NA
BRANCH  15  19
ATOM     19  C   UNL A   1      35.583  20.765  24.927  1.00  0.00     0.047 A 
ATOM     20  C   UNL A   1      34.331  18.310  24.629  1.00  0.00     0.082 A 
ATOM     21  C   UNL A   1      33.553  19.463  24.739  1.00  0.00     0.024 A 
ATOM     22  C   UNL A   1      35.731  18.382  24.611  1.00  0.00     0.024 A 
ATOM     23  C   UNL A   1      34.182  20.697  24.891  1.00  0.00     0.028 A 
ATOM     24  C   UNL A   1      36.364  19.619  24.737  1.00  0.00     0.028 A 
BRANCH  20  25
ATOM     25  S   UNL A   1      33.541  16.731  24.562  1.00  0.00     0.238 S 
ATOM     26  O   UNL A   1      33.950  15.946  25.706  1.00  0.00    -0.207 OA
ATOM     27  O   UNL A   1      33.616  16.241  23.210  1.00  0.00    -0.207 OA
BRANCH  25  28
ATOM     28  N   UNL A   1      31.930  17.112  24.845  1.00  0.00    -0.225 NA
ATOM     29  H   UNL A   1      31.752  17.110  25.849  1.00  0.00     0.137 HD
ATOM     30  H   UNL A   1      31.334  16.419  24.392  1.00  0.00     0.137 HD
ENDBRANCH  25  28
ENDBRANCH  20  25
ENDBRANCH  15  19
ENDBRANCH   9  14
BRANCH  13  31
ATOM     31  O   UNL A   1      30.392  24.257  23.533  1.00  0.00    -0.507 OA
ATOM     32  H   UNL A   1      29.756  23.575  23.620  1.00  0.00     0.293 HD
ENDBRANCH  13  31
ENDBRANCH   6   8
ENDBRANCH   5   6
ENDBRANCH   4   5
ENDBRANCH   3   4
ENDBRANCH   2   3
ENDBRANCH   1   2
BRANCH   1  33
ATOM     33  C   UNL A   1      33.648  29.483  27.032  1.00  0.00     0.188 C 
BRANCH  33  34
ATOM     34  O   UNL A   1      34.592  30.513  27.219  1.00  0.00    -0.376 OA
BRANCH  34  35
ATOM     35  C   UNL A   1      34.348  31.623  28.069  1.00  0.00     0.202 C 
BRANCH  35  36
ATOM     36  C   UNL A   1      35.063  31.919  29.390  1.00  0.00     0.261 C 
BRANCH  36  37
ATOM     37  O   UNL A   1      36.370  31.402  29.532  1.00  0.00    -0.460 OA
BRANCH  37  38
ATOM     38  C   UNL A   1      36.457  30.371  30.400  1.00  0.00     0.338 C 
ATOM     39  O   UNL A   1      35.961  30.302  31.512  1.00  0.00    -0.246 OA
BRANCH  38  40
ATOM     40  C   UNL A   1      37.280  29.312  29.806  1.00  0.00     0.060 A 
ATOM     41  C   UNL A   1      37.858  28.397  30.689  1.00  0.00     0.016 A 
ATOM     42  C   UNL A   1      37.676  29.409  28.465  1.00  0.00     0.016 A 
ATOM     43  C   UNL A   1      39.012  27.760  30.300  1.00  0.00     0.010 A 
ATOM     44  C   UNL A   1      38.836  28.778  28.079  1.00  0.00     0.010 A 
ATOM     45  C   UNL A   1      39.544  28.061  29.044  1.00  0.00    -0.014 A 
BRANCH  45  46
ATOM     46  C   UNL A   1      40.957  27.799  28.856  1.00  0.00     0.031 A 
ATOM     47  C   UNL A   1      41.322  26.537  28.189  1.00  0.00     0.074 A 
ATOM     48  C   UNL A   1      41.864  28.731  29.210  1.00  0.00     0.049 A 
ATOM     49  N   UNL A   1      42.094  25.595  28.624  1.00  0.00    -0.248 NA
ATOM     50  C   UNL A   1      40.711  26.272  26.881  1.00  0.00     0.031 C 
ATOM     51  C   UNL A   1      41.619  30.131  29.580  1.00  0.00     0.029 A 
ATOM     52  N   UNL A   1      43.220  28.645  29.199  1.00  0.00    -0.354 N 
ATOM     53  C   UNL A   1      42.191  24.682  27.581  1.00  0.00     0.074 A 
ATOM     54  C   UNL A   1      41.243  25.089  26.576  1.00  0.00     0.031 C 
ATOM     55  C   UNL A   1      42.788  30.807  29.543  1.00  0.00     0.029 A 
ATOM     56  C   UNL A   1      43.863  29.868  29.268  1.00  0.00     0.049 A 
ATOM     57  H   UNL A   1      43.701  27.788  29.147  1.00  0.00     0.167 HD
ATOM     58  C   UNL A   1      43.176  23.748  27.520  1.00  0.00     0.037 A 
ATOM     59  C   UNL A   1      45.172  30.098  29.021  1.00  0.00     0.037 A 
ATOM     60  C   UNL A   1      43.794  23.511  28.793  1.00  0.00     0.049 A 
ATOM     61  C   UNL A   1      45.889  28.801  29.092  1.00  0.00     0.074 A 
ATOM     62  C   UNL A   1      43.345  23.041  30.012  1.00  0.00     0.029 A 
ATOM     63  N   UNL A   1      45.025  24.063  29.038  1.00  0.00    -0.354 N 
ATOM     64  N   UNL A   1      46.097  28.127  30.189  1.00  0.00    -0.248 NA
ATOM     65  C   UNL A   1      46.039  28.042  27.859  1.00  0.00     0.031 C 
ATOM     66  C   UNL A   1      44.112  23.738  30.989  1.00  0.00     0.029 A 
ATOM     67  C   UNL A   1      44.983  24.586  30.305  1.00  0.00     0.049 A 
ATOM     68  H   UNL A   1      45.792  24.081  28.422  1.00  0.00     0.167 HD
ATOM     69  C   UNL A   1      46.011  26.794  29.811  1.00  0.00     0.074 A 
ATOM     70  C   UNL A   1      46.086  26.805  28.355  1.00  0.00     0.031 C 
ATOM     71  C   UNL A   1      45.610  25.830  30.692  1.00  0.00     0.037 A 
BRANCH  58  72
ATOM     72  C   UNL A   1      43.746  23.250  26.226  1.00  0.00     0.057 A 
ATOM     73  C   UNL A   1      43.673  21.889  25.897  1.00  0.00     0.134 A 
ATOM     74  C   UNL A   1      44.576  24.034  25.399  1.00  0.00     0.134 A 
ATOM     75  F   UNL A   1      42.956  21.037  26.645  1.00  0.00    -0.206 F 
ATOM     76  C   UNL A   1      44.386  21.345  24.822  1.00  0.00     0.040 A 
ATOM     77  C   UNL A   1      45.249  23.514  24.294  1.00  0.00     0.040 A 
ATOM     78  F   UNL A   1      44.841  25.319  25.679  1.00  0.00    -0.206 F 
ATOM     79  C   UNL A   1      45.171  22.159  24.012  1.00  0.00     0.006 A 
ENDBRANCH  58  72
BRANCH  59  80
ATOM     80  C   UNL A   1      45.777  31.312  28.432  1.00  0.00     0.057 A 
ATOM     81  C   UNL A   1      45.498  31.696  27.115  1.00  0.00     0.134 A 
ATOM     82  C   UNL A   1      46.456  32.257  29.222  1.00  0.00     0.134 A 
ATOM     83  F   UNL A   1      44.812  30.882  26.300  1.00  0.00    -0.206 F 
ATOM     84  C   UNL A   1      45.867  32.952  26.614  1.00  0.00     0.040 A 
ATOM     85  C   UNL A   1      46.842  33.507  28.732  1.00  0.00     0.040 A 
ATOM     86  F   UNL A   1      46.693  32.034  30.523  1.00  0.00    -0.206 F 
ATOM     87  C   UNL A   1      46.537  33.864  27.426  1.00  0.00     0.006 A 
ENDBRANCH  59  80
BRANCH  71  88
ATOM     88  C   UNL A   1      45.528  26.202  32.146  1.00  0.00     0.057 A 
ATOM     89  C   UNL A   1      46.611  26.092  33.031  1.00  0.00     0.134 A 
ATOM     90  C   UNL A   1      44.379  26.841  32.625  1.00  0.00     0.134 A 
ATOM     91  F   UNL A   1      47.786  25.592  32.626  1.00  0.00    -0.206 F 
ATOM     92  C   UNL A   1      46.536  26.556  34.347  1.00  0.00     0.040 A 
ATOM     93  C   UNL A   1      44.303  27.337  33.929  1.00  0.00     0.040 A 
ATOM     94  F   UNL A   1      43.327  27.040  31.814  1.00  0.00    -0.206 F 
ATOM     95  C   UNL A   1      45.381  27.186  34.799  1.00  0.00     0.006 A 
ENDBRANCH  71  88
ENDBRANCH  45  46
ENDBRANCH  38  40
ENDBRANCH  37  38
ENDBRANCH  36  37
ENDBRANCH  35  36
ENDBRANCH  34  35
ENDBRANCH  33  34
ENDBRANCH   1  33
TORSDOF 22
ENDMDL
MODEL 2
REMARK VINA RESULT:     -11.0      1.788      5.756
REMARK SMILES NS(=O)(=O)c1ccc(-n2ccnc2-c2ccc(O)c(C(=O)OCCOCCOCCOC(=O)c3ccc(-c4c5nc(c(-c6c(F)cccc6F)c6ccc([nH]6)c(-c6c(F)cccc6F)c6nc(c(-c7c(F)cccc7F)c7ccc4[nH]7)C=C6)C=C5)cc3)c2)cc1
REMARK SMILES IDX 26 1 25 2 24 3 23 4 22 5 20 6 21 7 19 8 14 9 15 10 88 11
REMARK SMILES IDX 16 12 17 13 13 14 9 15 10 16 11 17 12 18 8 19 5 20 6 21
REMARK SMILES IDX 90 22 7 23 89 24 2 25 3 26 4 27 1 28 18 31 27 33 28 34 29 35
REMARK SMILES IDX 30 36 31 37 32 38 33 39 34 40 35 41 87 42 36 43 86 44 37 45
REMARK SMILES IDX 38 46 39 47 80 48 40 49 85 50 79 51 81 52 41 53 84 54 78 55
REMARK SMILES IDX 77 56 42 58 68 59 51 60 67 61 52 62 55 63 66 64 82 65 53 66
REMARK SMILES IDX 54 67 65 69 83 70 56 71 43 72 44 73 49 74 45 75 46 76 48 77
REMARK SMILES IDX 50 78 47 79 69 80 70 81 75 82 71 83 72 84 74 85 76 86 73 87
REMARK SMILES IDX 57 88 58 89 63 90 59 91 60 92 62 93 64 94 61 95
REMARK H PARENT 1 29 1 30 18 32 81 57 55 68
REMARK Flexibility Score: inf
ROOT
ATOM      1  C   UNL A   1      31.884  30.285  26.178  1.00  0.00     0.188 C 
ENDROOT
BRANCH   1   2
ATOM      2  O   UNL A   1      32.704  29.210  25.750  1.00  0.00    -0.376 OA
BRANCH   2   3
ATOM      3  C   UNL A   1      32.123  27.967  25.379  1.00  0.00     0.202 C 
BRANCH   3   4
ATOM      4  C   UNL A   1      31.359  27.078  26.381  1.00  0.00     0.261 C 
BRANCH   4   5
ATOM      5  O   UNL A   1      30.638  25.973  25.815  1.00  0.00    -0.460 OA
BRANCH   5   6
ATOM      6  C   UNL A   1      31.042  24.743  26.205  1.00  0.00     0.342 C 
ATOM      7  O   UNL A   1      30.563  24.063  27.100  1.00  0.00    -0.246 OA
BRANCH   6   8
ATOM      8  C   UNL A   1      32.018  24.173  25.246  1.00  0.00     0.102 A 
ATOM      9  C   UNL A   1      34.274  23.455  24.656  1.00  0.00     0.019 A 
ATOM     10  C   UNL A   1      33.822  23.158  23.364  1.00  0.00     0.016 A 
ATOM     11  C   UNL A   1      33.371  24.025  25.573  1.00  0.00     0.031 A 
ATOM     12  C   UNL A   1      32.482  23.350  23.016  1.00  0.00     0.048 A 
ATOM     13  C   UNL A   1      31.580  23.825  23.963  1.00  0.00     0.130 A 
BRANCH   9  14
ATOM     14  C   UNL A   1      35.671  23.155  25.021  1.00  0.00     0.144 A 
ATOM     15  N   UNL A   1      36.166  21.895  25.360  1.00  0.00    -0.300 N 
ATOM     16  C   UNL A   1      37.430  22.085  25.869  1.00  0.00     0.113 A 
ATOM     17  C   UNL A   1      37.714  23.411  25.652  1.00  0.00     0.132 A 
ATOM     18  N   UNL A   1      36.634  24.059  25.118  1.00  0.00    -0.236 NA
BRANCH  15  19
ATOM     19  C   UNL A   1      35.500  20.650  25.247  1.00  0.00     0.047 A 
ATOM     20  C   UNL A   1      34.132  18.325  24.608  1.00  0.00     0.082 A 
ATOM     21  C   UNL A   1      35.520  18.358  24.472  1.00  0.00     0.024 A 
ATOM     22  C   UNL A   1      33.429  19.427  25.114  1.00  0.00     0.024 A 
ATOM     23  C   UNL A   1      36.208  19.527  24.791  1.00  0.00     0.028 A 
ATOM     24  C   UNL A   1      34.118  20.591  25.459  1.00  0.00     0.028 A 
BRANCH  20  25
ATOM     25  S   UNL A   1      33.241  16.890  24.088  1.00  0.00     0.238 S 
ATOM     26  O   UNL A   1      32.182  16.619  25.035  1.00  0.00    -0.207 OA
ATOM     27  O   UNL A   1      34.191  15.892  23.670  1.00  0.00    -0.207 OA
BRANCH  25  28
ATOM     28  N   UNL A   1      32.464  17.422  22.698  1.00  0.00    -0.225 NA
ATOM     29  H   UNL A   1      33.027  18.143  22.248  1.00  0.00     0.137 HD
ATOM     30  H   UNL A   1      31.553  17.808  22.946  1.00  0.00     0.137 HD
ENDBRANCH  25  28
ENDBRANCH  20  25
ENDBRANCH  15  19
ENDBRANCH   9  14
BRANCH  13  31
ATOM     31  O   UNL A   1      30.282  23.966  23.552  1.00  0.00    -0.507 OA
ATOM     32  H   UNL A   1      29.982  23.520  22.785  1.00  0.00     0.293 HD
ENDBRANCH  13  31
ENDBRANCH   6   8
ENDBRANCH   5   6
ENDBRANCH   4   5
ENDBRANCH   3   4
ENDBRANCH   2   3
ENDBRANCH   1   2
BRANCH   1  33
ATOM     33  C   UNL A   1      32.487  31.498  26.921  1.00  0.00     0.188 C 
BRANCH  33  34
ATOM     34  O   UNL A   1      33.637  31.246  27.696  1.00  0.00    -0.376 OA
BRANCH  34  35
ATOM     35  C   UNL A   1      34.572  32.263  28.021  1.00  0.00     0.202 C 
BRANCH  35  36
ATOM     36  C   UNL A   1      34.860  32.806  29.424  1.00  0.00     0.261 C 
BRANCH  36  37
ATOM     37  O   UNL A   1      34.962  31.854  30.462  1.00  0.00    -0.460 OA
BRANCH  37  38
ATOM     38  C   UNL A   1      36.181  31.807  31.041  1.00  0.00     0.338 C 
ATOM     39  O   UNL A   1      36.521  32.341  32.083  1.00  0.00    -0.246 OA
BRANCH  38  40
ATOM     40  C   UNL A   1      37.081  31.009  30.202  1.00  0.00     0.060 A 
ATOM     41  C   UNL A   1      36.813  29.641  30.120  1.00  0.00     0.016 A 
ATOM     42  C   UNL A   1      38.290  31.562  29.756  1.00  0.00     0.016 A 
ATOM     43  C   UNL A   1      37.856  28.791  29.834  1.00  0.00     0.010 A 
ATOM     44  C   UNL A   1      39.335  30.712  29.479  1.00  0.00     0.010 A 
ATOM     45  C   UNL A   1      39.125  29.342  29.641  1.00  0.00    -0.014 A 
BRANCH  45  46
ATOM     46  C   UNL A   1      40.255  28.458  29.844  1.00  0.00     0.031 A 
ATOM     47  C   UNL A   1      40.805  28.375  31.210  1.00  0.00     0.074 A 
ATOM     48  C   UNL A   1      40.701  27.696  28.826  1.00  0.00     0.049 A 
ATOM     49  N   UNL A   1      42.017  28.595  31.600  1.00  0.00    -0.248 NA
ATOM     50  C   UNL A   1      39.865  28.043  32.288  1.00  0.00     0.031 C 
ATOM     51  C   UNL A   1      40.053  27.454  27.531  1.00  0.00     0.029 A 
ATOM     52  N   UNL A   1      41.788  26.882  28.788  1.00  0.00    -0.354 N 
ATOM     53  C   UNL A   1      42.035  28.281  32.954  1.00  0.00     0.074 A 
ATOM     54  C   UNL A   1      40.669  28.050  33.350  1.00  0.00     0.031 C 
ATOM     55  C   UNL A   1      40.643  26.394  26.935  1.00  0.00     0.029 A 
ATOM     56  C   UNL A   1      41.773  25.972  27.745  1.00  0.00     0.049 A 
ATOM     57  H   UNL A   1      42.520  26.934  29.443  1.00  0.00     0.167 HD
ATOM     58  C   UNL A   1      43.188  28.048  33.633  1.00  0.00     0.037 A 
ATOM     59  C   UNL A   1      42.576  24.892  27.614  1.00  0.00     0.037 A 
ATOM     60  C   UNL A   1      44.341  28.581  32.964  1.00  0.00     0.049 A 
ATOM     61  C   UNL A   1      43.743  25.075  28.513  1.00  0.00     0.074 A 
ATOM     62  C   UNL A   1      44.745  29.850  32.598  1.00  0.00     0.029 A 
ATOM     63  N   UNL A   1      45.160  27.718  32.281  1.00  0.00    -0.354 N 
ATOM     64  N   UNL A   1      44.693  25.948  28.327  1.00  0.00    -0.248 NA
ATOM     65  C   UNL A   1      43.648  24.538  29.863  1.00  0.00     0.031 C 
ATOM     66  C   UNL A   1      45.465  29.679  31.381  1.00  0.00     0.029 A 
ATOM     67  C   UNL A   1      45.459  28.315  31.083  1.00  0.00     0.049 A 
ATOM     68  H   UNL A   1      45.473  26.838  32.591  1.00  0.00     0.167 HD
ATOM     69  C   UNL A   1      45.053  26.363  29.602  1.00  0.00     0.074 A 
ATOM     70  C   UNL A   1      44.457  25.383  30.503  1.00  0.00     0.031 C 
ATOM     71  C   UNL A   1      45.563  27.609  29.827  1.00  0.00     0.037 A 
BRANCH  58  72
ATOM     72  C   UNL A   1      43.276  27.093  34.785  1.00  0.00     0.057 A 
ATOM     73  C   UNL A   1      43.340  25.711  34.557  1.00  0.00     0.134 A 
ATOM     74  C   UNL A   1      43.059  27.482  36.123  1.00  0.00     0.134 A 
ATOM     75  F   UNL A   1      43.489  25.225  33.316  1.00  0.00    -0.206 F 
ATOM     76  C   UNL A   1      43.190  24.780  35.591  1.00  0.00     0.040 A 
ATOM     77  C   UNL A   1      42.962  26.565  37.169  1.00  0.00     0.040 A 
ATOM     78  F   UNL A   1      42.844  28.762  36.461  1.00  0.00    -0.206 F 
ATOM     79  C   UNL A   1      43.008  25.205  36.903  1.00  0.00     0.006 A 
ENDBRANCH  58  72
BRANCH  59  80
ATOM     80  C   UNL A   1      42.243  23.591  26.996  1.00  0.00     0.057 A 
ATOM     81  C   UNL A   1      43.150  22.931  26.159  1.00  0.00     0.134 A 
ATOM     82  C   UNL A   1      41.120  22.846  27.403  1.00  0.00     0.134 A 
ATOM     83  F   UNL A   1      44.274  23.542  25.758  1.00  0.00    -0.206 F 
ATOM     84  C   UNL A   1      42.956  21.604  25.753  1.00  0.00     0.040 A 
ATOM     85  C   UNL A   1      40.908  21.527  26.996  1.00  0.00     0.040 A 
ATOM     86  F   UNL A   1      40.235  23.344  28.279  1.00  0.00    -0.206 F 
ATOM     87  C   UNL A   1      41.834  20.896  26.177  1.00  0.00     0.006 A 
ENDBRANCH  59  80
BRANCH  71  88
ATOM     88  C   UNL A   1      45.982  28.419  28.632  1.00  0.00     0.057 A 
ATOM     89  C   UNL A   1      45.090  29.199  27.880  1.00  0.00     0.134 A 
ATOM     90  C   UNL A   1      47.343  28.543  28.332  1.00  0.00     0.134 A 
ATOM     91  F   UNL A   1      43.782  29.224  28.168  1.00  0.00    -0.206 F 
ATOM     92  C   UNL A   1      45.531  30.031  26.847  1.00  0.00     0.040 A 
ATOM     93  C   UNL A   1      47.798  29.395  27.323  1.00  0.00     0.040 A 
ATOM     94  F   UNL A   1      48.258  27.876  29.053  1.00  0.00    -0.206 F 
ATOM     95  C   UNL A   1      46.890  30.135  26.569  1.00  0.00     0.006 A 
ENDBRANCH  71  88
ENDBRANCH  45  46
ENDBRANCH  38  40
ENDBRANCH  37  38
ENDBRANCH  36  37
ENDBRANCH  35  36
ENDBRANCH  34  35
ENDBRANCH  33  34
ENDBRANCH   1  33
TORSDOF 22
ENDMDL
MODEL 3
REMARK VINA RESULT:     -10.9      4.325      9.337
REMARK SMILES NS(=O)(=O)c1ccc(-n2ccnc2-c2ccc(O)c(C(=O)OCCOCCOCCOC(=O)c3ccc(-c4c5nc(c(-c6c(F)cccc6F)c6ccc([nH]6)c(-c6c(F)cccc6F)c6nc(c(-c7c(F)cccc7F)c7ccc4[nH]7)C=C6)C=C5)cc3)c2)cc1
REMARK SMILES IDX 26 1 25 2 24 3 23 4 22 5 20 6 21 7 19 8 14 9 15 10 88 11
REMARK SMILES IDX 16 12 17 13 13 14 9 15 10 16 11 17 12 18 8 19 5 20 6 21
REMARK SMILES IDX 90 22 7 23 89 24 2 25 3 26 4 27 1 28 18 31 27 33 28 34 29 35
REMARK SMILES IDX 30 36 31 37 32 38 33 39 34 40 35 41 87 42 36 43 86 44 37 45
REMARK SMILES IDX 38 46 39 47 80 48 40 49 85 50 79 51 81 52 41 53 84 54 78 55
REMARK SMILES IDX 77 56 42 58 68 59 51 60 67 61 52 62 55 63 66 64 82 65 53 66
REMARK SMILES IDX 54 67 65 69 83 70 56 71 43 72 44 73 49 74 45 75 46 76 48 77
REMARK SMILES IDX 50 78 47 79 69 80 70 81 75 82 71 83 72 84 74 85 76 86 73 87
REMARK SMILES IDX 57 88 58 89 63 90 59 91 60 92 62 93 64 94 61 95
REMARK H PARENT 1 29 1 30 18 32 81 57 55 68
REMARK Flexibility Score: inf
ROOT
ATOM      1  C   UNL A   1      41.280  21.747  26.240  1.00  0.00     0.188 C 
ENDROOT
BRANCH   1   2
ATOM      2  O   UNL A   1      40.413  22.834  26.521  1.00  0.00    -0.376 OA
BRANCH   2   3
ATOM      3  C   UNL A   1      39.046  22.780  26.135  1.00  0.00     0.202 C 
BRANCH   3   4
ATOM      4  C   UNL A   1      38.348  21.464  25.734  1.00  0.00     0.261 C 
BRANCH   4   5
ATOM      5  O   UNL A   1      37.181  21.600  24.910  1.00  0.00    -0.460 OA
BRANCH   5   6
ATOM      6  C   UNL A   1      36.128  22.230  25.477  1.00  0.00     0.342 C 
ATOM      7  O   UNL A   1      36.146  22.935  26.476  1.00  0.00    -0.246 OA
BRANCH   6   8
ATOM      8  C   UNL A   1      34.935  22.172  24.600  1.00  0.00     0.102 A 
ATOM      9  C   UNL A   1      33.448  23.158  22.935  1.00  0.00     0.019 A 
ATOM     10  C   UNL A   1      32.628  22.025  23.023  1.00  0.00     0.016 A 
ATOM     11  C   UNL A   1      34.570  23.247  23.781  1.00  0.00     0.031 A 
ATOM     12  C   UNL A   1      32.961  20.969  23.876  1.00  0.00     0.048 A 
ATOM     13  C   UNL A   1      34.125  21.031  24.636  1.00  0.00     0.130 A 
BRANCH   9  14
ATOM     14  C   UNL A   1      33.122  24.213  21.959  1.00  0.00     0.144 A 
ATOM     15  N   UNL A   1      32.631  25.482  22.273  1.00  0.00    -0.300 N 
ATOM     16  C   UNL A   1      32.227  26.058  21.091  1.00  0.00     0.113 A 
ATOM     17  C   UNL A   1      32.651  25.203  20.105  1.00  0.00     0.132 A 
ATOM     18  N   UNL A   1      33.212  24.078  20.645  1.00  0.00    -0.236 NA
BRANCH  15  19
ATOM     19  C   UNL A   1      32.523  26.069  23.557  1.00  0.00     0.047 A 
ATOM     20  C   UNL A   1      32.225  27.588  25.857  1.00  0.00     0.082 A 
ATOM     21  C   UNL A   1      31.114  26.937  25.322  1.00  0.00     0.024 A 
ATOM     22  C   UNL A   1      33.495  27.439  25.284  1.00  0.00     0.024 A 
ATOM     23  C   UNL A   1      31.262  26.175  24.164  1.00  0.00     0.028 A 
ATOM     24  C   UNL A   1      33.653  26.656  24.139  1.00  0.00     0.028 A 
BRANCH  20  25
ATOM     25  S   UNL A   1      32.020  28.655  27.251  1.00  0.00     0.238 S 
ATOM     26  O   UNL A   1      31.402  27.915  28.329  1.00  0.00    -0.207 OA
ATOM     27  O   UNL A   1      31.518  29.922  26.784  1.00  0.00    -0.207 OA
BRANCH  25  28
ATOM     28  N   UNL A   1      33.601  28.921  27.748  1.00  0.00    -0.225 NA
ATOM     29  H   UNL A   1      34.116  28.041  27.729  1.00  0.00     0.137 HD
ATOM     30  H   UNL A   1      33.599  29.293  28.698  1.00  0.00     0.137 HD
ENDBRANCH  25  28
ENDBRANCH  20  25
ENDBRANCH  15  19
ENDBRANCH   9  14
BRANCH  13  31
ATOM     31  O   UNL A   1      34.393  19.949  25.431  1.00  0.00    -0.507 OA
ATOM     32  H   UNL A   1      34.634  20.074  26.327  1.00  0.00     0.293 HD
ENDBRANCH  13  31
ENDBRANCH   6   8
ENDBRANCH   5   6
ENDBRANCH   4   5
ENDBRANCH   3   4
ENDBRANCH   2   3
ENDBRANCH   1   2
BRANCH   1  33
ATOM     33  C   UNL A   1      42.421  21.370  27.210  1.00  0.00     0.188 C 
BRANCH  33  34
ATOM     34  O   UNL A   1      43.221  22.433  27.677  1.00  0.00    -0.376 OA
BRANCH  34  35
ATOM     35  C   UNL A   1      44.061  23.186  26.816  1.00  0.00     0.202 C 
BRANCH  35  36
ATOM     36  C   UNL A   1      43.848  24.646  26.403  1.00  0.00     0.261 C 
BRANCH  36  37
ATOM     37  O   UNL A   1      42.727  25.303  26.956  1.00  0.00    -0.460 OA
BRANCH  37  38
ATOM     38  C   UNL A   1      41.831  25.721  26.037  1.00  0.00     0.338 C 
ATOM     39  O   UNL A   1      41.810  25.440  24.851  1.00  0.00    -0.246 OA
BRANCH  38  40
ATOM     40  C   UNL A   1      40.861  26.611  26.681  1.00  0.00     0.060 A 
ATOM     41  C   UNL A   1      40.952  27.969  26.370  1.00  0.00     0.016 A 
ATOM     42  C   UNL A   1      40.091  26.141  27.755  1.00  0.00     0.016 A 
ATOM     43  C   UNL A   1      40.486  28.880  27.290  1.00  0.00     0.010 A 
ATOM     44  C   UNL A   1      39.633  27.051  28.679  1.00  0.00     0.010 A 
ATOM     45  C   UNL A   1      39.946  28.396  28.484  1.00  0.00    -0.014 A 
BRANCH  45  46
ATOM     46  C   UNL A   1      39.934  29.310  29.608  1.00  0.00     0.031 A 
ATOM     47  C   UNL A   1      38.753  30.181  29.752  1.00  0.00     0.074 A 
ATOM     48  C   UNL A   1      40.934  29.277  30.510  1.00  0.00     0.049 A 
ATOM     49  N   UNL A   1      38.712  31.471  29.819  1.00  0.00    -0.248 NA
ATOM     50  C   UNL A   1      37.440  29.525  29.784  1.00  0.00     0.031 C 
ATOM     51  C   UNL A   1      41.984  28.260  30.653  1.00  0.00     0.029 A 
ATOM     52  N   UNL A   1      41.152  30.099  31.570  1.00  0.00    -0.354 N 
ATOM     53  C   UNL A   1      37.380  31.790  30.055  1.00  0.00     0.074 A 
ATOM     54  C   UNL A   1      36.626  30.570  29.919  1.00  0.00     0.031 C 
ATOM     55  C   UNL A   1      42.581  28.409  31.856  1.00  0.00     0.029 A 
ATOM     56  C   UNL A   1      42.041  29.594  32.501  1.00  0.00     0.049 A 
ATOM     57  H   UNL A   1      40.715  30.976  31.666  1.00  0.00     0.167 HD
ATOM     58  C   UNL A   1      36.994  33.003  30.530  1.00  0.00     0.037 A 
ATOM     59  C   UNL A   1      42.244  30.067  33.753  1.00  0.00     0.037 A 
ATOM     60  C   UNL A   1      37.992  34.016  30.336  1.00  0.00     0.049 A 
ATOM     61  C   UNL A   1      41.699  31.446  33.816  1.00  0.00     0.074 A 
ATOM     62  C   UNL A   1      38.596  34.578  29.227  1.00  0.00     0.029 A 
ATOM     63  N   UNL A   1      38.754  34.400  31.409  1.00  0.00    -0.354 N 
ATOM     64  N   UNL A   1      42.222  32.480  33.217  1.00  0.00    -0.248 NA
ATOM     65  C   UNL A   1      40.316  31.608  34.240  1.00  0.00     0.031 C 
ATOM     66  C   UNL A   1      39.927  34.878  29.636  1.00  0.00     0.029 A 
ATOM     67  C   UNL A   1      40.050  34.484  30.969  1.00  0.00     0.049 A 
ATOM     68  H   UNL A   1      38.432  34.581  32.322  1.00  0.00     0.167 HD
ATOM     69  C   UNL A   1      41.139  33.259  32.837  1.00  0.00     0.074 A 
ATOM     70  C   UNL A   1      40.006  32.731  33.588  1.00  0.00     0.031 C 
ATOM     71  C   UNL A   1      41.200  34.078  31.745  1.00  0.00     0.037 A 
BRANCH  58  72
ATOM     72  C   UNL A   1      35.798  33.188  31.414  1.00  0.00     0.057 A 
ATOM     73  C   UNL A   1      34.747  34.027  31.019  1.00  0.00     0.134 A 
ATOM     74  C   UNL A   1      35.758  32.748  32.753  1.00  0.00     0.134 A 
ATOM     75  F   UNL A   1      34.710  34.549  29.783  1.00  0.00    -0.206 F 
ATOM     76  C   UNL A   1      33.729  34.409  31.900  1.00  0.00     0.040 A 
ATOM     77  C   UNL A   1      34.721  33.079  33.625  1.00  0.00     0.040 A 
ATOM     78  F   UNL A   1      36.767  32.053  33.299  1.00  0.00    -0.206 F 
ATOM     79  C   UNL A   1      33.710  33.928  33.206  1.00  0.00     0.006 A 
ENDBRANCH  58  72
BRANCH  59  80
ATOM     80  C   UNL A   1      42.599  29.294  34.961  1.00  0.00     0.057 A 
ATOM     81  C   UNL A   1      41.903  28.129  35.307  1.00  0.00     0.134 A 
ATOM     82  C   UNL A   1      43.784  29.544  35.677  1.00  0.00     0.134 A 
ATOM     83  F   UNL A   1      40.790  27.780  34.648  1.00  0.00    -0.206 F 
ATOM     84  C   UNL A   1      42.364  27.259  36.305  1.00  0.00     0.040 A 
ATOM     85  C   UNL A   1      44.247  28.692  36.682  1.00  0.00     0.040 A 
ATOM     86  F   UNL A   1      44.578  30.579  35.367  1.00  0.00    -0.206 F 
ATOM     87  C   UNL A   1      43.543  27.537  36.992  1.00  0.00     0.006 A 
ENDBRANCH  59  80
BRANCH  71  88
ATOM     88  C   UNL A   1      42.549  34.321  31.130  1.00  0.00     0.057 A 
ATOM     89  C   UNL A   1      43.420  35.334  31.560  1.00  0.00     0.134 A 
ATOM     90  C   UNL A   1      43.048  33.410  30.192  1.00  0.00     0.134 A 
ATOM     91  F   UNL A   1      43.064  36.184  32.531  1.00  0.00    -0.206 F 
ATOM     92  C   UNL A   1      44.714  35.460  31.046  1.00  0.00     0.040 A 
ATOM     93  C   UNL A   1      44.350  33.507  29.695  1.00  0.00     0.040 A 
ATOM     94  F   UNL A   1      42.293  32.378  29.783  1.00  0.00    -0.206 F 
ATOM     95  C   UNL A   1      45.185  34.541  30.114  1.00  0.00     0.006 A 
ENDBRANCH  71  88
ENDBRANCH  45  46
ENDBRANCH  38  40
ENDBRANCH  37  38
ENDBRANCH  36  37
ENDBRANCH  35  36
ENDBRANCH  34  35
ENDBRANCH  33  34
ENDBRANCH   1  33
TORSDOF 22
ENDMDL
