MODEL 1
REMARK VINA RESULT:     -13.6      0.000      0.000
REMARK SMILES CC(=O)Nc1cnc(N2CC=C(c3ccccc3C)CC2)c(C(=O)OCCOCCOCCOC(=O)c2ccc(-c3c4nc(c(-c5c(F)cccc5F)c5ccc([nH]5)c(-c5c(F)cccc5F)c5nc(c(-c6c(F)cccc6F)c6ccc3[nH]6)C=C5)C=C4)cc2)c1
REMARK SMILES IDX 29 1 28 2 27 3 26 4 25 5 23 6 24 7 22 8 5 9 6 10 91 11 7 12
REMARK SMILES IDX 8 13 4 14 1 15 2 16 3 17 9 19 10 20 21 21 11 22 20 23 12 24
REMARK SMILES IDX 13 25 14 26 18 27 15 28 17 29 19 30 16 31 30 32 31 33 32 34
REMARK SMILES IDX 33 35 34 36 35 37 36 38 37 39 38 40 90 41 39 42 89 43 40 44
REMARK SMILES IDX 41 45 42 46 83 47 43 48 88 49 82 50 84 51 44 52 87 53 81 54
REMARK SMILES IDX 80 55 45 57 71 58 54 59 70 60 55 61 58 62 69 63 85 64 56 65
REMARK SMILES IDX 57 66 68 68 86 69 59 70 46 71 47 72 52 73 48 74 49 75 51 76
REMARK SMILES IDX 53 77 50 78 72 79 73 80 78 81 74 82 75 83 77 84 79 85 76 86
REMARK SMILES IDX 60 87 61 88 66 89 62 90 63 91 65 92 67 93 64 94
REMARK H PARENT 4 18 84 56 58 67
REMARK Flexibility Score: inf
ROOT
ATOM      1  C   UNL A   1      35.240  32.325  28.600  1.00  0.00     0.188 C 
ENDROOT
BRANCH   1   2
ATOM      2  O   UNL A   1      34.907  31.354  27.594  1.00  0.00    -0.376 OA
BRANCH   2   3
ATOM      3  C   UNL A   1      33.943  30.300  27.691  1.00  0.00     0.202 C 
BRANCH   3   4
ATOM      4  C   UNL A   1      33.671  28.908  26.714  1.00  0.00     0.261 C 
BRANCH   4   5
ATOM      5  O   UNL A   1      32.440  27.625  26.686  1.00  0.00    -0.460 OA
BRANCH   5   6
ATOM      6  C   UNL A   1      31.381  27.031  25.861  1.00  0.00     0.342 C 
ATOM      7  O   UNL A   1      30.762  25.982  26.022  1.00  0.00    -0.246 OA
BRANCH   6   8
ATOM      8  C   UNL A   1      31.065  27.542  24.531  1.00  0.00     0.104 A 
ATOM      9  C   UNL A   1      30.289  29.588  23.562  1.00  0.00     0.060 A 
ATOM     10  C   UNL A   1      30.933  29.209  22.395  1.00  0.00     0.139 A 
ATOM     11  C   UNL A   1      30.309  28.708  24.623  1.00  0.00     0.047 A 
ATOM     12  N   UNL A   1      31.690  28.093  22.268  1.00  0.00    -0.236 NA
ATOM     13  C   UNL A   1      31.833  27.275  23.343  1.00  0.00     0.143 A 
BRANCH   9  14
ATOM     14  N   UNL A   1      29.619  30.810  23.658  1.00  0.00    -0.325 N 
ATOM     15  C   UNL A   1      27.350  29.987  23.061  1.00  0.00     0.114 C 
ATOM     16  C   UNL A   1      28.354  31.110  23.216  1.00  0.00     0.221 C 
ATOM     17  O   UNL A   1      28.031  32.285  23.042  1.00  0.00    -0.275 OA
ATOM     18  H   UNL A   1      30.111  31.544  24.094  1.00  0.00     0.169 HD
ENDBRANCH   9  14
BRANCH  13  19
ATOM     19  N   UNL A   1      32.676  26.174  23.116  1.00  0.00    -0.352 N 
ATOM     20  C   UNL A   1      32.054  24.850  22.894  1.00  0.00     0.146 C 
ATOM     21  C   UNL A   1      33.930  26.228  23.855  1.00  0.00     0.123 C 
ATOM     22  C   UNL A   1      32.999  23.666  23.131  1.00  0.00    -0.002 C 
ATOM     23  C   UNL A   1      34.283  24.980  24.681  1.00  0.00     0.057 C 
ATOM     24  C   UNL A   1      34.061  23.670  23.967  1.00  0.00    -0.041 C 
BRANCH  24  25
ATOM     25  C   UNL A   1      35.035  22.519  24.165  1.00  0.00    -0.020 A 
ATOM     26  C   UNL A   1      36.419  22.742  23.968  1.00  0.00     0.008 A 
ATOM     27  C   UNL A   1      34.684  21.228  24.642  1.00  0.00    -0.044 A 
ATOM     28  C   UNL A   1      37.405  21.804  24.324  1.00  0.00     0.001 A 
ATOM     29  C   UNL A   1      35.689  20.293  25.003  1.00  0.00     0.004 A 
ATOM     30  C   UNL A   1      33.268  20.744  24.801  1.00  0.00     0.045 C 
ATOM     31  C   UNL A   1      37.039  20.581  24.859  1.00  0.00     0.000 A 
ENDBRANCH  24  25
ENDBRANCH  13  19
ENDBRANCH   6   8
ENDBRANCH   5   6
ENDBRANCH   4   5
ENDBRANCH   3   4
ENDBRANCH   2   3
ENDBRANCH   1   2
BRANCH   1  32
ATOM     32  C   UNL A   1      34.345  33.497  28.996  1.00  0.00     0.188 C 
BRANCH  32  33
ATOM     33  O   UNL A   1      34.818  34.709  28.452  1.00  0.00    -0.376 OA
BRANCH  33  34
ATOM     34  C   UNL A   1      34.046  35.852  28.779  1.00  0.00     0.202 C 
BRANCH  34  35
ATOM     35  C   UNL A   1      32.918  35.547  29.778  1.00  0.00     0.261 C 
BRANCH  35  36
ATOM     36  O   UNL A   1      33.235  36.064  31.090  1.00  0.00    -0.460 OA
BRANCH  36  37
ATOM     37  C   UNL A   1      32.985  35.233  32.153  1.00  0.00     0.338 C 
ATOM     38  O   UNL A   1      31.914  35.146  32.738  1.00  0.00    -0.246 OA
BRANCH  37  39
ATOM     39  C   UNL A   1      34.268  34.641  32.638  1.00  0.00     0.060 A 
ATOM     40  C   UNL A   1      35.537  35.229  32.529  1.00  0.00     0.016 A 
ATOM     41  C   UNL A   1      34.249  33.312  32.860  1.00  0.00     0.016 A 
ATOM     42  C   UNL A   1      36.762  34.432  32.446  1.00  0.00     0.010 A 
ATOM     43  C   UNL A   1      35.396  32.631  32.464  1.00  0.00     0.010 A 
ATOM     44  C   UNL A   1      36.771  33.047  32.278  1.00  0.00    -0.014 A 
BRANCH  44  45
ATOM     45  C   UNL A   1      38.192  32.127  31.773  1.00  0.00     0.031 A 
ATOM     46  C   UNL A   1      38.453  30.598  30.883  1.00  0.00     0.074 A 
ATOM     47  C   UNL A   1      39.397  32.585  32.205  1.00  0.00     0.049 A 
ATOM     48  N   UNL A   1      39.556  29.863  30.962  1.00  0.00    -0.248 NA
ATOM     49  C   UNL A   1      37.512  29.750  30.030  1.00  0.00     0.031 C 
ATOM     50  C   UNL A   1      40.723  32.192  31.725  1.00  0.00     0.029 A 
ATOM     51  N   UNL A   1      39.691  33.481  33.244  1.00  0.00    -0.354 N 
ATOM     52  C   UNL A   1      39.460  28.750  30.111  1.00  0.00     0.074 A 
ATOM     53  C   UNL A   1      38.114  28.610  29.778  1.00  0.00     0.031 C 
ATOM     54  C   UNL A   1      41.642  32.546  32.632  1.00  0.00     0.029 A 
ATOM     55  C   UNL A   1      40.941  33.099  33.768  1.00  0.00     0.049 A 
ATOM     56  H   UNL A   1      39.131  34.232  33.548  1.00  0.00     0.167 HD
ATOM     57  C   UNL A   1      40.508  28.053  29.601  1.00  0.00     0.037 A 
ATOM     58  C   UNL A   1      41.105  32.743  35.069  1.00  0.00     0.037 A 
ATOM     59  C   UNL A   1      41.646  28.265  30.455  1.00  0.00     0.049 A 
ATOM     60  C   UNL A   1      41.653  31.348  35.264  1.00  0.00     0.074 A 
ATOM     61  C   UNL A   1      42.757  29.075  30.382  1.00  0.00     0.029 A 
ATOM     62  N   UNL A   1      41.540  27.833  31.769  1.00  0.00    -0.354 N 
ATOM     63  N   UNL A   1      41.956  30.534  34.290  1.00  0.00    -0.248 NA
ATOM     64  C   UNL A   1      41.866  30.732  36.574  1.00  0.00     0.031 C 
ATOM     65  C   UNL A   1      43.246  29.237  31.707  1.00  0.00     0.029 A 
ATOM     66  C   UNL A   1      42.469  28.470  32.561  1.00  0.00     0.049 A 
ATOM     67  H   UNL A   1      40.892  27.164  32.090  1.00  0.00     0.167 HD
ATOM     68  C   UNL A   1      42.271  29.300  34.798  1.00  0.00     0.074 A 
ATOM     69  C   UNL A   1      42.267  29.494  36.233  1.00  0.00     0.031 C 
ATOM     70  C   UNL A   1      42.464  28.213  33.994  1.00  0.00     0.037 A 
BRANCH  57  71
ATOM     71  C   UNL A   1      40.522  27.362  28.215  1.00  0.00     0.057 A 
ATOM     72  C   UNL A   1      39.973  26.069  28.092  1.00  0.00     0.134 A 
ATOM     73  C   UNL A   1      41.175  27.786  27.022  1.00  0.00     0.134 A 
ATOM     74  F   UNL A   1      39.276  25.514  29.092  1.00  0.00    -0.206 F 
ATOM     75  C   UNL A   1      40.130  25.257  26.949  1.00  0.00     0.040 A 
ATOM     76  C   UNL A   1      41.318  26.992  25.868  1.00  0.00     0.040 A 
ATOM     77  F   UNL A   1      41.752  28.978  26.867  1.00  0.00    -0.206 F 
ATOM     78  C   UNL A   1      40.820  25.710  25.835  1.00  0.00     0.006 A 
ENDBRANCH  57  71
BRANCH  58  79
ATOM     79  C   UNL A   1      40.213  33.497  35.986  1.00  0.00     0.057 A 
ATOM     80  C   UNL A   1      39.003  32.900  36.385  1.00  0.00     0.134 A 
ATOM     81  C   UNL A   1      40.710  34.511  36.800  1.00  0.00     0.134 A 
ATOM     82  F   UNL A   1      38.478  31.905  35.656  1.00  0.00    -0.206 F 
ATOM     83  C   UNL A   1      38.368  33.224  37.590  1.00  0.00     0.040 A 
ATOM     84  C   UNL A   1      40.093  34.816  38.022  1.00  0.00     0.040 A 
ATOM     85  F   UNL A   1      41.879  35.098  36.512  1.00  0.00    -0.206 F 
ATOM     86  C   UNL A   1      38.936  34.166  38.434  1.00  0.00     0.006 A 
ENDBRANCH  58  79
BRANCH  70  87
ATOM     87  C   UNL A   1      42.659  26.789  34.456  1.00  0.00     0.057 A 
ATOM     88  C   UNL A   1      41.727  26.057  35.203  1.00  0.00     0.134 A 
ATOM     89  C   UNL A   1      43.777  26.054  33.997  1.00  0.00     0.134 A 
ATOM     90  F   UNL A   1      40.574  26.600  35.613  1.00  0.00    -0.206 F 
ATOM     91  C   UNL A   1      41.919  24.702  35.513  1.00  0.00     0.040 A 
ATOM     92  C   UNL A   1      43.947  24.691  34.251  1.00  0.00     0.040 A 
ATOM     93  F   UNL A   1      44.737  26.629  33.256  1.00  0.00    -0.206 F 
ATOM     94  C   UNL A   1      43.023  24.012  35.026  1.00  0.00     0.006 A 
ENDBRANCH  70  87
ENDBRANCH  44  45
ENDBRANCH  37  39
ENDBRANCH  36  37
ENDBRANCH  35  36
ENDBRANCH  34  35
ENDBRANCH  33  34
ENDBRANCH  32  33
ENDBRANCH   1  32
TORSDOF 20
ENDMDL
MODEL 2
REMARK VINA RESULT:     -12.3      3.902      9.216
REMARK SMILES CC(=O)Nc1cnc(N2CC=C(c3ccccc3C)CC2)c(C(=O)OCCOCCOCCOC(=O)c2ccc(-c3c4nc(c(-c5c(F)cccc5F)c5ccc([nH]5)c(-c5c(F)cccc5F)c5nc(c(-c6c(F)cccc6F)c6ccc3[nH]6)C=C5)C=C4)cc2)c1
REMARK SMILES IDX 29 1 28 2 27 3 26 4 25 5 23 6 24 7 22 8 5 9 6 10 91 11 7 12
REMARK SMILES IDX 8 13 4 14 1 15 2 16 3 17 9 19 10 20 21 21 11 22 20 23 12 24
REMARK SMILES IDX 13 25 14 26 18 27 15 28 17 29 19 30 16 31 30 32 31 33 32 34
REMARK SMILES IDX 33 35 34 36 35 37 36 38 37 39 38 40 90 41 39 42 89 43 40 44
REMARK SMILES IDX 41 45 42 46 83 47 43 48 88 49 82 50 84 51 44 52 87 53 81 54
REMARK SMILES IDX 80 55 45 57 71 58 54 59 70 60 55 61 58 62 69 63 85 64 56 65
REMARK SMILES IDX 57 66 68 68 86 69 59 70 46 71 47 72 52 73 48 74 49 75 51 76
REMARK SMILES IDX 53 77 50 78 72 79 73 80 78 81 74 82 75 83 77 84 79 85 76 86
REMARK SMILES IDX 60 87 61 88 66 89 62 90 63 91 65 92 67 93 64 94
REMARK H PARENT 4 18 84 56 58 67
REMARK Flexibility Score: inf
ROOT
ATOM      1  C   UNL A   1      41.556  22.535  27.293  1.00  0.00     0.188 C 
ENDROOT
BRANCH   1   2
ATOM      2  O   UNL A   1      40.559  23.512  27.635  1.00  0.00    -0.376 OA
BRANCH   2   3
ATOM      3  C   UNL A   1      39.620  24.139  26.754  1.00  0.00     0.202 C 
BRANCH   3   4
ATOM      4  C   UNL A   1      37.910  23.991  26.616  1.00  0.00     0.261 C 
BRANCH   4   5
ATOM      5  O   UNL A   1      36.818  22.816  25.847  1.00  0.00    -0.460 OA
BRANCH   5   6
ATOM      6  C   UNL A   1      36.473  22.202  24.559  1.00  0.00     0.342 C 
ATOM      7  O   UNL A   1      36.973  22.381  23.451  1.00  0.00    -0.246 OA
BRANCH   6   8
ATOM      8  C   UNL A   1      35.259  21.411  24.385  1.00  0.00     0.104 A 
ATOM      9  C   UNL A   1      34.523  19.180  24.839  1.00  0.00     0.060 A 
ATOM     10  C   UNL A   1      33.233  19.684  24.906  1.00  0.00     0.139 A 
ATOM     11  C   UNL A   1      35.539  20.054  24.513  1.00  0.00     0.047 A 
ATOM     12  N   UNL A   1      32.921  20.998  24.803  1.00  0.00    -0.236 NA
ATOM     13  C   UNL A   1      33.923  21.895  24.612  1.00  0.00     0.143 A 
BRANCH   9  14
ATOM     14  N   UNL A   1      34.787  17.828  25.069  1.00  0.00    -0.325 N 
ATOM     15  C   UNL A   1      33.876  16.948  22.930  1.00  0.00     0.114 C 
ATOM     16  C   UNL A   1      34.310  16.749  24.367  1.00  0.00     0.221 C 
ATOM     17  O   UNL A   1      34.328  15.631  24.880  1.00  0.00    -0.275 OA
ATOM     18  H   UNL A   1      35.387  17.623  25.824  1.00  0.00     0.169 HD
ENDBRANCH   9  14
BRANCH  13  19
ATOM     19  N   UNL A   1      33.492  23.232  24.567  1.00  0.00    -0.352 N 
ATOM     20  C   UNL A   1      34.427  24.251  24.041  1.00  0.00     0.146 C 
ATOM     21  C   UNL A   1      32.615  23.608  25.667  1.00  0.00     0.123 C 
ATOM     22  C   UNL A   1      34.090  25.687  24.458  1.00  0.00    -0.002 C 
ATOM     23  C   UNL A   1      33.012  24.873  26.447  1.00  0.00     0.057 C 
ATOM     24  C   UNL A   1      33.431  26.037  25.585  1.00  0.00    -0.041 C 
BRANCH  24  25
ATOM     25  C   UNL A   1      33.043  27.454  25.978  1.00  0.00    -0.020 A 
ATOM     26  C   UNL A   1      33.901  28.198  26.823  1.00  0.00     0.008 A 
ATOM     27  C   UNL A   1      31.916  28.158  25.477  1.00  0.00    -0.044 A 
ATOM     28  C   UNL A   1      33.732  29.573  27.071  1.00  0.00     0.001 A 
ATOM     29  C   UNL A   1      31.759  29.547  25.731  1.00  0.00     0.004 A 
ATOM     30  C   UNL A   1      30.817  27.525  24.666  1.00  0.00     0.045 C 
ATOM     31  C   UNL A   1      32.666  30.253  26.509  1.00  0.00     0.000 A 
ENDBRANCH  24  25
ENDBRANCH  13  19
ENDBRANCH   6   8
ENDBRANCH   5   6
ENDBRANCH   4   5
ENDBRANCH   3   4
ENDBRANCH   2   3
ENDBRANCH   1   2
BRANCH   1  32
ATOM     32  C   UNL A   1      41.831  22.046  25.873  1.00  0.00     0.188 C 
BRANCH  32  33
ATOM     33  O   UNL A   1      42.835  22.817  25.252  1.00  0.00    -0.376 OA
BRANCH  33  34
ATOM     34  C   UNL A   1      43.583  23.643  26.128  1.00  0.00     0.202 C 
BRANCH  34  35
ATOM     35  C   UNL A   1      43.786  25.065  25.582  1.00  0.00     0.261 C 
BRANCH  35  36
ATOM     36  O   UNL A   1      43.430  26.056  26.572  1.00  0.00    -0.460 OA
BRANCH  36  37
ATOM     37  C   UNL A   1      44.098  27.253  26.509  1.00  0.00     0.338 C 
ATOM     38  O   UNL A   1      45.310  27.375  26.391  1.00  0.00    -0.246 OA
BRANCH  37  39
ATOM     39  C   UNL A   1      43.162  28.367  26.848  1.00  0.00     0.060 A 
ATOM     40  C   UNL A   1      43.449  29.453  27.688  1.00  0.00     0.016 A 
ATOM     41  C   UNL A   1      41.856  28.118  26.629  1.00  0.00     0.016 A 
ATOM     42  C   UNL A   1      42.410  30.145  28.452  1.00  0.00     0.010 A 
ATOM     43  C   UNL A   1      40.991  28.604  27.604  1.00  0.00     0.010 A 
ATOM     44  C   UNL A   1      41.099  29.684  28.564  1.00  0.00    -0.014 A 
BRANCH  44  45
ATOM     45  C   UNL A   1      39.955  30.257  29.783  1.00  0.00     0.031 A 
ATOM     46  C   UNL A   1      38.940  31.717  29.971  1.00  0.00     0.074 A 
ATOM     47  C   UNL A   1      39.840  29.503  30.909  1.00  0.00     0.049 A 
ATOM     48  N   UNL A   1      38.473  32.160  31.133  1.00  0.00    -0.248 NA
ATOM     49  C   UNL A   1      38.536  32.804  28.978  1.00  0.00     0.031 C 
ATOM     50  C   UNL A   1      38.797  29.587  31.932  1.00  0.00     0.029 A 
ATOM     51  N   UNL A   1      40.700  28.517  31.414  1.00  0.00    -0.354 N 
ATOM     52  C   UNL A   1      37.678  33.301  30.932  1.00  0.00     0.074 A 
ATOM     53  C   UNL A   1      37.967  33.775  29.654  1.00  0.00     0.031 C 
ATOM     54  C   UNL A   1      39.226  28.981  33.047  1.00  0.00     0.029 A 
ATOM     55  C   UNL A   1      40.589  28.563  32.817  1.00  0.00     0.049 A 
ATOM     56  H   UNL A   1      41.271  27.909  30.889  1.00  0.00     0.167 HD
ATOM     57  C   UNL A   1      36.711  33.748  31.774  1.00  0.00     0.037 A 
ATOM     58  C   UNL A   1      41.655  28.810  33.623  1.00  0.00     0.037 A 
ATOM     59  C   UNL A   1      36.986  33.230  33.088  1.00  0.00     0.049 A 
ATOM     60  C   UNL A   1      41.493  30.021  34.512  1.00  0.00     0.074 A 
ATOM     61  C   UNL A   1      36.484  32.180  33.825  1.00  0.00     0.029 A 
ATOM     62  N   UNL A   1      38.178  33.614  33.684  1.00  0.00    -0.354 N 
ATOM     63  N   UNL A   1      40.433  30.781  34.530  1.00  0.00    -0.248 NA
ATOM     64  C   UNL A   1      42.528  30.507  35.423  1.00  0.00     0.031 C 
ATOM     65  C   UNL A   1      37.464  31.846  34.799  1.00  0.00     0.029 A 
ATOM     66  C   UNL A   1      38.519  32.737  34.689  1.00  0.00     0.049 A 
ATOM     67  H   UNL A   1      38.706  34.404  33.424  1.00  0.00     0.167 HD
ATOM     68  C   UNL A   1      40.663  31.879  35.319  1.00  0.00     0.074 A 
ATOM     69  C   UNL A   1      41.961  31.627  35.909  1.00  0.00     0.031 C 
ATOM     70  C   UNL A   1      39.785  32.923  35.383  1.00  0.00     0.037 A 
BRANCH  57  71
ATOM     71  C   UNL A   1      35.418  34.477  31.332  1.00  0.00     0.057 A 
ATOM     72  C   UNL A   1      34.829  35.411  32.208  1.00  0.00     0.134 A 
ATOM     73  C   UNL A   1      34.608  34.226  30.188  1.00  0.00     0.134 A 
ATOM     74  F   UNL A   1      35.461  35.815  33.318  1.00  0.00    -0.206 F 
ATOM     75  C   UNL A   1      33.544  35.963  32.016  1.00  0.00     0.040 A 
ATOM     76  C   UNL A   1      33.336  34.788  29.975  1.00  0.00     0.040 A 
ATOM     77  F   UNL A   1      34.949  33.404  29.194  1.00  0.00    -0.206 F 
ATOM     78  C   UNL A   1      32.783  35.640  30.904  1.00  0.00     0.006 A 
ENDBRANCH  57  71
BRANCH  58  79
ATOM     79  C   UNL A   1      42.922  28.251  33.083  1.00  0.00     0.057 A 
ATOM     80  C   UNL A   1      43.203  26.891  33.308  1.00  0.00     0.134 A 
ATOM     81  C   UNL A   1      43.581  28.860  32.020  1.00  0.00     0.134 A 
ATOM     82  F   UNL A   1      42.589  26.237  34.306  1.00  0.00    -0.206 F 
ATOM     83  C   UNL A   1      44.022  26.142  32.454  1.00  0.00     0.040 A 
ATOM     84  C   UNL A   1      44.379  28.107  31.146  1.00  0.00     0.040 A 
ATOM     85  F   UNL A   1      43.333  30.140  31.714  1.00  0.00    -0.206 F 
ATOM     86  C   UNL A   1      44.588  26.747  31.342  1.00  0.00     0.006 A 
ENDBRANCH  58  79
BRANCH  70  87
ATOM     87  C   UNL A   1      40.014  34.236  36.093  1.00  0.00     0.057 A 
ATOM     88  C   UNL A   1      39.539  34.544  37.374  1.00  0.00     0.134 A 
ATOM     89  C   UNL A   1      40.892  35.190  35.528  1.00  0.00     0.134 A 
ATOM     90  F   UNL A   1      38.783  33.683  38.069  1.00  0.00    -0.206 F 
ATOM     91  C   UNL A   1      39.873  35.741  38.026  1.00  0.00     0.040 A 
ATOM     92  C   UNL A   1      41.277  36.357  36.193  1.00  0.00     0.040 A 
ATOM     93  F   UNL A   1      41.433  35.011  34.313  1.00  0.00    -0.206 F 
ATOM     94  C   UNL A   1      40.754  36.644  37.442  1.00  0.00     0.006 A 
ENDBRANCH  70  87
ENDBRANCH  44  45
ENDBRANCH  37  39
ENDBRANCH  36  37
ENDBRANCH  35  36
ENDBRANCH  34  35
ENDBRANCH  33  34
ENDBRANCH  32  33
ENDBRANCH   1  32
TORSDOF 20
ENDMDL
MODEL 3
REMARK VINA RESULT:     -12.1      4.489     10.164
REMARK SMILES CC(=O)Nc1cnc(N2CC=C(c3ccccc3C)CC2)c(C(=O)OCCOCCOCCOC(=O)c2ccc(-c3c4nc(c(-c5c(F)cccc5F)c5ccc([nH]5)c(-c5c(F)cccc5F)c5nc(c(-c6c(F)cccc6F)c6ccc3[nH]6)C=C5)C=C4)cc2)c1
REMARK SMILES IDX 29 1 28 2 27 3 26 4 25 5 23 6 24 7 22 8 5 9 6 10 91 11 7 12
REMARK SMILES IDX 8 13 4 14 1 15 2 16 3 17 9 19 10 20 21 21 11 22 20 23 12 24
REMARK SMILES IDX 13 25 14 26 18 27 15 28 17 29 19 30 16 31 30 32 31 33 32 34
REMARK SMILES IDX 33 35 34 36 35 37 36 38 37 39 38 40 90 41 39 42 89 43 40 44
REMARK SMILES IDX 41 45 42 46 83 47 43 48 88 49 82 50 84 51 44 52 87 53 81 54
REMARK SMILES IDX 80 55 45 57 71 58 54 59 70 60 55 61 58 62 69 63 85 64 56 65
REMARK SMILES IDX 57 66 68 68 86 69 59 70 46 71 47 72 52 73 48 74 49 75 51 76
REMARK SMILES IDX 53 77 50 78 72 79 73 80 78 81 74 82 75 83 77 84 79 85 76 86
REMARK SMILES IDX 60 87 61 88 66 89 62 90 63 91 65 92 67 93 64 94
REMARK H PARENT 4 18 84 56 58 67
REMARK Flexibility Score: inf
ROOT
ATOM      1  C   UNL A   1      39.293  21.545  26.018  1.00  0.00     0.188 C 
ENDROOT
BRANCH   1   2
ATOM      2  O   UNL A   1      38.047  21.056  25.495  1.00  0.00    -0.376 OA
BRANCH   2   3
ATOM      3  C   UNL A   1      36.843  21.800  25.282  1.00  0.00     0.202 C 
BRANCH   3   4
ATOM      4  C   UNL A   1      36.429  22.992  24.109  1.00  0.00     0.261 C 
BRANCH   4   5
ATOM      5  O   UNL A   1      35.302  23.050  22.734  1.00  0.00    -0.460 OA
BRANCH   5   6
ATOM      6  C   UNL A   1      33.909  23.335  22.370  1.00  0.00     0.342 C 
ATOM      7  O   UNL A   1      33.469  24.038  21.463  1.00  0.00    -0.246 OA
BRANCH   6   8
ATOM      8  C   UNL A   1      32.796  22.969  23.239  1.00  0.00     0.104 A 
ATOM      9  C   UNL A   1      32.377  21.425  25.018  1.00  0.00     0.060 A 
ATOM     10  C   UNL A   1      31.403  22.303  25.469  1.00  0.00     0.139 A 
ATOM     11  C   UNL A   1      33.037  21.742  23.850  1.00  0.00     0.047 A 
ATOM     12  N   UNL A   1      31.149  23.512  24.914  1.00  0.00    -0.236 NA
ATOM     13  C   UNL A   1      31.879  23.903  23.838  1.00  0.00     0.143 A 
BRANCH   9  14
ATOM     14  N   UNL A   1      32.666  20.244  25.707  1.00  0.00    -0.325 N 
ATOM     15  C   UNL A   1      32.568  18.699  23.762  1.00  0.00     0.114 C 
ATOM     16  C   UNL A   1      32.532  18.955  25.254  1.00  0.00     0.221 C 
ATOM     17  O   UNL A   1      32.478  18.028  26.061  1.00  0.00    -0.275 OA
ATOM     18  H   UNL A   1      33.005  20.348  26.626  1.00  0.00     0.169 HD
ENDBRANCH   9  14
BRANCH  13  19
ATOM     19  N   UNL A   1      31.566  25.192  23.373  1.00  0.00    -0.352 N 
ATOM     20  C   UNL A   1      32.330  26.337  23.915  1.00  0.00     0.146 C 
ATOM     21  C   UNL A   1      30.153  25.387  23.079  1.00  0.00     0.123 C 
ATOM     22  C   UNL A   1      31.637  27.693  23.739  1.00  0.00    -0.002 C 
ATOM     23  C   UNL A   1      29.490  26.613  23.729  1.00  0.00     0.057 C 
ATOM     24  C   UNL A   1      30.302  27.881  23.652  1.00  0.00    -0.041 C 
BRANCH  24  25
ATOM     25  C   UNL A   1      29.611  29.216  23.421  1.00  0.00    -0.020 A 
ATOM     26  C   UNL A   1      28.549  29.294  22.488  1.00  0.00     0.008 A 
ATOM     27  C   UNL A   1      29.871  30.406  24.152  1.00  0.00    -0.044 A 
ATOM     28  C   UNL A   1      27.722  30.424  22.359  1.00  0.00     0.001 A 
ATOM     29  C   UNL A   1      29.026  31.538  24.016  1.00  0.00     0.004 A 
ATOM     30  C   UNL A   1      31.028  30.577  25.100  1.00  0.00     0.045 C 
ATOM     31  C   UNL A   1      27.950  31.544  23.138  1.00  0.00     0.000 A 
ENDBRANCH  24  25
ENDBRANCH  13  19
ENDBRANCH   6   8
ENDBRANCH   5   6
ENDBRANCH   4   5
ENDBRANCH   3   4
ENDBRANCH   2   3
ENDBRANCH   1   2
BRANCH   1  32
ATOM     32  C   UNL A   1      40.439  20.653  26.490  1.00  0.00     0.188 C 
BRANCH  32  33
ATOM     33  O   UNL A   1      41.482  21.416  27.056  1.00  0.00    -0.376 OA
BRANCH  33  34
ATOM     34  C   UNL A   1      42.652  21.510  26.261  1.00  0.00     0.202 C 
BRANCH  34  35
ATOM     35  C   UNL A   1      42.676  22.769  25.380  1.00  0.00     0.261 C 
BRANCH  35  36
ATOM     36  O   UNL A   1      43.893  23.521  25.584  1.00  0.00    -0.460 OA
BRANCH  36  37
ATOM     37  C   UNL A   1      44.077  24.063  26.832  1.00  0.00     0.338 C 
ATOM     38  O   UNL A   1      44.839  23.623  27.682  1.00  0.00    -0.246 OA
BRANCH  37  39
ATOM     39  C   UNL A   1      43.040  25.110  27.081  1.00  0.00     0.060 A 
ATOM     40  C   UNL A   1      43.003  26.384  26.497  1.00  0.00     0.016 A 
ATOM     41  C   UNL A   1      42.311  24.952  28.204  1.00  0.00     0.016 A 
ATOM     42  C   UNL A   1      42.391  27.532  27.167  1.00  0.00     0.010 A 
ATOM     43  C   UNL A   1      42.040  26.126  28.901  1.00  0.00     0.010 A 
ATOM     44  C   UNL A   1      41.968  27.515  28.496  1.00  0.00    -0.014 A 
BRANCH  44  45
ATOM     45  C   UNL A   1      41.614  28.969  29.435  1.00  0.00     0.031 A 
ATOM     46  C   UNL A   1      40.245  30.117  29.513  1.00  0.00     0.074 A 
ATOM     47  C   UNL A   1      42.608  29.428  30.241  1.00  0.00     0.049 A 
ATOM     48  N   UNL A   1      40.336  31.362  29.966  1.00  0.00    -0.248 NA
ATOM     49  C   UNL A   1      38.817  30.028  28.979  1.00  0.00     0.031 C 
ATOM     50  C   UNL A   1      42.500  30.423  31.309  1.00  0.00     0.029 A 
ATOM     51  N   UNL A   1      43.980  29.132  30.223  1.00  0.00    -0.354 N 
ATOM     52  C   UNL A   1      39.076  31.983  29.933  1.00  0.00     0.074 A 
ATOM     53  C   UNL A   1      38.269  31.215  29.097  1.00  0.00     0.031 C 
ATOM     54  C   UNL A   1      43.720  30.891  31.598  1.00  0.00     0.029 A 
ATOM     55  C   UNL A   1      44.649  30.286  30.672  1.00  0.00     0.049 A 
ATOM     56  H   UNL A   1      44.394  28.281  29.949  1.00  0.00     0.167 HD
ATOM     57  C   UNL A   1      38.697  33.040  30.696  1.00  0.00     0.037 A 
ATOM     58  C   UNL A   1      45.568  30.936  29.910  1.00  0.00     0.037 A 
ATOM     59  C   UNL A   1      39.883  33.739  31.115  1.00  0.00     0.049 A 
ATOM     60  C   UNL A   1      45.230  32.383  29.633  1.00  0.00     0.074 A 
ATOM     61  C   UNL A   1      40.615  33.763  32.282  1.00  0.00     0.029 A 
ATOM     62  N   UNL A   1      40.679  34.288  30.121  1.00  0.00    -0.354 N 
ATOM     63  N   UNL A   1      44.161  32.986  30.076  1.00  0.00    -0.248 NA
ATOM     64  C   UNL A   1      46.045  33.263  28.797  1.00  0.00     0.031 C 
ATOM     65  C   UNL A   1      41.921  34.212  31.947  1.00  0.00     0.029 A 
ATOM     66  C   UNL A   1      41.951  34.520  30.597  1.00  0.00     0.049 A 
ATOM     67  H   UNL A   1      40.377  34.486  29.205  1.00  0.00     0.167 HD
ATOM     68  C   UNL A   1      44.070  34.235  29.520  1.00  0.00     0.074 A 
ATOM     69  C   UNL A   1      45.306  34.388  28.781  1.00  0.00     0.031 C 
ATOM     70  C   UNL A   1      42.963  35.020  29.677  1.00  0.00     0.037 A 
BRANCH  57  71
ATOM     71  C   UNL A   1      37.259  33.289  31.214  1.00  0.00     0.057 A 
ATOM     72  C   UNL A   1      36.318  33.890  30.353  1.00  0.00     0.134 A 
ATOM     73  C   UNL A   1      36.758  33.139  32.539  1.00  0.00     0.134 A 
ATOM     74  F   UNL A   1      36.585  34.071  29.053  1.00  0.00    -0.206 F 
ATOM     75  C   UNL A   1      35.060  34.368  30.779  1.00  0.00     0.040 A 
ATOM     76  C   UNL A   1      35.497  33.592  32.969  1.00  0.00     0.040 A 
ATOM     77  F   UNL A   1      37.438  32.575  33.538  1.00  0.00    -0.206 F 
ATOM     78  C   UNL A   1      34.650  34.236  32.096  1.00  0.00     0.006 A 
ENDBRANCH  57  71
BRANCH  58  79
ATOM     79  C   UNL A   1      46.355  30.014  29.051  1.00  0.00     0.057 A 
ATOM     80  C   UNL A   1      47.337  29.209  29.658  1.00  0.00     0.134 A 
ATOM     81  C   UNL A   1      45.870  29.589  27.818  1.00  0.00     0.134 A 
ATOM     82  F   UNL A   1      47.835  29.551  30.855  1.00  0.00    -0.206 F 
ATOM     83  C   UNL A   1      47.744  27.985  29.114  1.00  0.00     0.040 A 
ATOM     84  C   UNL A   1      46.253  28.349  27.286  1.00  0.00     0.040 A 
ATOM     85  F   UNL A   1      44.902  30.276  27.199  1.00  0.00    -0.206 F 
ATOM     86  C   UNL A   1      47.172  27.533  27.935  1.00  0.00     0.006 A 
ENDBRANCH  58  79
BRANCH  70  87
ATOM     87  C   UNL A   1      42.699  36.335  28.984  1.00  0.00     0.057 A 
ATOM     88  C   UNL A   1      43.077  37.589  29.482  1.00  0.00     0.134 A 
ATOM     89  C   UNL A   1      42.174  36.340  27.671  1.00  0.00     0.134 A 
ATOM     90  F   UNL A   1      43.683  37.721  30.669  1.00  0.00    -0.206 F 
ATOM     91  C   UNL A   1      42.899  38.770  28.743  1.00  0.00     0.040 A 
ATOM     92  C   UNL A   1      42.048  37.501  26.906  1.00  0.00     0.040 A 
ATOM     93  F   UNL A   1      41.788  35.204  27.068  1.00  0.00    -0.206 F 
ATOM     94  C   UNL A   1      42.396  38.726  27.448  1.00  0.00     0.006 A 
ENDBRANCH  70  87
ENDBRANCH  44  45
ENDBRANCH  37  39
ENDBRANCH  36  37
ENDBRANCH  35  36
ENDBRANCH  34  35
ENDBRANCH  33  34
ENDBRANCH  32  33
ENDBRANCH   1  32
TORSDOF 20
ENDMDL
