MODEL 1
REMARK VINA RESULT:     -12.2      0.000      0.000
REMARK SMILES C[C@]12C(=O)N(c3ccc(C(=O)OCCOCCOCCOC(=O)c4ccc(-c5c6nc(c(-c7c(F)cccc7F)c7ccc([nH]7)c(-c7c(F)cccc7F)c7nc(c(-c8c(F)cccc8F)c8ccc5[nH]8)C=C7)C=C6)cc4)cc3)C(=O)[C@H]1[C@H]1c3ccccc3[C@@H]2c2ccccc21
REMARK SMILES IDX 17 1 16 2 15 3 14 4 13 5 12 6 10 7 11 8 9 9 6 10 7 11 79 12
REMARK SMILES IDX 8 13 78 14 5 15 1 16 2 17 3 18 82 19 90 20 4 21 80 22 83 23
REMARK SMILES IDX 89 24 91 25 81 26 84 27 96 28 88 29 92 30 85 31 95 32 87 33
REMARK SMILES IDX 93 34 86 35 94 36 18 37 19 38 20 39 21 40 22 41 23 42 24 43
REMARK SMILES IDX 25 44 77 45 26 46 76 47 27 48 28 49 29 50 70 51 30 52 75 53
REMARK SMILES IDX 69 54 71 55 31 56 74 57 68 58 67 59 32 61 58 62 41 63 57 64
REMARK SMILES IDX 42 65 45 66 56 67 72 68 43 69 44 70 55 72 73 73 46 74 33 75
REMARK SMILES IDX 34 76 39 77 35 78 36 79 38 80 40 81 37 82 59 83 60 84 65 85
REMARK SMILES IDX 61 86 62 87 64 88 66 89 63 90 47 91 48 92 53 93 49 94 50 95
REMARK SMILES IDX 52 96 54 97 51 98
REMARK H PARENT 71 60 45 71
REMARK Flexibility Score: inf
ROOT
ATOM      1  C   UNL A   1      32.662  29.419  26.485  1.00  0.00     0.188 C 
ENDROOT
BRANCH   1   2
ATOM      2  C   UNL A   1      32.000  29.148  25.116  1.00  0.00     0.188 C 
BRANCH   2   3
ATOM      3  O   UNL A   1      32.794  28.960  23.960  1.00  0.00    -0.376 OA
BRANCH   3   4
ATOM      4  C   UNL A   1      32.170  28.943  22.683  1.00  0.00     0.202 C 
BRANCH   4   5
ATOM      5  C   UNL A   1      30.698  29.340  22.544  1.00  0.00     0.261 C 
BRANCH   5   6
ATOM      6  O   UNL A   1      29.867  28.260  22.083  1.00  0.00    -0.460 OA
BRANCH   6   7
ATOM      7  C   UNL A   1      28.955  27.822  22.983  1.00  0.00     0.338 C 
ATOM      8  O   UNL A   1      27.812  28.225  23.129  1.00  0.00    -0.246 OA
BRANCH   7   9
ATOM      9  C   UNL A   1      29.436  26.598  23.651  1.00  0.00     0.060 A 
ATOM     10  C   UNL A   1      30.629  24.475  25.069  1.00  0.00     0.052 A 
ATOM     11  C   UNL A   1      30.023  25.550  25.743  1.00  0.00     0.028 A 
ATOM     12  C   UNL A   1      30.508  24.426  23.670  1.00  0.00     0.028 A 
ATOM     13  C   UNL A   1      29.473  26.621  25.045  1.00  0.00     0.018 A 
ATOM     14  C   UNL A   1      29.894  25.477  22.961  1.00  0.00     0.018 A 
BRANCH  10  15
ATOM     15  N   UNL A   1      31.537  23.645  25.781  1.00  0.00    -0.250 N 
ATOM     16  C   UNL A   1      34.038  22.549  27.756  1.00  0.00     0.024 C 
ATOM     17  C   UNL A   1      33.695  23.103  26.360  1.00  0.00     0.071 C 
ATOM     18  C   UNL A   1      32.579  24.098  26.518  1.00  0.00     0.241 C 
ATOM     19  C   UNL A   1      33.162  21.904  25.438  1.00  0.00     0.107 C 
ATOM     20  C   UNL A   1      34.874  23.928  25.721  1.00  0.00     0.066 C 
ATOM     21  O   UNL A   1      32.652  25.103  27.210  1.00  0.00    -0.273 OA
ATOM     22  C   UNL A   1      31.664  22.289  25.677  1.00  0.00     0.238 C 
ATOM     23  C   UNL A   1      34.273  21.840  24.279  1.00  0.00     0.063 C 
ATOM     24  C   UNL A   1      34.429  24.295  24.300  1.00  0.00    -0.036 A 
ATOM     25  C   UNL A   1      36.032  22.963  25.583  1.00  0.00    -0.036 A 
ATOM     26  O   UNL A   1      30.762  21.460  25.751  1.00  0.00    -0.274 OA
ATOM     27  C   UNL A   1      34.115  23.164  23.509  1.00  0.00    -0.036 A 
ATOM     28  C   UNL A   1      35.696  21.813  24.838  1.00  0.00    -0.036 A 
ATOM     29  C   UNL A   1      34.215  25.575  23.809  1.00  0.00     0.005 A 
ATOM     30  C   UNL A   1      37.323  23.176  26.049  1.00  0.00     0.005 A 
ATOM     31  C   UNL A   1      33.561  23.303  22.245  1.00  0.00     0.004 A 
ATOM     32  C   UNL A   1      36.674  20.870  24.546  1.00  0.00     0.004 A 
ATOM     33  C   UNL A   1      33.654  25.716  22.537  1.00  0.00     0.000 A 
ATOM     34  C   UNL A   1      38.299  22.226  25.755  1.00  0.00     0.000 A 
ATOM     35  C   UNL A   1      33.323  24.591  21.765  1.00  0.00     0.000 A 
ATOM     36  C   UNL A   1      37.977  21.083  25.009  1.00  0.00     0.000 A 
ENDBRANCH  10  15
ENDBRANCH   7   9
ENDBRANCH   6   7
ENDBRANCH   5   6
ENDBRANCH   4   5
ENDBRANCH   3   4
ENDBRANCH   2   3
ENDBRANCH   1   2
BRANCH   1  37
ATOM     37  O   UNL A   1      32.495  30.655  27.145  1.00  0.00    -0.376 OA
BRANCH  37  38
ATOM     38  C   UNL A   1      31.579  31.613  26.640  1.00  0.00     0.202 C 
BRANCH  38  39
ATOM     39  C   UNL A   1      31.769  33.115  26.877  1.00  0.00     0.261 C 
BRANCH  39  40
ATOM     40  O   UNL A   1      33.116  33.513  27.160  1.00  0.00    -0.460 OA
BRANCH  40  41
ATOM     41  C   UNL A   1      33.280  34.223  28.303  1.00  0.00     0.338 C 
ATOM     42  O   UNL A   1      32.550  35.087  28.758  1.00  0.00    -0.246 OA
BRANCH  41  43
ATOM     43  C   UNL A   1      34.423  33.662  29.041  1.00  0.00     0.060 A 
ATOM     44  C   UNL A   1      34.216  32.694  30.024  1.00  0.00     0.016 A 
ATOM     45  C   UNL A   1      35.716  34.107  28.731  1.00  0.00     0.016 A 
ATOM     46  C   UNL A   1      35.317  32.153  30.689  1.00  0.00     0.010 A 
ATOM     47  C   UNL A   1      36.812  33.581  29.414  1.00  0.00     0.010 A 
ATOM     48  C   UNL A   1      36.620  32.585  30.382  1.00  0.00    -0.014 A 
BRANCH  48  49
ATOM     49  C   UNL A   1      37.786  31.873  30.953  1.00  0.00     0.031 A 
ATOM     50  C   UNL A   1      38.335  32.209  32.305  1.00  0.00     0.074 A 
ATOM     51  C   UNL A   1      38.356  30.909  30.208  1.00  0.00     0.049 A 
ATOM     52  N   UNL A   1      39.314  31.636  32.957  1.00  0.00    -0.248 NA
ATOM     53  C   UNL A   1      37.712  33.336  33.013  1.00  0.00     0.031 C 
ATOM     54  C   UNL A   1      37.922  30.520  28.865  1.00  0.00     0.029 A 
ATOM     55  N   UNL A   1      39.420  30.086  30.469  1.00  0.00    -0.354 N 
ATOM     56  C   UNL A   1      39.414  32.312  34.166  1.00  0.00     0.074 A 
ATOM     57  C   UNL A   1      38.423  33.370  34.135  1.00  0.00     0.031 C 
ATOM     58  C   UNL A   1      38.707  29.525  28.423  1.00  0.00     0.029 A 
ATOM     59  C   UNL A   1      39.711  29.226  29.439  1.00  0.00     0.049 A 
ATOM     60  H   UNL A   1      39.926  30.108  31.313  1.00  0.00     0.167 HD
ATOM     61  C   UNL A   1      40.247  32.059  35.205  1.00  0.00     0.037 A 
ATOM     62  C   UNL A   1      40.684  28.305  29.324  1.00  0.00     0.037 A 
ATOM     63  C   UNL A   1      41.250  31.021  35.214  1.00  0.00     0.049 A 
ATOM     64  C   UNL A   1      41.634  28.095  30.469  1.00  0.00     0.074 A 
ATOM     65  C   UNL A   1      42.108  30.659  36.240  1.00  0.00     0.029 A 
ATOM     66  N   UNL A   1      41.546  30.194  34.141  1.00  0.00    -0.354 N 
ATOM     67  N   UNL A   1      41.657  28.676  31.644  1.00  0.00    -0.248 NA
ATOM     68  C   UNL A   1      42.690  27.093  30.273  1.00  0.00     0.031 C 
ATOM     69  C   UNL A   1      42.962  29.655  35.767  1.00  0.00     0.029 A 
ATOM     70  C   UNL A   1      42.600  29.352  34.465  1.00  0.00     0.049 A 
ATOM     71  H   UNL A   1      41.078  30.203  33.275  1.00  0.00     0.167 HD
ATOM     72  C   UNL A   1      42.716  28.098  32.331  1.00  0.00     0.074 A 
ATOM     73  C   UNL A   1      43.290  27.100  31.454  1.00  0.00     0.031 C 
ATOM     74  C   UNL A   1      43.175  28.373  33.577  1.00  0.00     0.037 A 
BRANCH  61  75
ATOM     75  C   UNL A   1      40.117  32.924  36.427  1.00  0.00     0.057 A 
ATOM     76  C   UNL A   1      39.126  32.672  37.384  1.00  0.00     0.134 A 
ATOM     77  C   UNL A   1      40.931  34.047  36.622  1.00  0.00     0.134 A 
ATOM     78  F   UNL A   1      38.304  31.620  37.253  1.00  0.00    -0.206 F 
ATOM     79  C   UNL A   1      38.947  33.507  38.488  1.00  0.00     0.040 A 
ATOM     80  C   UNL A   1      40.778  34.876  37.734  1.00  0.00     0.040 A 
ATOM     81  F   UNL A   1      41.901  34.345  35.744  1.00  0.00    -0.206 F 
ATOM     82  C   UNL A   1      39.777  34.611  38.668  1.00  0.00     0.006 A 
ENDBRANCH  61  75
BRANCH  62  83
ATOM     83  C   UNL A   1      40.815  27.510  28.079  1.00  0.00     0.057 A 
ATOM     84  C   UNL A   1      41.604  27.957  27.012  1.00  0.00     0.134 A 
ATOM     85  C   UNL A   1      40.185  26.269  27.942  1.00  0.00     0.134 A 
ATOM     86  F   UNL A   1      42.229  29.142  27.080  1.00  0.00    -0.206 F 
ATOM     87  C   UNL A   1      41.763  27.195  25.855  1.00  0.00     0.040 A 
ATOM     88  C   UNL A   1      40.360  25.483  26.803  1.00  0.00     0.040 A 
ATOM     89  F   UNL A   1      39.431  25.781  28.940  1.00  0.00    -0.206 F 
ATOM     90  C   UNL A   1      41.149  25.948  25.753  1.00  0.00     0.006 A 
ENDBRANCH  62  83
BRANCH  74  91
ATOM     91  C   UNL A   1      44.349  27.567  34.058  1.00  0.00     0.057 A 
ATOM     92  C   UNL A   1      45.658  28.037  33.892  1.00  0.00     0.134 A 
ATOM     93  C   UNL A   1      44.184  26.329  34.693  1.00  0.00     0.134 A 
ATOM     94  F   UNL A   1      45.890  29.211  33.286  1.00  0.00    -0.206 F 
ATOM     95  C   UNL A   1      46.758  27.308  34.344  1.00  0.00     0.040 A 
ATOM     96  C   UNL A   1      45.274  25.605  35.178  1.00  0.00     0.040 A 
ATOM     97  F   UNL A   1      42.956  25.829  34.901  1.00  0.00    -0.206 F 
ATOM     98  C   UNL A   1      46.567  26.093  35.000  1.00  0.00     0.006 A 
ENDBRANCH  74  91
ENDBRANCH  48  49
ENDBRANCH  41  43
ENDBRANCH  40  41
ENDBRANCH  39  40
ENDBRANCH  38  39
ENDBRANCH  37  38
ENDBRANCH   1  37
TORSDOF 18
ENDMDL
MODEL 2
REMARK VINA RESULT:     -12.2      4.233      7.483
REMARK SMILES C[C@]12C(=O)N(c3ccc(C(=O)OCCOCCOCCOC(=O)c4ccc(-c5c6nc(c(-c7c(F)cccc7F)c7ccc([nH]7)c(-c7c(F)cccc7F)c7nc(c(-c8c(F)cccc8F)c8ccc5[nH]8)C=C7)C=C6)cc4)cc3)C(=O)[C@H]1[C@H]1c3ccccc3[C@@H]2c2ccccc21
REMARK SMILES IDX 17 1 16 2 15 3 14 4 13 5 12 6 10 7 11 8 9 9 6 10 7 11 79 12
REMARK SMILES IDX 8 13 78 14 5 15 1 16 2 17 3 18 82 19 90 20 4 21 80 22 83 23
REMARK SMILES IDX 89 24 91 25 81 26 84 27 96 28 88 29 92 30 85 31 95 32 87 33
REMARK SMILES IDX 93 34 86 35 94 36 18 37 19 38 20 39 21 40 22 41 23 42 24 43
REMARK SMILES IDX 25 44 77 45 26 46 76 47 27 48 28 49 29 50 70 51 30 52 75 53
REMARK SMILES IDX 69 54 71 55 31 56 74 57 68 58 67 59 32 61 58 62 41 63 57 64
REMARK SMILES IDX 42 65 45 66 56 67 72 68 43 69 44 70 55 72 73 73 46 74 33 75
REMARK SMILES IDX 34 76 39 77 35 78 36 79 38 80 40 81 37 82 59 83 60 84 65 85
REMARK SMILES IDX 61 86 62 87 64 88 66 89 63 90 47 91 48 92 53 93 49 94 50 95
REMARK SMILES IDX 52 96 54 97 51 98
REMARK H PARENT 71 60 45 71
REMARK Flexibility Score: inf
ROOT
ATOM      1  C   UNL A   1      32.081  28.922  26.489  1.00  0.00     0.188 C 
ENDROOT
BRANCH   1   2
ATOM      2  C   UNL A   1      31.889  29.636  25.134  1.00  0.00     0.188 C 
BRANCH   2   3
ATOM      3  O   UNL A   1      32.715  29.318  24.031  1.00  0.00    -0.376 OA
BRANCH   3   4
ATOM      4  C   UNL A   1      32.122  28.833  22.834  1.00  0.00     0.202 C 
BRANCH   4   5
ATOM      5  C   UNL A   1      30.699  29.256  22.459  1.00  0.00     0.261 C 
BRANCH   5   6
ATOM      6  O   UNL A   1      29.869  28.148  22.069  1.00  0.00    -0.460 OA
BRANCH   6   7
ATOM      7  C   UNL A   1      28.981  27.746  23.009  1.00  0.00     0.338 C 
ATOM      8  O   UNL A   1      27.849  28.169  23.181  1.00  0.00    -0.246 OA
BRANCH   7   9
ATOM      9  C   UNL A   1      29.468  26.533  23.694  1.00  0.00     0.060 A 
ATOM     10  C   UNL A   1      30.675  24.433  25.134  1.00  0.00     0.052 A 
ATOM     11  C   UNL A   1      30.084  25.525  25.796  1.00  0.00     0.028 A 
ATOM     12  C   UNL A   1      30.530  24.358  23.739  1.00  0.00     0.028 A 
ATOM     13  C   UNL A   1      29.527  26.584  25.086  1.00  0.00     0.018 A 
ATOM     14  C   UNL A   1      29.909  25.397  23.019  1.00  0.00     0.018 A 
BRANCH  10  15
ATOM     15  N   UNL A   1      31.591  23.614  25.848  1.00  0.00    -0.250 N 
ATOM     16  C   UNL A   1      34.112  22.547  27.813  1.00  0.00     0.024 C 
ATOM     17  C   UNL A   1      33.755  23.083  26.414  1.00  0.00     0.071 C 
ATOM     18  C   UNL A   1      32.639  24.078  26.570  1.00  0.00     0.241 C 
ATOM     19  C   UNL A   1      33.215  21.871  25.512  1.00  0.00     0.107 C 
ATOM     20  C   UNL A   1      34.927  23.902  25.754  1.00  0.00     0.066 C 
ATOM     21  O   UNL A   1      32.716  25.092  27.249  1.00  0.00    -0.273 OA
ATOM     22  C   UNL A   1      31.719  22.257  25.760  1.00  0.00     0.238 C 
ATOM     23  C   UNL A   1      34.315  21.795  24.344  1.00  0.00     0.063 C 
ATOM     24  C   UNL A   1      34.467  24.250  24.333  1.00  0.00    -0.036 A 
ATOM     25  C   UNL A   1      36.085  22.937  25.617  1.00  0.00    -0.036 A 
ATOM     26  O   UNL A   1      30.819  21.427  25.853  1.00  0.00    -0.274 OA
ATOM     27  C   UNL A   1      34.148  23.109  23.559  1.00  0.00    -0.036 A 
ATOM     28  C   UNL A   1      35.744  21.777  24.890  1.00  0.00    -0.036 A 
ATOM     29  C   UNL A   1      34.247  25.523  23.828  1.00  0.00     0.005 A 
ATOM     30  C   UNL A   1      37.380  23.158  26.068  1.00  0.00     0.005 A 
ATOM     31  C   UNL A   1      33.582  23.231  22.298  1.00  0.00     0.004 A 
ATOM     32  C   UNL A   1      36.720  20.832  24.600  1.00  0.00     0.004 A 
ATOM     33  C   UNL A   1      33.674  25.647  22.560  1.00  0.00     0.000 A 
ATOM     34  C   UNL A   1      38.354  22.206  25.777  1.00  0.00     0.000 A 
ATOM     35  C   UNL A   1      33.338  24.512  21.805  1.00  0.00     0.000 A 
ATOM     36  C   UNL A   1      38.027  21.052  25.049  1.00  0.00     0.000 A 
ENDBRANCH  10  15
ENDBRANCH   7   9
ENDBRANCH   6   7
ENDBRANCH   5   6
ENDBRANCH   4   5
ENDBRANCH   3   4
ENDBRANCH   2   3
ENDBRANCH   1   2
BRANCH   1  37
ATOM     37  O   UNL A   1      32.785  29.537  27.547  1.00  0.00    -0.376 OA
BRANCH  37  38
ATOM     38  C   UNL A   1      33.440  30.777  27.338  1.00  0.00     0.202 C 
BRANCH  38  39
ATOM     39  C   UNL A   1      34.778  31.106  28.009  1.00  0.00     0.261 C 
BRANCH  39  40
ATOM     40  O   UNL A   1      35.494  29.970  28.511  1.00  0.00    -0.460 OA
BRANCH  40  41
ATOM     41  C   UNL A   1      36.219  30.195  29.635  1.00  0.00     0.338 C 
ATOM     42  O   UNL A   1      35.805  30.449  30.753  1.00  0.00    -0.246 OA
BRANCH  41  43
ATOM     43  C   UNL A   1      37.633  29.909  29.343  1.00  0.00     0.060 A 
ATOM     44  C   UNL A   1      38.548  29.765  30.385  1.00  0.00     0.016 A 
ATOM     45  C   UNL A   1      38.036  29.773  28.007  1.00  0.00     0.016 A 
ATOM     46  C   UNL A   1      39.877  29.462  30.086  1.00  0.00     0.010 A 
ATOM     47  C   UNL A   1      39.370  29.494  27.711  1.00  0.00     0.010 A 
ATOM     48  C   UNL A   1      40.293  29.316  28.751  1.00  0.00    -0.014 A 
BRANCH  48  49
ATOM     49  C   UNL A   1      41.653  28.809  28.455  1.00  0.00     0.031 A 
ATOM     50  C   UNL A   1      41.912  27.366  28.150  1.00  0.00     0.074 A 
ATOM     51  C   UNL A   1      42.669  29.691  28.481  1.00  0.00     0.049 A 
ATOM     52  N   UNL A   1      43.038  26.788  27.818  1.00  0.00    -0.248 NA
ATOM     53  C   UNL A   1      40.763  26.454  28.232  1.00  0.00     0.031 C 
ATOM     54  C   UNL A   1      42.535  31.115  28.797  1.00  0.00     0.029 A 
ATOM     55  N   UNL A   1      44.008  29.524  28.243  1.00  0.00    -0.354 N 
ATOM     56  C   UNL A   1      42.736  25.447  27.627  1.00  0.00     0.074 A 
ATOM     57  C   UNL A   1      41.326  25.290  27.925  1.00  0.00     0.031 C 
ATOM     58  C   UNL A   1      43.743  31.694  28.723  1.00  0.00     0.029 A 
ATOM     59  C   UNL A   1      44.735  30.680  28.380  1.00  0.00     0.049 A 
ATOM     60  H   UNL A   1      44.408  28.659  27.996  1.00  0.00     0.167 HD
ATOM     61  C   UNL A   1      43.560  24.447  27.225  1.00  0.00     0.037 A 
ATOM     62  C   UNL A   1      46.056  30.896  28.251  1.00  0.00     0.037 A 
ATOM     63  C   UNL A   1      44.969  24.608  26.958  1.00  0.00     0.049 A 
ATOM     64  C   UNL A   1      46.952  29.752  27.869  1.00  0.00     0.074 A 
ATOM     65  C   UNL A   1      45.874  23.664  26.501  1.00  0.00     0.029 A 
ATOM     66  N   UNL A   1      45.683  25.783  27.145  1.00  0.00    -0.354 N 
ATOM     67  N   UNL A   1      46.639  28.508  27.599  1.00  0.00    -0.248 NA
ATOM     68  C   UNL A   1      48.388  30.046  27.770  1.00  0.00     0.031 C 
ATOM     69  C   UNL A   1      47.145  24.250  26.469  1.00  0.00     0.029 A 
ATOM     70  C   UNL A   1      47.023  25.576  26.853  1.00  0.00     0.049 A 
ATOM     71  H   UNL A   1      45.296  26.637  27.442  1.00  0.00     0.167 HD
ATOM     72  C   UNL A   1      47.834  27.878  27.280  1.00  0.00     0.074 A 
ATOM     73  C   UNL A   1      48.872  28.883  27.361  1.00  0.00     0.031 C 
ATOM     74  C   UNL A   1      48.053  26.580  26.953  1.00  0.00     0.037 A 
BRANCH  61  75
ATOM     75  C   UNL A   1      42.961  23.080  27.053  1.00  0.00     0.057 A 
ATOM     76  C   UNL A   1      42.637  22.592  25.781  1.00  0.00     0.134 A 
ATOM     77  C   UNL A   1      42.644  22.272  28.153  1.00  0.00     0.134 A 
ATOM     78  F   UNL A   1      42.902  23.319  24.685  1.00  0.00    -0.206 F 
ATOM     79  C   UNL A   1      42.016  21.354  25.609  1.00  0.00     0.040 A 
ATOM     80  C   UNL A   1      42.046  21.022  27.993  1.00  0.00     0.040 A 
ATOM     81  F   UNL A   1      42.930  22.678  29.400  1.00  0.00    -0.206 F 
ATOM     82  C   UNL A   1      41.723  20.562  26.718  1.00  0.00     0.006 A 
ENDBRANCH  61  75
BRANCH  62  83
ATOM     83  C   UNL A   1      46.617  32.249  28.484  1.00  0.00     0.057 A 
ATOM     84  C   UNL A   1      46.770  33.163  27.434  1.00  0.00     0.134 A 
ATOM     85  C   UNL A   1      46.978  32.672  29.767  1.00  0.00     0.134 A 
ATOM     86  F   UNL A   1      46.448  32.814  26.179  1.00  0.00    -0.206 F 
ATOM     87  C   UNL A   1      47.260  34.450  27.653  1.00  0.00     0.040 A 
ATOM     88  C   UNL A   1      47.441  33.967  30.006  1.00  0.00     0.040 A 
ATOM     89  F   UNL A   1      46.836  31.847  30.816  1.00  0.00    -0.206 F 
ATOM     90  C   UNL A   1      47.585  34.859  28.945  1.00  0.00     0.006 A 
ENDBRANCH  62  83
BRANCH  74  91
ATOM     91  C   UNL A   1      49.471  26.190  26.649  1.00  0.00     0.057 A 
ATOM     92  C   UNL A   1      49.988  26.312  25.352  1.00  0.00     0.134 A 
ATOM     93  C   UNL A   1      50.331  25.700  27.641  1.00  0.00     0.134 A 
ATOM     94  F   UNL A   1      49.219  26.768  24.351  1.00  0.00    -0.206 F 
ATOM     95  C   UNL A   1      51.307  25.966  25.056  1.00  0.00     0.040 A 
ATOM     96  C   UNL A   1      51.661  25.381  27.364  1.00  0.00     0.040 A 
ATOM     97  F   UNL A   1      49.906  25.576  28.908  1.00  0.00    -0.206 F 
ATOM     98  C   UNL A   1      52.152  25.510  26.066  1.00  0.00     0.006 A 
ENDBRANCH  74  91
ENDBRANCH  48  49
ENDBRANCH  41  43
ENDBRANCH  40  41
ENDBRANCH  39  40
ENDBRANCH  38  39
ENDBRANCH  37  38
ENDBRANCH   1  37
TORSDOF 18
ENDMDL
MODEL 3
REMARK VINA RESULT:     -12.2      0.497      5.677
REMARK SMILES C[C@]12C(=O)N(c3ccc(C(=O)OCCOCCOCCOC(=O)c4ccc(-c5c6nc(c(-c7c(F)cccc7F)c7ccc([nH]7)c(-c7c(F)cccc7F)c7nc(c(-c8c(F)cccc8F)c8ccc5[nH]8)C=C7)C=C6)cc4)cc3)C(=O)[C@H]1[C@H]1c3ccccc3[C@@H]2c2ccccc21
REMARK SMILES IDX 17 1 16 2 15 3 14 4 13 5 12 6 10 7 11 8 9 9 6 10 7 11 79 12
REMARK SMILES IDX 8 13 78 14 5 15 1 16 2 17 3 18 82 19 90 20 4 21 80 22 83 23
REMARK SMILES IDX 89 24 91 25 81 26 84 27 96 28 88 29 92 30 85 31 95 32 87 33
REMARK SMILES IDX 93 34 86 35 94 36 18 37 19 38 20 39 21 40 22 41 23 42 24 43
REMARK SMILES IDX 25 44 77 45 26 46 76 47 27 48 28 49 29 50 70 51 30 52 75 53
REMARK SMILES IDX 69 54 71 55 31 56 74 57 68 58 67 59 32 61 58 62 41 63 57 64
REMARK SMILES IDX 42 65 45 66 56 67 72 68 43 69 44 70 55 72 73 73 46 74 33 75
REMARK SMILES IDX 34 76 39 77 35 78 36 79 38 80 40 81 37 82 59 83 60 84 65 85
REMARK SMILES IDX 61 86 62 87 64 88 66 89 63 90 47 91 48 92 53 93 49 94 50 95
REMARK SMILES IDX 52 96 54 97 51 98
REMARK H PARENT 71 60 45 71
REMARK Flexibility Score: inf
ROOT
ATOM      1  C   UNL A   1      32.951  29.500  26.637  1.00  0.00     0.188 C 
ENDROOT
BRANCH   1   2
ATOM      2  C   UNL A   1      32.234  29.115  25.325  1.00  0.00     0.188 C 
BRANCH   2   3
ATOM      3  O   UNL A   1      32.922  29.162  24.091  1.00  0.00    -0.376 OA
BRANCH   3   4
ATOM      4  C   UNL A   1      32.217  28.884  22.888  1.00  0.00     0.202 C 
BRANCH   4   5
ATOM      5  C   UNL A   1      30.766  29.347  22.728  1.00  0.00     0.261 C 
BRANCH   5   6
ATOM      6  O   UNL A   1      29.907  28.326  22.191  1.00  0.00    -0.460 OA
BRANCH   6   7
ATOM      7  C   UNL A   1      28.974  27.858  23.053  1.00  0.00     0.338 C 
ATOM      8  O   UNL A   1      27.824  28.246  23.175  1.00  0.00    -0.246 OA
BRANCH   7   9
ATOM      9  C   UNL A   1      29.450  26.624  23.708  1.00  0.00     0.060 A 
ATOM     10  C   UNL A   1      30.631  24.479  25.101  1.00  0.00     0.052 A 
ATOM     11  C   UNL A   1      30.027  25.547  25.787  1.00  0.00     0.028 A 
ATOM     12  C   UNL A   1      30.514  24.449  23.702  1.00  0.00     0.028 A 
ATOM     13  C   UNL A   1      29.482  26.629  25.101  1.00  0.00     0.018 A 
ATOM     14  C   UNL A   1      29.906  25.510  23.004  1.00  0.00     0.018 A 
BRANCH  10  15
ATOM     15  N   UNL A   1      31.534  23.637  25.805  1.00  0.00    -0.250 N 
ATOM     16  C   UNL A   1      34.029  22.507  27.770  1.00  0.00     0.024 C 
ATOM     17  C   UNL A   1      33.689  23.077  26.379  1.00  0.00     0.071 C 
ATOM     18  C   UNL A   1      32.579  24.077  26.546  1.00  0.00     0.241 C 
ATOM     19  C   UNL A   1      33.148  21.889  25.446  1.00  0.00     0.107 C 
ATOM     20  C   UNL A   1      34.873  23.900  25.748  1.00  0.00     0.066 C 
ATOM     21  O   UNL A   1      32.658  25.075  27.248  1.00  0.00    -0.273 OA
ATOM     22  C   UNL A   1      31.653  22.281  25.689  1.00  0.00     0.238 C 
ATOM     23  C   UNL A   1      34.259  21.829  24.286  1.00  0.00     0.063 C 
ATOM     24  C   UNL A   1      34.430  24.283  24.330  1.00  0.00    -0.036 A 
ATOM     25  C   UNL A   1      36.025  22.929  25.601  1.00  0.00    -0.036 A 
ATOM     26  O   UNL A   1      30.746  21.457  25.756  1.00  0.00    -0.274 OA
ATOM     27  C   UNL A   1      34.109  23.161  23.529  1.00  0.00    -0.036 A 
ATOM     28  C   UNL A   1      35.682  21.788  24.845  1.00  0.00    -0.036 A 
ATOM     29  C   UNL A   1      34.224  25.568  23.852  1.00  0.00     0.005 A 
ATOM     30  C   UNL A   1      37.317  23.131  26.068  1.00  0.00     0.005 A 
ATOM     31  C   UNL A   1      33.555  23.316  22.266  1.00  0.00     0.004 A 
ATOM     32  C   UNL A   1      36.654  20.842  24.544  1.00  0.00     0.004 A 
ATOM     33  C   UNL A   1      33.663  25.725  22.581  1.00  0.00     0.000 A 
ATOM     34  C   UNL A   1      38.287  22.177  25.765  1.00  0.00     0.000 A 
ATOM     35  C   UNL A   1      33.325  24.609  21.798  1.00  0.00     0.000 A 
ATOM     36  C   UNL A   1      37.958  21.043  25.009  1.00  0.00     0.000 A 
ENDBRANCH  10  15
ENDBRANCH   7   9
ENDBRANCH   6   7
ENDBRANCH   5   6
ENDBRANCH   4   5
ENDBRANCH   3   4
ENDBRANCH   2   3
ENDBRANCH   1   2
BRANCH   1  37
ATOM     37  O   UNL A   1      32.823  30.793  27.189  1.00  0.00    -0.376 OA
BRANCH  37  38
ATOM     38  C   UNL A   1      31.752  31.633  26.791  1.00  0.00     0.202 C 
BRANCH  38  39
ATOM     39  C   UNL A   1      31.779  33.145  27.035  1.00  0.00     0.261 C 
BRANCH  39  40
ATOM     40  O   UNL A   1      33.087  33.701  27.222  1.00  0.00    -0.460 OA
BRANCH  40  41
ATOM     41  C   UNL A   1      33.245  34.440  28.347  1.00  0.00     0.338 C 
ATOM     42  O   UNL A   1      32.526  35.334  28.762  1.00  0.00    -0.246 OA
BRANCH  41  43
ATOM     43  C   UNL A   1      34.359  33.875  29.125  1.00  0.00     0.060 A 
ATOM     44  C   UNL A   1      34.104  32.995  30.176  1.00  0.00     0.016 A 
ATOM     45  C   UNL A   1      35.672  34.225  28.782  1.00  0.00     0.016 A 
ATOM     46  C   UNL A   1      35.178  32.447  30.880  1.00  0.00     0.010 A 
ATOM     47  C   UNL A   1      36.742  33.693  29.502  1.00  0.00     0.010 A 
ATOM     48  C   UNL A   1      36.500  32.784  30.541  1.00  0.00    -0.014 A 
BRANCH  48  49
ATOM     49  C   UNL A   1      37.629  32.054  31.163  1.00  0.00     0.031 A 
ATOM     50  C   UNL A   1      38.326  30.929  30.463  1.00  0.00     0.074 A 
ATOM     51  C   UNL A   1      38.008  32.425  32.400  1.00  0.00     0.049 A 
ATOM     52  N   UNL A   1      39.363  30.235  30.859  1.00  0.00    -0.248 NA
ATOM     53  C   UNL A   1      37.790  30.527  29.155  1.00  0.00     0.031 C 
ATOM     54  C   UNL A   1      37.379  33.487  33.187  1.00  0.00     0.029 A 
ATOM     55  N   UNL A   1      39.007  31.953  33.210  1.00  0.00    -0.354 N 
ATOM     56  C   UNL A   1      39.624  29.327  29.842  1.00  0.00     0.074 A 
ATOM     57  C   UNL A   1      38.606  29.530  28.830  1.00  0.00     0.031 C 
ATOM     58  C   UNL A   1      38.013  33.593  34.364  1.00  0.00     0.029 A 
ATOM     59  C   UNL A   1      39.074  32.592  34.423  1.00  0.00     0.049 A 
ATOM     60  H   UNL A   1      39.617  31.226  32.948  1.00  0.00     0.167 HD
ATOM     61  C   UNL A   1      40.630  28.421  29.760  1.00  0.00     0.037 A 
ATOM     62  C   UNL A   1      39.894  32.388  35.469  1.00  0.00     0.037 A 
ATOM     63  C   UNL A   1      41.622  28.208  30.786  1.00  0.00     0.049 A 
ATOM     64  C   UNL A   1      40.957  31.331  35.372  1.00  0.00     0.074 A 
ATOM     65  C   UNL A   1      42.707  27.346  30.772  1.00  0.00     0.029 A 
ATOM     66  N   UNL A   1      41.638  28.843  32.019  1.00  0.00    -0.354 N 
ATOM     67  N   UNL A   1      41.254  30.544  34.367  1.00  0.00    -0.248 NA
ATOM     68  C   UNL A   1      41.804  31.139  36.557  1.00  0.00     0.031 C 
ATOM     69  C   UNL A   1      43.343  27.417  32.017  1.00  0.00     0.029 A 
ATOM     70  C   UNL A   1      42.688  28.363  32.788  1.00  0.00     0.049 A 
ATOM     71  H   UNL A   1      40.998  29.533  32.307  1.00  0.00     0.167 HD
ATOM     72  C   UNL A   1      42.331  29.778  34.791  1.00  0.00     0.074 A 
ATOM     73  C   UNL A   1      42.655  30.217  36.132  1.00  0.00     0.031 C 
ATOM     74  C   UNL A   1      42.992  28.796  34.130  1.00  0.00     0.037 A 
BRANCH  61  75
ATOM     75  C   UNL A   1      40.711  27.582  28.517  1.00  0.00     0.057 A 
ATOM     76  C   UNL A   1      41.483  27.991  27.422  1.00  0.00     0.134 A 
ATOM     77  C   UNL A   1      39.970  26.401  28.377  1.00  0.00     0.134 A 
ATOM     78  F   UNL A   1      42.208  29.118  27.483  1.00  0.00    -0.206 F 
ATOM     79  C   UNL A   1      41.513  27.259  26.234  1.00  0.00     0.040 A 
ATOM     80  C   UNL A   1      40.010  25.648  27.203  1.00  0.00     0.040 A 
ATOM     81  F   UNL A   1      39.211  25.951  29.388  1.00  0.00    -0.206 F 
ATOM     82  C   UNL A   1      40.778  26.080  26.124  1.00  0.00     0.006 A 
ENDBRANCH  61  75
BRANCH  62  83
ATOM     83  C   UNL A   1      39.747  33.200  36.702  1.00  0.00     0.057 A 
ATOM     84  C   UNL A   1      40.492  34.370  36.894  1.00  0.00     0.134 A 
ATOM     85  C   UNL A   1      38.832  32.844  37.698  1.00  0.00     0.134 A 
ATOM     86  F   UNL A   1      41.390  34.760  35.978  1.00  0.00    -0.206 F 
ATOM     87  C   UNL A   1      40.329  35.158  38.033  1.00  0.00     0.040 A 
ATOM     88  C   UNL A   1      38.638  33.639  38.828  1.00  0.00     0.040 A 
ATOM     89  F   UNL A   1      38.077  31.743  37.560  1.00  0.00    -0.206 F 
ATOM     90  C   UNL A   1      39.391  34.799  38.998  1.00  0.00     0.006 A 
ENDBRANCH  62  83
BRANCH  74  91
ATOM     91  C   UNL A   1      44.136  28.145  34.854  1.00  0.00     0.057 A 
ATOM     92  C   UNL A   1      45.428  28.681  34.786  1.00  0.00     0.134 A 
ATOM     93  C   UNL A   1      43.958  26.990  35.628  1.00  0.00     0.134 A 
ATOM     94  F   UNL A   1      45.672  29.782  34.059  1.00  0.00    -0.206 F 
ATOM     95  C   UNL A   1      46.499  28.097  35.464  1.00  0.00     0.040 A 
ATOM     96  C   UNL A   1      45.014  26.414  36.335  1.00  0.00     0.040 A 
ATOM     97  F   UNL A   1      42.743  26.434  35.751  1.00  0.00    -0.206 F 
ATOM     98  C   UNL A   1      46.291  26.965  36.251  1.00  0.00     0.006 A 
ENDBRANCH  74  91
ENDBRANCH  48  49
ENDBRANCH  41  43
ENDBRANCH  40  41
ENDBRANCH  39  40
ENDBRANCH  38  39
ENDBRANCH  37  38
ENDBRANCH   1  37
TORSDOF 18
ENDMDL
