MODEL 1
REMARK VINA RESULT:     -11.1      0.000      0.000
REMARK SMILES Cc1cc(Cl)c(C)c2c1O[C@H](C(F)(F)F)C(C(=O)OCCOCCOCCOC(=O)c1ccc(-c3c4nc(c(-c5c(F)cccc5F)c5ccc([nH]5)c(-c5c(F)cccc5F)c5nc(c(-c6c(F)cccc6F)c6ccc3[nH]6)C=C5)C=C4)cc1)=C2
REMARK SMILES IDX 24 1 23 2 22 3 21 4 20 5 19 6 17 7 18 8 16 9 1 10 2 11 3 12
REMARK SMILES IDX 9 13 4 14 8 15 10 16 5 17 6 18 85 19 11 20 7 21 12 22 13 23
REMARK SMILES IDX 14 24 15 25 25 26 26 27 27 28 28 29 29 30 30 31 31 32 32 33
REMARK SMILES IDX 84 34 33 35 83 36 34 37 35 38 36 39 77 40 37 41 82 42 76 43
REMARK SMILES IDX 78 44 38 45 81 46 75 47 74 48 39 50 65 51 48 52 64 53 49 54
REMARK SMILES IDX 52 55 63 56 79 57 50 58 51 59 62 61 80 62 53 63 40 64 41 65
REMARK SMILES IDX 46 66 42 67 43 68 45 69 47 70 44 71 66 72 67 73 72 74 68 75
REMARK SMILES IDX 69 76 71 77 73 78 70 79 54 80 55 81 60 82 56 83 57 84 59 85
REMARK SMILES IDX 61 86 58 87
REMARK H PARENT 78 49 52 60
REMARK Flexibility Score: inf
ROOT
ATOM      1  C   UNL A   1      40.423  19.770  25.953  1.00  0.00     0.188 C 
ENDROOT
BRANCH   1   2
ATOM      2  C   UNL A   1      40.139  21.062  26.748  1.00  0.00     0.188 C 
BRANCH   2   3
ATOM      3  O   UNL A   1      39.534  22.178  26.119  1.00  0.00    -0.376 OA
BRANCH   3   4
ATOM      4  C   UNL A   1      38.163  22.148  25.754  1.00  0.00     0.202 C 
BRANCH   4   5
ATOM      5  C   UNL A   1      37.292  23.415  25.771  1.00  0.00     0.261 C 
BRANCH   5   6
ATOM      6  O   UNL A   1      36.100  23.351  24.975  1.00  0.00    -0.460 OA
BRANCH   6   7
ATOM      7  C   UNL A   1      34.939  23.496  25.658  1.00  0.00     0.338 C 
ATOM      8  O   UNL A   1      34.628  22.947  26.700  1.00  0.00    -0.246 OA
BRANCH   7   9
ATOM      9  C   UNL A   1      34.127  24.559  25.031  1.00  0.00     0.087 C 
ATOM     10  C   UNL A   1      30.627  27.114  22.375  1.00  0.00     0.048 C 
ATOM     11  C   UNL A   1      31.498  27.435  23.556  1.00  0.00    -0.007 A 
ATOM     12  C   UNL A   1      31.317  28.631  24.254  1.00  0.00     0.028 A 
ATOM     13  C   UNL A   1      32.459  26.522  24.013  1.00  0.00     0.131 A 
ATOM     14  C   UNL A   1      32.102  28.936  25.371  1.00  0.00     0.045 A 
ATOM     15  C   UNL A   1      33.215  26.791  25.168  1.00  0.00     0.022 A 
ATOM     16  O   UNL A   1      32.597  25.385  23.263  1.00  0.00    -0.475 OA
ATOM     17  Cl  UNL A   1      31.785  30.451  26.144  1.00  0.00    -0.084 Cl
ATOM     18  C   UNL A   1      33.073  28.033  25.840  1.00  0.00    -0.021 A 
ATOM     19  C   UNL A   1      34.073  25.727  25.685  1.00  0.00     0.027 C 
ATOM     20  C   UNL A   1      33.426  24.294  23.733  1.00  0.00     0.316 C 
ATOM     21  C   UNL A   1      33.945  28.361  27.029  1.00  0.00     0.047 C 
BRANCH  20  22
ATOM     22  C   UNL A   1      32.560  23.028  23.774  1.00  0.00     0.430 C 
ATOM     23  F   UNL A   1      32.009  22.851  24.999  1.00  0.00    -0.167 F 
ATOM     24  F   UNL A   1      31.534  23.089  22.893  1.00  0.00    -0.167 F 
ATOM     25  F   UNL A   1      33.276  21.918  23.485  1.00  0.00    -0.167 F 
ENDBRANCH  20  22
ENDBRANCH   7   9
ENDBRANCH   6   7
ENDBRANCH   5   6
ENDBRANCH   4   5
ENDBRANCH   3   4
ENDBRANCH   2   3
ENDBRANCH   1   2
BRANCH   1  26
ATOM     26  O   UNL A   1      41.741  19.577  25.508  1.00  0.00    -0.376 OA
BRANCH  26  27
ATOM     27  C   UNL A   1      42.803  20.343  26.052  1.00  0.00     0.202 C 
BRANCH  27  28
ATOM     28  C   UNL A   1      43.490  21.559  25.392  1.00  0.00     0.261 C 
BRANCH  28  29
ATOM     29  O   UNL A   1      42.764  22.785  25.289  1.00  0.00    -0.460 OA
BRANCH  29  30
ATOM     30  C   UNL A   1      43.512  23.916  25.276  1.00  0.00     0.338 C 
ATOM     31  O   UNL A   1      44.443  24.181  24.540  1.00  0.00    -0.246 OA
BRANCH  30  32
ATOM     32  C   UNL A   1      42.889  24.895  26.188  1.00  0.00     0.060 A 
ATOM     33  C   UNL A   1      43.342  26.222  26.164  1.00  0.00     0.016 A 
ATOM     34  C   UNL A   1      41.883  24.503  27.071  1.00  0.00     0.016 A 
ATOM     35  C   UNL A   1      42.800  27.161  27.040  1.00  0.00     0.010 A 
ATOM     36  C   UNL A   1      41.362  25.438  27.970  1.00  0.00     0.010 A 
ATOM     37  C   UNL A   1      41.836  26.763  27.976  1.00  0.00    -0.014 A 
BRANCH  37  38
ATOM     38  C   UNL A   1      41.461  27.673  29.083  1.00  0.00     0.031 A 
ATOM     39  C   UNL A   1      42.235  27.586  30.369  1.00  0.00     0.074 A 
ATOM     40  C   UNL A   1      40.464  28.564  28.952  1.00  0.00     0.049 A 
ATOM     41  N   UNL A   1      42.034  28.205  31.502  1.00  0.00    -0.248 NA
ATOM     42  C   UNL A   1      43.398  26.683  30.371  1.00  0.00     0.031 C 
ATOM     43  C   UNL A   1      39.686  28.791  27.737  1.00  0.00     0.029 A 
ATOM     44  N   UNL A   1      39.931  29.439  29.865  1.00  0.00    -0.354 N 
ATOM     45  C   UNL A   1      43.041  27.766  32.353  1.00  0.00     0.074 A 
ATOM     46  C   UNL A   1      43.835  26.809  31.615  1.00  0.00     0.031 C 
ATOM     47  C   UNL A   1      38.762  29.737  27.985  1.00  0.00     0.029 A 
ATOM     48  C   UNL A   1      38.859  30.149  29.385  1.00  0.00     0.049 A 
ATOM     49  H   UNL A   1      40.285  29.547  30.778  1.00  0.00     0.167 HD
ATOM     50  C   UNL A   1      43.284  28.133  33.632  1.00  0.00     0.037 A 
ATOM     51  C   UNL A   1      38.034  31.009  30.015  1.00  0.00     0.037 A 
ATOM     52  C   UNL A   1      42.483  29.073  34.370  1.00  0.00     0.049 A 
ATOM     53  C   UNL A   1      38.256  31.317  31.474  1.00  0.00     0.074 A 
ATOM     54  C   UNL A   1      42.639  29.496  35.678  1.00  0.00     0.029 A 
ATOM     55  N   UNL A   1      41.371  29.731  33.865  1.00  0.00    -0.354 N 
ATOM     56  N   UNL A   1      39.200  30.889  32.277  1.00  0.00    -0.248 NA
ATOM     57  C   UNL A   1      37.294  32.227  32.115  1.00  0.00     0.031 C 
ATOM     58  C   UNL A   1      41.592  30.371  35.981  1.00  0.00     0.029 A 
ATOM     59  C   UNL A   1      40.819  30.541  34.844  1.00  0.00     0.049 A 
ATOM     60  H   UNL A   1      41.026  29.637  32.948  1.00  0.00     0.167 HD
ATOM     61  C   UNL A   1      38.965  31.498  33.505  1.00  0.00     0.074 A 
ATOM     62  C   UNL A   1      37.796  32.335  33.338  1.00  0.00     0.031 C 
ATOM     63  C   UNL A   1      39.659  31.377  34.664  1.00  0.00     0.037 A 
BRANCH  50  64
ATOM     64  C   UNL A   1      44.454  27.500  34.327  1.00  0.00     0.057 A 
ATOM     65  C   UNL A   1      44.330  26.293  35.027  1.00  0.00     0.134 A 
ATOM     66  C   UNL A   1      45.728  28.076  34.249  1.00  0.00     0.134 A 
ATOM     67  F   UNL A   1      43.134  25.700  35.155  1.00  0.00    -0.206 F 
ATOM     68  C   UNL A   1      45.432  25.688  35.634  1.00  0.00     0.040 A 
ATOM     69  C   UNL A   1      46.841  27.466  34.828  1.00  0.00     0.040 A 
ATOM     70  F   UNL A   1      45.915  29.232  33.593  1.00  0.00    -0.206 F 
ATOM     71  C   UNL A   1      46.693  26.269  35.525  1.00  0.00     0.006 A 
ENDBRANCH  50  64
BRANCH  51  72
ATOM     72  C   UNL A   1      36.912  31.639  29.273  1.00  0.00     0.057 A 
ATOM     73  C   UNL A   1      35.710  30.952  29.061  1.00  0.00     0.134 A 
ATOM     74  C   UNL A   1      37.013  32.935  28.751  1.00  0.00     0.134 A 
ATOM     75  F   UNL A   1      35.562  29.698  29.511  1.00  0.00    -0.206 F 
ATOM     76  C   UNL A   1      34.653  31.528  28.353  1.00  0.00     0.040 A 
ATOM     77  C   UNL A   1      35.955  33.532  28.064  1.00  0.00     0.040 A 
ATOM     78  F   UNL A   1      38.139  33.644  28.914  1.00  0.00    -0.206 F 
ATOM     79  C   UNL A   1      34.771  32.826  27.859  1.00  0.00     0.006 A 
ENDBRANCH  51  72
BRANCH  63  80
ATOM     80  C   UNL A   1      39.201  32.192  35.841  1.00  0.00     0.057 A 
ATOM     81  C   UNL A   1      39.639  33.505  36.050  1.00  0.00     0.134 A 
ATOM     82  C   UNL A   1      38.256  31.677  36.739  1.00  0.00     0.134 A 
ATOM     83  F   UNL A   1      40.548  34.058  35.231  1.00  0.00    -0.206 F 
ATOM     84  C   UNL A   1      39.169  34.270  37.119  1.00  0.00     0.040 A 
ATOM     85  C   UNL A   1      37.757  32.442  37.794  1.00  0.00     0.040 A 
ATOM     86  F   UNL A   1      37.783  30.430  36.591  1.00  0.00    -0.206 F 
ATOM     87  C   UNL A   1      38.219  33.741  37.990  1.00  0.00     0.006 A 
ENDBRANCH  63  80
ENDBRANCH  37  38
ENDBRANCH  30  32
ENDBRANCH  29  30
ENDBRANCH  28  29
ENDBRANCH  27  28
ENDBRANCH  26  27
ENDBRANCH   1  26
TORSDOF 18
ENDMDL
MODEL 2
REMARK VINA RESULT:     -11.1      0.567      1.690
REMARK SMILES Cc1cc(Cl)c(C)c2c1O[C@H](C(F)(F)F)C(C(=O)OCCOCCOCCOC(=O)c1ccc(-c3c4nc(c(-c5c(F)cccc5F)c5ccc([nH]5)c(-c5c(F)cccc5F)c5nc(c(-c6c(F)cccc6F)c6ccc3[nH]6)C=C5)C=C4)cc1)=C2
REMARK SMILES IDX 24 1 23 2 22 3 21 4 20 5 19 6 17 7 18 8 16 9 1 10 2 11 3 12
REMARK SMILES IDX 9 13 4 14 8 15 10 16 5 17 6 18 85 19 11 20 7 21 12 22 13 23
REMARK SMILES IDX 14 24 15 25 25 26 26 27 27 28 28 29 29 30 30 31 31 32 32 33
REMARK SMILES IDX 84 34 33 35 83 36 34 37 35 38 36 39 77 40 37 41 82 42 76 43
REMARK SMILES IDX 78 44 38 45 81 46 75 47 74 48 39 50 65 51 48 52 64 53 49 54
REMARK SMILES IDX 52 55 63 56 79 57 50 58 51 59 62 61 80 62 53 63 40 64 41 65
REMARK SMILES IDX 46 66 42 67 43 68 45 69 47 70 44 71 66 72 67 73 72 74 68 75
REMARK SMILES IDX 69 76 71 77 73 78 70 79 54 80 55 81 60 82 56 83 57 84 59 85
REMARK SMILES IDX 61 86 58 87
REMARK H PARENT 78 49 52 60
REMARK Flexibility Score: inf
ROOT
ATOM      1  C   UNL A   1      41.063  19.862  26.314  1.00  0.00     0.188 C 
ENDROOT
BRANCH   1   2
ATOM      2  C   UNL A   1      40.595  21.321  26.495  1.00  0.00     0.188 C 
BRANCH   2   3
ATOM      3  O   UNL A   1      39.217  21.627  26.615  1.00  0.00    -0.376 OA
BRANCH   3   4
ATOM      4  C   UNL A   1      38.386  21.686  25.465  1.00  0.00     0.202 C 
BRANCH   4   5
ATOM      5  C   UNL A   1      36.858  21.809  25.574  1.00  0.00     0.261 C 
BRANCH   5   6
ATOM      6  O   UNL A   1      36.360  23.144  25.741  1.00  0.00    -0.460 OA
BRANCH   6   7
ATOM      7  C   UNL A   1      35.060  23.236  26.106  1.00  0.00     0.338 C 
ATOM      8  O   UNL A   1      34.530  22.717  27.073  1.00  0.00    -0.246 OA
BRANCH   7   9
ATOM      9  C   UNL A   1      34.369  24.205  25.230  1.00  0.00     0.087 C 
ATOM     10  C   UNL A   1      31.511  26.363  21.622  1.00  0.00     0.048 C 
ATOM     11  C   UNL A   1      32.025  26.800  22.964  1.00  0.00    -0.007 A 
ATOM     12  C   UNL A   1      31.592  28.006  23.520  1.00  0.00     0.028 A 
ATOM     13  C   UNL A   1      32.894  25.985  23.705  1.00  0.00     0.131 A 
ATOM     14  C   UNL A   1      32.040  28.418  24.779  1.00  0.00     0.045 A 
ATOM     15  C   UNL A   1      33.307  26.362  24.995  1.00  0.00     0.022 A 
ATOM     16  O   UNL A   1      33.295  24.833  23.085  1.00  0.00    -0.475 OA
ATOM     17  Cl  UNL A   1      31.436  29.934  25.353  1.00  0.00    -0.084 Cl
ATOM     18  C   UNL A   1      32.915  27.615  25.534  1.00  0.00    -0.021 A 
ATOM     19  C   UNL A   1      34.071  25.391  25.777  1.00  0.00     0.027 C 
ATOM     20  C   UNL A   1      34.045  23.832  23.815  1.00  0.00     0.316 C 
ATOM     21  C   UNL A   1      33.427  28.060  26.883  1.00  0.00     0.047 C 
BRANCH  20  22
ATOM     22  C   UNL A   1      33.283  22.503  23.711  1.00  0.00     0.430 C 
ATOM     23  F   UNL A   1      34.119  21.447  23.851  1.00  0.00    -0.167 F 
ATOM     24  F   UNL A   1      32.343  22.383  24.678  1.00  0.00    -0.167 F 
ATOM     25  F   UNL A   1      32.657  22.373  22.520  1.00  0.00    -0.167 F 
ENDBRANCH  20  22
ENDBRANCH   7   9
ENDBRANCH   6   7
ENDBRANCH   5   6
ENDBRANCH   4   5
ENDBRANCH   3   4
ENDBRANCH   2   3
ENDBRANCH   1   2
BRANCH   1  26
ATOM     26  O   UNL A   1      42.061  19.632  25.354  1.00  0.00    -0.376 OA
BRANCH  26  27
ATOM     27  C   UNL A   1      43.419  19.920  25.644  1.00  0.00     0.202 C 
BRANCH  27  28
ATOM     28  C   UNL A   1      44.145  21.261  25.402  1.00  0.00     0.261 C 
BRANCH  28  29
ATOM     29  O   UNL A   1      43.787  22.390  26.201  1.00  0.00    -0.460 OA
BRANCH  29  30
ATOM     30  C   UNL A   1      43.868  23.598  25.590  1.00  0.00     0.338 C 
ATOM     31  O   UNL A   1      44.263  23.834  24.464  1.00  0.00    -0.246 OA
BRANCH  30  32
ATOM     32  C   UNL A   1      43.206  24.598  26.450  1.00  0.00     0.060 A 
ATOM     33  C   UNL A   1      43.675  25.919  26.431  1.00  0.00     0.016 A 
ATOM     34  C   UNL A   1      42.148  24.232  27.281  1.00  0.00     0.016 A 
ATOM     35  C   UNL A   1      43.096  26.878  27.260  1.00  0.00     0.010 A 
ATOM     36  C   UNL A   1      41.588  25.187  28.134  1.00  0.00     0.010 A 
ATOM     37  C   UNL A   1      42.076  26.506  28.146  1.00  0.00    -0.014 A 
BRANCH  37  38
ATOM     38  C   UNL A   1      41.650  27.438  29.216  1.00  0.00     0.031 A 
ATOM     39  C   UNL A   1      42.388  27.403  30.525  1.00  0.00     0.074 A 
ATOM     40  C   UNL A   1      40.640  28.303  29.030  1.00  0.00     0.049 A 
ATOM     41  N   UNL A   1      42.140  28.048  31.635  1.00  0.00    -0.248 NA
ATOM     42  C   UNL A   1      43.568  26.525  30.587  1.00  0.00     0.031 C 
ATOM     43  C   UNL A   1      39.893  28.481  27.788  1.00  0.00     0.029 A 
ATOM     44  N   UNL A   1      40.063  29.192  29.903  1.00  0.00    -0.354 N 
ATOM     45  C   UNL A   1      43.130  27.654  32.527  1.00  0.00     0.074 A 
ATOM     46  C   UNL A   1      43.965  26.694  31.839  1.00  0.00     0.031 C 
ATOM     47  C   UNL A   1      38.944  29.414  27.982  1.00  0.00     0.029 A 
ATOM     48  C   UNL A   1      38.990  29.866  29.373  1.00  0.00     0.049 A 
ATOM     49  H   UNL A   1      40.386  29.333  30.823  1.00  0.00     0.167 HD
ATOM     50  C   UNL A   1      43.328  28.062  33.801  1.00  0.00     0.037 A 
ATOM     51  C   UNL A   1      38.130  30.725  29.954  1.00  0.00     0.037 A 
ATOM     52  C   UNL A   1      42.486  29.004  34.488  1.00  0.00     0.049 A 
ATOM     53  C   UNL A   1      38.302  31.078  31.409  1.00  0.00     0.074 A 
ATOM     54  C   UNL A   1      42.595  29.466  35.788  1.00  0.00     0.029 A 
ATOM     55  N   UNL A   1      41.377  29.624  33.934  1.00  0.00    -0.354 N 
ATOM     56  N   UNL A   1      39.231  30.692  32.251  1.00  0.00    -0.248 NA
ATOM     57  C   UNL A   1      37.303  31.984  31.997  1.00  0.00     0.031 C 
ATOM     58  C   UNL A   1      41.522  30.327  36.036  1.00  0.00     0.029 A 
ATOM     59  C   UNL A   1      40.779  30.449  34.873  1.00  0.00     0.049 A 
ATOM     60  H   UNL A   1      41.061  29.498  33.010  1.00  0.00     0.167 HD
ATOM     61  C   UNL A   1      38.947  31.329  33.454  1.00  0.00     0.074 A 
ATOM     62  C   UNL A   1      37.767  32.136  33.230  1.00  0.00     0.031 C 
ATOM     63  C   UNL A   1      39.608  31.254  34.636  1.00  0.00     0.037 A 
BRANCH  50  64
ATOM     64  C   UNL A   1      44.489  27.472  34.547  1.00  0.00     0.057 A 
ATOM     65  C   UNL A   1      45.743  28.098  34.573  1.00  0.00     0.134 A 
ATOM     66  C   UNL A   1      44.337  26.295  35.290  1.00  0.00     0.134 A 
ATOM     67  F   UNL A   1      45.959  29.217  33.868  1.00  0.00    -0.206 F 
ATOM     68  C   UNL A   1      46.806  27.566  35.305  1.00  0.00     0.040 A 
ATOM     69  C   UNL A   1      45.385  25.770  36.047  1.00  0.00     0.040 A 
ATOM     70  F   UNL A   1      43.162  25.646  35.308  1.00  0.00    -0.206 F 
ATOM     71  C   UNL A   1      46.625  26.406  36.053  1.00  0.00     0.006 A 
ENDBRANCH  50  64
BRANCH  51  72
ATOM     72  C   UNL A   1      37.017  31.310  29.162  1.00  0.00     0.057 A 
ATOM     73  C   UNL A   1      37.064  32.638  28.721  1.00  0.00     0.134 A 
ATOM     74  C   UNL A   1      35.879  30.562  28.834  1.00  0.00     0.134 A 
ATOM     75  F   UNL A   1      38.113  33.413  29.028  1.00  0.00    -0.206 F 
ATOM     76  C   UNL A   1      36.018  33.203  27.988  1.00  0.00     0.040 A 
ATOM     77  C   UNL A   1      34.838  31.107  28.080  1.00  0.00     0.040 A 
ATOM     78  F   UNL A   1      35.769  29.287  29.230  1.00  0.00    -0.206 F 
ATOM     79  C   UNL A   1      34.904  32.433  27.658  1.00  0.00     0.006 A 
ENDBRANCH  51  72
BRANCH  63  80
ATOM     80  C   UNL A   1      39.099  32.092  35.776  1.00  0.00     0.057 A 
ATOM     81  C   UNL A   1      38.237  31.574  36.750  1.00  0.00     0.134 A 
ATOM     82  C   UNL A   1      39.535  33.415  35.937  1.00  0.00     0.134 A 
ATOM     83  F   UNL A   1      37.777  30.317  36.653  1.00  0.00    -0.206 F 
ATOM     84  C   UNL A   1      37.810  32.347  37.832  1.00  0.00     0.040 A 
ATOM     85  C   UNL A   1      39.138  34.187  37.030  1.00  0.00     0.040 A 
ATOM     86  F   UNL A   1      40.372  33.970  35.048  1.00  0.00    -0.206 F 
ATOM     87  C   UNL A   1      38.268  33.655  37.978  1.00  0.00     0.006 A 
ENDBRANCH  63  80
ENDBRANCH  37  38
ENDBRANCH  30  32
ENDBRANCH  29  30
ENDBRANCH  28  29
ENDBRANCH  27  28
ENDBRANCH  26  27
ENDBRANCH   1  26
TORSDOF 18
ENDMDL
MODEL 3
REMARK VINA RESULT:     -10.9      0.696      5.985
REMARK SMILES Cc1cc(Cl)c(C)c2c1O[C@H](C(F)(F)F)C(C(=O)OCCOCCOCCOC(=O)c1ccc(-c3c4nc(c(-c5c(F)cccc5F)c5ccc([nH]5)c(-c5c(F)cccc5F)c5nc(c(-c6c(F)cccc6F)c6ccc3[nH]6)C=C5)C=C4)cc1)=C2
REMARK SMILES IDX 24 1 23 2 22 3 21 4 20 5 19 6 17 7 18 8 16 9 1 10 2 11 3 12
REMARK SMILES IDX 9 13 4 14 8 15 10 16 5 17 6 18 85 19 11 20 7 21 12 22 13 23
REMARK SMILES IDX 14 24 15 25 25 26 26 27 27 28 28 29 29 30 30 31 31 32 32 33
REMARK SMILES IDX 84 34 33 35 83 36 34 37 35 38 36 39 77 40 37 41 82 42 76 43
REMARK SMILES IDX 78 44 38 45 81 46 75 47 74 48 39 50 65 51 48 52 64 53 49 54
REMARK SMILES IDX 52 55 63 56 79 57 50 58 51 59 62 61 80 62 53 63 40 64 41 65
REMARK SMILES IDX 46 66 42 67 43 68 45 69 47 70 44 71 66 72 67 73 72 74 68 75
REMARK SMILES IDX 69 76 71 77 73 78 70 79 54 80 55 81 60 82 56 83 57 84 59 85
REMARK SMILES IDX 61 86 58 87
REMARK H PARENT 78 49 52 60
REMARK Flexibility Score: inf
ROOT
ATOM      1  C   UNL A   1      41.049  20.523  26.504  1.00  0.00     0.188 C 
ENDROOT
BRANCH   1   2
ATOM      2  C   UNL A   1      40.428  21.842  27.009  1.00  0.00     0.188 C 
BRANCH   2   3
ATOM      3  O   UNL A   1      39.290  22.394  26.372  1.00  0.00    -0.376 OA
BRANCH   3   4
ATOM      4  C   UNL A   1      38.424  21.576  25.600  1.00  0.00     0.202 C 
BRANCH   4   5
ATOM      5  C   UNL A   1      36.898  21.753  25.632  1.00  0.00     0.261 C 
BRANCH   5   6
ATOM      6  O   UNL A   1      36.434  23.105  25.516  1.00  0.00    -0.460 OA
BRANCH   6   7
ATOM      7  C   UNL A   1      35.201  23.341  26.024  1.00  0.00     0.338 C 
ATOM      8  O   UNL A   1      34.756  22.937  27.085  1.00  0.00    -0.246 OA
BRANCH   7   9
ATOM      9  C   UNL A   1      34.490  24.310  25.165  1.00  0.00     0.087 C 
ATOM     10  C   UNL A   1      31.511  26.467  21.656  1.00  0.00     0.048 C 
ATOM     11  C   UNL A   1      32.095  26.915  22.967  1.00  0.00    -0.007 A 
ATOM     12  C   UNL A   1      31.710  28.138  23.521  1.00  0.00     0.028 A 
ATOM     13  C   UNL A   1      32.981  26.095  23.680  1.00  0.00     0.131 A 
ATOM     14  C   UNL A   1      32.223  28.560  24.752  1.00  0.00     0.045 A 
ATOM     15  C   UNL A   1      33.459  26.483  24.944  1.00  0.00     0.022 A 
ATOM     16  O   UNL A   1      33.331  24.926  23.062  1.00  0.00    -0.475 OA
ATOM     17  Cl  UNL A   1      31.675  30.097  25.328  1.00  0.00    -0.084 Cl
ATOM     18  C   UNL A   1      33.116  27.752  25.479  1.00  0.00    -0.021 A 
ATOM     19  C   UNL A   1      34.239  25.510  25.706  1.00  0.00     0.027 C 
ATOM     20  C   UNL A   1      34.094  23.921  23.773  1.00  0.00     0.316 C 
ATOM     21  C   UNL A   1      33.698  28.208  26.796  1.00  0.00     0.047 C 
BRANCH  20  22
ATOM     22  C   UNL A   1      33.303  22.606  23.726  1.00  0.00     0.430 C 
ATOM     23  F   UNL A   1      32.386  22.551  24.721  1.00  0.00    -0.167 F 
ATOM     24  F   UNL A   1      32.622  22.469  22.564  1.00  0.00    -0.167 F 
ATOM     25  F   UNL A   1      34.109  21.528  23.853  1.00  0.00    -0.167 F 
ENDBRANCH  20  22
ENDBRANCH   7   9
ENDBRANCH   6   7
ENDBRANCH   5   6
ENDBRANCH   4   5
ENDBRANCH   3   4
ENDBRANCH   2   3
ENDBRANCH   1   2
BRANCH   1  26
ATOM     26  O   UNL A   1      42.176  20.629  25.673  1.00  0.00    -0.376 OA
BRANCH  26  27
ATOM     27  C   UNL A   1      43.064  21.727  25.803  1.00  0.00     0.202 C 
BRANCH  27  28
ATOM     28  C   UNL A   1      43.602  22.613  24.658  1.00  0.00     0.261 C 
BRANCH  28  29
ATOM     29  O   UNL A   1      43.228  23.991  24.623  1.00  0.00    -0.460 OA
BRANCH  29  30
ATOM     30  C   UNL A   1      44.119  24.861  25.162  1.00  0.00     0.338 C 
ATOM     31  O   UNL A   1      45.249  25.097  24.780  1.00  0.00    -0.246 OA
BRANCH  30  32
ATOM     32  C   UNL A   1      43.427  25.648  26.202  1.00  0.00     0.060 A 
ATOM     33  C   UNL A   1      43.839  26.968  26.433  1.00  0.00     0.016 A 
ATOM     34  C   UNL A   1      42.398  25.082  26.955  1.00  0.00     0.016 A 
ATOM     35  C   UNL A   1      43.231  27.724  27.434  1.00  0.00     0.010 A 
ATOM     36  C   UNL A   1      41.811  25.831  27.978  1.00  0.00     0.010 A 
ATOM     37  C   UNL A   1      42.242  27.144  28.239  1.00  0.00    -0.014 A 
BRANCH  37  38
ATOM     38  C   UNL A   1      41.793  27.835  29.470  1.00  0.00     0.031 A 
ATOM     39  C   UNL A   1      40.600  28.745  29.381  1.00  0.00     0.074 A 
ATOM     40  C   UNL A   1      42.420  27.653  30.645  1.00  0.00     0.049 A 
ATOM     41  N   UNL A   1      40.082  29.526  30.292  1.00  0.00    -0.248 NA
ATOM     42  C   UNL A   1      39.894  28.771  28.090  1.00  0.00     0.031 C 
ATOM     43  C   UNL A   1      43.543  26.748  30.875  1.00  0.00     0.029 A 
ATOM     44  N   UNL A   1      42.200  28.238  31.867  1.00  0.00    -0.354 N 
ATOM     45  C   UNL A   1      38.991  30.137  29.686  1.00  0.00     0.074 A 
ATOM     46  C   UNL A   1      38.938  29.658  28.322  1.00  0.00     0.031 C 
ATOM     47  C   UNL A   1      43.924  26.848  32.161  1.00  0.00     0.029 A 
ATOM     48  C   UNL A   1      43.099  27.854  32.831  1.00  0.00     0.049 A 
ATOM     49  H   UNL A   1      41.466  28.873  32.036  1.00  0.00     0.167 HD
ATOM     50  C   UNL A   1      38.110  31.013  30.221  1.00  0.00     0.037 A 
ATOM     51  C   UNL A   1      43.255  28.288  34.097  1.00  0.00     0.037 A 
ATOM     52  C   UNL A   1      38.174  31.501  31.573  1.00  0.00     0.049 A 
ATOM     53  C   UNL A   1      42.331  29.350  34.636  1.00  0.00     0.074 A 
ATOM     54  C   UNL A   1      37.337  32.405  32.201  1.00  0.00     0.029 A 
ATOM     55  N   UNL A   1      39.134  31.129  32.502  1.00  0.00    -0.354 N 
ATOM     56  N   UNL A   1      41.312  29.935  34.054  1.00  0.00    -0.248 NA
ATOM     57  C   UNL A   1      42.583  29.816  36.009  1.00  0.00     0.031 C 
ATOM     58  C   UNL A   1      37.820  32.619  33.496  1.00  0.00     0.029 A 
ATOM     59  C   UNL A   1      38.921  31.803  33.694  1.00  0.00     0.049 A 
ATOM     60  H   UNL A   1      39.857  30.482  32.340  1.00  0.00     0.167 HD
ATOM     61  C   UNL A   1      40.783  30.811  34.996  1.00  0.00     0.074 A 
ATOM     62  C   UNL A   1      41.588  30.673  36.192  1.00  0.00     0.031 C 
ATOM     63  C   UNL A   1      39.724  31.651  34.881  1.00  0.00     0.037 A 
BRANCH  50  64
ATOM     64  C   UNL A   1      37.011  31.522  29.335  1.00  0.00     0.057 A 
ATOM     65  C   UNL A   1      35.865  30.760  29.071  1.00  0.00     0.134 A 
ATOM     66  C   UNL A   1      37.075  32.807  28.783  1.00  0.00     0.134 A 
ATOM     67  F   UNL A   1      35.750  29.514  29.554  1.00  0.00    -0.206 F 
ATOM     68  C   UNL A   1      34.827  31.257  28.282  1.00  0.00     0.040 A 
ATOM     69  C   UNL A   1      36.032  33.324  28.015  1.00  0.00     0.040 A 
ATOM     70  F   UNL A   1      38.145  33.589  28.997  1.00  0.00    -0.206 F 
ATOM     71  C   UNL A   1      34.904  32.547  27.761  1.00  0.00     0.006 A 
ENDBRANCH  50  64
BRANCH  51  72
ATOM     72  C   UNL A   1      44.337  27.727  34.946  1.00  0.00     0.057 A 
ATOM     73  C   UNL A   1      44.128  26.576  35.715  1.00  0.00     0.134 A 
ATOM     74  C   UNL A   1      45.600  28.328  35.016  1.00  0.00     0.134 A 
ATOM     75  F   UNL A   1      42.932  25.972  35.712  1.00  0.00    -0.206 F 
ATOM     76  C   UNL A   1      45.133  26.046  36.528  1.00  0.00     0.040 A 
ATOM     77  C   UNL A   1      46.622  27.795  35.805  1.00  0.00     0.040 A 
ATOM     78  F   UNL A   1      45.864  29.436  34.309  1.00  0.00    -0.206 F 
ATOM     79  C   UNL A   1      46.387  26.653  36.568  1.00  0.00     0.006 A 
ENDBRANCH  51  72
BRANCH  63  80
ATOM     80  C   UNL A   1      39.343  32.465  36.086  1.00  0.00     0.057 A 
ATOM     81  C   UNL A   1      39.844  33.755  36.298  1.00  0.00     0.134 A 
ATOM     82  C   UNL A   1      38.409  31.975  37.009  1.00  0.00     0.134 A 
ATOM     83  F   UNL A   1      40.746  34.282  35.456  1.00  0.00    -0.206 F 
ATOM     84  C   UNL A   1      39.444  34.522  37.395  1.00  0.00     0.040 A 
ATOM     85  C   UNL A   1      37.980  32.743  38.092  1.00  0.00     0.040 A 
ATOM     86  F   UNL A   1      37.879  30.752  36.859  1.00  0.00    -0.206 F 
ATOM     87  C   UNL A   1      38.503  34.018  38.291  1.00  0.00     0.006 A 
ENDBRANCH  63  80
ENDBRANCH  37  38
ENDBRANCH  30  32
ENDBRANCH  29  30
ENDBRANCH  28  29
ENDBRANCH  27  28
ENDBRANCH  26  27
ENDBRANCH   1  26
TORSDOF 18
ENDMDL
