MODEL 1
REMARK VINA RESULT:     -12.3      0.000      0.000
REMARK SMILES O=C(COc1ccccc1/C=N/N1[C@@H](S)N=N[C@H]1[C@@H]1C=C(c2ccccc2)N=N1)OCCOCCOCCOC(=O)c1ccc(-c2c3nc(c(-c4c(F)cccc4F)c4ccc([nH]4)c(-c4c(F)cccc4F)c4nc(c(-c5c(F)cccc5F)c5ccc2[nH]5)C=C4)C=C3)cc1
REMARK SMILES IDX 32 1 31 2 30 3 2 4 1 5 3 6 4 7 5 8 6 9 10 10 7 11 9 12 8 13
REMARK SMILES IDX 11 14 12 15 13 16 14 17 18 18 16 19 17 20 15 21 19 23 20 24
REMARK SMILES IDX 29 25 21 26 28 27 22 28 23 29 27 30 24 31 26 32 25 33 33 34
REMARK SMILES IDX 34 35 35 36 36 37 37 38 38 39 39 40 40 41 41 42 42 43 43 44
REMARK SMILES IDX 95 45 44 46 94 47 45 48 46 49 47 50 88 51 48 52 93 53 87 54
REMARK SMILES IDX 89 55 49 56 92 57 86 58 85 59 50 61 76 62 59 63 75 64 60 65
REMARK SMILES IDX 63 66 74 67 90 68 61 69 62 70 73 72 91 73 64 74 51 75 52 76
REMARK SMILES IDX 57 77 53 78 54 79 56 80 58 81 55 82 77 83 78 84 83 85 79 86
REMARK SMILES IDX 80 87 82 88 84 89 81 90 65 91 66 92 71 93 67 94 68 95 70 96
REMARK SMILES IDX 72 97 69 98
REMARK H PARENT 15 22 89 60 63 71
REMARK Flexibility Score: inf
ROOT
ATOM      1  C   UNL A   1      31.833  29.184  26.217  1.00  0.00     0.202 C 
ENDROOT
BRANCH   1   2
ATOM      2  C   UNL A   1      32.044  27.654  26.937  1.00  0.00     0.261 C 
BRANCH   2   3
ATOM      3  O   UNL A   1      32.734  26.481  26.289  1.00  0.00    -0.461 OA
BRANCH   3   4
ATOM      4  C   UNL A   1      32.455  25.132  26.430  1.00  0.00     0.344 C 
ATOM      5  O   UNL A   1      31.396  24.799  26.948  1.00  0.00    -0.248 OA
BRANCH   4   6
ATOM      6  C   UNL A   1      33.819  24.058  26.167  1.00  0.00     0.352 C 
BRANCH   6   7
ATOM      7  O   UNL A   1      34.096  22.775  25.630  1.00  0.00    -0.481 OA
BRANCH   7   8
ATOM      8  C   UNL A   1      35.431  22.609  25.769  1.00  0.00     0.129 A 
ATOM      9  C   UNL A   1      36.139  23.806  25.779  1.00  0.00     0.047 A 
ATOM     10  C   UNL A   1      35.969  21.331  25.551  1.00  0.00     0.037 A 
ATOM     11  C   UNL A   1      37.452  23.760  25.380  1.00  0.00     0.004 A 
ATOM     12  C   UNL A   1      37.271  21.307  25.093  1.00  0.00     0.013 A 
ATOM     13  C   UNL A   1      38.002  22.522  25.011  1.00  0.00     0.001 A 
BRANCH  10  14
ATOM     14  C   UNL A   1      34.926  20.239  25.539  1.00  0.00     0.145 C 
ATOM     15  N   UNL A   1      35.107  19.066  24.997  1.00  0.00    -0.180 NA
BRANCH  15  16
ATOM     16  N   UNL A   1      33.916  18.492  24.533  1.00  0.00    -0.233 NA
ATOM     17  C   UNL A   1      34.056  17.103  24.023  1.00  0.00     0.298 C 
ATOM     18  C   UNL A   1      33.268  19.147  23.343  1.00  0.00     0.274 C 
ATOM     19  N   UNL A   1      33.264  16.949  22.788  1.00  0.00    -0.153 NA
ATOM     20  N   UNL A   1      32.790  18.052  22.435  1.00  0.00    -0.161 NA
BRANCH  17  21
ATOM     21  S   UNL A   1      33.578  15.939  25.348  1.00  0.00    -0.128 SA
ATOM     22  H   UNL A   1      34.413  14.866  25.331  1.00  0.00     0.106 HD
ENDBRANCH  17  21
BRANCH  18  23
ATOM     23  C   UNL A   1      32.046  20.254  23.389  1.00  0.00     0.202 C 
ATOM     24  C   UNL A   1      32.156  21.472  22.521  1.00  0.00     0.037 C 
ATOM     25  N   UNL A   1      31.663  20.964  24.646  1.00  0.00    -0.177 NA
ATOM     26  C   UNL A   1      31.831  22.650  23.156  1.00  0.00     0.091 C 
ATOM     27  N   UNL A   1      31.454  22.239  24.440  1.00  0.00    -0.155 NA
BRANCH  26  28
ATOM     28  C   UNL A   1      32.134  24.327  22.760  1.00  0.00     0.002 A 
ATOM     29  C   UNL A   1      31.122  25.343  22.806  1.00  0.00     0.010 A 
ATOM     30  C   UNL A   1      33.402  24.983  22.676  1.00  0.00     0.010 A 
ATOM     31  C   UNL A   1      31.349  26.748  22.958  1.00  0.00     0.001 A 
ATOM     32  C   UNL A   1      33.652  26.386  22.797  1.00  0.00     0.001 A 
ATOM     33  C   UNL A   1      32.621  27.275  22.972  1.00  0.00     0.000 A 
ENDBRANCH  26  28
ENDBRANCH  18  23
ENDBRANCH  15  16
ENDBRANCH  10  14
ENDBRANCH   7   8
ENDBRANCH   6   7
ENDBRANCH   4   6
ENDBRANCH   3   4
ENDBRANCH   2   3
ENDBRANCH   1   2
BRANCH   1  34
ATOM     34  O   UNL A   1      32.680  30.341  26.165  1.00  0.00    -0.376 OA
BRANCH  34  35
ATOM     35  C   UNL A   1      33.015  31.354  27.130  1.00  0.00     0.188 C 
BRANCH  35  36
ATOM     36  C   UNL A   1      34.349  31.524  27.848  1.00  0.00     0.188 C 
BRANCH  36  37
ATOM     37  O   UNL A   1      35.128  32.666  27.627  1.00  0.00    -0.376 OA
BRANCH  37  38
ATOM     38  C   UNL A   1      34.599  33.924  27.983  1.00  0.00     0.202 C 
BRANCH  38  39
ATOM     39  C   UNL A   1      33.714  34.081  29.226  1.00  0.00     0.261 C 
BRANCH  39  40
ATOM     40  O   UNL A   1      34.203  34.919  30.264  1.00  0.00    -0.460 OA
BRANCH  40  41
ATOM     41  C   UNL A   1      33.534  34.958  31.422  1.00  0.00     0.338 C 
ATOM     42  O   UNL A   1      32.400  35.389  31.617  1.00  0.00    -0.246 OA
BRANCH  41  43
ATOM     43  C   UNL A   1      34.420  34.391  32.456  1.00  0.00     0.060 A 
ATOM     44  C   UNL A   1      35.466  35.195  32.907  1.00  0.00     0.016 A 
ATOM     45  C   UNL A   1      34.404  33.004  32.662  1.00  0.00     0.016 A 
ATOM     46  C   UNL A   1      36.669  34.580  33.144  1.00  0.00     0.010 A 
ATOM     47  C   UNL A   1      35.605  32.391  32.878  1.00  0.00     0.010 A 
ATOM     48  C   UNL A   1      36.732  33.204  32.932  1.00  0.00    -0.014 A 
BRANCH  48  49
ATOM     49  C   UNL A   1      38.006  32.617  32.591  1.00  0.00     0.031 A 
ATOM     50  C   UNL A   1      38.937  32.600  33.725  1.00  0.00     0.074 A 
ATOM     51  C   UNL A   1      38.200  32.059  31.376  1.00  0.00     0.049 A 
ATOM     52  N   UNL A   1      39.973  33.351  33.898  1.00  0.00    -0.248 NA
ATOM     53  C   UNL A   1      38.540  31.828  34.914  1.00  0.00     0.031 C 
ATOM     54  C   UNL A   1      37.214  31.824  30.311  1.00  0.00     0.029 A 
ATOM     55  N   UNL A   1      39.329  31.492  30.871  1.00  0.00    -0.354 N 
ATOM     56  C   UNL A   1      40.488  32.951  35.123  1.00  0.00     0.074 A 
ATOM     57  C   UNL A   1      39.434  32.253  35.805  1.00  0.00     0.031 C 
ATOM     58  C   UNL A   1      37.734  30.971  29.396  1.00  0.00     0.029 A 
ATOM     59  C   UNL A   1      39.118  30.704  29.737  1.00  0.00     0.049 A 
ATOM     60  H   UNL A   1      40.219  31.626  31.270  1.00  0.00     0.167 HD
ATOM     61  C   UNL A   1      41.830  32.907  35.329  1.00  0.00     0.037 A 
ATOM     62  C   UNL A   1      40.027  29.844  29.206  1.00  0.00     0.037 A 
ATOM     63  C   UNL A   1      42.534  33.708  34.359  1.00  0.00     0.049 A 
ATOM     64  C   UNL A   1      41.359  30.236  29.744  1.00  0.00     0.074 A 
ATOM     65  C   UNL A   1      42.504  35.045  34.013  1.00  0.00     0.029 A 
ATOM     66  N   UNL A   1      43.119  33.056  33.300  1.00  0.00    -0.354 N 
ATOM     67  N   UNL A   1      41.961  31.351  29.432  1.00  0.00    -0.248 NA
ATOM     68  C   UNL A   1      41.772  29.634  31.003  1.00  0.00     0.031 C 
ATOM     69  C   UNL A   1      42.639  35.066  32.594  1.00  0.00     0.029 A 
ATOM     70  C   UNL A   1      42.824  33.755  32.155  1.00  0.00     0.049 A 
ATOM     71  H   UNL A   1      43.655  32.233  33.352  1.00  0.00     0.167 HD
ATOM     72  C   UNL A   1      42.494  31.812  30.629  1.00  0.00     0.074 A 
ATOM     73  C   UNL A   1      42.397  30.680  31.550  1.00  0.00     0.031 C 
ATOM     74  C   UNL A   1      42.683  33.146  30.851  1.00  0.00     0.037 A 
BRANCH  61  75
ATOM     75  C   UNL A   1      42.488  31.832  36.153  1.00  0.00     0.057 A 
ATOM     76  C   UNL A   1      43.334  32.204  37.207  1.00  0.00     0.134 A 
ATOM     77  C   UNL A   1      42.526  30.462  35.809  1.00  0.00     0.134 A 
ATOM     78  F   UNL A   1      43.416  33.483  37.601  1.00  0.00    -0.206 F 
ATOM     79  C   UNL A   1      44.177  31.286  37.846  1.00  0.00     0.040 A 
ATOM     80  C   UNL A   1      43.314  29.528  36.479  1.00  0.00     0.040 A 
ATOM     81  F   UNL A   1      41.885  29.961  34.746  1.00  0.00    -0.206 F 
ATOM     82  C   UNL A   1      44.166  29.944  37.485  1.00  0.00     0.006 A 
ENDBRANCH  61  75
BRANCH  62  83
ATOM     83  C   UNL A   1      39.796  28.516  28.585  1.00  0.00     0.057 A 
ATOM     84  C   UNL A   1      40.348  28.190  27.337  1.00  0.00     0.134 A 
ATOM     85  C   UNL A   1      39.276  27.440  29.326  1.00  0.00     0.134 A 
ATOM     86  F   UNL A   1      40.910  29.137  26.573  1.00  0.00    -0.206 F 
ATOM     87  C   UNL A   1      40.403  26.869  26.864  1.00  0.00     0.040 A 
ATOM     88  C   UNL A   1      39.320  26.119  28.865  1.00  0.00     0.040 A 
ATOM     89  F   UNL A   1      38.792  27.620  30.562  1.00  0.00    -0.206 F 
ATOM     90  C   UNL A   1      39.898  25.826  27.636  1.00  0.00     0.006 A 
ENDBRANCH  62  83
BRANCH  74  91
ATOM     91  C   UNL A   1      42.512  34.080  29.680  1.00  0.00     0.057 A 
ATOM     92  C   UNL A   1      41.317  34.751  29.372  1.00  0.00     0.134 A 
ATOM     93  C   UNL A   1      43.640  34.432  28.930  1.00  0.00     0.134 A 
ATOM     94  F   UNL A   1      40.208  34.554  30.094  1.00  0.00    -0.206 F 
ATOM     95  C   UNL A   1      41.241  35.694  28.340  1.00  0.00     0.040 A 
ATOM     96  C   UNL A   1      43.586  35.397  27.922  1.00  0.00     0.040 A 
ATOM     97  F   UNL A   1      44.831  33.875  29.203  1.00  0.00    -0.206 F 
ATOM     98  C   UNL A   1      42.382  36.025  27.617  1.00  0.00     0.006 A 
ENDBRANCH  74  91
ENDBRANCH  48  49
ENDBRANCH  41  43
ENDBRANCH  40  41
ENDBRANCH  39  40
ENDBRANCH  38  39
ENDBRANCH  37  38
ENDBRANCH  36  37
ENDBRANCH  35  36
ENDBRANCH  34  35
ENDBRANCH   1  34
TORSDOF 24
ENDMDL
MODEL 2
REMARK VINA RESULT:     -10.9      2.823      5.377
REMARK SMILES O=C(COc1ccccc1/C=N/N1[C@@H](S)N=N[C@H]1[C@@H]1C=C(c2ccccc2)N=N1)OCCOCCOCCOC(=O)c1ccc(-c2c3nc(c(-c4c(F)cccc4F)c4ccc([nH]4)c(-c4c(F)cccc4F)c4nc(c(-c5c(F)cccc5F)c5ccc2[nH]5)C=C4)C=C3)cc1
REMARK SMILES IDX 32 1 31 2 30 3 2 4 1 5 3 6 4 7 5 8 6 9 10 10 7 11 9 12 8 13
REMARK SMILES IDX 11 14 12 15 13 16 14 17 18 18 16 19 17 20 15 21 19 23 20 24
REMARK SMILES IDX 29 25 21 26 28 27 22 28 23 29 27 30 24 31 26 32 25 33 33 34
REMARK SMILES IDX 34 35 35 36 36 37 37 38 38 39 39 40 40 41 41 42 42 43 43 44
REMARK SMILES IDX 95 45 44 46 94 47 45 48 46 49 47 50 88 51 48 52 93 53 87 54
REMARK SMILES IDX 89 55 49 56 92 57 86 58 85 59 50 61 76 62 59 63 75 64 60 65
REMARK SMILES IDX 63 66 74 67 90 68 61 69 62 70 73 72 91 73 64 74 51 75 52 76
REMARK SMILES IDX 57 77 53 78 54 79 56 80 58 81 55 82 77 83 78 84 83 85 79 86
REMARK SMILES IDX 80 87 82 88 84 89 81 90 65 91 66 92 71 93 67 94 68 95 70 96
REMARK SMILES IDX 72 97 69 98
REMARK H PARENT 15 22 89 60 63 71
REMARK Flexibility Score: inf
ROOT
ATOM      1  C   UNL A   1      35.088  30.074  27.832  1.00  0.00     0.202 C 
ENDROOT
BRANCH   1   2
ATOM      2  C   UNL A   1      33.855  31.250  27.796  1.00  0.00     0.261 C 
BRANCH   2   3
ATOM      3  O   UNL A   1      32.680  31.241  26.854  1.00  0.00    -0.461 OA
BRANCH   3   4
ATOM      4  C   UNL A   1      31.816  30.199  26.563  1.00  0.00     0.344 C 
ATOM      5  O   UNL A   1      31.838  29.199  27.270  1.00  0.00    -0.248 OA
BRANCH   4   6
ATOM      6  C   UNL A   1      31.037  30.293  24.992  1.00  0.00     0.352 C 
BRANCH   6   7
ATOM      7  O   UNL A   1      31.158  29.742  23.690  1.00  0.00    -0.481 OA
BRANCH   7   8
ATOM      8  C   UNL A   1      29.896  29.679  23.209  1.00  0.00     0.129 A 
ATOM      9  C   UNL A   1      29.165  30.842  23.422  1.00  0.00     0.047 A 
ATOM     10  C   UNL A   1      29.372  28.420  22.881  1.00  0.00     0.037 A 
ATOM     11  C   UNL A   1      27.798  30.720  23.479  1.00  0.00     0.004 A 
ATOM     12  C   UNL A   1      28.001  28.299  23.001  1.00  0.00     0.013 A 
ATOM     13  C   UNL A   1      27.225  29.451  23.299  1.00  0.00     0.001 A 
BRANCH  10  14
ATOM     14  C   UNL A   1      30.425  27.342  22.778  1.00  0.00     0.145 C 
ATOM     15  N   UNL A   1      30.951  26.738  23.807  1.00  0.00    -0.180 NA
BRANCH  15  16
ATOM     16  N   UNL A   1      32.262  26.302  23.571  1.00  0.00    -0.233 NA
ATOM     17  C   UNL A   1      32.876  26.832  22.326  1.00  0.00     0.298 C 
ATOM     18  C   UNL A   1      32.455  24.825  23.354  1.00  0.00     0.274 C 
ATOM     19  N   UNL A   1      33.620  25.755  21.646  1.00  0.00    -0.153 NA
ATOM     20  N   UNL A   1      33.435  24.664  22.228  1.00  0.00    -0.161 NA
BRANCH  17  21
ATOM     21  S   UNL A   1      33.907  28.280  22.749  1.00  0.00    -0.128 SA
ATOM     22  H   UNL A   1      33.334  28.958  23.779  1.00  0.00     0.106 HD
ENDBRANCH  17  21
BRANCH  18  23
ATOM     23  C   UNL A   1      32.905  23.726  24.498  1.00  0.00     0.202 C 
ATOM     24  C   UNL A   1      33.316  22.356  24.047  1.00  0.00     0.037 C 
ATOM     25  N   UNL A   1      31.980  23.286  25.586  1.00  0.00    -0.177 NA
ATOM     26  C   UNL A   1      32.771  21.330  24.787  1.00  0.00     0.091 C 
ATOM     27  N   UNL A   1      32.028  21.992  25.771  1.00  0.00    -0.155 NA
BRANCH  26  28
ATOM     28  C   UNL A   1      32.609  19.614  24.485  1.00  0.00     0.002 A 
ATOM     29  C   UNL A   1      32.499  19.052  23.170  1.00  0.00     0.010 A 
ATOM     30  C   UNL A   1      32.891  18.544  25.390  1.00  0.00     0.010 A 
ATOM     31  C   UNL A   1      32.825  17.708  22.802  1.00  0.00     0.001 A 
ATOM     32  C   UNL A   1      33.192  17.188  25.049  1.00  0.00     0.001 A 
ATOM     33  C   UNL A   1      33.191  16.772  23.742  1.00  0.00     0.000 A 
ENDBRANCH  26  28
ENDBRANCH  18  23
ENDBRANCH  15  16
ENDBRANCH  10  14
ENDBRANCH   7   8
ENDBRANCH   6   7
ENDBRANCH   4   6
ENDBRANCH   3   4
ENDBRANCH   2   3
ENDBRANCH   1   2
BRANCH   1  34
ATOM     34  O   UNL A   1      36.099  29.777  28.807  1.00  0.00    -0.376 OA
BRANCH  34  35
ATOM     35  C   UNL A   1      36.126  29.850  30.244  1.00  0.00     0.188 C 
BRANCH  35  36
ATOM     36  C   UNL A   1      36.079  31.114  31.094  1.00  0.00     0.188 C 
BRANCH  36  37
ATOM     37  O   UNL A   1      36.087  32.375  30.483  1.00  0.00    -0.376 OA
BRANCH  37  38
ATOM     38  C   UNL A   1      34.954  33.200  30.624  1.00  0.00     0.202 C 
BRANCH  38  39
ATOM     39  C   UNL A   1      34.893  34.273  31.719  1.00  0.00     0.261 C 
BRANCH  39  40
ATOM     40  O   UNL A   1      36.009  34.368  32.592  1.00  0.00    -0.460 OA
BRANCH  40  41
ATOM     41  C   UNL A   1      35.976  33.692  33.747  1.00  0.00     0.338 C 
ATOM     42  O   UNL A   1      34.997  33.189  34.292  1.00  0.00    -0.246 OA
BRANCH  41  43
ATOM     43  C   UNL A   1      37.353  33.663  34.274  1.00  0.00     0.060 A 
ATOM     44  C   UNL A   1      38.192  34.719  33.917  1.00  0.00     0.016 A 
ATOM     45  C   UNL A   1      37.853  32.453  34.776  1.00  0.00     0.016 A 
ATOM     46  C   UNL A   1      39.499  34.411  33.635  1.00  0.00     0.010 A 
ATOM     47  C   UNL A   1      39.147  32.139  34.477  1.00  0.00     0.010 A 
ATOM     48  C   UNL A   1      39.875  33.074  33.749  1.00  0.00    -0.014 A 
BRANCH  48  49
ATOM     49  C   UNL A   1      40.978  32.598  32.948  1.00  0.00     0.031 A 
ATOM     50  C   UNL A   1      42.258  32.656  33.664  1.00  0.00     0.074 A 
ATOM     51  C   UNL A   1      40.756  32.063  31.728  1.00  0.00     0.049 A 
ATOM     52  N   UNL A   1      43.223  33.490  33.473  1.00  0.00    -0.248 NA
ATOM     53  C   UNL A   1      42.384  31.848  34.888  1.00  0.00     0.031 C 
ATOM     54  C   UNL A   1      39.470  31.749  31.087  1.00  0.00     0.029 A 
ATOM     55  N   UNL A   1      41.662  31.596  30.826  1.00  0.00    -0.354 N 
ATOM     56  C   UNL A   1      44.180  33.131  34.412  1.00  0.00     0.074 A 
ATOM     57  C   UNL A   1      43.506  32.344  35.406  1.00  0.00     0.031 C 
ATOM     58  C   UNL A   1      39.683  30.948  30.017  1.00  0.00     0.029 A 
ATOM     59  C   UNL A   1      41.112  30.797  29.821  1.00  0.00     0.049 A 
ATOM     60  H   UNL A   1      42.623  31.802  30.878  1.00  0.00     0.167 HD
ATOM     61  C   UNL A   1      45.503  33.199  34.113  1.00  0.00     0.037 A 
ATOM     62  C   UNL A   1      41.827  30.019  28.966  1.00  0.00     0.037 A 
ATOM     63  C   UNL A   1      45.740  34.060  32.982  1.00  0.00     0.049 A 
ATOM     64  C   UNL A   1      43.229  30.520  28.995  1.00  0.00     0.074 A 
ATOM     65  C   UNL A   1      45.482  35.392  32.716  1.00  0.00     0.029 A 
ATOM     66  N   UNL A   1      45.945  33.465  31.760  1.00  0.00    -0.354 N 
ATOM     67  N   UNL A   1      43.588  31.683  28.524  1.00  0.00    -0.248 NA
ATOM     68  C   UNL A   1      44.119  29.950  29.995  1.00  0.00     0.031 C 
ATOM     69  C   UNL A   1      45.087  35.429  31.347  1.00  0.00     0.029 A 
ATOM     70  C   UNL A   1      45.198  34.140  30.827  1.00  0.00     0.049 A 
ATOM     71  H   UNL A   1      46.525  32.689  31.585  1.00  0.00     0.167 HD
ATOM     72  C   UNL A   1      44.485  32.182  29.460  1.00  0.00     0.074 A 
ATOM     73  C   UNL A   1      44.818  31.043  30.313  1.00  0.00     0.031 C 
ATOM     74  C   UNL A   1      44.638  33.526  29.643  1.00  0.00     0.037 A 
BRANCH  61  75
ATOM     75  C   UNL A   1      46.498  32.181  34.603  1.00  0.00     0.057 A 
ATOM     76  C   UNL A   1      47.630  32.617  35.305  1.00  0.00     0.134 A 
ATOM     77  C   UNL A   1      46.523  30.823  34.208  1.00  0.00     0.134 A 
ATOM     78  F   UNL A   1      47.742  33.893  35.700  1.00  0.00    -0.206 F 
ATOM     79  C   UNL A   1      48.718  31.774  35.563  1.00  0.00     0.040 A 
ATOM     80  C   UNL A   1      47.573  29.958  34.515  1.00  0.00     0.040 A 
ATOM     81  F   UNL A   1      45.590  30.278  33.420  1.00  0.00    -0.206 F 
ATOM     82  C   UNL A   1      48.691  30.441  35.172  1.00  0.00     0.006 A 
ENDBRANCH  61  75
BRANCH  62  83
ATOM     83  C   UNL A   1      41.488  28.678  28.427  1.00  0.00     0.057 A 
ATOM     84  C   UNL A   1      40.961  27.673  29.252  1.00  0.00     0.134 A 
ATOM     85  C   UNL A   1      41.398  28.446  27.043  1.00  0.00     0.134 A 
ATOM     86  F   UNL A   1      40.958  27.819  30.585  1.00  0.00    -0.206 F 
ATOM     87  C   UNL A   1      40.359  26.516  28.732  1.00  0.00     0.040 A 
ATOM     88  C   UNL A   1      40.803  27.296  26.511  1.00  0.00     0.040 A 
ATOM     89  F   UNL A   1      41.799  29.368  26.158  1.00  0.00    -0.206 F 
ATOM     90  C   UNL A   1      40.267  26.331  27.356  1.00  0.00     0.006 A 
ENDBRANCH  62  83
BRANCH  74  91
ATOM     91  C   UNL A   1      43.979  34.447  28.648  1.00  0.00     0.057 A 
ATOM     92  C   UNL A   1      44.512  34.759  27.386  1.00  0.00     0.134 A 
ATOM     93  C   UNL A   1      42.686  34.910  28.914  1.00  0.00     0.134 A 
ATOM     94  F   UNL A   1      45.701  34.282  27.000  1.00  0.00    -0.206 F 
ATOM     95  C   UNL A   1      43.807  35.530  26.453  1.00  0.00     0.040 A 
ATOM     96  C   UNL A   1      41.958  35.650  27.980  1.00  0.00     0.040 A 
ATOM     97  F   UNL A   1      42.087  34.605  30.076  1.00  0.00    -0.206 F 
ATOM     98  C   UNL A   1      42.521  35.971  26.747  1.00  0.00     0.006 A 
ENDBRANCH  74  91
ENDBRANCH  48  49
ENDBRANCH  41  43
ENDBRANCH  40  41
ENDBRANCH  39  40
ENDBRANCH  38  39
ENDBRANCH  37  38
ENDBRANCH  36  37
ENDBRANCH  35  36
ENDBRANCH  34  35
ENDBRANCH   1  34
TORSDOF 24
ENDMDL
MODEL 3
REMARK VINA RESULT:     -10.8      3.698      6.079
REMARK SMILES O=C(COc1ccccc1/C=N/N1[C@@H](S)N=N[C@H]1[C@@H]1C=C(c2ccccc2)N=N1)OCCOCCOCCOC(=O)c1ccc(-c2c3nc(c(-c4c(F)cccc4F)c4ccc([nH]4)c(-c4c(F)cccc4F)c4nc(c(-c5c(F)cccc5F)c5ccc2[nH]5)C=C4)C=C3)cc1
REMARK SMILES IDX 32 1 31 2 30 3 2 4 1 5 3 6 4 7 5 8 6 9 10 10 7 11 9 12 8 13
REMARK SMILES IDX 11 14 12 15 13 16 14 17 18 18 16 19 17 20 15 21 19 23 20 24
REMARK SMILES IDX 29 25 21 26 28 27 22 28 23 29 27 30 24 31 26 32 25 33 33 34
REMARK SMILES IDX 34 35 35 36 36 37 37 38 38 39 39 40 40 41 41 42 42 43 43 44
REMARK SMILES IDX 95 45 44 46 94 47 45 48 46 49 47 50 88 51 48 52 93 53 87 54
REMARK SMILES IDX 89 55 49 56 92 57 86 58 85 59 50 61 76 62 59 63 75 64 60 65
REMARK SMILES IDX 63 66 74 67 90 68 61 69 62 70 73 72 91 73 64 74 51 75 52 76
REMARK SMILES IDX 57 77 53 78 54 79 56 80 58 81 55 82 77 83 78 84 83 85 79 86
REMARK SMILES IDX 80 87 82 88 84 89 81 90 65 91 66 92 71 93 67 94 68 95 70 96
REMARK SMILES IDX 72 97 69 98
REMARK H PARENT 15 22 89 60 63 71
REMARK Flexibility Score: inf
ROOT
ATOM      1  C   UNL A   1      31.731  28.345  24.233  1.00  0.00     0.202 C 
ENDROOT
BRANCH   1   2
ATOM      2  C   UNL A   1      33.110  27.531  23.650  1.00  0.00     0.261 C 
BRANCH   2   3
ATOM      3  O   UNL A   1      33.206  26.840  22.315  1.00  0.00    -0.461 OA
BRANCH   3   4
ATOM      4  C   UNL A   1      32.335  25.918  21.757  1.00  0.00     0.344 C 
ATOM      5  O   UNL A   1      31.579  26.285  20.867  1.00  0.00    -0.248 OA
BRANCH   4   6
ATOM      6  C   UNL A   1      32.175  24.412  22.646  1.00  0.00     0.352 C 
BRANCH   6   7
ATOM      7  O   UNL A   1      32.631  23.813  23.848  1.00  0.00    -0.481 OA
BRANCH   7   8
ATOM      8  C   UNL A   1      31.527  23.661  24.614  1.00  0.00     0.129 A 
ATOM      9  C   UNL A   1      30.982  24.866  25.044  1.00  0.00     0.047 A 
ATOM     10  C   UNL A   1      31.261  22.393  25.153  1.00  0.00     0.037 A 
ATOM     11  C   UNL A   1      30.244  24.841  26.201  1.00  0.00     0.004 A 
ATOM     12  C   UNL A   1      30.570  22.391  26.348  1.00  0.00     0.013 A 
ATOM     13  C   UNL A   1      30.066  23.616  26.863  1.00  0.00     0.001 A 
BRANCH  10  14
ATOM     14  C   UNL A   1      32.061  21.289  24.505  1.00  0.00     0.145 C 
ATOM     15  N   UNL A   1      32.706  20.371  25.170  1.00  0.00    -0.180 NA
BRANCH  15  16
ATOM     16  N   UNL A   1      33.831  19.890  24.484  1.00  0.00    -0.233 NA
ATOM     17  C   UNL A   1      33.993  18.413  24.520  1.00  0.00     0.298 C 
ATOM     18  C   UNL A   1      35.176  20.318  25.007  1.00  0.00     0.274 C 
ATOM     19  N   UNL A   1      35.413  18.079  24.740  1.00  0.00    -0.153 NA
ATOM     20  N   UNL A   1      36.075  19.117  24.959  1.00  0.00    -0.161 NA
BRANCH  17  21
ATOM     21  S   UNL A   1      33.306  17.709  22.980  1.00  0.00    -0.128 SA
ATOM     22  H   UNL A   1      31.978  17.468  23.145  1.00  0.00     0.106 HD
ENDBRANCH  17  21
BRANCH  18  23
ATOM     23  C   UNL A   1      36.081  21.577  24.445  1.00  0.00     0.202 C 
ATOM     24  C   UNL A   1      37.491  21.715  24.937  1.00  0.00     0.037 C 
ATOM     25  N   UNL A   1      35.679  23.001  24.652  1.00  0.00    -0.177 NA
ATOM     26  C   UNL A   1      37.841  22.997  25.295  1.00  0.00     0.091 C 
ATOM     27  N   UNL A   1      36.693  23.746  25.008  1.00  0.00    -0.155 NA
BRANCH  26  28
ATOM     28  C   UNL A   1      39.163  23.638  26.247  1.00  0.00     0.002 A 
ATOM     29  C   UNL A   1      39.278  25.021  26.605  1.00  0.00     0.010 A 
ATOM     30  C   UNL A   1      40.082  22.903  27.059  1.00  0.00     0.010 A 
ATOM     31  C   UNL A   1      40.015  25.543  27.715  1.00  0.00     0.001 A 
ATOM     32  C   UNL A   1      40.851  23.406  28.155  1.00  0.00     0.001 A 
ATOM     33  C   UNL A   1      40.794  24.731  28.508  1.00  0.00     0.000 A 
ENDBRANCH  26  28
ENDBRANCH  18  23
ENDBRANCH  15  16
ENDBRANCH  10  14
ENDBRANCH   7   8
ENDBRANCH   6   7
ENDBRANCH   4   6
ENDBRANCH   3   4
ENDBRANCH   2   3
ENDBRANCH   1   2
BRANCH   1  34
ATOM     34  O   UNL A   1      31.392  28.841  25.536  1.00  0.00    -0.376 OA
BRANCH  34  35
ATOM     35  C   UNL A   1      31.843  29.975  26.300  1.00  0.00     0.188 C 
BRANCH  35  36
ATOM     36  C   UNL A   1      33.045  30.024  27.236  1.00  0.00     0.188 C 
BRANCH  36  37
ATOM     37  O   UNL A   1      33.577  31.256  27.636  1.00  0.00    -0.376 OA
BRANCH  37  38
ATOM     38  C   UNL A   1      34.978  31.392  27.717  1.00  0.00     0.202 C 
BRANCH  38  39
ATOM     39  C   UNL A   1      35.622  32.268  28.800  1.00  0.00     0.261 C 
BRANCH  39  40
ATOM     40  O   UNL A   1      36.184  31.600  29.920  1.00  0.00    -0.460 OA
BRANCH  40  41
ATOM     41  C   UNL A   1      36.718  30.386  29.739  1.00  0.00     0.338 C 
ATOM     42  O   UNL A   1      36.287  29.310  30.148  1.00  0.00    -0.246 OA
BRANCH  41  43
ATOM     43  C   UNL A   1      37.953  30.566  28.953  1.00  0.00     0.060 A 
ATOM     44  C   UNL A   1      38.155  29.698  27.880  1.00  0.00     0.016 A 
ATOM     45  C   UNL A   1      38.998  31.316  29.511  1.00  0.00     0.016 A 
ATOM     46  C   UNL A   1      39.434  29.247  27.674  1.00  0.00     0.010 A 
ATOM     47  C   UNL A   1      40.269  30.854  29.322  1.00  0.00     0.010 A 
ATOM     48  C   UNL A   1      40.420  29.712  28.543  1.00  0.00    -0.014 A 
BRANCH  48  49
ATOM     49  C   UNL A   1      41.583  28.888  28.769  1.00  0.00     0.031 A 
ATOM     50  C   UNL A   1      41.733  28.503  30.178  1.00  0.00     0.074 A 
ATOM     51  C   UNL A   1      42.333  28.464  27.730  1.00  0.00     0.049 A 
ATOM     52  N   UNL A   1      42.594  28.957  31.025  1.00  0.00    -0.248 NA
ATOM     53  C   UNL A   1      40.655  27.700  30.777  1.00  0.00     0.031 C 
ATOM     54  C   UNL A   1      42.068  28.610  26.291  1.00  0.00     0.029 A 
ATOM     55  N   UNL A   1      43.470  27.715  27.750  1.00  0.00    -0.354 N 
ATOM     56  C   UNL A   1      42.300  28.290  32.206  1.00  0.00     0.074 A 
ATOM     57  C   UNL A   1      40.964  27.781  32.069  1.00  0.00     0.031 C 
ATOM     58  C   UNL A   1      42.886  27.785  25.595  1.00  0.00     0.029 A 
ATOM     59  C   UNL A   1      43.811  27.154  26.517  1.00  0.00     0.049 A 
ATOM     60  H   UNL A   1      44.006  27.580  28.564  1.00  0.00     0.167 HD
ATOM     61  C   UNL A   1      43.292  27.901  33.048  1.00  0.00     0.037 A 
ATOM     62  C   UNL A   1      44.740  26.179  26.336  1.00  0.00     0.037 A 
ATOM     63  C   UNL A   1      44.509  28.631  32.794  1.00  0.00     0.049 A 
ATOM     64  C   UNL A   1      45.601  26.170  27.550  1.00  0.00     0.074 A 
ATOM     65  C   UNL A   1      44.849  29.971  32.809  1.00  0.00     0.029 A 
ATOM     66  N   UNL A   1      45.486  28.003  32.058  1.00  0.00    -0.354 N 
ATOM     67  N   UNL A   1      46.415  27.140  27.863  1.00  0.00    -0.248 NA
ATOM     68  C   UNL A   1      45.177  25.328  28.660  1.00  0.00     0.031 C 
ATOM     69  C   UNL A   1      45.737  30.143  31.708  1.00  0.00     0.029 A 
ATOM     70  C   UNL A   1      45.958  28.895  31.127  1.00  0.00     0.049 A 
ATOM     71  H   UNL A   1      45.794  27.076  32.179  1.00  0.00     0.167 HD
ATOM     72  C   UNL A   1      46.263  27.301  29.235  1.00  0.00     0.074 A 
ATOM     73  C   UNL A   1      45.532  26.115  29.679  1.00  0.00     0.031 C 
ATOM     74  C   UNL A   1      46.474  28.511  29.831  1.00  0.00     0.037 A 
BRANCH  61  75
ATOM     75  C   UNL A   1      43.247  26.604  33.809  1.00  0.00     0.057 A 
ATOM     76  C   UNL A   1      42.878  26.619  35.161  1.00  0.00     0.134 A 
ATOM     77  C   UNL A   1      43.783  25.379  33.348  1.00  0.00     0.134 A 
ATOM     78  F   UNL A   1      42.392  27.733  35.726  1.00  0.00    -0.206 F 
ATOM     79  C   UNL A   1      43.060  25.510  35.996  1.00  0.00     0.040 A 
ATOM     80  C   UNL A   1      43.910  24.249  34.155  1.00  0.00     0.040 A 
ATOM     81  F   UNL A   1      44.307  25.230  32.126  1.00  0.00    -0.206 F 
ATOM     82  C   UNL A   1      43.574  24.321  35.494  1.00  0.00     0.006 A 
ENDBRANCH  61  75
BRANCH  62  83
ATOM     83  C   UNL A   1      44.714  25.037  25.388  1.00  0.00     0.057 A 
ATOM     84  C   UNL A   1      45.900  24.470  24.898  1.00  0.00     0.134 A 
ATOM     85  C   UNL A   1      43.543  24.291  25.171  1.00  0.00     0.134 A 
ATOM     86  F   UNL A   1      47.078  25.081  25.093  1.00  0.00    -0.206 F 
ATOM     87  C   UNL A   1      45.924  23.224  24.251  1.00  0.00     0.040 A 
ATOM     88  C   UNL A   1      43.551  23.049  24.525  1.00  0.00     0.040 A 
ATOM     89  F   UNL A   1      42.363  24.695  25.661  1.00  0.00    -0.206 F 
ATOM     90  C   UNL A   1      44.747  22.503  24.074  1.00  0.00     0.006 A 
ENDBRANCH  62  83
BRANCH  74  91
ATOM     91  C   UNL A   1      47.093  29.603  28.997  1.00  0.00     0.057 A 
ATOM     92  C   UNL A   1      48.473  29.736  28.765  1.00  0.00     0.134 A 
ATOM     93  C   UNL A   1      46.252  30.458  28.276  1.00  0.00     0.134 A 
ATOM     94  F   UNL A   1      49.352  28.902  29.333  1.00  0.00    -0.206 F 
ATOM     95  C   UNL A   1      48.989  30.700  27.892  1.00  0.00     0.040 A 
ATOM     96  C   UNL A   1      46.752  31.401  27.375  1.00  0.00     0.040 A 
ATOM     97  F   UNL A   1      44.919  30.354  28.401  1.00  0.00    -0.206 F 
ATOM     98  C   UNL A   1      48.125  31.532  27.187  1.00  0.00     0.006 A 
ENDBRANCH  74  91
ENDBRANCH  48  49
ENDBRANCH  41  43
ENDBRANCH  40  41
ENDBRANCH  39  40
ENDBRANCH  38  39
ENDBRANCH  37  38
ENDBRANCH  36  37
ENDBRANCH  35  36
ENDBRANCH  34  35
ENDBRANCH   1  34
TORSDOF 24
ENDMDL
