MODEL 1
REMARK VINA RESULT:     -10.4      0.000      0.000
REMARK SMILES Cc1cccc(Nc2ccccc2C(=O)OCCOCCOCCOC(=O)c2ccc(-c3c4nc(c(-c5c(F)cccc5F)c5ccc([nH]5)c(-c5c(F)cccc5F)c5nc(c(-c6c(F)cccc6F)c6ccc3[nH]6)C=C5)C=C4)cc2)c1C
REMARK SMILES IDX 20 1 19 2 18 3 17 4 16 5 14 6 15 7 13 8 8 9 9 10 10 11 12 12
REMARK SMILES IDX 11 13 7 14 6 16 1 17 2 18 3 19 82 20 4 21 83 22 5 23 21 24
REMARK SMILES IDX 22 25 23 26 24 27 25 28 26 29 27 30 28 31 29 32 81 33 30 34
REMARK SMILES IDX 80 35 31 36 32 37 33 38 74 39 34 40 79 41 73 42 75 43 35 44
REMARK SMILES IDX 78 45 72 46 71 47 36 49 62 50 45 51 61 52 46 53 49 54 60 55
REMARK SMILES IDX 76 56 47 57 48 58 59 60 77 61 50 62 37 63 38 64 43 65 39 66
REMARK SMILES IDX 40 67 42 68 44 69 41 70 63 71 64 72 69 73 65 74 66 75 68 76
REMARK SMILES IDX 70 77 67 78 51 79 52 80 57 81 53 82 54 83 56 84 58 85 55 86
REMARK H PARENT 7 15 75 48 49 59
REMARK Flexibility Score: inf
ROOT
ATOM      1  C   UNL A   1      35.242  31.488  28.011  1.00  0.00     0.188 C 
ENDROOT
BRANCH   1   2
ATOM      2  O   UNL A   1      33.923  30.997  28.054  1.00  0.00    -0.376 OA
BRANCH   2   3
ATOM      3  C   UNL A   1      33.317  30.502  26.873  1.00  0.00     0.202 C 
BRANCH   3   4
ATOM      4  C   UNL A   1      33.680  29.175  26.186  1.00  0.00     0.261 C 
BRANCH   4   5
ATOM      5  O   UNL A   1      33.532  27.971  26.939  1.00  0.00    -0.460 OA
BRANCH   5   6
ATOM      6  C   UNL A   1      32.598  27.094  26.495  1.00  0.00     0.340 C 
ATOM      7  O   UNL A   1      31.437  27.038  26.875  1.00  0.00    -0.246 OA
BRANCH   6   8
ATOM      8  C   UNL A   1      33.093  26.323  25.317  1.00  0.00     0.083 A 
ATOM      9  C   UNL A   1      32.648  26.480  23.987  1.00  0.00     0.053 A 
ATOM     10  C   UNL A   1      33.196  25.621  23.010  1.00  0.00     0.027 A 
ATOM     11  C   UNL A   1      34.153  24.655  23.329  1.00  0.00     0.002 A 
ATOM     12  C   UNL A   1      34.057  25.340  25.629  1.00  0.00     0.018 A 
ATOM     13  C   UNL A   1      34.586  24.514  24.641  1.00  0.00     0.001 A 
BRANCH   9  14
ATOM     14  N   UNL A   1      31.785  27.489  23.503  1.00  0.00    -0.355 N 
ATOM     15  H   UNL A   1      32.241  28.319  23.235  1.00  0.00     0.167 HD
BRANCH  14  16
ATOM     16  C   UNL A   1      30.386  27.515  23.336  1.00  0.00     0.042 A 
ATOM     17  C   UNL A   1      27.598  30.049  22.796  1.00  0.00     0.044 C 
ATOM     18  C   UNL A   1      28.306  28.742  23.026  1.00  0.00    -0.046 A 
ATOM     19  C   UNL A   1      27.601  27.677  23.605  1.00  0.00     0.004 A 
ATOM     20  C   UNL A   1      29.694  28.615  22.784  1.00  0.00    -0.025 A 
ATOM     21  C   UNL A   1      28.264  26.518  23.996  1.00  0.00     0.002 A 
ATOM     22  C   UNL A   1      30.408  29.654  21.953  1.00  0.00     0.047 C 
ATOM     23  C   UNL A   1      29.650  26.456  23.897  1.00  0.00     0.026 A 
ENDBRANCH  14  16
ENDBRANCH   9  14
ENDBRANCH   6   8
ENDBRANCH   5   6
ENDBRANCH   4   5
ENDBRANCH   3   4
ENDBRANCH   2   3
ENDBRANCH   1   2
BRANCH   1  24
ATOM     24  C   UNL A   1      35.394  33.001  28.302  1.00  0.00     0.188 C 
BRANCH  24  25
ATOM     25  O   UNL A   1      34.458  33.682  29.120  1.00  0.00    -0.376 OA
BRANCH  25  26
ATOM     26  C   UNL A   1      33.798  34.826  28.601  1.00  0.00     0.202 C 
BRANCH  26  27
ATOM     27  C   UNL A   1      33.017  35.779  29.528  1.00  0.00     0.261 C 
BRANCH  27  28
ATOM     28  O   UNL A   1      32.421  35.188  30.697  1.00  0.00    -0.460 OA
BRANCH  28  29
ATOM     29  C   UNL A   1      32.744  35.764  31.884  1.00  0.00     0.338 C 
ATOM     30  O   UNL A   1      32.121  36.619  32.484  1.00  0.00    -0.246 OA
BRANCH  29  31
ATOM     31  C   UNL A   1      33.893  35.044  32.483  1.00  0.00     0.060 A 
ATOM     32  C   UNL A   1      35.168  35.630  32.405  1.00  0.00     0.016 A 
ATOM     33  C   UNL A   1      33.730  33.800  33.090  1.00  0.00     0.016 A 
ATOM     34  C   UNL A   1      36.283  34.969  32.919  1.00  0.00     0.010 A 
ATOM     35  C   UNL A   1      34.855  33.120  33.571  1.00  0.00     0.010 A 
ATOM     36  C   UNL A   1      36.140  33.687  33.462  1.00  0.00    -0.014 A 
BRANCH  36  37
ATOM     37  C   UNL A   1      37.345  32.862  33.721  1.00  0.00     0.031 A 
ATOM     38  C   UNL A   1      38.120  33.107  34.987  1.00  0.00     0.074 A 
ATOM     39  C   UNL A   1      37.747  31.908  32.863  1.00  0.00     0.049 A 
ATOM     40  N   UNL A   1      39.240  32.568  35.396  1.00  0.00    -0.248 NA
ATOM     41  C   UNL A   1      37.554  34.100  35.913  1.00  0.00     0.031 C 
ATOM     42  C   UNL A   1      37.066  31.541  31.625  1.00  0.00     0.029 A 
ATOM     43  N   UNL A   1      38.846  31.084  32.903  1.00  0.00    -0.354 N 
ATOM     44  C   UNL A   1      39.523  33.173  36.615  1.00  0.00     0.074 A 
ATOM     45  C   UNL A   1      38.471  34.133  36.866  1.00  0.00     0.031 C 
ATOM     46  C   UNL A   1      37.778  30.584  31.004  1.00  0.00     0.029 A 
ATOM     47  C   UNL A   1      38.982  30.297  31.786  1.00  0.00     0.049 A 
ATOM     48  H   UNL A   1      39.477  31.062  33.659  1.00  0.00     0.167 HD
ATOM     49  C   UNL A   1      40.565  32.949  37.451  1.00  0.00     0.037 A 
ATOM     50  C   UNL A   1      39.979  29.467  31.422  1.00  0.00     0.037 A 
ATOM     51  C   UNL A   1      41.612  31.994  37.198  1.00  0.00     0.049 A 
ATOM     52  C   UNL A   1      41.163  29.277  32.335  1.00  0.00     0.074 A 
ATOM     53  C   UNL A   1      42.690  31.667  38.002  1.00  0.00     0.029 A 
ATOM     54  N   UNL A   1      41.725  31.227  36.048  1.00  0.00    -0.354 N 
ATOM     55  N   UNL A   1      41.405  29.822  33.502  1.00  0.00    -0.248 NA
ATOM     56  C   UNL A   1      42.212  28.352  31.880  1.00  0.00     0.031 C 
ATOM     57  C   UNL A   1      43.490  30.753  37.308  1.00  0.00     0.029 A 
ATOM     58  C   UNL A   1      42.874  30.456  36.104  1.00  0.00     0.049 A 
ATOM     59  H   UNL A   1      41.081  31.230  35.302  1.00  0.00     0.167 HD
ATOM     60  C   UNL A   1      42.615  29.289  33.933  1.00  0.00     0.074 A 
ATOM     61  C   UNL A   1      43.052  28.366  32.906  1.00  0.00     0.031 C 
ATOM     62  C   UNL A   1      43.301  29.539  35.077  1.00  0.00     0.037 A 
BRANCH  49  63
ATOM     63  C   UNL A   1      40.644  33.786  38.694  1.00  0.00     0.057 A 
ATOM     64  C   UNL A   1      39.950  33.456  39.866  1.00  0.00     0.134 A 
ATOM     65  C   UNL A   1      41.443  34.937  38.721  1.00  0.00     0.134 A 
ATOM     66  F   UNL A   1      39.156  32.375  39.904  1.00  0.00    -0.206 F 
ATOM     67  C   UNL A   1      40.023  34.257  41.007  1.00  0.00     0.040 A 
ATOM     68  C   UNL A   1      41.549  35.728  39.866  1.00  0.00     0.040 A 
ATOM     69  F   UNL A   1      42.140  35.310  37.636  1.00  0.00    -0.206 F 
ATOM     70  C   UNL A   1      40.829  35.393  41.011  1.00  0.00     0.006 A 
ENDBRANCH  49  63
BRANCH  50  71
ATOM     71  C   UNL A   1      39.916  28.769  30.111  1.00  0.00     0.057 A 
ATOM     72  C   UNL A   1      39.248  27.547  29.965  1.00  0.00     0.134 A 
ATOM     73  C   UNL A   1      40.536  29.302  28.974  1.00  0.00     0.134 A 
ATOM     74  F   UNL A   1      38.659  26.970  31.022  1.00  0.00    -0.206 F 
ATOM     75  C   UNL A   1      39.208  26.877  28.741  1.00  0.00     0.040 A 
ATOM     76  C   UNL A   1      40.480  28.657  27.738  1.00  0.00     0.040 A 
ATOM     77  F   UNL A   1      41.197  30.467  29.048  1.00  0.00    -0.206 F 
ATOM     78  C   UNL A   1      39.819  27.438  27.620  1.00  0.00     0.006 A 
ENDBRANCH  50  71
BRANCH  62  79
ATOM     79  C   UNL A   1      44.579  28.779  35.302  1.00  0.00     0.057 A 
ATOM     80  C   UNL A   1      45.828  29.289  34.924  1.00  0.00     0.134 A 
ATOM     81  C   UNL A   1      44.563  27.536  35.949  1.00  0.00     0.134 A 
ATOM     82  F   UNL A   1      45.917  30.469  34.291  1.00  0.00    -0.206 F 
ATOM     83  C   UNL A   1      47.008  28.581  35.158  1.00  0.00     0.040 A 
ATOM     84  C   UNL A   1      45.739  26.832  36.218  1.00  0.00     0.040 A 
ATOM     85  F   UNL A   1      43.404  26.991  36.351  1.00  0.00    -0.206 F 
ATOM     86  C   UNL A   1      46.966  27.352  35.814  1.00  0.00     0.006 A 
ENDBRANCH  62  79
ENDBRANCH  36  37
ENDBRANCH  29  31
ENDBRANCH  28  29
ENDBRANCH  27  28
ENDBRANCH  26  27
ENDBRANCH  25  26
ENDBRANCH  24  25
ENDBRANCH   1  24
TORSDOF 19
ENDMDL
MODEL 2
REMARK VINA RESULT:     -10.3      3.630      8.683
REMARK SMILES Cc1cccc(Nc2ccccc2C(=O)OCCOCCOCCOC(=O)c2ccc(-c3c4nc(c(-c5c(F)cccc5F)c5ccc([nH]5)c(-c5c(F)cccc5F)c5nc(c(-c6c(F)cccc6F)c6ccc3[nH]6)C=C5)C=C4)cc2)c1C
REMARK SMILES IDX 20 1 19 2 18 3 17 4 16 5 14 6 15 7 13 8 8 9 9 10 10 11 12 12
REMARK SMILES IDX 11 13 7 14 6 16 1 17 2 18 3 19 82 20 4 21 83 22 5 23 21 24
REMARK SMILES IDX 22 25 23 26 24 27 25 28 26 29 27 30 28 31 29 32 81 33 30 34
REMARK SMILES IDX 80 35 31 36 32 37 33 38 74 39 34 40 79 41 73 42 75 43 35 44
REMARK SMILES IDX 78 45 72 46 71 47 36 49 62 50 45 51 61 52 46 53 49 54 60 55
REMARK SMILES IDX 76 56 47 57 48 58 59 60 77 61 50 62 37 63 38 64 43 65 39 66
REMARK SMILES IDX 40 67 42 68 44 69 41 70 63 71 64 72 69 73 65 74 66 75 68 76
REMARK SMILES IDX 70 77 67 78 51 79 52 80 57 81 53 82 54 83 56 84 58 85 55 86
REMARK H PARENT 7 15 75 48 49 59
REMARK Flexibility Score: inf
ROOT
ATOM      1  C   UNL A   1      39.506  22.019  26.195  1.00  0.00     0.188 C 
ENDROOT
BRANCH   1   2
ATOM      2  O   UNL A   1      38.108  21.914  26.079  1.00  0.00    -0.376 OA
BRANCH   2   3
ATOM      3  C   UNL A   1      37.394  22.849  25.290  1.00  0.00     0.202 C 
BRANCH   3   4
ATOM      4  C   UNL A   1      35.906  22.734  24.918  1.00  0.00     0.261 C 
BRANCH   4   5
ATOM      5  O   UNL A   1      35.263  23.886  24.374  1.00  0.00    -0.460 OA
BRANCH   5   6
ATOM      6  C   UNL A   1      34.084  23.674  23.738  1.00  0.00     0.340 C 
ATOM      7  O   UNL A   1      33.950  23.439  22.545  1.00  0.00    -0.246 OA
BRANCH   6   8
ATOM      8  C   UNL A   1      32.958  23.549  24.709  1.00  0.00     0.083 A 
ATOM      9  C   UNL A   1      32.533  24.552  25.608  1.00  0.00     0.053 A 
ATOM     10  C   UNL A   1      31.479  24.232  26.491  1.00  0.00     0.027 A 
ATOM     11  C   UNL A   1      30.861  22.980  26.480  1.00  0.00     0.002 A 
ATOM     12  C   UNL A   1      32.328  22.286  24.710  1.00  0.00     0.018 A 
ATOM     13  C   UNL A   1      31.284  22.004  25.588  1.00  0.00     0.001 A 
BRANCH   9  14
ATOM     14  N   UNL A   1      32.980  25.892  25.645  1.00  0.00    -0.355 N 
ATOM     15  H   UNL A   1      33.958  25.992  25.700  1.00  0.00     0.167 HD
BRANCH  14  16
ATOM     16  C   UNL A   1      32.272  27.110  25.615  1.00  0.00     0.042 A 
ATOM     17  C   UNL A   1      30.460  29.328  23.108  1.00  0.00     0.044 C 
ATOM     18  C   UNL A   1      31.062  28.835  24.396  1.00  0.00    -0.046 A 
ATOM     19  C   UNL A   1      31.404  29.765  25.389  1.00  0.00     0.004 A 
ATOM     20  C   UNL A   1      31.400  27.472  24.566  1.00  0.00    -0.025 A 
ATOM     21  C   UNL A   1      32.123  29.369  26.513  1.00  0.00     0.002 A 
ATOM     22  C   UNL A   1      30.834  26.436  23.625  1.00  0.00     0.047 C 
ATOM     23  C   UNL A   1      32.585  28.060  26.604  1.00  0.00     0.026 A 
ENDBRANCH  14  16
ENDBRANCH   9  14
ENDBRANCH   6   8
ENDBRANCH   5   6
ENDBRANCH   4   5
ENDBRANCH   3   4
ENDBRANCH   2   3
ENDBRANCH   1   2
BRANCH   1  24
ATOM     24  C   UNL A   1      40.278  20.679  26.136  1.00  0.00     0.188 C 
BRANCH  24  25
ATOM     25  O   UNL A   1      41.496  20.509  26.842  1.00  0.00    -0.376 OA
BRANCH  25  26
ATOM     26  C   UNL A   1      42.656  20.117  26.126  1.00  0.00     0.202 C 
BRANCH  26  27
ATOM     27  C   UNL A   1      43.659  21.165  25.605  1.00  0.00     0.261 C 
BRANCH  27  28
ATOM     28  O   UNL A   1      43.808  22.357  26.399  1.00  0.00    -0.460 OA
BRANCH  28  29
ATOM     29  C   UNL A   1      43.785  23.532  25.715  1.00  0.00     0.338 C 
ATOM     30  O   UNL A   1      44.087  23.715  24.552  1.00  0.00    -0.246 OA
BRANCH  29  31
ATOM     31  C   UNL A   1      43.123  24.568  26.542  1.00  0.00     0.060 A 
ATOM     32  C   UNL A   1      43.673  25.861  26.567  1.00  0.00     0.016 A 
ATOM     33  C   UNL A   1      41.994  24.273  27.305  1.00  0.00     0.016 A 
ATOM     34  C   UNL A   1      43.106  26.856  27.363  1.00  0.00     0.010 A 
ATOM     35  C   UNL A   1      41.448  25.261  28.132  1.00  0.00     0.010 A 
ATOM     36  C   UNL A   1      42.018  26.548  28.188  1.00  0.00    -0.014 A 
BRANCH  36  37
ATOM     37  C   UNL A   1      41.613  27.499  29.252  1.00  0.00     0.031 A 
ATOM     38  C   UNL A   1      42.350  27.460  30.563  1.00  0.00     0.074 A 
ATOM     39  C   UNL A   1      40.620  28.386  29.067  1.00  0.00     0.049 A 
ATOM     40  N   UNL A   1      42.132  28.135  31.662  1.00  0.00    -0.248 NA
ATOM     41  C   UNL A   1      43.484  26.527  30.642  1.00  0.00     0.031 C 
ATOM     42  C   UNL A   1      39.855  28.557  27.836  1.00  0.00     0.029 A 
ATOM     43  N   UNL A   1      40.075  29.301  29.935  1.00  0.00    -0.354 N 
ATOM     44  C   UNL A   1      43.087  27.692  32.570  1.00  0.00     0.074 A 
ATOM     45  C   UNL A   1      43.869  26.676  31.899  1.00  0.00     0.031 C 
ATOM     46  C   UNL A   1      38.917  29.499  28.035  1.00  0.00     0.029 A 
ATOM     47  C   UNL A   1      38.995  29.973  29.417  1.00  0.00     0.049 A 
ATOM     48  H   UNL A   1      40.425  29.460  30.842  1.00  0.00     0.167 HD
ATOM     49  C   UNL A   1      43.295  28.095  33.846  1.00  0.00     0.037 A 
ATOM     50  C   UNL A   1      38.148  30.843  30.003  1.00  0.00     0.037 A 
ATOM     51  C   UNL A   1      42.514  29.104  34.512  1.00  0.00     0.049 A 
ATOM     52  C   UNL A   1      38.356  31.232  31.443  1.00  0.00     0.074 A 
ATOM     53  C   UNL A   1      42.671  29.609  35.791  1.00  0.00     0.029 A 
ATOM     54  N   UNL A   1      41.418  29.750  33.960  1.00  0.00    -0.354 N 
ATOM     55  N   UNL A   1      39.283  30.839  32.283  1.00  0.00    -0.248 NA
ATOM     56  C   UNL A   1      37.400  32.191  32.018  1.00  0.00     0.031 C 
ATOM     57  C   UNL A   1      41.629  30.509  36.036  1.00  0.00     0.029 A 
ATOM     58  C   UNL A   1      40.866  30.619  34.886  1.00  0.00     0.049 A 
ATOM     59  H   UNL A   1      41.082  29.610  33.044  1.00  0.00     0.167 HD
ATOM     60  C   UNL A   1      39.040  31.519  33.471  1.00  0.00     0.074 A 
ATOM     61  C   UNL A   1      37.885  32.361  33.240  1.00  0.00     0.031 C 
ATOM     62  C   UNL A   1      39.714  31.454  34.647  1.00  0.00     0.037 A 
BRANCH  49  63
ATOM     63  C   UNL A   1      44.383  27.406  34.618  1.00  0.00     0.057 A 
ATOM     64  C   UNL A   1      45.692  27.902  34.672  1.00  0.00     0.134 A 
ATOM     65  C   UNL A   1      44.108  26.233  35.333  1.00  0.00     0.134 A 
ATOM     66  F   UNL A   1      46.027  29.013  33.999  1.00  0.00    -0.206 F 
ATOM     67  C   UNL A   1      46.696  27.237  35.381  1.00  0.00     0.040 A 
ATOM     68  C   UNL A   1      45.094  25.578  36.071  1.00  0.00     0.040 A 
ATOM     69  F   UNL A   1      42.874  25.705  35.330  1.00  0.00    -0.206 F 
ATOM     70  C   UNL A   1      46.396  26.076  36.089  1.00  0.00     0.006 A 
ENDBRANCH  49  63
BRANCH  50  71
ATOM     71  C   UNL A   1      37.000  31.387  29.230  1.00  0.00     0.057 A 
ATOM     72  C   UNL A   1      37.022  32.685  28.706  1.00  0.00     0.134 A 
ATOM     73  C   UNL A   1      35.847  30.625  29.009  1.00  0.00     0.134 A 
ATOM     74  F   UNL A   1      38.087  33.477  28.908  1.00  0.00    -0.206 F 
ATOM     75  C   UNL A   1      35.937  33.209  28.001  1.00  0.00     0.040 A 
ATOM     76  C   UNL A   1      34.766  31.124  28.282  1.00  0.00     0.040 A 
ATOM     77  F   UNL A   1      35.760  29.375  29.489  1.00  0.00    -0.206 F 
ATOM     78  C   UNL A   1      34.807  32.423  27.782  1.00  0.00     0.006 A 
ENDBRANCH  50  71
BRANCH  62  79
ATOM     79  C   UNL A   1      39.248  32.343  35.767  1.00  0.00     0.057 A 
ATOM     80  C   UNL A   1      38.326  31.909  36.729  1.00  0.00     0.134 A 
ATOM     81  C   UNL A   1      39.764  33.638  35.910  1.00  0.00     0.134 A 
ATOM     82  F   UNL A   1      37.783  30.684  36.648  1.00  0.00    -0.206 F 
ATOM     83  C   UNL A   1      37.917  32.739  37.775  1.00  0.00     0.040 A 
ATOM     84  C   UNL A   1      39.387  34.465  36.970  1.00  0.00     0.040 A 
ATOM     85  F   UNL A   1      40.660  34.115  35.032  1.00  0.00    -0.206 F 
ATOM     86  C   UNL A   1      38.455  34.019  37.902  1.00  0.00     0.006 A 
ENDBRANCH  62  79
ENDBRANCH  36  37
ENDBRANCH  29  31
ENDBRANCH  28  29
ENDBRANCH  27  28
ENDBRANCH  26  27
ENDBRANCH  25  26
ENDBRANCH  24  25
ENDBRANCH   1  24
TORSDOF 19
ENDMDL
MODEL 3
REMARK VINA RESULT:     -10.2      4.699      7.256
REMARK SMILES Cc1cccc(Nc2ccccc2C(=O)OCCOCCOCCOC(=O)c2ccc(-c3c4nc(c(-c5c(F)cccc5F)c5ccc([nH]5)c(-c5c(F)cccc5F)c5nc(c(-c6c(F)cccc6F)c6ccc3[nH]6)C=C5)C=C4)cc2)c1C
REMARK SMILES IDX 20 1 19 2 18 3 17 4 16 5 14 6 15 7 13 8 8 9 9 10 10 11 12 12
REMARK SMILES IDX 11 13 7 14 6 16 1 17 2 18 3 19 82 20 4 21 83 22 5 23 21 24
REMARK SMILES IDX 22 25 23 26 24 27 25 28 26 29 27 30 28 31 29 32 81 33 30 34
REMARK SMILES IDX 80 35 31 36 32 37 33 38 74 39 34 40 79 41 73 42 75 43 35 44
REMARK SMILES IDX 78 45 72 46 71 47 36 49 62 50 45 51 61 52 46 53 49 54 60 55
REMARK SMILES IDX 76 56 47 57 48 58 59 60 77 61 50 62 37 63 38 64 43 65 39 66
REMARK SMILES IDX 40 67 42 68 44 69 41 70 63 71 64 72 69 73 65 74 66 75 68 76
REMARK SMILES IDX 70 77 67 78 51 79 52 80 57 81 53 82 54 83 56 84 58 85 55 86
REMARK H PARENT 7 15 75 48 49 59
REMARK Flexibility Score: inf
ROOT
ATOM      1  C   UNL A   1      33.866  34.986  28.797  1.00  0.00     0.188 C 
ENDROOT
BRANCH   1   2
ATOM      2  O   UNL A   1      34.113  33.601  28.824  1.00  0.00    -0.376 OA
BRANCH   2   3
ATOM      3  C   UNL A   1      33.497  32.756  27.867  1.00  0.00     0.202 C 
BRANCH   3   4
ATOM      4  C   UNL A   1      33.808  31.262  27.681  1.00  0.00     0.261 C 
BRANCH   4   5
ATOM      5  O   UNL A   1      32.825  30.450  27.040  1.00  0.00    -0.460 OA
BRANCH   5   6
ATOM      6  C   UNL A   1      33.224  29.212  26.654  1.00  0.00     0.340 C 
ATOM      7  O   UNL A   1      33.990  28.487  27.274  1.00  0.00    -0.246 OA
BRANCH   6   8
ATOM      8  C   UNL A   1      32.450  28.735  25.471  1.00  0.00     0.083 A 
ATOM      9  C   UNL A   1      32.672  27.525  24.779  1.00  0.00     0.053 A 
ATOM     10  C   UNL A   1      31.871  27.266  23.646  1.00  0.00     0.027 A 
ATOM     11  C   UNL A   1      30.883  28.158  23.220  1.00  0.00     0.002 A 
ATOM     12  C   UNL A   1      31.453  29.630  25.030  1.00  0.00     0.018 A 
ATOM     13  C   UNL A   1      30.672  29.342  23.913  1.00  0.00     0.001 A 
BRANCH   9  14
ATOM     14  N   UNL A   1      33.544  26.483  25.166  1.00  0.00    -0.355 N 
ATOM     15  H   UNL A   1      34.499  26.681  25.030  1.00  0.00     0.167 HD
BRANCH  14  16
ATOM     16  C   UNL A   1      33.286  25.209  25.713  1.00  0.00     0.042 A 
ATOM     17  C   UNL A   1      34.074  21.555  24.996  1.00  0.00     0.044 C 
ATOM     18  C   UNL A   1      33.495  22.785  25.641  1.00  0.00    -0.046 A 
ATOM     19  C   UNL A   1      32.317  22.670  26.394  1.00  0.00     0.004 A 
ATOM     20  C   UNL A   1      34.047  24.063  25.395  1.00  0.00    -0.025 A 
ATOM     21  C   UNL A   1      31.656  23.805  26.853  1.00  0.00     0.002 A 
ATOM     22  C   UNL A   1      35.427  24.181  24.794  1.00  0.00     0.047 C 
ATOM     23  C   UNL A   1      32.118  25.063  26.481  1.00  0.00     0.026 A 
ENDBRANCH  14  16
ENDBRANCH   9  14
ENDBRANCH   6   8
ENDBRANCH   5   6
ENDBRANCH   4   5
ENDBRANCH   3   4
ENDBRANCH   2   3
ENDBRANCH   1   2
BRANCH   1  24
ATOM     24  C   UNL A   1      33.026  35.532  29.976  1.00  0.00     0.188 C 
BRANCH  24  25
ATOM     25  O   UNL A   1      33.650  36.164  31.082  1.00  0.00    -0.376 OA
BRANCH  25  26
ATOM     26  C   UNL A   1      33.858  35.418  32.271  1.00  0.00     0.202 C 
BRANCH  26  27
ATOM     27  C   UNL A   1      35.270  34.958  32.682  1.00  0.00     0.261 C 
BRANCH  27  28
ATOM     28  O   UNL A   1      35.935  34.052  31.781  1.00  0.00    -0.460 OA
BRANCH  28  29
ATOM     29  C   UNL A   1      35.570  32.746  31.877  1.00  0.00     0.338 C 
ATOM     30  O   UNL A   1      34.483  32.304  32.196  1.00  0.00    -0.246 OA
BRANCH  29  31
ATOM     31  C   UNL A   1      36.647  31.893  31.321  1.00  0.00     0.060 A 
ATOM     32  C   UNL A   1      37.578  31.324  32.207  1.00  0.00     0.016 A 
ATOM     33  C   UNL A   1      36.762  31.675  29.949  1.00  0.00     0.016 A 
ATOM     34  C   UNL A   1      38.631  30.548  31.724  1.00  0.00     0.010 A 
ATOM     35  C   UNL A   1      37.841  30.929  29.462  1.00  0.00     0.010 A 
ATOM     36  C   UNL A   1      38.797  30.386  30.344  1.00  0.00    -0.014 A 
BRANCH  36  37
ATOM     37  C   UNL A   1      40.070  29.834  29.818  1.00  0.00     0.031 A 
ATOM     38  C   UNL A   1      41.252  30.758  29.694  1.00  0.00     0.074 A 
ATOM     39  C   UNL A   1      40.188  28.543  29.462  1.00  0.00     0.049 A 
ATOM     40  N   UNL A   1      42.439  30.529  29.196  1.00  0.00    -0.248 NA
ATOM     41  C   UNL A   1      41.060  32.126  30.198  1.00  0.00     0.031 C 
ATOM     42  C   UNL A   1      39.137  27.535  29.570  1.00  0.00     0.029 A 
ATOM     43  N   UNL A   1      41.253  27.867  28.917  1.00  0.00    -0.354 N 
ATOM     44  C   UNL A   1      43.129  31.731  29.307  1.00  0.00     0.074 A 
ATOM     45  C   UNL A   1      42.220  32.689  29.897  1.00  0.00     0.031 C 
ATOM     46  C   UNL A   1      39.599  26.372  29.077  1.00  0.00     0.029 A 
ATOM     47  C   UNL A   1      40.965  26.565  28.590  1.00  0.00     0.049 A 
ATOM     48  H   UNL A   1      42.137  28.277  28.774  1.00  0.00     0.167 HD
ATOM     49  C   UNL A   1      44.405  32.011  28.950  1.00  0.00     0.037 A 
ATOM     50  C   UNL A   1      41.708  25.645  27.941  1.00  0.00     0.037 A 
ATOM     51  C   UNL A   1      45.307  31.057  28.360  1.00  0.00     0.049 A 
ATOM     52  C   UNL A   1      43.104  25.994  27.494  1.00  0.00     0.074 A 
ATOM     53  C   UNL A   1      46.631  31.235  27.999  1.00  0.00     0.029 A 
ATOM     54  N   UNL A   1      44.975  29.752  28.029  1.00  0.00    -0.354 N 
ATOM     55  N   UNL A   1      43.763  27.119  27.636  1.00  0.00    -0.248 NA
ATOM     56  C   UNL A   1      43.862  24.944  26.798  1.00  0.00     0.031 C 
ATOM     57  C   UNL A   1      47.078  30.059  27.387  1.00  0.00     0.029 A 
ATOM     58  C   UNL A   1      46.056  29.126  27.432  1.00  0.00     0.049 A 
ATOM     59  H   UNL A   1      44.099  29.333  28.194  1.00  0.00     0.167 HD
ATOM     60  C   UNL A   1      45.017  26.904  27.074  1.00  0.00     0.074 A 
ATOM     61  C   UNL A   1      45.031  25.536  26.601  1.00  0.00     0.031 C 
ATOM     62  C   UNL A   1      46.062  27.762  26.963  1.00  0.00     0.037 A 
BRANCH  49  63
ATOM     63  C   UNL A   1      44.881  33.421  29.145  1.00  0.00     0.057 A 
ATOM     64  C   UNL A   1      45.591  33.821  30.285  1.00  0.00     0.134 A 
ATOM     65  C   UNL A   1      44.638  34.392  28.164  1.00  0.00     0.134 A 
ATOM     66  F   UNL A   1      45.847  32.946  31.269  1.00  0.00    -0.206 F 
ATOM     67  C   UNL A   1      46.011  35.142  30.457  1.00  0.00     0.040 A 
ATOM     68  C   UNL A   1      45.080  35.707  28.311  1.00  0.00     0.040 A 
ATOM     69  F   UNL A   1      43.969  34.077  27.044  1.00  0.00    -0.206 F 
ATOM     70  C   UNL A   1      45.761  36.087  29.465  1.00  0.00     0.006 A 
ENDBRANCH  49  63
BRANCH  50  71
ATOM     71  C   UNL A   1      41.133  24.306  27.648  1.00  0.00     0.057 A 
ATOM     72  C   UNL A   1      41.540  23.166  28.352  1.00  0.00     0.134 A 
ATOM     73  C   UNL A   1      40.170  24.133  26.646  1.00  0.00     0.134 A 
ATOM     74  F   UNL A   1      42.480  23.261  29.304  1.00  0.00    -0.206 F 
ATOM     75  C   UNL A   1      41.020  21.903  28.063  1.00  0.00     0.040 A 
ATOM     76  C   UNL A   1      39.621  22.881  26.365  1.00  0.00     0.040 A 
ATOM     77  F   UNL A   1      39.741  25.185  25.932  1.00  0.00    -0.206 F 
ATOM     78  C   UNL A   1      40.051  21.761  27.071  1.00  0.00     0.006 A 
ENDBRANCH  50  71
BRANCH  62  79
ATOM     79  C   UNL A   1      47.327  27.240  26.338  1.00  0.00     0.057 A 
ATOM     80  C   UNL A   1      48.327  26.612  27.092  1.00  0.00     0.134 A 
ATOM     81  C   UNL A   1      47.525  27.327  24.953  1.00  0.00     0.134 A 
ATOM     82  F   UNL A   1      48.208  26.502  28.424  1.00  0.00    -0.206 F 
ATOM     83  C   UNL A   1      49.488  26.114  26.495  1.00  0.00     0.040 A 
ATOM     84  C   UNL A   1      48.666  26.805  24.341  1.00  0.00     0.040 A 
ATOM     85  F   UNL A   1      46.603  27.905  24.168  1.00  0.00    -0.206 F 
ATOM     86  C   UNL A   1      49.655  26.203  25.114  1.00  0.00     0.006 A 
ENDBRANCH  62  79
ENDBRANCH  36  37
ENDBRANCH  29  31
ENDBRANCH  28  29
ENDBRANCH  27  28
ENDBRANCH  26  27
ENDBRANCH  25  26
ENDBRANCH  24  25
ENDBRANCH   1  24
TORSDOF 19
ENDMDL
