MODEL 1
REMARK VINA RESULT:     -10.4      0.000      0.000
REMARK SMILES C[C@H](C(=O)OCCOCCOCCOC(=O)c1ccc(-c2c3nc(c(-c4c(F)cccc4F)c4ccc([nH]4)c(-c4c(F)cccc4F)c4nc(c(-c5c(F)cccc5F)c5ccc2[nH]5)C=C4)C=C3)cc1)[C@H](C)[NH+]1CCN(c2ccccc2Cl)CC1
REMARK SMILES IDX 9 1 8 2 7 3 6 4 5 5 3 6 4 7 2 8 1 9 71 10 72 11 73 12 74 13
REMARK SMILES IDX 85 14 75 16 84 17 76 18 77 19 78 20 82 21 79 22 81 23 83 24
REMARK SMILES IDX 80 25 10 26 11 27 12 28 13 29 14 30 15 31 16 32 17 33 18 34
REMARK SMILES IDX 70 35 19 36 69 37 20 38 21 39 22 40 63 41 23 42 68 43 62 44
REMARK SMILES IDX 64 45 24 46 67 47 61 48 60 49 25 51 51 52 34 53 50 54 35 55
REMARK SMILES IDX 38 56 49 57 65 58 36 59 37 60 48 62 66 63 39 64 26 65 27 66
REMARK SMILES IDX 32 67 28 68 29 69 31 70 33 71 30 72 52 73 53 74 58 75 54 76
REMARK SMILES IDX 55 77 57 78 59 79 56 80 40 81 41 82 46 83 42 84 43 85 45 86
REMARK SMILES IDX 47 87 44 88
REMARK H PARENT 73 15 64 50 38 61
REMARK Flexibility Score: inf
ROOT
ATOM      1  C   UNL A   1      39.596  21.920  26.481  1.00  0.00     0.188 C 
ENDROOT
BRANCH   1   2
ATOM      2  O   UNL A   1      39.255  23.307  26.482  1.00  0.00    -0.376 OA
BRANCH   2   3
ATOM      3  C   UNL A   1      38.079  23.648  25.748  1.00  0.00     0.202 C 
BRANCH   3   4
ATOM      4  C   UNL A   1      36.935  22.645  25.917  1.00  0.00     0.261 C 
BRANCH   4   5
ATOM      5  O   UNL A   1      36.562  22.080  24.648  1.00  0.00    -0.463 OA
BRANCH   5   6
ATOM      6  C   UNL A   1      35.495  22.614  24.010  1.00  0.00     0.314 C 
ATOM      7  O   UNL A   1      35.591  23.375  23.052  1.00  0.00    -0.252 OA
BRANCH   6   8
ATOM      8  C   UNL A   1      34.148  22.017  24.457  1.00  0.00     0.154 C 
ATOM      9  C   UNL A   1      34.456  20.562  24.825  1.00  0.00     0.026 C 
BRANCH   8  10
ATOM     10  C   UNL A   1      33.193  22.875  25.400  1.00  0.00     0.195 C 
ATOM     11  C   UNL A   1      33.252  22.539  26.899  1.00  0.00     0.076 C 
BRANCH  10  12
ATOM     12  N   UNL A   1      31.832  23.279  24.920  1.00  0.00    -0.329 N 
ATOM     13  C   UNL A   1      31.053  24.337  25.586  1.00  0.00     0.284 C 
ATOM     14  C   UNL A   1      31.701  23.519  23.449  1.00  0.00     0.284 C 
ATOM     15  H   UNL A   1      31.411  22.400  25.223  1.00  0.00     0.348 HD
ATOM     16  C   UNL A   1      31.438  25.781  25.214  1.00  0.00     0.178 C 
ATOM     17  C   UNL A   1      32.000  24.971  22.933  1.00  0.00     0.178 C 
ATOM     18  N   UNL A   1      31.309  25.956  23.765  1.00  0.00    -0.359 N 
BRANCH  18  19
ATOM     19  C   UNL A   1      30.785  27.134  23.260  1.00  0.00     0.056 A 
ATOM     20  C   UNL A   1      31.615  28.074  22.633  1.00  0.00     0.027 A 
ATOM     21  C   UNL A   1      29.421  27.476  23.392  1.00  0.00     0.064 A 
ATOM     22  C   UNL A   1      31.143  29.342  22.268  1.00  0.00     0.002 A 
ATOM     23  C   UNL A   1      28.938  28.728  22.995  1.00  0.00     0.023 A 
ATOM     24  Cl  UNL A   1      28.255  26.338  23.986  1.00  0.00    -0.082 Cl
ATOM     25  C   UNL A   1      29.806  29.672  22.457  1.00  0.00     0.002 A 
ENDBRANCH  18  19
ENDBRANCH  10  12
ENDBRANCH   8  10
ENDBRANCH   6   8
ENDBRANCH   5   6
ENDBRANCH   4   5
ENDBRANCH   3   4
ENDBRANCH   2   3
ENDBRANCH   1   2
BRANCH   1  26
ATOM     26  C   UNL A   1      41.085  21.646  26.661  1.00  0.00     0.188 C 
BRANCH  26  27
ATOM     27  O   UNL A   1      41.862  21.796  25.467  1.00  0.00    -0.376 OA
BRANCH  27  28
ATOM     28  C   UNL A   1      43.273  21.690  25.713  1.00  0.00     0.202 C 
BRANCH  28  29
ATOM     29  C   UNL A   1      44.164  22.523  24.777  1.00  0.00     0.261 C 
BRANCH  29  30
ATOM     30  O   UNL A   1      43.602  23.831  24.546  1.00  0.00    -0.460 OA
BRANCH  30  31
ATOM     31  C   UNL A   1      44.334  24.851  25.056  1.00  0.00     0.338 C 
ATOM     32  O   UNL A   1      45.484  25.143  24.778  1.00  0.00    -0.246 OA
BRANCH  31  33
ATOM     33  C   UNL A   1      43.480  25.737  25.871  1.00  0.00     0.060 A 
ATOM     34  C   UNL A   1      43.998  26.991  26.208  1.00  0.00     0.016 A 
ATOM     35  C   UNL A   1      42.296  25.289  26.453  1.00  0.00     0.016 A 
ATOM     36  C   UNL A   1      43.401  27.758  27.204  1.00  0.00     0.010 A 
ATOM     37  C   UNL A   1      41.677  26.077  27.437  1.00  0.00     0.010 A 
ATOM     38  C   UNL A   1      42.261  27.286  27.864  1.00  0.00    -0.014 A 
BRANCH  38  39
ATOM     39  C   UNL A   1      41.810  27.986  29.097  1.00  0.00     0.031 A 
ATOM     40  C   UNL A   1      40.631  28.923  29.032  1.00  0.00     0.074 A 
ATOM     41  C   UNL A   1      42.334  27.684  30.300  1.00  0.00     0.049 A 
ATOM     42  N   UNL A   1      40.034  29.571  30.002  1.00  0.00    -0.248 NA
ATOM     43  C   UNL A   1      40.016  29.127  27.710  1.00  0.00     0.031 C 
ATOM     44  C   UNL A   1      43.388  26.702  30.545  1.00  0.00     0.029 A 
ATOM     45  N   UNL A   1      42.039  28.179  31.548  1.00  0.00    -0.354 N 
ATOM     46  C   UNL A   1      38.929  30.181  29.425  1.00  0.00     0.074 A 
ATOM     47  C   UNL A   1      38.983  29.903  28.007  1.00  0.00     0.031 C 
ATOM     48  C   UNL A   1      43.665  26.680  31.861  1.00  0.00     0.029 A 
ATOM     49  C   UNL A   1      42.852  27.688  32.539  1.00  0.00     0.049 A 
ATOM     50  H   UNL A   1      41.314  28.825  31.716  1.00  0.00     0.167 HD
ATOM     51  C   UNL A   1      37.938  30.884  30.021  1.00  0.00     0.037 A 
ATOM     52  C   UNL A   1      42.972  28.050  33.832  1.00  0.00     0.037 A 
ATOM     53  C   UNL A   1      37.922  31.265  31.406  1.00  0.00     0.049 A 
ATOM     54  C   UNL A   1      42.082  29.127  34.390  1.00  0.00     0.074 A 
ATOM     55  C   UNL A   1      37.002  32.053  32.076  1.00  0.00     0.029 A 
ATOM     56  N   UNL A   1      38.898  30.921  32.324  1.00  0.00    -0.354 N 
ATOM     57  N   UNL A   1      41.041  29.703  33.841  1.00  0.00    -0.248 NA
ATOM     58  C   UNL A   1      42.402  29.627  35.735  1.00  0.00     0.031 C 
ATOM     59  C   UNL A   1      37.466  32.248  33.383  1.00  0.00     0.029 A 
ATOM     60  C   UNL A   1      38.649  31.544  33.534  1.00  0.00     0.049 A 
ATOM     61  H   UNL A   1      39.658  30.322  32.143  1.00  0.00     0.167 HD
ATOM     62  C   UNL A   1      40.573  30.618  34.777  1.00  0.00     0.074 A 
ATOM     63  C   UNL A   1      41.438  30.517  35.932  1.00  0.00     0.031 C 
ATOM     64  C   UNL A   1      39.517  31.463  34.679  1.00  0.00     0.037 A 
BRANCH  51  65
ATOM     65  C   UNL A   1      36.790  31.300  29.158  1.00  0.00     0.057 A 
ATOM     66  C   UNL A   1      35.774  30.396  28.823  1.00  0.00     0.134 A 
ATOM     67  C   UNL A   1      36.681  32.612  28.684  1.00  0.00     0.134 A 
ATOM     68  F   UNL A   1      35.838  29.119  29.232  1.00  0.00    -0.206 F 
ATOM     69  C   UNL A   1      34.685  30.785  28.043  1.00  0.00     0.040 A 
ATOM     70  C   UNL A   1      35.593  33.013  27.909  1.00  0.00     0.040 A 
ATOM     71  F   UNL A   1      37.629  33.517  28.966  1.00  0.00    -0.206 F 
ATOM     72  C   UNL A   1      34.590  32.099  27.588  1.00  0.00     0.006 A 
ENDBRANCH  51  65
BRANCH  52  73
ATOM     73  C   UNL A   1      44.058  27.468  34.661  1.00  0.00     0.057 A 
ATOM     74  C   UNL A   1      45.314  28.072  34.768  1.00  0.00     0.134 A 
ATOM     75  C   UNL A   1      43.863  26.258  35.344  1.00  0.00     0.134 A 
ATOM     76  F   UNL A   1      45.573  29.210  34.108  1.00  0.00    -0.206 F 
ATOM     77  C   UNL A   1      46.337  27.497  35.523  1.00  0.00     0.040 A 
ATOM     78  C   UNL A   1      44.867  25.686  36.123  1.00  0.00     0.040 A 
ATOM     79  F   UNL A   1      42.687  25.617  35.266  1.00  0.00    -0.206 F 
ATOM     80  C   UNL A   1      46.112  26.304  36.210  1.00  0.00     0.006 A 
ENDBRANCH  52  73
BRANCH  64  81
ATOM     81  C   UNL A   1      39.235  32.356  35.850  1.00  0.00     0.057 A 
ATOM     82  C   UNL A   1      39.756  33.653  35.921  1.00  0.00     0.134 A 
ATOM     83  C   UNL A   1      38.401  31.935  36.894  1.00  0.00     0.134 A 
ATOM     84  F   UNL A   1      40.571  34.112  34.959  1.00  0.00    -0.206 F 
ATOM     85  C   UNL A   1      39.469  34.497  36.996  1.00  0.00     0.040 A 
ATOM     86  C   UNL A   1      38.090  32.776  37.963  1.00  0.00     0.040 A 
ATOM     87  F   UNL A   1      37.863  30.706  36.883  1.00  0.00    -0.206 F 
ATOM     88  C   UNL A   1      38.629  34.060  38.019  1.00  0.00     0.006 A 
ENDBRANCH  64  81
ENDBRANCH  38  39
ENDBRANCH  31  33
ENDBRANCH  30  31
ENDBRANCH  29  30
ENDBRANCH  28  29
ENDBRANCH  27  28
ENDBRANCH  26  27
ENDBRANCH   1  26
TORSDOF 20
ENDMDL
MODEL 2
REMARK VINA RESULT:     -10.4      1.035      6.008
REMARK SMILES C[C@H](C(=O)OCCOCCOCCOC(=O)c1ccc(-c2c3nc(c(-c4c(F)cccc4F)c4ccc([nH]4)c(-c4c(F)cccc4F)c4nc(c(-c5c(F)cccc5F)c5ccc2[nH]5)C=C4)C=C3)cc1)[C@H](C)[NH+]1CCN(c2ccccc2Cl)CC1
REMARK SMILES IDX 9 1 8 2 7 3 6 4 5 5 3 6 4 7 2 8 1 9 71 10 72 11 73 12 74 13
REMARK SMILES IDX 85 14 75 16 84 17 76 18 77 19 78 20 82 21 79 22 81 23 83 24
REMARK SMILES IDX 80 25 10 26 11 27 12 28 13 29 14 30 15 31 16 32 17 33 18 34
REMARK SMILES IDX 70 35 19 36 69 37 20 38 21 39 22 40 63 41 23 42 68 43 62 44
REMARK SMILES IDX 64 45 24 46 67 47 61 48 60 49 25 51 51 52 34 53 50 54 35 55
REMARK SMILES IDX 38 56 49 57 65 58 36 59 37 60 48 62 66 63 39 64 26 65 27 66
REMARK SMILES IDX 32 67 28 68 29 69 31 70 33 71 30 72 52 73 53 74 58 75 54 76
REMARK SMILES IDX 55 77 57 78 59 79 56 80 40 81 41 82 46 83 42 84 43 85 45 86
REMARK SMILES IDX 47 87 44 88
REMARK H PARENT 73 15 64 50 38 61
REMARK Flexibility Score: inf
ROOT
ATOM      1  C   UNL A   1      39.725  21.047  26.596  1.00  0.00     0.188 C 
ENDROOT
BRANCH   1   2
ATOM      2  O   UNL A   1      39.092  21.987  25.727  1.00  0.00    -0.376 OA
BRANCH   2   3
ATOM      3  C   UNL A   1      37.810  21.597  25.234  1.00  0.00     0.202 C 
BRANCH   3   4
ATOM      4  C   UNL A   1      36.941  22.774  24.778  1.00  0.00     0.261 C 
BRANCH   4   5
ATOM      5  O   UNL A   1      35.564  22.373  24.661  1.00  0.00    -0.463 OA
BRANCH   5   6
ATOM      6  C   UNL A   1      34.725  23.195  23.989  1.00  0.00     0.314 C 
ATOM      7  O   UNL A   1      35.105  24.038  23.182  1.00  0.00    -0.252 OA
BRANCH   6   8
ATOM      8  C   UNL A   1      33.239  22.835  24.165  1.00  0.00     0.154 C 
ATOM      9  C   UNL A   1      33.175  21.311  24.024  1.00  0.00     0.026 C 
BRANCH   8  10
ATOM     10  C   UNL A   1      32.398  23.548  25.316  1.00  0.00     0.195 C 
ATOM     11  C   UNL A   1      32.589  22.984  26.734  1.00  0.00     0.076 C 
BRANCH  10  12
ATOM     12  N   UNL A   1      31.010  24.037  25.037  1.00  0.00    -0.329 N 
ATOM     13  C   UNL A   1      30.447  25.216  25.718  1.00  0.00     0.284 C 
ATOM     14  C   UNL A   1      30.639  24.165  23.593  1.00  0.00     0.284 C 
ATOM     15  H   UNL A   1      30.582  23.230  25.492  1.00  0.00     0.348 HD
ATOM     16  C   UNL A   1      30.872  26.581  25.146  1.00  0.00     0.178 C 
ATOM     17  C   UNL A   1      30.954  25.534  22.893  1.00  0.00     0.178 C 
ATOM     18  N   UNL A   1      30.502  26.646  23.729  1.00  0.00    -0.359 N 
BRANCH  18  19
ATOM     19  C   UNL A   1      29.991  27.821  23.207  1.00  0.00     0.056 A 
ATOM     20  C   UNL A   1      28.607  28.046  23.171  1.00  0.00     0.027 A 
ATOM     21  C   UNL A   1      30.812  28.822  22.641  1.00  0.00     0.064 A 
ATOM     22  C   UNL A   1      28.058  29.144  22.497  1.00  0.00     0.002 A 
ATOM     23  C   UNL A   1      30.268  29.940  21.998  1.00  0.00     0.023 A 
ATOM     24  Cl  UNL A   1      32.540  28.757  22.775  1.00  0.00    -0.082 Cl
ATOM     25  C   UNL A   1      28.888  30.086  21.903  1.00  0.00     0.002 A 
ENDBRANCH  18  19
ENDBRANCH  10  12
ENDBRANCH   8  10
ENDBRANCH   6   8
ENDBRANCH   5   6
ENDBRANCH   4   5
ENDBRANCH   3   4
ENDBRANCH   2   3
ENDBRANCH   1   2
BRANCH   1  26
ATOM     26  C   UNL A   1      41.232  21.238  26.725  1.00  0.00     0.188 C 
BRANCH  26  27
ATOM     27  O   UNL A   1      41.978  20.859  25.562  1.00  0.00    -0.376 OA
BRANCH  27  28
ATOM     28  C   UNL A   1      43.397  20.961  25.762  1.00  0.00     0.202 C 
BRANCH  28  29
ATOM     29  C   UNL A   1      44.127  21.905  24.792  1.00  0.00     0.261 C 
BRANCH  29  30
ATOM     30  O   UNL A   1      43.378  23.120  24.582  1.00  0.00    -0.460 OA
BRANCH  30  31
ATOM     31  C   UNL A   1      44.020  24.246  24.976  1.00  0.00     0.338 C 
ATOM     32  O   UNL A   1      45.123  24.627  24.626  1.00  0.00    -0.246 OA
BRANCH  31  33
ATOM     33  C   UNL A   1      43.109  25.109  25.755  1.00  0.00     0.060 A 
ATOM     34  C   UNL A   1      43.370  26.482  25.750  1.00  0.00     0.016 A 
ATOM     35  C   UNL A   1      42.152  24.580  26.619  1.00  0.00     0.016 A 
ATOM     36  C   UNL A   1      42.758  27.320  26.677  1.00  0.00     0.010 A 
ATOM     37  C   UNL A   1      41.514  25.432  27.536  1.00  0.00     0.010 A 
ATOM     38  C   UNL A   1      41.861  26.795  27.613  1.00  0.00    -0.014 A 
BRANCH  38  39
ATOM     39  C   UNL A   1      41.440  27.650  28.756  1.00  0.00     0.031 A 
ATOM     40  C   UNL A   1      42.246  27.641  30.029  1.00  0.00     0.074 A 
ATOM     41  C   UNL A   1      40.443  28.546  28.625  1.00  0.00     0.049 A 
ATOM     42  N   UNL A   1      42.094  28.365  31.111  1.00  0.00    -0.248 NA
ATOM     43  C   UNL A   1      43.401  26.730  30.079  1.00  0.00     0.031 C 
ATOM     44  C   UNL A   1      39.655  28.768  27.415  1.00  0.00     0.029 A 
ATOM     45  N   UNL A   1      39.929  29.443  29.531  1.00  0.00    -0.354 N 
ATOM     46  C   UNL A   1      43.178  28.062  31.924  1.00  0.00     0.074 A 
ATOM     47  C   UNL A   1      43.933  27.026  31.256  1.00  0.00     0.031 C 
ATOM     48  C   UNL A   1      38.744  29.727  27.659  1.00  0.00     0.029 A 
ATOM     49  C   UNL A   1      38.845  30.139  29.058  1.00  0.00     0.049 A 
ATOM     50  H   UNL A   1      40.302  29.573  30.433  1.00  0.00     0.167 HD
ATOM     51  C   UNL A   1      43.534  28.616  33.106  1.00  0.00     0.037 A 
ATOM     52  C   UNL A   1      37.993  30.969  29.693  1.00  0.00     0.037 A 
ATOM     53  C   UNL A   1      42.742  29.564  33.839  1.00  0.00     0.049 A 
ATOM     54  C   UNL A   1      38.206  31.285  31.148  1.00  0.00     0.074 A 
ATOM     55  C   UNL A   1      42.983  30.110  35.088  1.00  0.00     0.029 A 
ATOM     56  N   UNL A   1      41.530  30.072  33.407  1.00  0.00    -0.354 N 
ATOM     57  N   UNL A   1      39.229  30.994  31.913  1.00  0.00    -0.248 NA
ATOM     58  C   UNL A   1      37.132  32.016  31.837  1.00  0.00     0.031 C 
ATOM     59  C   UNL A   1      41.876  30.891  35.442  1.00  0.00     0.029 A 
ATOM     60  C   UNL A   1      40.970  30.863  34.395  1.00  0.00     0.049 A 
ATOM     61  H   UNL A   1      41.126  29.896  32.527  1.00  0.00     0.167 HD
ATOM     62  C   UNL A   1      38.931  31.520  33.165  1.00  0.00     0.074 A 
ATOM     63  C   UNL A   1      37.635  32.154  33.057  1.00  0.00     0.031 C 
ATOM     64  C   UNL A   1      39.673  31.479  34.299  1.00  0.00     0.037 A 
BRANCH  51  65
ATOM     65  C   UNL A   1      44.843  28.186  33.687  1.00  0.00     0.057 A 
ATOM     66  C   UNL A   1      44.933  27.052  34.503  1.00  0.00     0.134 A 
ATOM     67  C   UNL A   1      46.022  28.888  33.409  1.00  0.00     0.134 A 
ATOM     68  F   UNL A   1      43.832  26.354  34.821  1.00  0.00    -0.206 F 
ATOM     69  C   UNL A   1      46.156  26.628  35.025  1.00  0.00     0.040 A 
ATOM     70  C   UNL A   1      47.250  28.469  33.920  1.00  0.00     0.040 A 
ATOM     71  F   UNL A   1      45.994  29.987  32.641  1.00  0.00    -0.206 F 
ATOM     72  C   UNL A   1      47.320  27.335  34.729  1.00  0.00     0.006 A 
ENDBRANCH  51  65
BRANCH  52  73
ATOM     73  C   UNL A   1      36.788  31.470  28.984  1.00  0.00     0.057 A 
ATOM     74  C   UNL A   1      36.665  32.804  28.586  1.00  0.00     0.134 A 
ATOM     75  C   UNL A   1      35.707  30.615  28.721  1.00  0.00     0.134 A 
ATOM     76  F   UNL A   1      37.647  33.679  28.843  1.00  0.00    -0.206 F 
ATOM     77  C   UNL A   1      35.512  33.272  27.952  1.00  0.00     0.040 A 
ATOM     78  C   UNL A   1      34.562  31.061  28.065  1.00  0.00     0.040 A 
ATOM     79  F   UNL A   1      35.756  29.328  29.096  1.00  0.00    -0.206 F 
ATOM     80  C   UNL A   1      34.460  32.397  27.682  1.00  0.00     0.006 A 
ENDBRANCH  52  73
BRANCH  64  81
ATOM     81  C   UNL A   1      39.104  32.131  35.523  1.00  0.00     0.057 A 
ATOM     82  C   UNL A   1      39.264  33.501  35.762  1.00  0.00     0.134 A 
ATOM     83  C   UNL A   1      38.351  31.396  36.449  1.00  0.00     0.134 A 
ATOM     84  F   UNL A   1      39.984  34.258  34.920  1.00  0.00    -0.206 F 
ATOM     85  C   UNL A   1      38.709  34.116  36.886  1.00  0.00     0.040 A 
ATOM     86  C   UNL A   1      37.773  32.003  37.565  1.00  0.00     0.040 A 
ATOM     87  F   UNL A   1      38.153  30.081  36.275  1.00  0.00    -0.206 F 
ATOM     88  C   UNL A   1      37.955  33.367  37.788  1.00  0.00     0.006 A 
ENDBRANCH  64  81
ENDBRANCH  38  39
ENDBRANCH  31  33
ENDBRANCH  30  31
ENDBRANCH  29  30
ENDBRANCH  28  29
ENDBRANCH  27  28
ENDBRANCH  26  27
ENDBRANCH   1  26
TORSDOF 20
ENDMDL
MODEL 3
REMARK VINA RESULT:     -10.1      3.153      8.433
REMARK SMILES C[C@H](C(=O)OCCOCCOCCOC(=O)c1ccc(-c2c3nc(c(-c4c(F)cccc4F)c4ccc([nH]4)c(-c4c(F)cccc4F)c4nc(c(-c5c(F)cccc5F)c5ccc2[nH]5)C=C4)C=C3)cc1)[C@H](C)[NH+]1CCN(c2ccccc2Cl)CC1
REMARK SMILES IDX 9 1 8 2 7 3 6 4 5 5 3 6 4 7 2 8 1 9 71 10 72 11 73 12 74 13
REMARK SMILES IDX 85 14 75 16 84 17 76 18 77 19 78 20 82 21 79 22 81 23 83 24
REMARK SMILES IDX 80 25 10 26 11 27 12 28 13 29 14 30 15 31 16 32 17 33 18 34
REMARK SMILES IDX 70 35 19 36 69 37 20 38 21 39 22 40 63 41 23 42 68 43 62 44
REMARK SMILES IDX 64 45 24 46 67 47 61 48 60 49 25 51 51 52 34 53 50 54 35 55
REMARK SMILES IDX 38 56 49 57 65 58 36 59 37 60 48 62 66 63 39 64 26 65 27 66
REMARK SMILES IDX 32 67 28 68 29 69 31 70 33 71 30 72 52 73 53 74 58 75 54 76
REMARK SMILES IDX 55 77 57 78 59 79 56 80 40 81 41 82 46 83 42 84 43 85 45 86
REMARK SMILES IDX 47 87 44 88
REMARK H PARENT 73 15 64 50 38 61
REMARK Flexibility Score: inf
ROOT
ATOM      1  C   UNL A   1      31.776  27.581  23.969  1.00  0.00     0.188 C 
ENDROOT
BRANCH   1   2
ATOM      2  O   UNL A   1      32.627  28.443  23.211  1.00  0.00    -0.376 OA
BRANCH   2   3
ATOM      3  C   UNL A   1      33.334  27.817  22.140  1.00  0.00     0.202 C 
BRANCH   3   4
ATOM      4  C   UNL A   1      32.653  26.552  21.609  1.00  0.00     0.261 C 
BRANCH   4   5
ATOM      5  O   UNL A   1      33.611  25.492  21.441  1.00  0.00    -0.463 OA
BRANCH   5   6
ATOM      6  C   UNL A   1      33.264  24.257  21.872  1.00  0.00     0.314 C 
ATOM      7  O   UNL A   1      33.353  23.249  21.179  1.00  0.00    -0.252 OA
BRANCH   6   8
ATOM      8  C   UNL A   1      32.950  24.196  23.378  1.00  0.00     0.154 C 
ATOM      9  C   UNL A   1      31.510  23.680  23.467  1.00  0.00     0.026 C 
BRANCH   8  10
ATOM     10  C   UNL A   1      34.048  23.620  24.379  1.00  0.00     0.195 C 
ATOM     11  C   UNL A   1      34.622  24.621  25.395  1.00  0.00     0.076 C 
BRANCH  10  12
ATOM     12  N   UNL A   1      35.040  22.604  23.898  1.00  0.00    -0.329 N 
ATOM     13  C   UNL A   1      36.397  22.983  23.470  1.00  0.00     0.284 C 
ATOM     14  C   UNL A   1      35.189  21.382  24.748  1.00  0.00     0.284 C 
ATOM     15  H   UNL A   1      34.521  22.434  23.037  1.00  0.00     0.348 HD
ATOM     16  C   UNL A   1      37.415  23.206  24.604  1.00  0.00     0.178 C 
ATOM     17  C   UNL A   1      36.245  21.443  25.909  1.00  0.00     0.178 C 
ATOM     18  N   UNL A   1      37.509  21.989  25.414  1.00  0.00    -0.359 N 
BRANCH  18  19
ATOM     19  C   UNL A   1      38.744  21.566  25.876  1.00  0.00     0.056 A 
ATOM     20  C   UNL A   1      39.241  20.300  25.533  1.00  0.00     0.027 A 
ATOM     21  C   UNL A   1      39.536  22.346  26.749  1.00  0.00     0.064 A 
ATOM     22  C   UNL A   1      40.402  19.783  26.122  1.00  0.00     0.002 A 
ATOM     23  C   UNL A   1      40.716  21.846  27.311  1.00  0.00     0.023 A 
ATOM     24  Cl  UNL A   1      39.128  23.992  27.113  1.00  0.00    -0.082 Cl
ATOM     25  C   UNL A   1      41.134  20.553  27.018  1.00  0.00     0.002 A 
ENDBRANCH  18  19
ENDBRANCH  10  12
ENDBRANCH   8  10
ENDBRANCH   6   8
ENDBRANCH   5   6
ENDBRANCH   4   5
ENDBRANCH   3   4
ENDBRANCH   2   3
ENDBRANCH   1   2
BRANCH   1  26
ATOM     26  C   UNL A   1      32.258  27.330  25.394  1.00  0.00     0.188 C 
BRANCH  26  27
ATOM     27  O   UNL A   1      31.273  27.583  26.403  1.00  0.00    -0.376 OA
BRANCH  27  28
ATOM     28  C   UNL A   1      31.732  28.514  27.397  1.00  0.00     0.202 C 
BRANCH  28  29
ATOM     29  C   UNL A   1      31.764  29.985  26.948  1.00  0.00     0.261 C 
BRANCH  29  30
ATOM     30  O   UNL A   1      33.092  30.380  26.546  1.00  0.00    -0.460 OA
BRANCH  30  31
ATOM     31  C   UNL A   1      33.618  31.393  27.278  1.00  0.00     0.338 C 
ATOM     32  O   UNL A   1      33.032  32.368  27.714  1.00  0.00    -0.246 OA
BRANCH  31  33
ATOM     33  C   UNL A   1      34.998  31.067  27.686  1.00  0.00     0.060 A 
ATOM     34  C   UNL A   1      35.300  29.720  27.903  1.00  0.00     0.016 A 
ATOM     35  C   UNL A   1      35.916  32.055  28.035  1.00  0.00     0.016 A 
ATOM     36  C   UNL A   1      36.468  29.355  28.567  1.00  0.00     0.010 A 
ATOM     37  C   UNL A   1      37.108  31.685  28.679  1.00  0.00     0.010 A 
ATOM     38  C   UNL A   1      37.361  30.338  29.006  1.00  0.00    -0.014 A 
BRANCH  38  39
ATOM     39  C   UNL A   1      38.447  29.947  29.944  1.00  0.00     0.031 A 
ATOM     40  C   UNL A   1      39.484  28.943  29.506  1.00  0.00     0.074 A 
ATOM     41  C   UNL A   1      38.615  30.581  31.120  1.00  0.00     0.049 A 
ATOM     42  N   UNL A   1      40.551  28.525  30.140  1.00  0.00    -0.248 NA
ATOM     43  C   UNL A   1      39.325  28.367  28.161  1.00  0.00     0.031 C 
ATOM     44  C   UNL A   1      37.775  31.664  31.628  1.00  0.00     0.029 A 
ATOM     45  N   UNL A   1      39.561  30.401  32.101  1.00  0.00    -0.354 N 
ATOM     46  C   UNL A   1      41.230  27.712  29.242  1.00  0.00     0.074 A 
ATOM     47  C   UNL A   1      40.415  27.622  28.052  1.00  0.00     0.031 C 
ATOM     48  C   UNL A   1      38.232  32.040  32.834  1.00  0.00     0.029 A 
ATOM     49  C   UNL A   1      39.356  31.184  33.210  1.00  0.00     0.049 A 
ATOM     50  H   UNL A   1      40.313  29.771  32.017  1.00  0.00     0.167 HD
ATOM     51  C   UNL A   1      42.438  27.118  29.380  1.00  0.00     0.037 A 
ATOM     52  C   UNL A   1      39.965  31.173  34.412  1.00  0.00     0.037 A 
ATOM     53  C   UNL A   1      43.211  27.102  30.590  1.00  0.00     0.049 A 
ATOM     54  C   UNL A   1      41.096  30.215  34.667  1.00  0.00     0.074 A 
ATOM     55  C   UNL A   1      44.404  26.449  30.846  1.00  0.00     0.029 A 
ATOM     56  N   UNL A   1      42.842  27.736  31.763  1.00  0.00    -0.354 N 
ATOM     57  N   UNL A   1      41.733  29.447  33.817  1.00  0.00    -0.248 NA
ATOM     58  C   UNL A   1      41.574  30.099  36.053  1.00  0.00     0.031 C 
ATOM     59  C   UNL A   1      44.716  26.627  32.200  1.00  0.00     0.029 A 
ATOM     60  C   UNL A   1      43.740  27.426  32.770  1.00  0.00     0.049 A 
ATOM     61  H   UNL A   1      42.057  28.320  31.867  1.00  0.00     0.167 HD
ATOM     62  C   UNL A   1      42.694  28.771  34.560  1.00  0.00     0.074 A 
ATOM     63  C   UNL A   1      42.563  29.223  35.928  1.00  0.00     0.031 C 
ATOM     64  C   UNL A   1      43.602  27.857  34.136  1.00  0.00     0.037 A 
BRANCH  51  65
ATOM     65  C   UNL A   1      42.987  26.416  28.179  1.00  0.00     0.057 A 
ATOM     66  C   UNL A   1      43.765  27.101  27.236  1.00  0.00     0.134 A 
ATOM     67  C   UNL A   1      42.765  25.050  27.976  1.00  0.00     0.134 A 
ATOM     68  F   UNL A   1      43.991  28.417  27.368  1.00  0.00    -0.206 F 
ATOM     69  C   UNL A   1      44.305  26.446  26.129  1.00  0.00     0.040 A 
ATOM     70  C   UNL A   1      43.307  24.384  26.877  1.00  0.00     0.040 A 
ATOM     71  F   UNL A   1      42.021  24.346  28.842  1.00  0.00    -0.206 F 
ATOM     72  C   UNL A   1      44.080  25.082  25.950  1.00  0.00     0.006 A 
ENDBRANCH  51  65
BRANCH  52  73
ATOM     73  C   UNL A   1      39.438  32.022  35.511  1.00  0.00     0.057 A 
ATOM     74  C   UNL A   1      38.450  31.568  36.390  1.00  0.00     0.134 A 
ATOM     75  C   UNL A   1      39.897  33.337  35.680  1.00  0.00     0.134 A 
ATOM     76  F   UNL A   1      37.944  30.333  36.256  1.00  0.00    -0.206 F 
ATOM     77  C   UNL A   1      37.938  32.387  37.397  1.00  0.00     0.040 A 
ATOM     78  C   UNL A   1      39.414  34.157  36.698  1.00  0.00     0.040 A 
ATOM     79  F   UNL A   1      40.829  33.840  34.857  1.00  0.00    -0.206 F 
ATOM     80  C   UNL A   1      38.426  33.683  37.558  1.00  0.00     0.006 A 
ENDBRANCH  52  73
BRANCH  64  81
ATOM     81  C   UNL A   1      44.528  27.276  35.162  1.00  0.00     0.057 A 
ATOM     82  C   UNL A   1      44.234  26.070  35.811  1.00  0.00     0.134 A 
ATOM     83  C   UNL A   1      45.744  27.899  35.473  1.00  0.00     0.134 A 
ATOM     84  F   UNL A   1      43.081  25.430  35.566  1.00  0.00    -0.206 F 
ATOM     85  C   UNL A   1      45.110  25.512  36.744  1.00  0.00     0.040 A 
ATOM     86  C   UNL A   1      46.637  27.340  36.388  1.00  0.00     0.040 A 
ATOM     87  F   UNL A   1      46.089  29.051  34.881  1.00  0.00    -0.206 F 
ATOM     88  C   UNL A   1      46.318  26.144  37.030  1.00  0.00     0.006 A 
ENDBRANCH  64  81
ENDBRANCH  38  39
ENDBRANCH  31  33
ENDBRANCH  30  31
ENDBRANCH  29  30
ENDBRANCH  28  29
ENDBRANCH  27  28
ENDBRANCH  26  27
ENDBRANCH   1  26
TORSDOF 20
ENDMDL
