MODEL 1
REMARK VINA RESULT:     -10.9      0.000      0.000
REMARK SMILES COC(=O)N/N=C/c1ccc(-c2cccc(C(=O)OCCOCCOCCOC(=O)c3ccc(-c4c5nc(c(-c6c(F)cccc6F)c6ccc([nH]6)c(-c6c(F)cccc6F)c6nc(c(-c7c(F)cccc7F)c7ccc4[nH]7)C=C6)C=C5)cc3)c2)o1
REMARK SMILES IDX 23 1 22 2 21 3 20 4 19 5 17 6 18 7 16 8 12 9 13 10 85 11
REMARK SMILES IDX 14 12 15 13 11 14 8 15 9 16 86 17 10 18 7 19 6 20 5 21 3 22
REMARK SMILES IDX 4 23 2 25 1 26 24 27 25 28 26 29 27 30 28 31 29 32 30 33
REMARK SMILES IDX 31 34 32 35 84 36 33 37 83 38 34 39 35 40 36 41 77 42 37 43
REMARK SMILES IDX 82 44 76 45 78 46 38 47 81 48 75 49 74 50 39 52 65 53 48 54
REMARK SMILES IDX 64 55 49 56 52 57 63 58 79 59 50 60 51 61 62 63 80 64 53 65
REMARK SMILES IDX 40 66 41 67 46 68 42 69 43 70 45 71 47 72 44 73 66 74 67 75
REMARK SMILES IDX 72 76 68 77 69 78 71 79 73 80 70 81 54 82 55 83 60 84 56 85
REMARK SMILES IDX 57 86 59 87 61 88 58 89
REMARK H PARENT 5 24 78 51 52 62
REMARK Flexibility Score: inf
ROOT
ATOM      1  C   UNL A   1      34.216  35.667  31.909  1.00  0.00     0.188 C 
ENDROOT
BRANCH   1   2
ATOM      2  O   UNL A   1      33.088  35.207  31.188  1.00  0.00    -0.376 OA
BRANCH   2   3
ATOM      3  C   UNL A   1      32.938  35.525  29.812  1.00  0.00     0.202 C 
BRANCH   3   4
ATOM      4  C   UNL A   1      33.817  34.890  28.719  1.00  0.00     0.261 C 
BRANCH   4   5
ATOM      5  O   UNL A   1      33.815  33.458  28.669  1.00  0.00    -0.460 OA
BRANCH   5   6
ATOM      6  C   UNL A   1      32.923  32.897  27.811  1.00  0.00     0.338 C 
ATOM      7  O   UNL A   1      31.961  33.433  27.294  1.00  0.00    -0.246 OA
BRANCH   6   8
ATOM      8  C   UNL A   1      33.418  31.560  27.411  1.00  0.00     0.060 A 
ATOM      9  C   UNL A   1      33.133  29.440  26.267  1.00  0.00     0.018 A 
ATOM     10  C   UNL A   1      34.348  29.000  26.812  1.00  0.00     0.012 A 
ATOM     11  C   UNL A   1      32.659  30.718  26.594  1.00  0.00     0.027 A 
ATOM     12  C   UNL A   1      35.105  29.842  27.633  1.00  0.00     0.002 A 
ATOM     13  C   UNL A   1      34.651  31.129  27.916  1.00  0.00     0.016 A 
BRANCH   9  14
ATOM     14  C   UNL A   1      32.401  28.634  25.302  1.00  0.00     0.134 A 
ATOM     15  C   UNL A   1      31.006  28.321  23.631  1.00  0.00     0.147 A 
ATOM     16  C   UNL A   1      31.463  27.073  24.006  1.00  0.00     0.053 A 
ATOM     17  O   UNL A   1      31.568  29.281  24.433  1.00  0.00    -0.455 OA
ATOM     18  C   UNL A   1      32.365  27.274  25.070  1.00  0.00     0.051 A 
BRANCH  15  19
ATOM     19  C   UNL A   1      30.089  28.717  22.598  1.00  0.00     0.180 C 
ATOM     20  N   UNL A   1      30.108  29.941  22.173  1.00  0.00    -0.175 NA
BRANCH  20  21
ATOM     21  N   UNL A   1      29.211  30.347  21.223  1.00  0.00    -0.212 N 
ATOM     22  C   UNL A   1      28.328  31.408  21.238  1.00  0.00     0.427 C 
ATOM     23  O   UNL A   1      27.626  31.662  20.269  1.00  0.00    -0.223 OA
ATOM     24  H   UNL A   1      29.192  29.799  20.405  1.00  0.00     0.197 HD
BRANCH  22  25
ATOM     25  O   UNL A   1      28.344  32.134  22.388  1.00  0.00    -0.452 OA
ATOM     26  C   UNL A   1      27.535  31.588  23.431  1.00  0.00     0.284 C 
ENDBRANCH  22  25
ENDBRANCH  20  21
ENDBRANCH  15  19
ENDBRANCH   9  14
ENDBRANCH   6   8
ENDBRANCH   5   6
ENDBRANCH   4   5
ENDBRANCH   3   4
ENDBRANCH   2   3
ENDBRANCH   1   2
BRANCH   1  27
ATOM     27  C   UNL A   1      34.036  36.390  33.261  1.00  0.00     0.188 C 
BRANCH  27  28
ATOM     28  O   UNL A   1      34.815  35.918  34.331  1.00  0.00    -0.376 OA
BRANCH  28  29
ATOM     29  C   UNL A   1      35.036  34.528  34.493  1.00  0.00     0.202 C 
BRANCH  29  30
ATOM     30  C   UNL A   1      36.307  33.749  34.088  1.00  0.00     0.261 C 
BRANCH  30  31
ATOM     31  O   UNL A   1      36.202  32.349  33.813  1.00  0.00    -0.460 OA
BRANCH  31  32
ATOM     32  C   UNL A   1      35.783  32.015  32.569  1.00  0.00     0.338 C 
ATOM     33  O   UNL A   1      34.732  32.320  32.033  1.00  0.00    -0.246 OA
BRANCH  32  34
ATOM     34  C   UNL A   1      36.891  31.340  31.864  1.00  0.00     0.060 A 
ATOM     35  C   UNL A   1      37.820  30.601  32.610  1.00  0.00     0.016 A 
ATOM     36  C   UNL A   1      37.024  31.458  30.480  1.00  0.00     0.016 A 
ATOM     37  C   UNL A   1      38.891  29.978  31.969  1.00  0.00     0.010 A 
ATOM     38  C   UNL A   1      38.111  30.852  29.845  1.00  0.00     0.010 A 
ATOM     39  C   UNL A   1      39.060  30.124  30.586  1.00  0.00    -0.014 A 
BRANCH  39  40
ATOM     40  C   UNL A   1      40.296  29.632  29.927  1.00  0.00     0.031 A 
ATOM     41  C   UNL A   1      41.439  30.587  29.719  1.00  0.00     0.074 A 
ATOM     42  C   UNL A   1      40.403  28.356  29.516  1.00  0.00     0.049 A 
ATOM     43  N   UNL A   1      42.573  30.404  29.094  1.00  0.00    -0.248 NA
ATOM     44  C   UNL A   1      41.277  31.933  30.293  1.00  0.00     0.031 C 
ATOM     45  C   UNL A   1      39.387  27.322  29.693  1.00  0.00     0.029 A 
ATOM     46  N   UNL A   1      41.419  27.721  28.844  1.00  0.00    -0.354 N 
ATOM     47  C   UNL A   1      43.256  31.610  29.190  1.00  0.00     0.074 A 
ATOM     48  C   UNL A   1      42.398  32.526  29.910  1.00  0.00     0.031 C 
ATOM     49  C   UNL A   1      39.822  26.182  29.129  1.00  0.00     0.029 A 
ATOM     50  C   UNL A   1      41.128  26.418  28.514  1.00  0.00     0.049 A 
ATOM     51  H   UNL A   1      42.273  28.155  28.621  1.00  0.00     0.167 HD
ATOM     52  C   UNL A   1      44.489  31.922  28.725  1.00  0.00     0.037 A 
ATOM     53  C   UNL A   1      41.823  25.532  27.774  1.00  0.00     0.037 A 
ATOM     54  C   UNL A   1      45.338  31.013  28.003  1.00  0.00     0.049 A 
ATOM     55  C   UNL A   1      43.154  25.934  27.189  1.00  0.00     0.074 A 
ATOM     56  C   UNL A   1      46.612  31.232  27.507  1.00  0.00     0.029 A 
ATOM     57  N   UNL A   1      44.996  29.713  27.660  1.00  0.00    -0.354 N 
ATOM     58  N   UNL A   1      43.805  27.066  27.309  1.00  0.00    -0.248 NA
ATOM     59  C   UNL A   1      43.846  24.933  26.363  1.00  0.00     0.031 C 
ATOM     60  C   UNL A   1      47.016  30.088  26.812  1.00  0.00     0.029 A 
ATOM     61  C   UNL A   1      46.020  29.131  26.932  1.00  0.00     0.049 A 
ATOM     62  H   UNL A   1      44.150  29.269  27.900  1.00  0.00     0.167 HD
ATOM     63  C   UNL A   1      44.991  26.902  26.604  1.00  0.00     0.074 A 
ATOM     64  C   UNL A   1      44.979  25.556  26.073  1.00  0.00     0.031 C 
ATOM     65  C   UNL A   1      46.003  27.786  26.414  1.00  0.00     0.037 A 
BRANCH  52  66
ATOM     66  C   UNL A   1      44.985  33.321  28.959  1.00  0.00     0.057 A 
ATOM     67  C   UNL A   1      45.804  33.646  30.048  1.00  0.00     0.134 A 
ATOM     68  C   UNL A   1      44.675  34.347  28.056  1.00  0.00     0.134 A 
ATOM     69  F   UNL A   1      46.129  32.714  30.956  1.00  0.00    -0.206 F 
ATOM     70  C   UNL A   1      46.279  34.944  30.241  1.00  0.00     0.040 A 
ATOM     71  C   UNL A   1      45.167  35.641  28.223  1.00  0.00     0.040 A 
ATOM     72  F   UNL A   1      43.899  34.103  26.989  1.00  0.00    -0.206 F 
ATOM     73  C   UNL A   1      45.968  35.945  29.322  1.00  0.00     0.006 A 
ENDBRANCH  52  66
BRANCH  53  74
ATOM     74  C   UNL A   1      41.268  24.177  27.512  1.00  0.00     0.057 A 
ATOM     75  C   UNL A   1      40.218  23.985  26.606  1.00  0.00     0.134 A 
ATOM     76  C   UNL A   1      41.745  23.050  28.192  1.00  0.00     0.134 A 
ATOM     77  F   UNL A   1      39.698  25.029  25.944  1.00  0.00    -0.206 F 
ATOM     78  C   UNL A   1      39.647  22.727  26.404  1.00  0.00     0.040 A 
ATOM     79  C   UNL A   1      41.204  21.781  27.976  1.00  0.00     0.040 A 
ATOM     80  F   UNL A   1      42.746  23.165  29.076  1.00  0.00    -0.206 F 
ATOM     81  C   UNL A   1      40.144  21.619  27.086  1.00  0.00     0.006 A 
ENDBRANCH  53  74
BRANCH  65  82
ATOM     82  C   UNL A   1      47.199  27.317  25.633  1.00  0.00     0.057 A 
ATOM     83  C   UNL A   1      47.323  27.538  24.257  1.00  0.00     0.134 A 
ATOM     84  C   UNL A   1      48.263  26.673  26.281  1.00  0.00     0.134 A 
ATOM     85  F   UNL A   1      46.338  28.140  23.572  1.00  0.00    -0.206 F 
ATOM     86  C   UNL A   1      48.449  27.113  23.547  1.00  0.00     0.040 A 
ATOM     87  C   UNL A   1      49.407  26.272  25.589  1.00  0.00     0.040 A 
ATOM     88  F   UNL A   1      48.215  26.438  27.601  1.00  0.00    -0.206 F 
ATOM     89  C   UNL A   1      49.498  26.486  24.216  1.00  0.00     0.006 A 
ENDBRANCH  65  82
ENDBRANCH  39  40
ENDBRANCH  32  34
ENDBRANCH  31  32
ENDBRANCH  30  31
ENDBRANCH  29  30
ENDBRANCH  28  29
ENDBRANCH  27  28
ENDBRANCH   1  27
TORSDOF 21
ENDMDL
MODEL 2
REMARK VINA RESULT:     -10.9      2.185      3.506
REMARK SMILES COC(=O)N/N=C/c1ccc(-c2cccc(C(=O)OCCOCCOCCOC(=O)c3ccc(-c4c5nc(c(-c6c(F)cccc6F)c6ccc([nH]6)c(-c6c(F)cccc6F)c6nc(c(-c7c(F)cccc7F)c7ccc4[nH]7)C=C6)C=C5)cc3)c2)o1
REMARK SMILES IDX 23 1 22 2 21 3 20 4 19 5 17 6 18 7 16 8 12 9 13 10 85 11
REMARK SMILES IDX 14 12 15 13 11 14 8 15 9 16 86 17 10 18 7 19 6 20 5 21 3 22
REMARK SMILES IDX 4 23 2 25 1 26 24 27 25 28 26 29 27 30 28 31 29 32 30 33
REMARK SMILES IDX 31 34 32 35 84 36 33 37 83 38 34 39 35 40 36 41 77 42 37 43
REMARK SMILES IDX 82 44 76 45 78 46 38 47 81 48 75 49 74 50 39 52 65 53 48 54
REMARK SMILES IDX 64 55 49 56 52 57 63 58 79 59 50 60 51 61 62 63 80 64 53 65
REMARK SMILES IDX 40 66 41 67 46 68 42 69 43 70 45 71 47 72 44 73 66 74 67 75
REMARK SMILES IDX 72 76 68 77 69 78 71 79 73 80 70 81 54 82 55 83 60 84 56 85
REMARK SMILES IDX 57 86 59 87 61 88 58 89
REMARK H PARENT 5 24 78 51 52 62
REMARK Flexibility Score: inf
ROOT
ATOM      1  C   UNL A   1      33.667  35.694  31.371  1.00  0.00     0.188 C 
ENDROOT
BRANCH   1   2
ATOM      2  O   UNL A   1      32.629  35.756  30.409  1.00  0.00    -0.376 OA
BRANCH   2   3
ATOM      3  C   UNL A   1      32.939  35.880  29.028  1.00  0.00     0.202 C 
BRANCH   3   4
ATOM      4  C   UNL A   1      33.892  34.909  28.309  1.00  0.00     0.261 C 
BRANCH   4   5
ATOM      5  O   UNL A   1      33.740  33.523  28.638  1.00  0.00    -0.460 OA
BRANCH   5   6
ATOM      6  C   UNL A   1      32.965  32.794  27.792  1.00  0.00     0.338 C 
ATOM      7  O   UNL A   1      31.988  33.176  27.176  1.00  0.00    -0.246 OA
BRANCH   6   8
ATOM      8  C   UNL A   1      33.618  31.488  27.550  1.00  0.00     0.060 A 
ATOM      9  C   UNL A   1      33.511  29.111  27.074  1.00  0.00     0.018 A 
ATOM     10  C   UNL A   1      34.901  29.030  27.244  1.00  0.00     0.012 A 
ATOM     11  C   UNL A   1      32.870  30.345  27.255  1.00  0.00     0.027 A 
ATOM     12  C   UNL A   1      35.647  30.174  27.542  1.00  0.00     0.002 A 
ATOM     13  C   UNL A   1      35.010  31.406  27.675  1.00  0.00     0.016 A 
BRANCH   9  14
ATOM     14  C   UNL A   1      32.735  27.964  26.628  1.00  0.00     0.134 A 
ATOM     15  C   UNL A   1      32.465  25.870  26.014  1.00  0.00     0.147 A 
ATOM     16  C   UNL A   1      31.222  26.466  25.948  1.00  0.00     0.053 A 
ATOM     17  O   UNL A   1      33.400  26.789  26.417  1.00  0.00    -0.455 OA
ATOM     18  C   UNL A   1      31.393  27.806  26.352  1.00  0.00     0.051 A 
BRANCH  15  19
ATOM     19  C   UNL A   1      32.880  24.522  25.734  1.00  0.00     0.180 C 
ATOM     20  N   UNL A   1      33.614  23.896  26.600  1.00  0.00    -0.175 NA
BRANCH  20  21
ATOM     21  N   UNL A   1      34.055  22.629  26.329  1.00  0.00    -0.212 N 
ATOM     22  C   UNL A   1      35.291  22.200  25.888  1.00  0.00     0.427 C 
ATOM     23  O   UNL A   1      35.536  21.010  25.747  1.00  0.00    -0.223 OA
ATOM     24  H   UNL A   1      33.391  21.916  26.470  1.00  0.00     0.197 HD
BRANCH  22  25
ATOM     25  O   UNL A   1      36.186  23.201  25.667  1.00  0.00    -0.452 OA
ATOM     26  C   UNL A   1      36.428  23.469  24.286  1.00  0.00     0.284 C 
ENDBRANCH  22  25
ENDBRANCH  20  21
ENDBRANCH  15  19
ENDBRANCH   9  14
ENDBRANCH   6   8
ENDBRANCH   5   6
ENDBRANCH   4   5
ENDBRANCH   3   4
ENDBRANCH   2   3
ENDBRANCH   1   2
BRANCH   1  27
ATOM     27  C   UNL A   1      33.640  36.618  32.607  1.00  0.00     0.188 C 
BRANCH  27  28
ATOM     28  O   UNL A   1      34.556  36.319  33.630  1.00  0.00    -0.376 OA
BRANCH  28  29
ATOM     29  C   UNL A   1      34.793  34.973  34.004  1.00  0.00     0.202 C 
BRANCH  29  30
ATOM     30  C   UNL A   1      36.092  34.172  33.768  1.00  0.00     0.261 C 
BRANCH  30  31
ATOM     31  O   UNL A   1      36.025  32.743  33.722  1.00  0.00    -0.460 OA
BRANCH  31  32
ATOM     32  C   UNL A   1      35.559  32.203  32.570  1.00  0.00     0.338 C 
ATOM     33  O   UNL A   1      34.455  32.348  32.076  1.00  0.00    -0.246 OA
BRANCH  32  34
ATOM     34  C   UNL A   1      36.674  31.521  31.886  1.00  0.00     0.060 A 
ATOM     35  C   UNL A   1      37.518  30.684  32.630  1.00  0.00     0.016 A 
ATOM     36  C   UNL A   1      36.899  31.725  30.524  1.00  0.00     0.016 A 
ATOM     37  C   UNL A   1      38.596  30.050  32.010  1.00  0.00     0.010 A 
ATOM     38  C   UNL A   1      37.992  31.107  29.911  1.00  0.00     0.010 A 
ATOM     39  C   UNL A   1      38.857  30.280  30.653  1.00  0.00    -0.014 A 
BRANCH  39  40
ATOM     40  C   UNL A   1      40.106  29.770  30.035  1.00  0.00     0.031 A 
ATOM     41  C   UNL A   1      41.268  30.708  29.860  1.00  0.00     0.074 A 
ATOM     42  C   UNL A   1      40.208  28.491  29.629  1.00  0.00     0.049 A 
ATOM     43  N   UNL A   1      42.418  30.508  29.271  1.00  0.00    -0.248 NA
ATOM     44  C   UNL A   1      41.107  32.058  30.426  1.00  0.00     0.031 C 
ATOM     45  C   UNL A   1      39.172  27.472  29.778  1.00  0.00     0.029 A 
ATOM     46  N   UNL A   1      41.235  27.840  28.992  1.00  0.00    -0.354 N 
ATOM     47  C   UNL A   1      43.115  31.704  29.386  1.00  0.00     0.074 A 
ATOM     48  C   UNL A   1      42.247  32.634  30.077  1.00  0.00     0.031 C 
ATOM     49  C   UNL A   1      39.609  26.324  29.229  1.00  0.00     0.029 A 
ATOM     50  C   UNL A   1      40.937  26.541  28.656  1.00  0.00     0.049 A 
ATOM     51  H   UNL A   1      42.102  28.262  28.795  1.00  0.00     0.167 HD
ATOM     52  C   UNL A   1      44.366  31.998  28.959  1.00  0.00     0.037 A 
ATOM     53  C   UNL A   1      41.642  25.643  27.939  1.00  0.00     0.037 A 
ATOM     54  C   UNL A   1      45.225  31.075  28.266  1.00  0.00     0.049 A 
ATOM     55  C   UNL A   1      42.996  26.025  27.395  1.00  0.00     0.074 A 
ATOM     56  C   UNL A   1      46.516  31.275  27.810  1.00  0.00     0.029 A 
ATOM     57  N   UNL A   1      44.875  29.779  27.916  1.00  0.00    -0.354 N 
ATOM     58  N   UNL A   1      43.659  27.148  27.533  1.00  0.00    -0.248 NA
ATOM     59  C   UNL A   1      43.699  25.012  26.594  1.00  0.00     0.031 C 
ATOM     60  C   UNL A   1      46.925  30.124  27.131  1.00  0.00     0.029 A 
ATOM     61  C   UNL A   1      45.914  29.181  27.222  1.00  0.00     0.049 A 
ATOM     62  H   UNL A   1      44.016  29.348  28.130  1.00  0.00     0.167 HD
ATOM     63  C   UNL A   1      44.864  26.966  26.866  1.00  0.00     0.074 A 
ATOM     64  C   UNL A   1      44.849  25.619  26.338  1.00  0.00     0.031 C 
ATOM     65  C   UNL A   1      45.894  27.835  26.706  1.00  0.00     0.037 A 
BRANCH  52  66
ATOM     66  C   UNL A   1      44.874  33.390  29.205  1.00  0.00     0.057 A 
ATOM     67  C   UNL A   1      45.613  33.720  30.349  1.00  0.00     0.134 A 
ATOM     68  C   UNL A   1      44.658  34.404  28.262  1.00  0.00     0.134 A 
ATOM     69  F   UNL A   1      45.845  32.800  31.297  1.00  0.00    -0.206 F 
ATOM     70  C   UNL A   1      46.101  35.012  30.555  1.00  0.00     0.040 A 
ATOM     71  C   UNL A   1      45.165  35.691  28.444  1.00  0.00     0.040 A 
ATOM     72  F   UNL A   1      43.963  34.155  27.142  1.00  0.00    -0.206 F 
ATOM     73  C   UNL A   1      45.885  36.000  29.596  1.00  0.00     0.006 A 
ENDBRANCH  52  66
BRANCH  53  74
ATOM     74  C   UNL A   1      41.077  24.295  27.663  1.00  0.00     0.057 A 
ATOM     75  C   UNL A   1      41.571  23.155  28.306  1.00  0.00     0.134 A 
ATOM     76  C   UNL A   1      40.060  24.111  26.718  1.00  0.00     0.134 A 
ATOM     77  F   UNL A   1      42.565  23.262  29.201  1.00  0.00    -0.206 F 
ATOM     78  C   UNL A   1      41.092  21.878  28.004  1.00  0.00     0.040 A 
ATOM     79  C   UNL A   1      39.550  22.844  26.429  1.00  0.00     0.040 A 
ATOM     80  F   UNL A   1      39.545  25.161  26.063  1.00  0.00    -0.206 F 
ATOM     81  C   UNL A   1      40.075  21.721  27.066  1.00  0.00     0.006 A 
ENDBRANCH  53  74
BRANCH  65  82
ATOM     82  C   UNL A   1      47.107  27.347  25.964  1.00  0.00     0.057 A 
ATOM     83  C   UNL A   1      48.168  26.706  26.614  1.00  0.00     0.134 A 
ATOM     84  C   UNL A   1      47.191  27.480  24.571  1.00  0.00     0.134 A 
ATOM     85  F   UNL A   1      48.157  26.553  27.948  1.00  0.00    -0.206 F 
ATOM     86  C   UNL A   1      49.281  26.240  25.911  1.00  0.00     0.040 A 
ATOM     87  C   UNL A   1      48.282  26.991  23.853  1.00  0.00     0.040 A 
ATOM     88  F   UNL A   1      46.204  28.075  23.883  1.00  0.00    -0.206 F 
ATOM     89  C   UNL A   1      49.336  26.375  24.525  1.00  0.00     0.006 A 
ENDBRANCH  65  82
ENDBRANCH  39  40
ENDBRANCH  32  34
ENDBRANCH  31  32
ENDBRANCH  30  31
ENDBRANCH  29  30
ENDBRANCH  28  29
ENDBRANCH  27  28
ENDBRANCH   1  27
TORSDOF 21
ENDMDL
MODEL 3
REMARK VINA RESULT:     -10.3      6.324     11.680
REMARK SMILES COC(=O)N/N=C/c1ccc(-c2cccc(C(=O)OCCOCCOCCOC(=O)c3ccc(-c4c5nc(c(-c6c(F)cccc6F)c6ccc([nH]6)c(-c6c(F)cccc6F)c6nc(c(-c7c(F)cccc7F)c7ccc4[nH]7)C=C6)C=C5)cc3)c2)o1
REMARK SMILES IDX 23 1 22 2 21 3 20 4 19 5 17 6 18 7 16 8 12 9 13 10 85 11
REMARK SMILES IDX 14 12 15 13 11 14 8 15 9 16 86 17 10 18 7 19 6 20 5 21 3 22
REMARK SMILES IDX 4 23 2 25 1 26 24 27 25 28 26 29 27 30 28 31 29 32 30 33
REMARK SMILES IDX 31 34 32 35 84 36 33 37 83 38 34 39 35 40 36 41 77 42 37 43
REMARK SMILES IDX 82 44 76 45 78 46 38 47 81 48 75 49 74 50 39 52 65 53 48 54
REMARK SMILES IDX 64 55 49 56 52 57 63 58 79 59 50 60 51 61 62 63 80 64 53 65
REMARK SMILES IDX 40 66 41 67 46 68 42 69 43 70 45 71 47 72 44 73 66 74 67 75
REMARK SMILES IDX 72 76 68 77 69 78 71 79 73 80 70 81 54 82 55 83 60 84 56 85
REMARK SMILES IDX 57 86 59 87 61 88 58 89
REMARK H PARENT 5 24 78 51 52 62
REMARK Flexibility Score: inf
ROOT
ATOM      1  C   UNL A   1      41.409  19.240  25.884  1.00  0.00     0.188 C 
ENDROOT
BRANCH   1   2
ATOM      2  O   UNL A   1      39.997  19.137  25.919  1.00  0.00    -0.376 OA
BRANCH   2   3
ATOM      3  C   UNL A   1      39.192  20.077  25.222  1.00  0.00     0.202 C 
BRANCH   3   4
ATOM      4  C   UNL A   1      38.821  21.446  25.821  1.00  0.00     0.261 C 
BRANCH   4   5
ATOM      5  O   UNL A   1      37.810  22.181  25.119  1.00  0.00    -0.460 OA
BRANCH   5   6
ATOM      6  C   UNL A   1      37.329  23.282  25.755  1.00  0.00     0.338 C 
ATOM      7  O   UNL A   1      37.970  24.120  26.362  1.00  0.00    -0.246 OA
BRANCH   6   8
ATOM      8  C   UNL A   1      35.897  23.442  25.419  1.00  0.00     0.060 A 
ATOM      9  C   UNL A   1      33.874  22.689  24.310  1.00  0.00     0.018 A 
ATOM     10  C   UNL A   1      33.236  23.875  24.702  1.00  0.00     0.012 A 
ATOM     11  C   UNL A   1      35.220  22.490  24.652  1.00  0.00     0.027 A 
ATOM     12  C   UNL A   1      33.917  24.828  25.466  1.00  0.00     0.002 A 
ATOM     13  C   UNL A   1      35.240  24.603  25.842  1.00  0.00     0.016 A 
BRANCH   9  14
ATOM     14  C   UNL A   1      33.146  21.625  23.636  1.00  0.00     0.134 A 
ATOM     15  C   UNL A   1      32.455  19.555  23.369  1.00  0.00     0.147 A 
ATOM     16  C   UNL A   1      31.921  20.289  22.329  1.00  0.00     0.053 A 
ATOM     17  O   UNL A   1      33.220  20.368  24.166  1.00  0.00    -0.455 OA
ATOM     18  C   UNL A   1      32.354  21.618  22.506  1.00  0.00     0.051 A 
BRANCH  15  19
ATOM     19  C   UNL A   1      32.332  18.161  23.699  1.00  0.00     0.180 C 
ATOM     20  N   UNL A   1      32.338  17.806  24.946  1.00  0.00    -0.175 NA
BRANCH  20  21
ATOM     21  N   UNL A   1      32.268  16.480  25.276  1.00  0.00    -0.212 N 
ATOM     22  C   UNL A   1      33.195  15.474  25.093  1.00  0.00     0.427 C 
ATOM     23  O   UNL A   1      32.989  14.340  25.502  1.00  0.00    -0.223 OA
ATOM     24  H   UNL A   1      31.429  16.201  25.710  1.00  0.00     0.197 HD
BRANCH  22  25
ATOM     25  O   UNL A   1      34.334  15.870  24.462  1.00  0.00    -0.452 OA
ATOM     26  C   UNL A   1      35.477  15.932  25.316  1.00  0.00     0.284 C 
ENDBRANCH  22  25
ENDBRANCH  20  21
ENDBRANCH  15  19
ENDBRANCH   9  14
ENDBRANCH   6   8
ENDBRANCH   5   6
ENDBRANCH   4   5
ENDBRANCH   3   4
ENDBRANCH   2   3
ENDBRANCH   1   2
BRANCH   1  27
ATOM     27  C   UNL A   1      42.188  19.700  27.135  1.00  0.00     0.188 C 
BRANCH  27  28
ATOM     28  O   UNL A   1      42.597  21.044  27.157  1.00  0.00    -0.376 OA
BRANCH  28  29
ATOM     29  C   UNL A   1      42.506  21.836  25.986  1.00  0.00     0.202 C 
BRANCH  29  30
ATOM     30  C   UNL A   1      42.787  23.351  25.880  1.00  0.00     0.261 C 
BRANCH  30  31
ATOM     31  O   UNL A   1      41.748  24.274  26.221  1.00  0.00    -0.460 OA
BRANCH  31  32
ATOM     32  C   UNL A   1      41.924  25.551  25.805  1.00  0.00     0.338 C 
ATOM     33  O   UNL A   1      42.216  25.934  24.686  1.00  0.00    -0.246 OA
BRANCH  32  34
ATOM     34  C   UNL A   1      41.536  26.461  26.901  1.00  0.00     0.060 A 
ATOM     35  C   UNL A   1      42.243  27.659  27.072  1.00  0.00     0.016 A 
ATOM     36  C   UNL A   1      40.497  26.119  27.768  1.00  0.00     0.016 A 
ATOM     37  C   UNL A   1      41.912  28.521  28.119  1.00  0.00     0.010 A 
ATOM     38  C   UNL A   1      40.183  26.974  28.828  1.00  0.00     0.010 A 
ATOM     39  C   UNL A   1      40.899  28.170  29.020  1.00  0.00    -0.014 A 
BRANCH  39  40
ATOM     40  C   UNL A   1      40.673  28.981  30.243  1.00  0.00     0.031 A 
ATOM     41  C   UNL A   1      39.578  30.012  30.240  1.00  0.00     0.074 A 
ATOM     42  C   UNL A   1      41.430  28.809  31.341  1.00  0.00     0.049 A 
ATOM     43  N   UNL A   1      39.258  30.888  31.156  1.00  0.00    -0.248 NA
ATOM     44  C   UNL A   1      38.732  30.061  29.037  1.00  0.00     0.031 C 
ATOM     45  C   UNL A   1      42.495  27.818  31.487  1.00  0.00     0.029 A 
ATOM     46  N   UNL A   1      41.427  29.481  32.538  1.00  0.00    -0.354 N 
ATOM     47  C   UNL A   1      38.181  31.598  30.641  1.00  0.00     0.074 A 
ATOM     48  C   UNL A   1      37.920  31.069  29.319  1.00  0.00     0.031 C 
ATOM     49  C   UNL A   1      43.055  27.959  32.702  1.00  0.00     0.029 A 
ATOM     50  C   UNL A   1      42.418  29.074  33.400  1.00  0.00     0.049 A 
ATOM     51  H   UNL A   1      40.777  30.186  32.759  1.00  0.00     0.167 HD
ATOM     52  C   UNL A   1      37.471  32.597  31.218  1.00  0.00     0.037 A 
ATOM     53  C   UNL A   1      42.787  29.568  34.598  1.00  0.00     0.037 A 
ATOM     54  C   UNL A   1      37.737  33.127  32.529  1.00  0.00     0.049 A 
ATOM     55  C   UNL A   1      42.038  30.741  35.180  1.00  0.00     0.074 A 
ATOM     56  C   UNL A   1      37.061  34.126  33.208  1.00  0.00     0.029 A 
ATOM     57  N   UNL A   1      38.769  32.711  33.357  1.00  0.00    -0.354 N 
ATOM     58  N   UNL A   1      41.004  31.388  34.698  1.00  0.00    -0.248 NA
ATOM     59  C   UNL A   1      42.512  31.254  36.475  1.00  0.00     0.031 C 
ATOM     60  C   UNL A   1      37.720  34.358  34.419  1.00  0.00     0.029 A 
ATOM     61  C   UNL A   1      38.767  33.455  34.525  1.00  0.00     0.049 A 
ATOM     62  H   UNL A   1      39.407  31.992  33.147  1.00  0.00     0.167 HD
ATOM     63  C   UNL A   1      40.685  32.358  35.642  1.00  0.00     0.074 A 
ATOM     64  C   UNL A   1      41.625  32.205  36.732  1.00  0.00     0.031 C 
ATOM     65  C   UNL A   1      39.702  33.291  35.610  1.00  0.00     0.037 A 
BRANCH  52  66
ATOM     66  C   UNL A   1      36.353  33.204  30.421  1.00  0.00     0.057 A 
ATOM     67  C   UNL A   1      36.591  34.089  29.361  1.00  0.00     0.134 A 
ATOM     68  C   UNL A   1      35.020  32.865  30.691  1.00  0.00     0.134 A 
ATOM     69  F   UNL A   1      37.842  34.465  29.058  1.00  0.00    -0.206 F 
ATOM     70  C   UNL A   1      35.544  34.629  28.612  1.00  0.00     0.040 A 
ATOM     71  C   UNL A   1      33.968  33.375  29.931  1.00  0.00     0.040 A 
ATOM     72  F   UNL A   1      34.721  32.019  31.689  1.00  0.00    -0.206 F 
ATOM     73  C   UNL A   1      34.228  34.266  28.891  1.00  0.00     0.006 A 
ENDBRANCH  52  66
BRANCH  53  74
ATOM     74  C   UNL A   1      43.941  28.979  35.328  1.00  0.00     0.057 A 
ATOM     75  C   UNL A   1      45.253  29.392  35.065  1.00  0.00     0.134 A 
ATOM     76  C   UNL A   1      43.764  27.961  36.272  1.00  0.00     0.134 A 
ATOM     77  F   UNL A   1      45.491  30.343  34.151  1.00  0.00    -0.206 F 
ATOM     78  C   UNL A   1      46.347  28.798  35.697  1.00  0.00     0.040 A 
ATOM     79  C   UNL A   1      44.847  27.380  36.935  1.00  0.00     0.040 A 
ATOM     80  F   UNL A   1      42.534  27.517  36.567  1.00  0.00    -0.206 F 
ATOM     81  C   UNL A   1      46.146  27.791  36.639  1.00  0.00     0.006 A 
ENDBRANCH  53  74
BRANCH  65  82
ATOM     82  C   UNL A   1      39.562  34.195  36.803  1.00  0.00     0.057 A 
ATOM     83  C   UNL A   1      40.065  35.501  36.811  1.00  0.00     0.134 A 
ATOM     84  C   UNL A   1      38.871  33.763  37.945  1.00  0.00     0.134 A 
ATOM     85  F   UNL A   1      40.744  35.975  35.755  1.00  0.00    -0.206 F 
ATOM     86  C   UNL A   1      39.912  36.337  37.919  1.00  0.00     0.040 A 
ATOM     87  C   UNL A   1      38.684  34.600  39.046  1.00  0.00     0.040 A 
ATOM     88  F   UNL A   1      38.353  32.527  38.001  1.00  0.00    -0.206 F 
ATOM     89  C   UNL A   1      39.212  35.888  39.038  1.00  0.00     0.006 A 
ENDBRANCH  65  82
ENDBRANCH  39  40
ENDBRANCH  32  34
ENDBRANCH  31  32
ENDBRANCH  30  31
ENDBRANCH  29  30
ENDBRANCH  28  29
ENDBRANCH  27  28
ENDBRANCH   1  27
TORSDOF 21
ENDMDL
