MODEL 1
REMARK VINA RESULT:      -9.8      0.000      0.000
REMARK SMILES C#CCN(CC(=O)OCCOCCOCCOC(=O)c1ccc(-c2c3nc(c(-c4c(F)cccc4F)c4ccc([nH]4)c(-c4c(F)cccc4F)c4nc(c(-c5c(F)cccc5F)c5ccc2[nH]5)C=C4)C=C3)cc1)C(=O)[C@H](c1ccc(Cl)cc1)C(C)C
REMARK SMILES IDX 12 1 11 2 10 3 9 4 8 5 6 6 7 7 5 8 4 9 3 10 2 11 1 12 74 13
REMARK SMILES IDX 75 14 76 15 84 16 85 17 86 18 77 19 78 20 83 21 79 22 82 23
REMARK SMILES IDX 80 24 81 25 13 26 14 27 15 28 16 29 17 30 18 31 19 32 20 33
REMARK SMILES IDX 21 34 73 35 22 36 72 37 23 38 24 39 25 40 66 41 26 42 71 43
REMARK SMILES IDX 65 44 67 45 27 46 70 47 64 48 63 49 28 51 54 52 37 53 53 54
REMARK SMILES IDX 38 55 41 56 52 57 68 58 39 59 40 60 51 62 69 63 42 64 29 65
REMARK SMILES IDX 30 66 35 67 31 68 32 69 34 70 36 71 33 72 55 73 56 74 61 75
REMARK SMILES IDX 57 76 58 77 60 78 62 79 59 80 43 81 44 82 49 83 45 84 46 85
REMARK SMILES IDX 48 86 50 87 47 88
REMARK H PARENT 67 50 41 61
REMARK Flexibility Score: inf
ROOT
ATOM      1  C   UNL A   1      40.743  20.142  26.482  1.00  0.00     0.188 C 
ENDROOT
BRANCH   1   2
ATOM      2  O   UNL A   1      40.004  19.373  25.544  1.00  0.00    -0.376 OA
BRANCH   2   3
ATOM      3  C   UNL A   1      38.645  19.733  25.352  1.00  0.00     0.202 C 
BRANCH   3   4
ATOM      4  C   UNL A   1      38.357  21.242  25.294  1.00  0.00     0.261 C 
BRANCH   4   5
ATOM      5  O   UNL A   1      37.254  21.578  24.419  1.00  0.00    -0.462 OA
BRANCH   5   6
ATOM      6  C   UNL A   1      36.480  22.607  24.869  1.00  0.00     0.325 C 
ATOM      7  O   UNL A   1      36.489  23.012  26.028  1.00  0.00    -0.250 OA
BRANCH   6   8
ATOM      8  C   UNL A   1      35.559  23.235  23.802  1.00  0.00     0.243 C 
BRANCH   8   9
ATOM      9  N   UNL A   1      34.144  23.424  24.101  1.00  0.00    -0.320 N 
BRANCH   9  10
ATOM     10  C   UNL A   1      33.230  22.476  23.450  1.00  0.00     0.210 C 
BRANCH  10  11
ATOM     11  C   UNL A   1      33.317  21.093  24.074  1.00  0.00    -0.085 C 
ATOM     12  C   UNL A   1      33.391  19.906  24.608  1.00  0.00     0.006 C 
ENDBRANCH  10  11
ENDBRANCH   9  10
BRANCH   9  13
ATOM     13  C   UNL A   1      33.588  24.475  24.812  1.00  0.00     0.231 C 
ATOM     14  O   UNL A   1      34.340  25.372  25.228  1.00  0.00    -0.274 OA
BRANCH  13  15
ATOM     15  C   UNL A   1      32.063  24.721  25.012  1.00  0.00     0.111 C 
BRANCH  15  16
ATOM     16  C   UNL A   1      31.616  24.414  26.465  1.00  0.00    -0.000 C 
ATOM     17  C   UNL A   1      30.129  24.066  26.519  1.00  0.00     0.008 C 
ATOM     18  C   UNL A   1      32.409  23.211  27.025  1.00  0.00     0.008 C 
ENDBRANCH  15  16
BRANCH  15  19
ATOM     19  C   UNL A   1      31.371  25.865  24.259  1.00  0.00    -0.035 A 
ATOM     20  C   UNL A   1      31.547  25.957  22.861  1.00  0.00     0.006 A 
ATOM     21  C   UNL A   1      30.564  26.841  24.841  1.00  0.00     0.006 A 
ATOM     22  C   UNL A   1      31.130  27.069  22.123  1.00  0.00     0.021 A 
ATOM     23  C   UNL A   1      30.174  27.981  24.123  1.00  0.00     0.021 A 
ATOM     24  C   UNL A   1      30.494  28.109  22.775  1.00  0.00     0.041 A 
ATOM     25  Cl  UNL A   1      30.109  29.551  21.924  1.00  0.00    -0.084 Cl
ENDBRANCH  15  19
ENDBRANCH  13  15
ENDBRANCH   9  13
ENDBRANCH   8   9
ENDBRANCH   6   8
ENDBRANCH   5   6
ENDBRANCH   4   5
ENDBRANCH   3   4
ENDBRANCH   2   3
ENDBRANCH   1   2
BRANCH   1  26
ATOM     26  C   UNL A   1      42.265  20.001  26.541  1.00  0.00     0.188 C 
BRANCH  26  27
ATOM     27  O   UNL A   1      42.977  19.907  25.319  1.00  0.00    -0.376 OA
BRANCH  27  28
ATOM     28  C   UNL A   1      44.197  20.624  25.219  1.00  0.00     0.202 C 
BRANCH  28  29
ATOM     29  C   UNL A   1      44.272  21.784  24.209  1.00  0.00     0.261 C 
BRANCH  29  30
ATOM     30  O   UNL A   1      43.442  22.939  24.484  1.00  0.00    -0.460 OA
BRANCH  30  31
ATOM     31  C   UNL A   1      44.112  24.070  24.840  1.00  0.00     0.338 C 
ATOM     32  O   UNL A   1      45.173  24.453  24.383  1.00  0.00    -0.246 OA
BRANCH  31  33
ATOM     33  C   UNL A   1      43.387  24.863  25.875  1.00  0.00     0.060 A 
ATOM     34  C   UNL A   1      43.712  26.216  26.000  1.00  0.00     0.016 A 
ATOM     35  C   UNL A   1      42.479  24.301  26.782  1.00  0.00     0.016 A 
ATOM     36  C   UNL A   1      43.114  27.008  26.993  1.00  0.00     0.010 A 
ATOM     37  C   UNL A   1      41.894  25.098  27.798  1.00  0.00     0.010 A 
ATOM     38  C   UNL A   1      42.201  26.466  27.913  1.00  0.00    -0.014 A 
BRANCH  38  39
ATOM     39  C   UNL A   1      41.703  27.327  29.037  1.00  0.00     0.031 A 
ATOM     40  C   UNL A   1      42.481  27.363  30.331  1.00  0.00     0.074 A 
ATOM     41  C   UNL A   1      40.645  28.158  28.912  1.00  0.00     0.049 A 
ATOM     42  N   UNL A   1      42.279  28.080  31.410  1.00  0.00    -0.248 NA
ATOM     43  C   UNL A   1      43.646  26.471  30.413  1.00  0.00     0.031 C 
ATOM     44  C   UNL A   1      39.820  28.308  27.717  1.00  0.00     0.029 A 
ATOM     45  N   UNL A   1      40.108  29.071  29.799  1.00  0.00    -0.354 N 
ATOM     46  C   UNL A   1      43.291  27.728  32.296  1.00  0.00     0.074 A 
ATOM     47  C   UNL A   1      44.109  26.741  31.623  1.00  0.00     0.031 C 
ATOM     48  C   UNL A   1      38.929  29.295  27.919  1.00  0.00     0.029 A 
ATOM     49  C   UNL A   1      39.055  29.799  29.287  1.00  0.00     0.049 A 
ATOM     50  H   UNL A   1      40.447  29.192  30.715  1.00  0.00     0.167 HD
ATOM     51  C   UNL A   1      43.511  28.157  33.563  1.00  0.00     0.037 A 
ATOM     52  C   UNL A   1      38.269  30.742  29.853  1.00  0.00     0.037 A 
ATOM     53  C   UNL A   1      42.680  29.087  34.281  1.00  0.00     0.049 A 
ATOM     54  C   UNL A   1      38.468  31.118  31.305  1.00  0.00     0.074 A 
ATOM     55  C   UNL A   1      42.800  29.513  35.594  1.00  0.00     0.029 A 
ATOM     56  N   UNL A   1      41.564  29.719  33.758  1.00  0.00    -0.354 N 
ATOM     57  N   UNL A   1      39.415  30.759  32.137  1.00  0.00    -0.248 NA
ATOM     58  C   UNL A   1      37.461  32.011  31.908  1.00  0.00     0.031 C 
ATOM     59  C   UNL A   1      41.721  30.354  35.883  1.00  0.00     0.029 A 
ATOM     60  C   UNL A   1      40.967  30.506  34.732  1.00  0.00     0.049 A 
ATOM     61  H   UNL A   1      41.241  29.623  32.833  1.00  0.00     0.167 HD
ATOM     62  C   UNL A   1      39.126  31.388  33.345  1.00  0.00     0.074 A 
ATOM     63  C   UNL A   1      37.935  32.178  33.135  1.00  0.00     0.031 C 
ATOM     64  C   UNL A   1      39.786  31.304  34.527  1.00  0.00     0.037 A 
BRANCH  51  65
ATOM     65  C   UNL A   1      44.669  27.538  34.290  1.00  0.00     0.057 A 
ATOM     66  C   UNL A   1      44.544  26.340  35.005  1.00  0.00     0.134 A 
ATOM     67  C   UNL A   1      45.923  28.161  34.281  1.00  0.00     0.134 A 
ATOM     68  F   UNL A   1      43.364  25.705  35.067  1.00  0.00    -0.206 F 
ATOM     69  C   UNL A   1      45.619  25.802  35.714  1.00  0.00     0.040 A 
ATOM     70  C   UNL A   1      47.011  27.619  34.964  1.00  0.00     0.040 A 
ATOM     71  F   UNL A   1      46.109  29.308  33.611  1.00  0.00    -0.206 F 
ATOM     72  C   UNL A   1      46.858  26.441  35.691  1.00  0.00     0.006 A 
ENDBRANCH  51  65
BRANCH  52  73
ATOM     73  C   UNL A   1      37.149  31.371  29.091  1.00  0.00     0.057 A 
ATOM     74  C   UNL A   1      37.208  32.707  28.670  1.00  0.00     0.134 A 
ATOM     75  C   UNL A   1      35.950  30.684  28.859  1.00  0.00     0.134 A 
ATOM     76  F   UNL A   1      38.308  33.441  28.897  1.00  0.00    -0.206 F 
ATOM     77  C   UNL A   1      36.114  33.340  28.071  1.00  0.00     0.040 A 
ATOM     78  C   UNL A   1      34.862  31.293  28.229  1.00  0.00     0.040 A 
ATOM     79  F   UNL A   1      35.812  29.410  29.253  1.00  0.00    -0.206 F 
ATOM     80  C   UNL A   1      34.937  32.629  27.846  1.00  0.00     0.006 A 
ENDBRANCH  52  73
BRANCH  64  81
ATOM     81  C   UNL A   1      39.262  32.108  35.687  1.00  0.00     0.057 A 
ATOM     82  C   UNL A   1      39.641  33.440  35.903  1.00  0.00     0.134 A 
ATOM     83  C   UNL A   1      38.324  31.557  36.571  1.00  0.00     0.134 A 
ATOM     84  F   UNL A   1      40.541  34.029  35.102  1.00  0.00    -0.206 F 
ATOM     85  C   UNL A   1      39.123  34.185  36.966  1.00  0.00     0.040 A 
ATOM     86  C   UNL A   1      37.778  32.301  37.619  1.00  0.00     0.040 A 
ATOM     87  F   UNL A   1      37.908  30.291  36.421  1.00  0.00    -0.206 F 
ATOM     88  C   UNL A   1      38.182  33.619  37.823  1.00  0.00     0.006 A 
ENDBRANCH  64  81
ENDBRANCH  38  39
ENDBRANCH  31  33
ENDBRANCH  30  31
ENDBRANCH  29  30
ENDBRANCH  28  29
ENDBRANCH  27  28
ENDBRANCH  26  27
ENDBRANCH   1  26
TORSDOF 24
ENDMDL
MODEL 2
REMARK VINA RESULT:      -9.4      2.321      6.944
REMARK SMILES C#CCN(CC(=O)OCCOCCOCCOC(=O)c1ccc(-c2c3nc(c(-c4c(F)cccc4F)c4ccc([nH]4)c(-c4c(F)cccc4F)c4nc(c(-c5c(F)cccc5F)c5ccc2[nH]5)C=C4)C=C3)cc1)C(=O)[C@H](c1ccc(Cl)cc1)C(C)C
REMARK SMILES IDX 12 1 11 2 10 3 9 4 8 5 6 6 7 7 5 8 4 9 3 10 2 11 1 12 74 13
REMARK SMILES IDX 75 14 76 15 84 16 85 17 86 18 77 19 78 20 83 21 79 22 82 23
REMARK SMILES IDX 80 24 81 25 13 26 14 27 15 28 16 29 17 30 18 31 19 32 20 33
REMARK SMILES IDX 21 34 73 35 22 36 72 37 23 38 24 39 25 40 66 41 26 42 71 43
REMARK SMILES IDX 65 44 67 45 27 46 70 47 64 48 63 49 28 51 54 52 37 53 53 54
REMARK SMILES IDX 38 55 41 56 52 57 68 58 39 59 40 60 51 62 69 63 42 64 29 65
REMARK SMILES IDX 30 66 35 67 31 68 32 69 34 70 36 71 33 72 55 73 56 74 61 75
REMARK SMILES IDX 57 76 58 77 60 78 62 79 59 80 43 81 44 82 49 83 45 84 46 85
REMARK SMILES IDX 48 86 50 87 47 88
REMARK H PARENT 67 50 41 61
REMARK Flexibility Score: inf
ROOT
ATOM      1  C   UNL A   1      41.443  22.283  27.081  1.00  0.00     0.188 C 
ENDROOT
BRANCH   1   2
ATOM      2  O   UNL A   1      40.031  22.205  27.193  1.00  0.00    -0.376 OA
BRANCH   2   3
ATOM      3  C   UNL A   1      39.326  21.708  26.065  1.00  0.00     0.202 C 
BRANCH   3   4
ATOM      4  C   UNL A   1      37.956  22.351  25.799  1.00  0.00     0.261 C 
BRANCH   4   5
ATOM      5  O   UNL A   1      37.351  21.910  24.561  1.00  0.00    -0.462 OA
BRANCH   5   6
ATOM      6  C   UNL A   1      36.688  22.892  23.884  1.00  0.00     0.325 C 
ATOM      7  O   UNL A   1      36.720  23.021  22.662  1.00  0.00    -0.250 OA
BRANCH   6   8
ATOM      8  C   UNL A   1      35.887  23.862  24.776  1.00  0.00     0.243 C 
BRANCH   8   9
ATOM      9  N   UNL A   1      34.528  24.228  24.394  1.00  0.00    -0.320 N 
BRANCH   9  10
ATOM     10  C   UNL A   1      34.088  25.561  24.828  1.00  0.00     0.210 C 
BRANCH  10  11
ATOM     11  C   UNL A   1      33.720  26.443  23.646  1.00  0.00    -0.085 C 
ATOM     12  C   UNL A   1      33.406  27.199  22.631  1.00  0.00     0.006 C 
ENDBRANCH  10  11
ENDBRANCH   9  10
BRANCH   9  13
ATOM     13  C   UNL A   1      33.591  23.399  23.797  1.00  0.00     0.231 C 
ATOM     14  O   UNL A   1      33.432  23.475  22.567  1.00  0.00    -0.274 OA
BRANCH  13  15
ATOM     15  C   UNL A   1      32.813  22.256  24.512  1.00  0.00     0.111 C 
BRANCH  15  16
ATOM     16  C   UNL A   1      31.321  22.621  24.725  1.00  0.00    -0.000 C 
ATOM     17  C   UNL A   1      31.053  23.006  26.179  1.00  0.00     0.008 C 
ATOM     18  C   UNL A   1      30.931  23.822  23.833  1.00  0.00     0.008 C 
ENDBRANCH  15  16
BRANCH  15  19
ATOM     19  C   UNL A   1      33.176  20.792  24.226  1.00  0.00    -0.035 A 
ATOM     20  C   UNL A   1      32.334  20.041  23.377  1.00  0.00     0.006 A 
ATOM     21  C   UNL A   1      34.288  20.125  24.736  1.00  0.00     0.006 A 
ATOM     22  C   UNL A   1      32.467  18.658  23.221  1.00  0.00     0.021 A 
ATOM     23  C   UNL A   1      34.410  18.731  24.622  1.00  0.00     0.021 A 
ATOM     24  C   UNL A   1      33.476  17.998  23.898  1.00  0.00     0.041 A 
ATOM     25  Cl  UNL A   1      33.568  16.283  23.847  1.00  0.00    -0.084 Cl
ENDBRANCH  15  19
ENDBRANCH  13  15
ENDBRANCH   9  13
ENDBRANCH   8   9
ENDBRANCH   6   8
ENDBRANCH   5   6
ENDBRANCH   4   5
ENDBRANCH   3   4
ENDBRANCH   2   3
ENDBRANCH   1   2
BRANCH   1  26
ATOM     26  C   UNL A   1      42.178  21.344  26.122  1.00  0.00     0.188 C 
BRANCH  26  27
ATOM     27  O   UNL A   1      43.419  21.772  25.587  1.00  0.00    -0.376 OA
BRANCH  27  28
ATOM     28  C   UNL A   1      44.055  22.875  26.216  1.00  0.00     0.202 C 
BRANCH  28  29
ATOM     29  C   UNL A   1      44.377  24.109  25.355  1.00  0.00     0.261 C 
BRANCH  29  30
ATOM     30  O   UNL A   1      43.939  25.391  25.869  1.00  0.00    -0.460 OA
BRANCH  30  31
ATOM     31  C   UNL A   1      42.592  25.600  25.853  1.00  0.00     0.338 C 
ATOM     32  O   UNL A   1      41.800  25.134  25.055  1.00  0.00    -0.246 OA
BRANCH  31  33
ATOM     33  C   UNL A   1      42.136  26.473  26.972  1.00  0.00     0.060 A 
ATOM     34  C   UNL A   1      42.824  27.671  27.182  1.00  0.00     0.016 A 
ATOM     35  C   UNL A   1      41.126  26.110  27.873  1.00  0.00     0.016 A 
ATOM     36  C   UNL A   1      42.488  28.513  28.255  1.00  0.00     0.010 A 
ATOM     37  C   UNL A   1      40.805  26.951  28.968  1.00  0.00     0.010 A 
ATOM     38  C   UNL A   1      41.479  28.168  29.169  1.00  0.00    -0.014 A 
BRANCH  38  39
ATOM     39  C   UNL A   1      41.261  29.038  30.373  1.00  0.00     0.031 A 
ATOM     40  C   UNL A   1      40.093  29.996  30.382  1.00  0.00     0.074 A 
ATOM     41  C   UNL A   1      42.001  28.933  31.499  1.00  0.00     0.049 A 
ATOM     42  N   UNL A   1      39.672  30.794  31.333  1.00  0.00    -0.248 NA
ATOM     43  C   UNL A   1      39.292  30.053  29.150  1.00  0.00     0.031 C 
ATOM     44  C   UNL A   1      43.120  28.018  31.696  1.00  0.00     0.029 A 
ATOM     45  N   UNL A   1      41.888  29.581  32.714  1.00  0.00    -0.354 N 
ATOM     46  C   UNL A   1      38.558  31.445  30.816  1.00  0.00     0.074 A 
ATOM     47  C   UNL A   1      38.365  30.941  29.473  1.00  0.00     0.031 C 
ATOM     48  C   UNL A   1      43.548  28.114  32.968  1.00  0.00     0.029 A 
ATOM     49  C   UNL A   1      42.793  29.157  33.663  1.00  0.00     0.049 A 
ATOM     50  H   UNL A   1      41.221  30.284  32.886  1.00  0.00     0.167 HD
ATOM     51  C   UNL A   1      37.778  32.397  31.386  1.00  0.00     0.037 A 
ATOM     52  C   UNL A   1      43.009  29.571  34.932  1.00  0.00     0.037 A 
ATOM     53  C   UNL A   1      37.982  32.964  32.693  1.00  0.00     0.049 A 
ATOM     54  C   UNL A   1      42.197  30.713  35.501  1.00  0.00     0.074 A 
ATOM     55  C   UNL A   1      37.276  33.985  33.309  1.00  0.00     0.029 A 
ATOM     56  N   UNL A   1      38.975  32.578  33.578  1.00  0.00    -0.354 N 
ATOM     57  N   UNL A   1      41.162  31.335  34.992  1.00  0.00    -0.248 NA
ATOM     58  C   UNL A   1      42.609  31.234  36.817  1.00  0.00     0.031 C 
ATOM     59  C   UNL A   1      37.880  34.258  34.540  1.00  0.00     0.029 A 
ATOM     60  C   UNL A   1      38.921  33.363  34.721  1.00  0.00     0.049 A 
ATOM     61  H   UNL A   1      39.624  31.855  33.419  1.00  0.00     0.167 HD
ATOM     62  C   UNL A   1      40.796  32.302  35.925  1.00  0.00     0.074 A 
ATOM     63  C   UNL A   1      41.696  32.168  37.047  1.00  0.00     0.031 C 
ATOM     64  C   UNL A   1      39.808  33.228  35.848  1.00  0.00     0.037 A 
BRANCH  51  65
ATOM     65  C   UNL A   1      36.670  32.953  30.541  1.00  0.00     0.057 A 
ATOM     66  C   UNL A   1      36.906  33.893  29.530  1.00  0.00     0.134 A 
ATOM     67  C   UNL A   1      35.347  32.548  30.755  1.00  0.00     0.134 A 
ATOM     68  F   UNL A   1      38.150  34.334  29.288  1.00  0.00    -0.206 F 
ATOM     69  C   UNL A   1      35.858  34.434  28.782  1.00  0.00     0.040 A 
ATOM     70  C   UNL A   1      34.295  33.063  29.997  1.00  0.00     0.040 A 
ATOM     71  F   UNL A   1      35.055  31.648  31.706  1.00  0.00    -0.206 F 
ATOM     72  C   UNL A   1      34.548  34.016  29.015  1.00  0.00     0.006 A 
ENDBRANCH  51  65
BRANCH  52  73
ATOM     73  C   UNL A   1      44.093  28.969  35.765  1.00  0.00     0.057 A 
ATOM     74  C   UNL A   1      45.423  29.404  35.664  1.00  0.00     0.134 A 
ATOM     75  C   UNL A   1      43.846  27.874  36.603  1.00  0.00     0.134 A 
ATOM     76  F   UNL A   1      45.743  30.419  34.847  1.00  0.00    -0.206 F 
ATOM     77  C   UNL A   1      46.463  28.760  36.342  1.00  0.00     0.040 A 
ATOM     78  C   UNL A   1      44.869  27.245  37.315  1.00  0.00     0.040 A 
ATOM     79  F   UNL A   1      42.603  27.389  36.732  1.00  0.00    -0.206 F 
ATOM     80  C   UNL A   1      46.184  27.678  37.175  1.00  0.00     0.006 A 
ENDBRANCH  52  73
BRANCH  64  81
ATOM     81  C   UNL A   1      39.617  34.156  37.016  1.00  0.00     0.057 A 
ATOM     82  C   UNL A   1      40.120  35.464  37.021  1.00  0.00     0.134 A 
ATOM     83  C   UNL A   1      38.871  33.754  38.133  1.00  0.00     0.134 A 
ATOM     84  F   UNL A   1      40.851  35.914  35.989  1.00  0.00    -0.206 F 
ATOM     85  C   UNL A   1      39.908  36.327  38.099  1.00  0.00     0.040 A 
ATOM     86  C   UNL A   1      38.628  34.617  39.204  1.00  0.00     0.040 A 
ATOM     87  F   UNL A   1      38.350  32.520  38.196  1.00  0.00    -0.206 F 
ATOM     88  C   UNL A   1      39.153  35.907  39.192  1.00  0.00     0.006 A 
ENDBRANCH  64  81
ENDBRANCH  38  39
ENDBRANCH  31  33
ENDBRANCH  30  31
ENDBRANCH  29  30
ENDBRANCH  28  29
ENDBRANCH  27  28
ENDBRANCH  26  27
ENDBRANCH   1  26
TORSDOF 24
ENDMDL
MODEL 3
REMARK VINA RESULT:      -9.0      6.546     10.370
REMARK SMILES C#CCN(CC(=O)OCCOCCOCCOC(=O)c1ccc(-c2c3nc(c(-c4c(F)cccc4F)c4ccc([nH]4)c(-c4c(F)cccc4F)c4nc(c(-c5c(F)cccc5F)c5ccc2[nH]5)C=C4)C=C3)cc1)C(=O)[C@H](c1ccc(Cl)cc1)C(C)C
REMARK SMILES IDX 12 1 11 2 10 3 9 4 8 5 6 6 7 7 5 8 4 9 3 10 2 11 1 12 74 13
REMARK SMILES IDX 75 14 76 15 84 16 85 17 86 18 77 19 78 20 83 21 79 22 82 23
REMARK SMILES IDX 80 24 81 25 13 26 14 27 15 28 16 29 17 30 18 31 19 32 20 33
REMARK SMILES IDX 21 34 73 35 22 36 72 37 23 38 24 39 25 40 66 41 26 42 71 43
REMARK SMILES IDX 65 44 67 45 27 46 70 47 64 48 63 49 28 51 54 52 37 53 53 54
REMARK SMILES IDX 38 55 41 56 52 57 68 58 39 59 40 60 51 62 69 63 42 64 29 65
REMARK SMILES IDX 30 66 35 67 31 68 32 69 34 70 36 71 33 72 55 73 56 74 61 75
REMARK SMILES IDX 57 76 58 77 60 78 62 79 59 80 43 81 44 82 49 83 45 84 46 85
REMARK SMILES IDX 48 86 50 87 47 88
REMARK H PARENT 67 50 41 61
REMARK Flexibility Score: inf
ROOT
ATOM      1  C   UNL A   1      37.867  21.834  25.361  1.00  0.00     0.188 C 
ENDROOT
BRANCH   1   2
ATOM      2  O   UNL A   1      36.727  21.665  24.533  1.00  0.00    -0.376 OA
BRANCH   2   3
ATOM      3  C   UNL A   1      35.644  20.928  25.080  1.00  0.00     0.202 C 
BRANCH   3   4
ATOM      4  C   UNL A   1      34.299  21.669  25.145  1.00  0.00     0.261 C 
BRANCH   4   5
ATOM      5  O   UNL A   1      34.320  22.946  24.464  1.00  0.00    -0.462 OA
BRANCH   5   6
ATOM      6  C   UNL A   1      34.433  24.020  25.297  1.00  0.00     0.325 C 
ATOM      7  O   UNL A   1      35.477  24.645  25.468  1.00  0.00    -0.250 OA
BRANCH   6   8
ATOM      8  C   UNL A   1      33.136  24.401  26.041  1.00  0.00     0.243 C 
BRANCH   8   9
ATOM      9  N   UNL A   1      31.973  24.830  25.274  1.00  0.00    -0.320 N 
BRANCH   9  10
ATOM     10  C   UNL A   1      31.034  23.763  24.901  1.00  0.00     0.210 C 
BRANCH  10  11
ATOM     11  C   UNL A   1      30.332  23.182  26.117  1.00  0.00    -0.085 C 
ATOM     12  C   UNL A   1      29.729  22.684  27.161  1.00  0.00     0.006 C 
ENDBRANCH  10  11
ENDBRANCH   9  10
BRANCH   9  13
ATOM     13  C   UNL A   1      31.750  26.097  24.758  1.00  0.00     0.231 C 
ATOM     14  O   UNL A   1      30.577  26.463  24.574  1.00  0.00    -0.274 OA
BRANCH  13  15
ATOM     15  C   UNL A   1      32.844  27.181  24.525  1.00  0.00     0.111 C 
BRANCH  15  16
ATOM     16  C   UNL A   1      32.937  27.592  23.032  1.00  0.00    -0.000 C 
ATOM     17  C   UNL A   1      34.139  28.505  22.790  1.00  0.00     0.008 C 
ATOM     18  C   UNL A   1      33.102  26.339  22.142  1.00  0.00     0.008 C 
ENDBRANCH  15  16
BRANCH  15  19
ATOM     19  C   UNL A   1      33.098  28.249  25.597  1.00  0.00    -0.035 A 
ATOM     20  C   UNL A   1      32.193  29.329  25.702  1.00  0.00     0.006 A 
ATOM     21  C   UNL A   1      34.161  28.248  26.498  1.00  0.00     0.006 A 
ATOM     22  C   UNL A   1      32.449  30.446  26.502  1.00  0.00     0.021 A 
ATOM     23  C   UNL A   1      34.452  29.380  27.275  1.00  0.00     0.021 A 
ATOM     24  C   UNL A   1      33.616  30.491  27.243  1.00  0.00     0.041 A 
ATOM     25  Cl  UNL A   1      34.029  31.914  28.113  1.00  0.00    -0.084 Cl
ENDBRANCH  15  19
ENDBRANCH  13  15
ENDBRANCH   9  13
ENDBRANCH   8   9
ENDBRANCH   6   8
ENDBRANCH   5   6
ENDBRANCH   4   5
ENDBRANCH   3   4
ENDBRANCH   2   3
ENDBRANCH   1   2
BRANCH   1  26
ATOM     26  C   UNL A   1      38.895  20.705  25.471  1.00  0.00     0.188 C 
BRANCH  26  27
ATOM     27  O   UNL A   1      39.839  20.761  26.527  1.00  0.00    -0.376 OA
BRANCH  27  28
ATOM     28  C   UNL A   1      41.183  20.422  26.217  1.00  0.00     0.202 C 
BRANCH  28  29
ATOM     29  C   UNL A   1      42.275  21.469  26.501  1.00  0.00     0.261 C 
BRANCH  29  30
ATOM     30  O   UNL A   1      42.198  22.706  25.752  1.00  0.00    -0.460 OA
BRANCH  30  31
ATOM     31  C   UNL A   1      41.684  23.771  26.430  1.00  0.00     0.338 C 
ATOM     32  O   UNL A   1      40.586  23.831  26.952  1.00  0.00    -0.246 OA
BRANCH  31  33
ATOM     33  C   UNL A   1      42.639  24.913  26.509  1.00  0.00     0.060 A 
ATOM     34  C   UNL A   1      43.101  25.457  25.307  1.00  0.00     0.016 A 
ATOM     35  C   UNL A   1      43.165  25.398  27.714  1.00  0.00     0.016 A 
ATOM     36  C   UNL A   1      44.048  26.494  25.307  1.00  0.00     0.010 A 
ATOM     37  C   UNL A   1      44.138  26.429  27.709  1.00  0.00     0.010 A 
ATOM     38  C   UNL A   1      44.588  26.994  26.503  1.00  0.00    -0.014 A 
BRANCH  38  39
ATOM     39  C   UNL A   1      45.698  28.004  26.433  1.00  0.00     0.031 A 
ATOM     40  C   UNL A   1      45.367  29.468  26.599  1.00  0.00     0.074 A 
ATOM     41  C   UNL A   1      47.000  27.657  26.332  1.00  0.00     0.049 A 
ATOM     42  N   UNL A   1      46.165  30.507  26.641  1.00  0.00    -0.248 NA
ATOM     43  C   UNL A   1      43.942  29.799  26.742  1.00  0.00     0.031 C 
ATOM     44  C   UNL A   1      47.510  26.293  26.234  1.00  0.00     0.029 A 
ATOM     45  N   UNL A   1      48.142  28.435  26.342  1.00  0.00    -0.354 N 
ATOM     46  C   UNL A   1      45.341  31.612  26.817  1.00  0.00     0.074 A 
ATOM     47  C   UNL A   1      43.983  31.114  26.884  1.00  0.00     0.031 C 
ATOM     48  C   UNL A   1      48.855  26.324  26.256  1.00  0.00     0.029 A 
ATOM     49  C   UNL A   1      49.314  27.712  26.287  1.00  0.00     0.049 A 
ATOM     50  H   UNL A   1      48.120  29.418  26.383  1.00  0.00     0.167 HD
ATOM     51  C   UNL A   1      45.669  32.926  26.889  1.00  0.00     0.037 A 
ATOM     52  C   UNL A   1      50.604  28.115  26.243  1.00  0.00     0.037 A 
ATOM     53  C   UNL A   1      47.001  33.457  26.762  1.00  0.00     0.049 A 
ATOM     54  C   UNL A   1      50.933  29.591  26.210  1.00  0.00     0.074 A 
ATOM     55  C   UNL A   1      47.402  34.784  26.751  1.00  0.00     0.029 A 
ATOM     56  N   UNL A   1      48.146  32.695  26.602  1.00  0.00    -0.354 N 
ATOM     57  N   UNL A   1      50.141  30.625  26.353  1.00  0.00    -0.248 NA
ATOM     58  C   UNL A   1      52.342  29.956  25.974  1.00  0.00     0.031 C 
ATOM     59  C   UNL A   1      48.781  34.825  26.523  1.00  0.00     0.029 A 
ATOM     60  C   UNL A   1      49.249  33.524  26.460  1.00  0.00     0.049 A 
ATOM     61  H   UNL A   1      48.173  31.711  26.591  1.00  0.00     0.167 HD
ATOM     62  C   UNL A   1      50.952  31.751  26.240  1.00  0.00     0.074 A 
ATOM     63  C   UNL A   1      52.305  31.279  26.047  1.00  0.00     0.031 C 
ATOM     64  C   UNL A   1      50.601  33.060  26.278  1.00  0.00     0.037 A 
BRANCH  51  65
ATOM     65  C   UNL A   1      44.532  33.896  27.026  1.00  0.00     0.057 A 
ATOM     66  C   UNL A   1      43.869  34.427  25.912  1.00  0.00     0.134 A 
ATOM     67  C   UNL A   1      44.107  34.312  28.293  1.00  0.00     0.134 A 
ATOM     68  F   UNL A   1      44.242  34.082  24.670  1.00  0.00    -0.206 F 
ATOM     69  C   UNL A   1      42.844  35.363  26.055  1.00  0.00     0.040 A 
ATOM     70  C   UNL A   1      43.067  35.227  28.450  1.00  0.00     0.040 A 
ATOM     71  F   UNL A   1      44.699  33.837  29.400  1.00  0.00    -0.206 F 
ATOM     72  C   UNL A   1      42.439  35.763  27.329  1.00  0.00     0.006 A 
ENDBRANCH  51  65
BRANCH  52  73
ATOM     73  C   UNL A   1      51.718  27.124  26.149  1.00  0.00     0.057 A 
ATOM     74  C   UNL A   1      52.044  26.500  24.936  1.00  0.00     0.134 A 
ATOM     75  C   UNL A   1      52.412  26.698  27.288  1.00  0.00     0.134 A 
ATOM     76  F   UNL A   1      51.391  26.826  23.810  1.00  0.00    -0.206 F 
ATOM     77  C   UNL A   1      52.997  25.478  24.865  1.00  0.00     0.040 A 
ATOM     78  C   UNL A   1      53.392  25.704  27.227  1.00  0.00     0.040 A 
ATOM     79  F   UNL A   1      52.138  27.232  28.487  1.00  0.00    -0.206 F 
ATOM     80  C   UNL A   1      53.676  25.081  26.015  1.00  0.00     0.006 A 
ENDBRANCH  52  73
BRANCH  64  81
ATOM     81  C   UNL A   1      51.691  34.089  26.141  1.00  0.00     0.057 A 
ATOM     82  C   UNL A   1      52.141  34.537  24.891  1.00  0.00     0.134 A 
ATOM     83  C   UNL A   1      52.262  34.679  27.276  1.00  0.00     0.134 A 
ATOM     84  F   UNL A   1      51.645  34.010  23.761  1.00  0.00    -0.206 F 
ATOM     85  C   UNL A   1      53.131  35.516  24.777  1.00  0.00     0.040 A 
ATOM     86  C   UNL A   1      53.232  35.679  27.175  1.00  0.00     0.040 A 
ATOM     87  F   UNL A   1      51.875  34.308  28.505  1.00  0.00    -0.206 F 
ATOM     88  C   UNL A   1      53.674  36.096  25.921  1.00  0.00     0.006 A 
ENDBRANCH  64  81
ENDBRANCH  38  39
ENDBRANCH  31  33
ENDBRANCH  30  31
ENDBRANCH  29  30
ENDBRANCH  28  29
ENDBRANCH  27  28
ENDBRANCH  26  27
ENDBRANCH   1  26
TORSDOF 24
ENDMDL
