MODEL 1
REMARK VINA RESULT:     -11.3      0.000      0.000
REMARK SMILES O=C(Cn1c2ccccc2c(=O)c2ccccc21)N[C@@H](Cc1ccccc1)C(=O)OCCOCCOCCOC(=O)c1ccc(-c2c3nc(c(-c4c(F)cccc4F)c4ccc([nH]4)c(-c4c(F)cccc4F)c4nc(c(-c5c(F)cccc5F)c5ccc2[nH]5)C=C4)C=C3)cc1
REMARK SMILES IDX 34 1 33 2 32 3 31 4 30 5 28 6 29 7 20 8 19 9 1 10 2 11 3 13
REMARK SMILES IDX 4 14 5 15 18 16 6 17 10 18 13 19 17 20 7 21 9 22 11 23 14 24
REMARK SMILES IDX 16 25 8 26 12 27 15 28 21 29 22 30 23 31 27 32 24 33 26 34
REMARK SMILES IDX 25 35 35 36 36 37 37 38 38 39 39 40 40 41 41 42 42 43 43 44
REMARK SMILES IDX 95 45 44 46 94 47 45 48 46 49 47 50 88 51 48 52 93 53 87 54
REMARK SMILES IDX 89 55 49 56 92 57 86 58 85 59 50 61 76 62 59 63 75 64 60 65
REMARK SMILES IDX 63 66 74 67 90 68 61 69 62 70 73 72 91 73 64 74 51 75 52 76
REMARK SMILES IDX 57 77 53 78 54 79 56 80 58 81 55 82 77 83 78 84 83 85 79 86
REMARK SMILES IDX 80 87 82 88 84 89 81 90 65 91 66 92 71 93 67 94 68 95 70 96
REMARK SMILES IDX 72 97 69 98
REMARK H PARENT 19 12 89 60 63 71
REMARK Flexibility Score: inf
ROOT
ATOM      1  C   UNL A   1      40.809  20.811  26.682  1.00  0.00     0.188 C 
ENDROOT
BRANCH   1   2
ATOM      2  O   UNL A   1      39.489  20.938  26.163  1.00  0.00    -0.376 OA
BRANCH   2   3
ATOM      3  C   UNL A   1      38.988  19.857  25.382  1.00  0.00     0.202 C 
BRANCH   3   4
ATOM      4  C   UNL A   1      37.611  20.085  24.766  1.00  0.00     0.261 C 
BRANCH   4   5
ATOM      5  O   UNL A   1      36.698  20.750  25.668  1.00  0.00    -0.462 OA
BRANCH   5   6
ATOM      6  C   UNL A   1      35.586  21.286  25.096  1.00  0.00     0.329 C 
ATOM      7  O   UNL A   1      35.552  21.749  23.958  1.00  0.00    -0.250 OA
BRANCH   6   8
ATOM      8  C   UNL A   1      34.414  21.487  26.078  1.00  0.00     0.196 C 
BRANCH   8   9
ATOM      9  N   UNL A   1      33.426  22.558  25.877  1.00  0.00    -0.341 N 
ATOM     10  O   UNL A   1      34.696  24.347  26.501  1.00  0.00    -0.273 OA
ATOM     11  C   UNL A   1      33.614  23.903  26.126  1.00  0.00     0.240 C 
ATOM     12  H   UNL A   1      32.544  22.290  25.531  1.00  0.00     0.164 HD
BRANCH  11  13
ATOM     13  C   UNL A   1      32.319  24.754  26.009  1.00  0.00     0.222 C 
BRANCH  13  14
ATOM     14  N   UNL A   1      32.362  25.950  25.122  1.00  0.00    -0.331 N 
ATOM     15  C   UNL A   1      32.175  27.237  25.706  1.00  0.00     0.053 A 
ATOM     16  C   UNL A   1      32.485  25.805  23.718  1.00  0.00     0.053 A 
ATOM     17  C   UNL A   1      31.749  27.458  27.030  1.00  0.00     0.027 A 
ATOM     18  C   UNL A   1      32.375  28.397  24.927  1.00  0.00     0.046 A 
ATOM     19  C   UNL A   1      32.752  26.921  22.907  1.00  0.00     0.046 A 
ATOM     20  C   UNL A   1      32.313  24.600  23.030  1.00  0.00     0.027 A 
ATOM     21  C   UNL A   1      31.561  28.754  27.546  1.00  0.00     0.002 A 
ATOM     22  C   UNL A   1      32.192  29.694  25.438  1.00  0.00     0.014 A 
ATOM     23  C   UNL A   1      32.764  28.266  23.511  1.00  0.00     0.197 A 
ATOM     24  C   UNL A   1      32.955  26.816  21.519  1.00  0.00     0.014 A 
ATOM     25  C   UNL A   1      32.537  24.471  21.652  1.00  0.00     0.002 A 
ATOM     26  C   UNL A   1      31.787  29.871  26.752  1.00  0.00     0.001 A 
ATOM     27  O   UNL A   1      33.019  29.254  22.826  1.00  0.00    -0.288 OA
ATOM     28  C   UNL A   1      32.876  25.579  20.896  1.00  0.00     0.001 A 
ENDBRANCH  13  14
ENDBRANCH  11  13
ENDBRANCH   8   9
BRANCH   8  29
ATOM     29  C   UNL A   1      33.673  20.116  26.143  1.00  0.00     0.072 C 
BRANCH  29  30
ATOM     30  C   UNL A   1      33.359  19.516  24.778  1.00  0.00    -0.045 A 
ATOM     31  C   UNL A   1      33.794  18.229  24.426  1.00  0.00     0.004 A 
ATOM     32  C   UNL A   1      32.557  20.220  23.866  1.00  0.00     0.004 A 
ATOM     33  C   UNL A   1      33.367  17.629  23.241  1.00  0.00     0.000 A 
ATOM     34  C   UNL A   1      32.150  19.627  22.668  1.00  0.00     0.000 A 
ATOM     35  C   UNL A   1      32.537  18.325  22.365  1.00  0.00     0.000 A 
ENDBRANCH  29  30
ENDBRANCH   8  29
ENDBRANCH   6   8
ENDBRANCH   5   6
ENDBRANCH   4   5
ENDBRANCH   3   4
ENDBRANCH   2   3
ENDBRANCH   1   2
BRANCH   1  36
ATOM     36  C   UNL A   1      41.717  19.766  26.026  1.00  0.00     0.188 C 
BRANCH  36  37
ATOM     37  O   UNL A   1      42.910  20.235  25.421  1.00  0.00    -0.376 OA
BRANCH  37  38
ATOM     38  C   UNL A   1      43.405  21.500  25.832  1.00  0.00     0.202 C 
BRANCH  38  39
ATOM     39  C   UNL A   1      43.882  22.336  24.646  1.00  0.00     0.261 C 
BRANCH  39  40
ATOM     40  O   UNL A   1      43.345  23.658  24.785  1.00  0.00    -0.460 OA
BRANCH  40  41
ATOM     41  C   UNL A   1      44.206  24.627  25.168  1.00  0.00     0.338 C 
ATOM     42  O   UNL A   1      45.240  24.972  24.628  1.00  0.00    -0.246 OA
BRANCH  41  43
ATOM     43  C   UNL A   1      43.555  25.376  26.261  1.00  0.00     0.060 A 
ATOM     44  C   UNL A   1      42.465  24.836  26.947  1.00  0.00     0.016 A 
ATOM     45  C   UNL A   1      44.000  26.676  26.535  1.00  0.00     0.016 A 
ATOM     46  C   UNL A   1      41.827  25.595  27.919  1.00  0.00     0.010 A 
ATOM     47  C   UNL A   1      43.360  27.439  27.509  1.00  0.00     0.010 A 
ATOM     48  C   UNL A   1      42.286  26.890  28.220  1.00  0.00    -0.014 A 
BRANCH  48  49
ATOM     49  C   UNL A   1      41.769  27.548  29.436  1.00  0.00     0.031 A 
ATOM     50  C   UNL A   1      42.465  27.452  30.751  1.00  0.00     0.074 A 
ATOM     51  C   UNL A   1      40.661  28.296  29.286  1.00  0.00     0.049 A 
ATOM     52  N   UNL A   1      42.241  28.138  31.843  1.00  0.00    -0.248 NA
ATOM     53  C   UNL A   1      43.542  26.460  30.866  1.00  0.00     0.031 C 
ATOM     54  C   UNL A   1      39.895  28.417  28.041  1.00  0.00     0.029 A 
ATOM     55  N   UNL A   1      40.007  29.114  30.164  1.00  0.00    -0.354 N 
ATOM     56  C   UNL A   1      43.169  27.686  32.770  1.00  0.00     0.074 A 
ATOM     57  C   UNL A   1      43.925  26.630  32.125  1.00  0.00     0.031 C 
ATOM     58  C   UNL A   1      38.902  29.296  28.223  1.00  0.00     0.029 A 
ATOM     59  C   UNL A   1      38.952  29.784  29.596  1.00  0.00     0.049 A 
ATOM     60  H   UNL A   1      40.266  29.213  31.109  1.00  0.00     0.167 HD
ATOM     61  C   UNL A   1      43.372  28.132  34.034  1.00  0.00     0.037 A 
ATOM     62  C   UNL A   1      38.130  30.708  30.122  1.00  0.00     0.037 A 
ATOM     63  C   UNL A   1      42.579  29.161  34.665  1.00  0.00     0.049 A 
ATOM     64  C   UNL A   1      38.359  31.153  31.535  1.00  0.00     0.074 A 
ATOM     65  C   UNL A   1      42.719  29.710  35.928  1.00  0.00     0.029 A 
ATOM     66  N   UNL A   1      41.481  29.781  34.083  1.00  0.00    -0.354 N 
ATOM     67  N   UNL A   1      39.300  30.793  32.373  1.00  0.00    -0.248 NA
ATOM     68  C   UNL A   1      37.415  32.141  32.071  1.00  0.00     0.031 C 
ATOM     69  C   UNL A   1      41.677  30.622  36.129  1.00  0.00     0.029 A 
ATOM     70  C   UNL A   1      40.915  30.680  34.973  1.00  0.00     0.049 A 
ATOM     71  H   UNL A   1      41.152  29.607  33.172  1.00  0.00     0.167 HD
ATOM     72  C   UNL A   1      39.075  31.522  33.531  1.00  0.00     0.074 A 
ATOM     73  C   UNL A   1      37.924  32.364  33.274  1.00  0.00     0.031 C 
ATOM     74  C   UNL A   1      39.756  31.497  34.703  1.00  0.00     0.037 A 
BRANCH  61  75
ATOM     75  C   UNL A   1      44.488  27.505  34.818  1.00  0.00     0.057 A 
ATOM     76  C   UNL A   1      45.790  28.017  34.755  1.00  0.00     0.134 A 
ATOM     77  C   UNL A   1      44.283  26.363  35.606  1.00  0.00     0.134 A 
ATOM     78  F   UNL A   1      46.061  29.101  34.012  1.00  0.00    -0.206 F 
ATOM     79  C   UNL A   1      46.846  27.419  35.446  1.00  0.00     0.040 A 
ATOM     80  C   UNL A   1      45.325  25.770  36.321  1.00  0.00     0.040 A 
ATOM     81  F   UNL A   1      43.059  25.822  35.713  1.00  0.00    -0.206 F 
ATOM     82  C   UNL A   1      46.613  26.296  36.238  1.00  0.00     0.006 A 
ENDBRANCH  61  75
BRANCH  62  83
ATOM     83  C   UNL A   1      37.047  31.289  29.295  1.00  0.00     0.057 A 
ATOM     84  C   UNL A   1      37.143  32.586  28.778  1.00  0.00     0.134 A 
ATOM     85  C   UNL A   1      35.887  30.561  29.006  1.00  0.00     0.134 A 
ATOM     86  F   UNL A   1      38.224  33.338  29.032  1.00  0.00    -0.206 F 
ATOM     87  C   UNL A   1      36.124  33.139  28.002  1.00  0.00     0.040 A 
ATOM     88  C   UNL A   1      34.873  31.092  28.210  1.00  0.00     0.040 A 
ATOM     89  F   UNL A   1      35.742  29.310  29.469  1.00  0.00    -0.206 F 
ATOM     90  C   UNL A   1      34.989  32.387  27.708  1.00  0.00     0.006 A 
ENDBRANCH  62  83
BRANCH  74  91
ATOM     91  C   UNL A   1      39.265  32.417  35.782  1.00  0.00     0.057 A 
ATOM     92  C   UNL A   1      38.296  31.992  36.698  1.00  0.00     0.134 A 
ATOM     93  C   UNL A   1      39.758  33.722  35.918  1.00  0.00     0.134 A 
ATOM     94  F   UNL A   1      37.780  30.757  36.622  1.00  0.00    -0.206 F 
ATOM     95  C   UNL A   1      37.839  32.830  37.716  1.00  0.00     0.040 A 
ATOM     96  C   UNL A   1      39.330  34.559  36.949  1.00  0.00     0.040 A 
ATOM     97  F   UNL A   1      40.702  34.183  35.083  1.00  0.00    -0.206 F 
ATOM     98  C   UNL A   1      38.364  34.114  37.849  1.00  0.00     0.006 A 
ENDBRANCH  74  91
ENDBRANCH  48  49
ENDBRANCH  41  43
ENDBRANCH  40  41
ENDBRANCH  39  40
ENDBRANCH  38  39
ENDBRANCH  37  38
ENDBRANCH  36  37
ENDBRANCH   1  36
TORSDOF 22
ENDMDL
MODEL 2
REMARK VINA RESULT:     -11.1      4.379     10.265
REMARK SMILES O=C(Cn1c2ccccc2c(=O)c2ccccc21)N[C@@H](Cc1ccccc1)C(=O)OCCOCCOCCOC(=O)c1ccc(-c2c3nc(c(-c4c(F)cccc4F)c4ccc([nH]4)c(-c4c(F)cccc4F)c4nc(c(-c5c(F)cccc5F)c5ccc2[nH]5)C=C4)C=C3)cc1
REMARK SMILES IDX 34 1 33 2 32 3 31 4 30 5 28 6 29 7 20 8 19 9 1 10 2 11 3 13
REMARK SMILES IDX 4 14 5 15 18 16 6 17 10 18 13 19 17 20 7 21 9 22 11 23 14 24
REMARK SMILES IDX 16 25 8 26 12 27 15 28 21 29 22 30 23 31 27 32 24 33 26 34
REMARK SMILES IDX 25 35 35 36 36 37 37 38 38 39 39 40 40 41 41 42 42 43 43 44
REMARK SMILES IDX 95 45 44 46 94 47 45 48 46 49 47 50 88 51 48 52 93 53 87 54
REMARK SMILES IDX 89 55 49 56 92 57 86 58 85 59 50 61 76 62 59 63 75 64 60 65
REMARK SMILES IDX 63 66 74 67 90 68 61 69 62 70 73 72 91 73 64 74 51 75 52 76
REMARK SMILES IDX 57 77 53 78 54 79 56 80 58 81 55 82 77 83 78 84 83 85 79 86
REMARK SMILES IDX 80 87 82 88 84 89 81 90 65 91 66 92 71 93 67 94 68 95 70 96
REMARK SMILES IDX 72 97 69 98
REMARK H PARENT 19 12 89 60 63 71
REMARK Flexibility Score: inf
ROOT
ATOM      1  C   UNL A   1      34.606  34.128  29.175  1.00  0.00     0.188 C 
ENDROOT
BRANCH   1   2
ATOM      2  O   UNL A   1      34.393  32.723  29.104  1.00  0.00    -0.376 OA
BRANCH   2   3
ATOM      3  C   UNL A   1      33.992  32.186  27.847  1.00  0.00     0.202 C 
BRANCH   3   4
ATOM      4  C   UNL A   1      34.335  30.716  27.630  1.00  0.00     0.261 C 
BRANCH   4   5
ATOM      5  O   UNL A   1      33.483  30.081  26.649  1.00  0.00    -0.462 OA
BRANCH   5   6
ATOM      6  C   UNL A   1      33.846  28.825  26.274  1.00  0.00     0.329 C 
ATOM      7  O   UNL A   1      34.848  28.245  26.685  1.00  0.00    -0.250 OA
BRANCH   6   8
ATOM      8  C   UNL A   1      33.024  28.264  25.095  1.00  0.00     0.196 C 
BRANCH   8   9
ATOM      9  N   UNL A   1      33.283  26.921  24.556  1.00  0.00    -0.341 N 
ATOM     10  O   UNL A   1      33.804  27.486  22.408  1.00  0.00    -0.273 OA
ATOM     11  C   UNL A   1      33.624  26.614  23.253  1.00  0.00     0.240 C 
ATOM     12  H   UNL A   1      33.207  26.166  25.184  1.00  0.00     0.164 HD
BRANCH  11  13
ATOM     13  C   UNL A   1      33.632  25.090  22.946  1.00  0.00     0.222 C 
BRANCH  13  14
ATOM     14  N   UNL A   1      33.685  24.157  24.105  1.00  0.00    -0.331 N 
ATOM     15  C   UNL A   1      34.850  23.353  24.278  1.00  0.00     0.053 A 
ATOM     16  C   UNL A   1      32.566  23.999  24.958  1.00  0.00     0.053 A 
ATOM     17  C   UNL A   1      35.876  23.219  23.323  1.00  0.00     0.027 A 
ATOM     18  C   UNL A   1      35.004  22.584  25.452  1.00  0.00     0.046 A 
ATOM     19  C   UNL A   1      32.687  23.300  26.172  1.00  0.00     0.046 A 
ATOM     20  C   UNL A   1      31.279  24.461  24.667  1.00  0.00     0.027 A 
ATOM     21  C   UNL A   1      36.994  22.392  23.541  1.00  0.00     0.002 A 
ATOM     22  C   UNL A   1      36.120  21.759  25.676  1.00  0.00     0.014 A 
ATOM     23  C   UNL A   1      33.952  22.612  26.485  1.00  0.00     0.197 A 
ATOM     24  C   UNL A   1      31.624  23.180  27.085  1.00  0.00     0.014 A 
ATOM     25  C   UNL A   1      30.214  24.374  25.575  1.00  0.00     0.002 A 
ATOM     26  C   UNL A   1      37.118  21.666  24.718  1.00  0.00     0.001 A 
ATOM     27  O   UNL A   1      34.089  22.014  27.550  1.00  0.00    -0.288 OA
ATOM     28  C   UNL A   1      30.391  23.746  26.796  1.00  0.00     0.001 A 
ENDBRANCH  13  14
ENDBRANCH  11  13
ENDBRANCH   8   9
BRANCH   8  29
ATOM     29  C   UNL A   1      31.531  28.355  25.538  1.00  0.00     0.072 C 
BRANCH  29  30
ATOM     30  C   UNL A   1      30.571  28.715  24.411  1.00  0.00    -0.045 A 
ATOM     31  C   UNL A   1      29.887  27.726  23.687  1.00  0.00     0.004 A 
ATOM     32  C   UNL A   1      30.297  30.061  24.121  1.00  0.00     0.004 A 
ATOM     33  C   UNL A   1      28.893  28.071  22.769  1.00  0.00     0.000 A 
ATOM     34  C   UNL A   1      29.320  30.405  23.184  1.00  0.00     0.000 A 
ATOM     35  C   UNL A   1      28.604  29.411  22.523  1.00  0.00     0.000 A 
ENDBRANCH  29  30
ENDBRANCH   8  29
ENDBRANCH   6   8
ENDBRANCH   5   6
ENDBRANCH   4   5
ENDBRANCH   3   4
ENDBRANCH   2   3
ENDBRANCH   1   2
BRANCH   1  36
ATOM     36  C   UNL A   1      33.634  34.937  30.039  1.00  0.00     0.188 C 
BRANCH  36  37
ATOM     37  O   UNL A   1      33.540  34.585  31.410  1.00  0.00    -0.376 OA
BRANCH  37  38
ATOM     38  C   UNL A   1      34.561  35.048  32.281  1.00  0.00     0.202 C 
BRANCH  38  39
ATOM     39  C   UNL A   1      35.230  33.900  33.032  1.00  0.00     0.261 C 
BRANCH  39  40
ATOM     40  O   UNL A   1      36.204  33.304  32.164  1.00  0.00    -0.460 OA
BRANCH  40  41
ATOM     41  C   UNL A   1      36.148  31.962  32.016  1.00  0.00     0.338 C 
ATOM     42  O   UNL A   1      35.183  31.232  32.134  1.00  0.00    -0.246 OA
BRANCH  41  43
ATOM     43  C   UNL A   1      37.443  31.535  31.451  1.00  0.00     0.060 A 
ATOM     44  C   UNL A   1      38.491  31.138  32.284  1.00  0.00     0.016 A 
ATOM     45  C   UNL A   1      37.626  31.621  30.064  1.00  0.00     0.016 A 
ATOM     46  C   UNL A   1      39.720  30.815  31.728  1.00  0.00     0.010 A 
ATOM     47  C   UNL A   1      38.860  31.298  29.504  1.00  0.00     0.010 A 
ATOM     48  C   UNL A   1      39.903  30.870  30.334  1.00  0.00    -0.014 A 
BRANCH  48  49
ATOM     49  C   UNL A   1      41.119  30.257  29.764  1.00  0.00     0.031 A 
ATOM     50  C   UNL A   1      41.153  28.842  29.297  1.00  0.00     0.074 A 
ATOM     51  C   UNL A   1      42.188  31.061  29.631  1.00  0.00     0.049 A 
ATOM     52  N   UNL A   1      42.077  28.237  28.595  1.00  0.00    -0.248 NA
ATOM     53  C   UNL A   1      40.014  27.989  29.664  1.00  0.00     0.031 C 
ATOM     54  C   UNL A   1      42.253  32.451  30.095  1.00  0.00     0.029 A 
ATOM     55  N   UNL A   1      43.404  30.845  29.044  1.00  0.00    -0.354 N 
ATOM     56  C   UNL A   1      41.622  26.941  28.407  1.00  0.00     0.074 A 
ATOM     57  C   UNL A   1      40.361  26.833  29.114  1.00  0.00     0.031 C 
ATOM     58  C   UNL A   1      43.430  32.978  29.733  1.00  0.00     0.029 A 
ATOM     59  C   UNL A   1      44.204  31.961  29.032  1.00  0.00     0.049 A 
ATOM     60  H   UNL A   1      43.678  29.978  28.668  1.00  0.00     0.167 HD
ATOM     61  C   UNL A   1      42.206  25.946  27.694  1.00  0.00     0.037 A 
ATOM     62  C   UNL A   1      45.420  32.147  28.492  1.00  0.00     0.037 A 
ATOM     63  C   UNL A   1      43.482  26.070  27.030  1.00  0.00     0.049 A 
ATOM     64  C   UNL A   1      46.054  31.015  27.741  1.00  0.00     0.074 A 
ATOM     65  C   UNL A   1      44.149  25.136  26.255  1.00  0.00     0.029 A 
ATOM     66  N   UNL A   1      44.295  27.194  27.083  1.00  0.00    -0.354 N 
ATOM     67  N   UNL A   1      45.574  29.823  27.483  1.00  0.00    -0.248 NA
ATOM     68  C   UNL A   1      47.395  31.260  27.198  1.00  0.00     0.031 C 
ATOM     69  C   UNL A   1      45.385  25.677  25.883  1.00  0.00     0.029 A 
ATOM     70  C   UNL A   1      45.471  26.965  26.384  1.00  0.00     0.049 A 
ATOM     71  H   UNL A   1      44.071  28.031  27.549  1.00  0.00     0.167 HD
ATOM     72  C   UNL A   1      46.546  29.178  26.731  1.00  0.00     0.074 A 
ATOM     73  C   UNL A   1      47.629  30.125  26.554  1.00  0.00     0.031 C 
ATOM     74  C   UNL A   1      46.545  27.917  26.235  1.00  0.00     0.037 A 
BRANCH  61  75
ATOM     75  C   UNL A   1      41.473  24.639  27.602  1.00  0.00     0.057 A 
ATOM     76  C   UNL A   1      41.861  23.538  28.376  1.00  0.00     0.134 A 
ATOM     77  C   UNL A   1      40.406  24.456  26.712  1.00  0.00     0.134 A 
ATOM     78  F   UNL A   1      42.882  23.639  29.242  1.00  0.00    -0.206 F 
ATOM     79  C   UNL A   1      41.215  22.305  28.270  1.00  0.00     0.040 A 
ATOM     80  C   UNL A   1      39.736  23.235  26.613  1.00  0.00     0.040 A 
ATOM     81  F   UNL A   1      39.981  25.470  25.942  1.00  0.00    -0.206 F 
ATOM     82  C   UNL A   1      40.144  22.152  27.391  1.00  0.00     0.006 A 
ENDBRANCH  61  75
BRANCH  62  83
ATOM     83  C   UNL A   1      46.091  33.462  28.618  1.00  0.00     0.057 A 
ATOM     84  C   UNL A   1      46.883  33.771  29.730  1.00  0.00     0.134 A 
ATOM     85  C   UNL A   1      45.952  34.442  27.629  1.00  0.00     0.134 A 
ATOM     86  F   UNL A   1      47.042  32.878  30.718  1.00  0.00    -0.206 F 
ATOM     87  C   UNL A   1      47.512  35.009  29.855  1.00  0.00     0.040 A 
ATOM     88  C   UNL A   1      46.598  35.674  27.729  1.00  0.00     0.040 A 
ATOM     89  F   UNL A   1      45.212  34.200  26.537  1.00  0.00    -0.206 F 
ATOM     90  C   UNL A   1      47.379  35.962  28.847  1.00  0.00     0.006 A 
ENDBRANCH  62  83
BRANCH  74  91
ATOM     91  C   UNL A   1      47.756  27.507  25.449  1.00  0.00     0.057 A 
ATOM     92  C   UNL A   1      48.870  26.952  26.090  1.00  0.00     0.134 A 
ATOM     93  C   UNL A   1      47.816  27.654  24.056  1.00  0.00     0.134 A 
ATOM     94  F   UNL A   1      48.881  26.788  27.421  1.00  0.00    -0.206 F 
ATOM     95  C   UNL A   1      49.999  26.552  25.373  1.00  0.00     0.040 A 
ATOM     96  C   UNL A   1      48.927  27.232  23.326  1.00  0.00     0.040 A 
ATOM     97  F   UNL A   1      46.773  28.161  23.381  1.00  0.00    -0.206 F 
ATOM     98  C   UNL A   1      50.025  26.683  23.986  1.00  0.00     0.006 A 
ENDBRANCH  74  91
ENDBRANCH  48  49
ENDBRANCH  41  43
ENDBRANCH  40  41
ENDBRANCH  39  40
ENDBRANCH  38  39
ENDBRANCH  37  38
ENDBRANCH  36  37
ENDBRANCH   1  36
TORSDOF 22
ENDMDL
MODEL 3
REMARK VINA RESULT:     -11.1      4.271      8.049
REMARK SMILES O=C(Cn1c2ccccc2c(=O)c2ccccc21)N[C@@H](Cc1ccccc1)C(=O)OCCOCCOCCOC(=O)c1ccc(-c2c3nc(c(-c4c(F)cccc4F)c4ccc([nH]4)c(-c4c(F)cccc4F)c4nc(c(-c5c(F)cccc5F)c5ccc2[nH]5)C=C4)C=C3)cc1
REMARK SMILES IDX 34 1 33 2 32 3 31 4 30 5 28 6 29 7 20 8 19 9 1 10 2 11 3 13
REMARK SMILES IDX 4 14 5 15 18 16 6 17 10 18 13 19 17 20 7 21 9 22 11 23 14 24
REMARK SMILES IDX 16 25 8 26 12 27 15 28 21 29 22 30 23 31 27 32 24 33 26 34
REMARK SMILES IDX 25 35 35 36 36 37 37 38 38 39 39 40 40 41 41 42 42 43 43 44
REMARK SMILES IDX 95 45 44 46 94 47 45 48 46 49 47 50 88 51 48 52 93 53 87 54
REMARK SMILES IDX 89 55 49 56 92 57 86 58 85 59 50 61 76 62 59 63 75 64 60 65
REMARK SMILES IDX 63 66 74 67 90 68 61 69 62 70 73 72 91 73 64 74 51 75 52 76
REMARK SMILES IDX 57 77 53 78 54 79 56 80 58 81 55 82 77 83 78 84 83 85 79 86
REMARK SMILES IDX 80 87 82 88 84 89 81 90 65 91 66 92 71 93 67 94 68 95 70 96
REMARK SMILES IDX 72 97 69 98
REMARK H PARENT 19 12 89 60 63 71
REMARK Flexibility Score: inf
ROOT
ATOM      1  C   UNL A   1      34.023  23.538  22.726  1.00  0.00     0.188 C 
ENDROOT
BRANCH   1   2
ATOM      2  O   UNL A   1      34.038  24.947  22.524  1.00  0.00    -0.376 OA
BRANCH   2   3
ATOM      3  C   UNL A   1      32.791  25.631  22.605  1.00  0.00     0.202 C 
BRANCH   3   4
ATOM      4  C   UNL A   1      32.888  27.150  22.698  1.00  0.00     0.261 C 
BRANCH   4   5
ATOM      5  O   UNL A   1      33.855  27.589  23.680  1.00  0.00    -0.462 OA
BRANCH   5   6
ATOM      6  C   UNL A   1      33.414  28.521  24.567  1.00  0.00     0.329 C 
ATOM      7  O   UNL A   1      32.741  29.502  24.260  1.00  0.00    -0.250 OA
BRANCH   6   8
ATOM      8  C   UNL A   1      34.031  28.382  25.975  1.00  0.00     0.196 C 
BRANCH   8   9
ATOM      9  N   UNL A   1      34.713  29.512  26.623  1.00  0.00    -0.341 N 
ATOM     10  O   UNL A   1      32.887  30.698  27.305  1.00  0.00    -0.273 OA
ATOM     11  C   UNL A   1      34.108  30.603  27.215  1.00  0.00     0.240 C 
ATOM     12  H   UNL A   1      35.697  29.490  26.637  1.00  0.00     0.164 HD
BRANCH  11  13
ATOM     13  C   UNL A   1      35.099  31.726  27.630  1.00  0.00     0.222 C 
BRANCH  13  14
ATOM     14  N   UNL A   1      35.093  32.153  29.058  1.00  0.00    -0.331 N 
ATOM     15  C   UNL A   1      34.472  33.392  29.394  1.00  0.00     0.053 A 
ATOM     16  C   UNL A   1      35.774  31.396  30.041  1.00  0.00     0.053 A 
ATOM     17  C   UNL A   1      34.040  34.350  28.457  1.00  0.00     0.027 A 
ATOM     18  C   UNL A   1      34.302  33.746  30.751  1.00  0.00     0.046 A 
ATOM     19  C   UNL A   1      35.584  31.667  31.407  1.00  0.00     0.046 A 
ATOM     20  C   UNL A   1      36.697  30.384  29.761  1.00  0.00     0.027 A 
ATOM     21  C   UNL A   1      33.453  35.566  28.850  1.00  0.00     0.002 A 
ATOM     22  C   UNL A   1      33.713  34.958  31.149  1.00  0.00     0.014 A 
ATOM     23  C   UNL A   1      34.778  32.834  31.807  1.00  0.00     0.197 A 
ATOM     24  C   UNL A   1      36.180  30.895  32.421  1.00  0.00     0.014 A 
ATOM     25  C   UNL A   1      37.281  29.588  30.756  1.00  0.00     0.002 A 
ATOM     26  C   UNL A   1      33.285  35.869  30.194  1.00  0.00     0.001 A 
ATOM     27  O   UNL A   1      34.579  33.076  32.995  1.00  0.00    -0.288 OA
ATOM     28  C   UNL A   1      37.009  29.833  32.091  1.00  0.00     0.001 A 
ENDBRANCH  13  14
ENDBRANCH  11  13
ENDBRANCH   8   9
BRANCH   8  29
ATOM     29  C   UNL A   1      32.875  27.888  26.898  1.00  0.00     0.072 C 
BRANCH  29  30
ATOM     30  C   UNL A   1      32.162  26.642  26.387  1.00  0.00    -0.045 A 
ATOM     31  C   UNL A   1      32.817  25.404  26.309  1.00  0.00     0.004 A 
ATOM     32  C   UNL A   1      30.801  26.698  26.048  1.00  0.00     0.004 A 
ATOM     33  C   UNL A   1      32.113  24.240  25.992  1.00  0.00     0.000 A 
ATOM     34  C   UNL A   1      30.103  25.536  25.707  1.00  0.00     0.000 A 
ATOM     35  C   UNL A   1      30.753  24.306  25.700  1.00  0.00     0.000 A 
ENDBRANCH  29  30
ENDBRANCH   8  29
ENDBRANCH   6   8
ENDBRANCH   5   6
ENDBRANCH   4   5
ENDBRANCH   3   4
ENDBRANCH   2   3
ENDBRANCH   1   2
BRANCH   1  36
ATOM     36  C   UNL A   1      35.154  22.944  23.571  1.00  0.00     0.188 C 
BRANCH  36  37
ATOM     37  O   UNL A   1      34.793  22.338  24.802  1.00  0.00    -0.376 OA
BRANCH  37  38
ATOM     38  C   UNL A   1      35.727  22.403  25.869  1.00  0.00     0.202 C 
BRANCH  38  39
ATOM     39  C   UNL A   1      37.142  22.066  25.405  1.00  0.00     0.261 C 
BRANCH  39  40
ATOM     40  O   UNL A   1      38.041  23.026  25.977  1.00  0.00    -0.460 OA
BRANCH  40  41
ATOM     41  C   UNL A   1      39.188  22.545  26.506  1.00  0.00     0.338 C 
ATOM     42  O   UNL A   1      39.605  21.403  26.487  1.00  0.00    -0.246 OA
BRANCH  41  43
ATOM     43  C   UNL A   1      39.988  23.709  26.934  1.00  0.00     0.060 A 
ATOM     44  C   UNL A   1      40.941  23.588  27.947  1.00  0.00     0.016 A 
ATOM     45  C   UNL A   1      39.708  24.957  26.361  1.00  0.00     0.016 A 
ATOM     46  C   UNL A   1      41.623  24.717  28.380  1.00  0.00     0.010 A 
ATOM     47  C   UNL A   1      40.391  26.091  26.795  1.00  0.00     0.010 A 
ATOM     48  C   UNL A   1      41.369  25.968  27.790  1.00  0.00    -0.014 A 
BRANCH  48  49
ATOM     49  C   UNL A   1      42.301  27.077  28.074  1.00  0.00     0.031 A 
ATOM     50  C   UNL A   1      43.656  27.157  27.457  1.00  0.00     0.074 A 
ATOM     51  C   UNL A   1      41.842  28.052  28.879  1.00  0.00     0.049 A 
ATOM     52  N   UNL A   1      44.491  28.164  27.454  1.00  0.00    -0.248 NA
ATOM     53  C   UNL A   1      44.144  25.960  26.759  1.00  0.00     0.031 C 
ATOM     54  C   UNL A   1      40.541  28.036  29.555  1.00  0.00     0.029 A 
ATOM     55  N   UNL A   1      42.394  29.250  29.238  1.00  0.00    -0.354 N 
ATOM     56  C   UNL A   1      45.595  27.738  26.729  1.00  0.00     0.074 A 
ATOM     57  C   UNL A   1      45.342  26.361  26.352  1.00  0.00     0.031 C 
ATOM     58  C   UNL A   1      40.376  29.192  30.210  1.00  0.00     0.029 A 
ATOM     59  C   UNL A   1      41.562  30.017  30.015  1.00  0.00     0.049 A 
ATOM     60  H   UNL A   1      43.297  29.534  28.969  1.00  0.00     0.167 HD
ATOM     61  C   UNL A   1      46.704  28.446  26.403  1.00  0.00     0.037 A 
ATOM     62  C   UNL A   1      41.730  31.260  30.497  1.00  0.00     0.037 A 
ATOM     63  C   UNL A   1      46.947  29.806  26.823  1.00  0.00     0.049 A 
ATOM     64  C   UNL A   1      42.984  32.002  30.147  1.00  0.00     0.074 A 
ATOM     65  C   UNL A   1      48.020  30.627  26.522  1.00  0.00     0.029 A 
ATOM     66  N   UNL A   1      46.110  30.537  27.657  1.00  0.00    -0.354 N 
ATOM     67  N   UNL A   1      43.979  31.629  29.379  1.00  0.00    -0.248 NA
ATOM     68  C   UNL A   1      43.133  33.344  30.723  1.00  0.00     0.031 C 
ATOM     69  C   UNL A   1      47.859  31.833  27.213  1.00  0.00     0.029 A 
ATOM     70  C   UNL A   1      46.660  31.785  27.907  1.00  0.00     0.049 A 
ATOM     71  H   UNL A   1      45.253  30.217  28.017  1.00  0.00     0.167 HD
ATOM     72  C   UNL A   1      44.866  32.696  29.364  1.00  0.00     0.074 A 
ATOM     73  C   UNL A   1      44.274  33.739  30.178  1.00  0.00     0.031 C 
ATOM     74  C   UNL A   1      46.063  32.803  28.737  1.00  0.00     0.037 A 
BRANCH  61  75
ATOM     75  C   UNL A   1      47.737  27.762  25.555  1.00  0.00     0.057 A 
ATOM     76  C   UNL A   1      48.884  27.201  26.130  1.00  0.00     0.134 A 
ATOM     77  C   UNL A   1      47.618  27.696  24.160  1.00  0.00     0.134 A 
ATOM     78  F   UNL A   1      49.070  27.238  27.458  1.00  0.00    -0.206 F 
ATOM     79  C   UNL A   1      49.873  26.598  25.350  1.00  0.00     0.040 A 
ATOM     80  C   UNL A   1      48.588  27.075  23.371  1.00  0.00     0.040 A 
ATOM     81  F   UNL A   1      46.542  28.211  23.545  1.00  0.00    -0.206 F 
ATOM     82  C   UNL A   1      49.723  26.528  23.966  1.00  0.00     0.006 A 
ENDBRANCH  61  75
BRANCH  62  83
ATOM     83  C   UNL A   1      40.671  31.880  31.327  1.00  0.00     0.057 A 
ATOM     84  C   UNL A   1      40.589  31.635  32.703  1.00  0.00     0.134 A 
ATOM     85  C   UNL A   1      39.714  32.729  30.763  1.00  0.00     0.134 A 
ATOM     86  F   UNL A   1      41.470  30.819  33.300  1.00  0.00    -0.206 F 
ATOM     87  C   UNL A   1      39.592  32.213  33.489  1.00  0.00     0.040 A 
ATOM     88  C   UNL A   1      38.727  33.334  31.540  1.00  0.00     0.040 A 
ATOM     89  F   UNL A   1      39.746  33.006  29.451  1.00  0.00    -0.206 F 
ATOM     90  C   UNL A   1      38.662  33.074  32.908  1.00  0.00     0.006 A 
ENDBRANCH  62  83
BRANCH  74  91
ATOM     91  C   UNL A   1      46.794  34.102  28.911  1.00  0.00     0.057 A 
ATOM     92  C   UNL A   1      46.556  35.179  28.049  1.00  0.00     0.134 A 
ATOM     93  C   UNL A   1      47.729  34.288  29.939  1.00  0.00     0.134 A 
ATOM     94  F   UNL A   1      45.677  35.066  27.043  1.00  0.00    -0.206 F 
ATOM     95  C   UNL A   1      47.217  36.398  28.206  1.00  0.00     0.040 A 
ATOM     96  C   UNL A   1      48.375  35.511  30.123  1.00  0.00     0.040 A 
ATOM     97  F   UNL A   1      47.988  33.301  30.810  1.00  0.00    -0.206 F 
ATOM     98  C   UNL A   1      48.122  36.569  29.252  1.00  0.00     0.006 A 
ENDBRANCH  74  91
ENDBRANCH  48  49
ENDBRANCH  41  43
ENDBRANCH  40  41
ENDBRANCH  39  40
ENDBRANCH  38  39
ENDBRANCH  37  38
ENDBRANCH  36  37
ENDBRANCH   1  36
TORSDOF 22
ENDMDL
