MODEL 1
REMARK VINA RESULT:      -9.6      0.000      0.000
REMARK SMILES CC(C)(C)OC(=O)Nc1ccc(SCC(=O)OCCOCCOCCOC(=O)c2ccc(-c3c4nc(c(-c5c(F)cccc5F)c5ccc([nH]5)c(-c5c(F)cccc5F)c5nc(c(-c6c(F)cccc6F)c6ccc3[nH]6)C=C5)C=C4)cc2)cc1
REMARK SMILES IDX 20 1 19 2 18 3 17 4 15 5 16 6 14 7 13 8 12 9 9 10 10 11
REMARK SMILES IDX 84 12 11 13 83 14 8 15 6 16 7 17 5 19 2 20 1 21 3 22 4 23
REMARK SMILES IDX 21 24 22 25 23 26 24 27 25 28 26 29 27 30 28 31 29 32 30 33
REMARK SMILES IDX 82 34 31 35 81 36 32 37 33 38 34 39 75 40 35 41 80 42 74 43
REMARK SMILES IDX 76 44 36 45 79 46 73 47 72 48 37 50 63 51 46 52 62 53 47 54
REMARK SMILES IDX 50 55 61 56 77 57 48 58 49 59 60 61 78 62 51 63 38 64 39 65
REMARK SMILES IDX 44 66 40 67 41 68 43 69 45 70 42 71 64 72 65 73 70 74 66 75
REMARK SMILES IDX 67 76 69 77 71 78 68 79 52 80 53 81 58 82 54 83 55 84 57 85
REMARK SMILES IDX 59 86 56 87
REMARK H PARENT 8 18 76 49 50 60
REMARK Flexibility Score: inf
ROOT
ATOM      1  O   UNL A   1      34.297  33.370  27.815  1.00  0.00    -0.376 OA
ENDROOT
BRANCH   1   2
ATOM      2  C   UNL A   1      34.241  31.986  28.160  1.00  0.00     0.202 C 
BRANCH   2   3
ATOM      3  C   UNL A   1      33.292  31.162  27.274  1.00  0.00     0.261 C 
BRANCH   3   4
ATOM      4  O   UNL A   1      33.962  29.984  26.756  1.00  0.00    -0.463 OA
BRANCH   4   5
ATOM      5  C   UNL A   1      33.320  29.233  25.822  1.00  0.00     0.316 C 
ATOM      6  O   UNL A   1      33.467  29.388  24.614  1.00  0.00    -0.251 OA
BRANCH   5   7
ATOM      7  C   UNL A   1      32.587  28.022  26.407  1.00  0.00     0.197 C 
BRANCH   7   8
ATOM      8  S   UNL A   1      31.012  27.571  25.586  1.00  0.00    -0.114 SA
BRANCH   8   9
ATOM      9  C   UNL A   1      31.045  25.767  25.458  1.00  0.00     0.008 A 
ATOM     10  C   UNL A   1      31.428  22.931  25.377  1.00  0.00     0.044 A 
ATOM     11  C   UNL A   1      31.623  23.641  26.561  1.00  0.00     0.027 A 
ATOM     12  C   UNL A   1      30.869  23.620  24.294  1.00  0.00     0.027 A 
ATOM     13  C   UNL A   1      31.438  25.043  26.596  1.00  0.00     0.017 A 
ATOM     14  C   UNL A   1      30.699  25.028  24.325  1.00  0.00     0.017 A 
BRANCH  10  15
ATOM     15  N   UNL A   1      31.563  21.533  25.333  1.00  0.00    -0.291 N 
ATOM     16  C   UNL A   1      32.637  20.679  25.121  1.00  0.00     0.412 C 
ATOM     17  O   UNL A   1      32.458  19.492  25.401  1.00  0.00    -0.224 OA
ATOM     18  H   UNL A   1      30.716  21.057  25.485  1.00  0.00     0.173 HD
BRANCH  16  19
ATOM     19  O   UNL A   1      33.812  21.147  24.576  1.00  0.00    -0.444 OA
BRANCH  19  20
ATOM     20  C   UNL A   1      34.863  21.678  25.473  1.00  0.00     0.106 C 
ATOM     21  C   UNL A   1      36.215  20.951  25.260  1.00  0.00     0.056 C 
ATOM     22  C   UNL A   1      34.514  21.469  26.957  1.00  0.00     0.056 C 
ATOM     23  C   UNL A   1      35.150  23.149  25.141  1.00  0.00     0.056 C 
ENDBRANCH  19  20
ENDBRANCH  16  19
ENDBRANCH  10  15
ENDBRANCH   8   9
ENDBRANCH   7   8
ENDBRANCH   5   7
ENDBRANCH   4   5
ENDBRANCH   3   4
ENDBRANCH   2   3
ENDBRANCH   1   2
BRANCH   1  24
ATOM     24  C   UNL A   1      33.152  34.149  28.156  1.00  0.00     0.188 C 
BRANCH  24  25
ATOM     25  C   UNL A   1      33.403  35.344  29.075  1.00  0.00     0.188 C 
BRANCH  25  26
ATOM     26  O   UNL A   1      32.830  35.107  30.355  1.00  0.00    -0.376 OA
BRANCH  26  27
ATOM     27  C   UNL A   1      33.790  35.177  31.388  1.00  0.00     0.202 C 
BRANCH  27  28
ATOM     28  C   UNL A   1      34.105  33.769  31.907  1.00  0.00     0.261 C 
BRANCH  28  29
ATOM     29  O   UNL A   1      35.157  32.996  31.259  1.00  0.00    -0.460 OA
BRANCH  29  30
ATOM     30  C   UNL A   1      35.902  32.269  32.116  1.00  0.00     0.338 C 
ATOM     31  O   UNL A   1      35.672  32.205  33.305  1.00  0.00    -0.246 OA
BRANCH  30  32
ATOM     32  C   UNL A   1      37.018  31.486  31.548  1.00  0.00     0.060 A 
ATOM     33  C   UNL A   1      37.934  30.911  32.431  1.00  0.00     0.016 A 
ATOM     34  C   UNL A   1      37.364  31.620  30.204  1.00  0.00     0.016 A 
ATOM     35  C   UNL A   1      39.214  30.554  31.989  1.00  0.00     0.010 A 
ATOM     36  C   UNL A   1      38.628  31.234  29.751  1.00  0.00     0.010 A 
ATOM     37  C   UNL A   1      39.575  30.717  30.642  1.00  0.00    -0.014 A 
BRANCH  37  38
ATOM     38  C   UNL A   1      40.869  30.217  30.111  1.00  0.00     0.031 A 
ATOM     39  C   UNL A   1      42.035  31.129  29.839  1.00  0.00     0.074 A 
ATOM     40  C   UNL A   1      40.924  28.925  29.738  1.00  0.00     0.049 A 
ATOM     41  N   UNL A   1      43.136  30.879  29.172  1.00  0.00    -0.248 NA
ATOM     42  C   UNL A   1      41.953  32.497  30.369  1.00  0.00     0.031 C 
ATOM     43  C   UNL A   1      39.841  27.955  29.917  1.00  0.00     0.029 A 
ATOM     44  N   UNL A   1      41.904  28.220  29.090  1.00  0.00    -0.354 N 
ATOM     45  C   UNL A   1      43.865  32.064  29.172  1.00  0.00     0.074 A 
ATOM     46  C   UNL A   1      43.081  33.033  29.911  1.00  0.00     0.031 C 
ATOM     47  C   UNL A   1      40.206  26.786  29.377  1.00  0.00     0.029 A 
ATOM     48  C   UNL A   1      41.518  26.944  28.762  1.00  0.00     0.049 A 
ATOM     49  H   UNL A   1      42.792  28.588  28.881  1.00  0.00     0.167 HD
ATOM     50  C   UNL A   1      45.069  32.314  28.598  1.00  0.00     0.037 A 
ATOM     51  C   UNL A   1      42.119  26.011  28.004  1.00  0.00     0.037 A 
ATOM     52  C   UNL A   1      45.849  31.334  27.877  1.00  0.00     0.049 A 
ATOM     53  C   UNL A   1      43.446  26.309  27.386  1.00  0.00     0.074 A 
ATOM     54  C   UNL A   1      47.112  31.473  27.323  1.00  0.00     0.029 A 
ATOM     55  N   UNL A   1      45.438  30.038  27.602  1.00  0.00    -0.354 N 
ATOM     56  N   UNL A   1      44.134  27.423  27.417  1.00  0.00    -0.248 NA
ATOM     57  C   UNL A   1      44.079  25.224  26.628  1.00  0.00     0.031 C 
ATOM     58  C   UNL A   1      47.448  30.275  26.680  1.00  0.00     0.029 A 
ATOM     59  C   UNL A   1      46.411  29.376  26.868  1.00  0.00     0.049 A 
ATOM     60  H   UNL A   1      44.581  29.646  27.885  1.00  0.00     0.167 HD
ATOM     61  C   UNL A   1      45.286  27.174  26.687  1.00  0.00     0.074 A 
ATOM     62  C   UNL A   1      45.210  25.797  26.241  1.00  0.00     0.031 C 
ATOM     63  C   UNL A   1      46.313  28.014  26.411  1.00  0.00     0.037 A 
BRANCH  50  64
ATOM     64  C   UNL A   1      45.627  33.705  28.698  1.00  0.00     0.057 A 
ATOM     65  C   UNL A   1      45.313  34.701  27.766  1.00  0.00     0.134 A 
ATOM     66  C   UNL A   1      46.416  34.078  29.796  1.00  0.00     0.134 A 
ATOM     67  F   UNL A   1      44.562  34.413  26.692  1.00  0.00    -0.206 F 
ATOM     68  C   UNL A   1      45.773  36.013  27.913  1.00  0.00     0.040 A 
ATOM     69  C   UNL A   1      46.865  35.390  29.965  1.00  0.00     0.040 A 
ATOM     70  F   UNL A   1      46.744  33.179  30.736  1.00  0.00    -0.206 F 
ATOM     71  C   UNL A   1      46.544  36.363  29.020  1.00  0.00     0.006 A 
ENDBRANCH  50  64
BRANCH  51  72
ATOM     72  C   UNL A   1      41.433  24.717  27.795  1.00  0.00     0.057 A 
ATOM     73  C   UNL A   1      40.442  24.582  26.819  1.00  0.00     0.134 A 
ATOM     74  C   UNL A   1      41.826  23.566  28.491  1.00  0.00     0.134 A 
ATOM     75  F   UNL A   1      40.026  25.654  26.130  1.00  0.00    -0.206 F 
ATOM     76  C   UNL A   1      39.867  23.344  26.536  1.00  0.00     0.040 A 
ATOM     77  C   UNL A   1      41.275  22.319  28.203  1.00  0.00     0.040 A 
ATOM     78  F   UNL A   1      42.788  23.635  29.424  1.00  0.00    -0.206 F 
ATOM     79  C   UNL A   1      40.293  22.206  27.221  1.00  0.00     0.006 A 
ENDBRANCH  51  72
BRANCH  63  80
ATOM     80  C   UNL A   1      47.436  27.451  25.596  1.00  0.00     0.057 A 
ATOM     81  C   UNL A   1      48.536  26.824  26.196  1.00  0.00     0.134 A 
ATOM     82  C   UNL A   1      47.424  27.545  24.199  1.00  0.00     0.134 A 
ATOM     83  F   UNL A   1      48.613  26.721  27.532  1.00  0.00    -0.206 F 
ATOM     84  C   UNL A   1      49.597  26.333  25.436  1.00  0.00     0.040 A 
ATOM     85  C   UNL A   1      48.471  27.040  23.427  1.00  0.00     0.040 A 
ATOM     86  F   UNL A   1      46.398  28.133  23.566  1.00  0.00    -0.206 F 
ATOM     87  C   UNL A   1      49.565  26.439  24.046  1.00  0.00     0.006 A 
ENDBRANCH  63  80
ENDBRANCH  37  38
ENDBRANCH  30  32
ENDBRANCH  29  30
ENDBRANCH  28  29
ENDBRANCH  27  28
ENDBRANCH  26  27
ENDBRANCH  25  26
ENDBRANCH  24  25
ENDBRANCH   1  24
TORSDOF 22
ENDMDL
MODEL 2
REMARK VINA RESULT:      -9.3      1.683      6.468
REMARK SMILES CC(C)(C)OC(=O)Nc1ccc(SCC(=O)OCCOCCOCCOC(=O)c2ccc(-c3c4nc(c(-c5c(F)cccc5F)c5ccc([nH]5)c(-c5c(F)cccc5F)c5nc(c(-c6c(F)cccc6F)c6ccc3[nH]6)C=C5)C=C4)cc2)cc1
REMARK SMILES IDX 20 1 19 2 18 3 17 4 15 5 16 6 14 7 13 8 12 9 9 10 10 11
REMARK SMILES IDX 84 12 11 13 83 14 8 15 6 16 7 17 5 19 2 20 1 21 3 22 4 23
REMARK SMILES IDX 21 24 22 25 23 26 24 27 25 28 26 29 27 30 28 31 29 32 30 33
REMARK SMILES IDX 82 34 31 35 81 36 32 37 33 38 34 39 75 40 35 41 80 42 74 43
REMARK SMILES IDX 76 44 36 45 79 46 73 47 72 48 37 50 63 51 46 52 62 53 47 54
REMARK SMILES IDX 50 55 61 56 77 57 48 58 49 59 60 61 78 62 51 63 38 64 39 65
REMARK SMILES IDX 44 66 40 67 41 68 43 69 45 70 42 71 64 72 65 73 70 74 66 75
REMARK SMILES IDX 67 76 69 77 71 78 68 79 52 80 53 81 58 82 54 83 55 84 57 85
REMARK SMILES IDX 59 86 56 87
REMARK H PARENT 8 18 76 49 50 60
REMARK Flexibility Score: inf
ROOT
ATOM      1  O   UNL A   1      35.223  33.221  27.807  1.00  0.00    -0.376 OA
ENDROOT
BRANCH   1   2
ATOM      2  C   UNL A   1      35.165  31.795  27.826  1.00  0.00     0.202 C 
BRANCH   2   3
ATOM      3  C   UNL A   1      33.760  31.227  27.566  1.00  0.00     0.261 C 
BRANCH   3   4
ATOM      4  O   UNL A   1      33.815  29.793  27.351  1.00  0.00    -0.463 OA
BRANCH   4   5
ATOM      5  C   UNL A   1      33.362  29.299  26.168  1.00  0.00     0.316 C 
ATOM      6  O   UNL A   1      34.082  28.727  25.356  1.00  0.00    -0.251 OA
BRANCH   5   7
ATOM      7  C   UNL A   1      31.835  29.304  26.046  1.00  0.00     0.197 C 
BRANCH   7   8
ATOM      8  S   UNL A   1      31.172  29.148  24.345  1.00  0.00    -0.114 SA
BRANCH   8   9
ATOM      9  C   UNL A   1      31.253  27.381  23.966  1.00  0.00     0.008 A 
ATOM     10  C   UNL A   1      31.386  24.680  23.027  1.00  0.00     0.044 A 
ATOM     11  C   UNL A   1      32.350  25.613  22.647  1.00  0.00     0.027 A 
ATOM     12  C   UNL A   1      30.471  25.061  24.015  1.00  0.00     0.027 A 
ATOM     13  C   UNL A   1      32.278  26.948  23.108  1.00  0.00     0.017 A 
ATOM     14  C   UNL A   1      30.390  26.404  24.466  1.00  0.00     0.017 A 
BRANCH  10  15
ATOM     15  N   UNL A   1      31.465  23.338  22.615  1.00  0.00    -0.291 N 
ATOM     16  C   UNL A   1      32.372  22.314  22.851  1.00  0.00     0.412 C 
ATOM     17  O   UNL A   1      32.007  21.177  22.542  1.00  0.00    -0.224 OA
ATOM     18  H   UNL A   1      30.718  23.067  22.034  1.00  0.00     0.173 HD
BRANCH  16  19
ATOM     19  O   UNL A   1      33.624  22.583  23.355  1.00  0.00    -0.444 OA
BRANCH  19  20
ATOM     20  C   UNL A   1      33.893  22.340  24.790  1.00  0.00     0.106 C 
ATOM     21  C   UNL A   1      34.632  20.997  25.011  1.00  0.00     0.056 C 
ATOM     22  C   UNL A   1      32.594  22.235  25.610  1.00  0.00     0.056 C 
ATOM     23  C   UNL A   1      34.846  23.410  25.339  1.00  0.00     0.056 C 
ENDBRANCH  19  20
ENDBRANCH  16  19
ENDBRANCH  10  15
ENDBRANCH   8   9
ENDBRANCH   7   8
ENDBRANCH   5   7
ENDBRANCH   4   5
ENDBRANCH   3   4
ENDBRANCH   2   3
ENDBRANCH   1   2
BRANCH   1  24
ATOM     24  C   UNL A   1      33.988  33.903  28.010  1.00  0.00     0.188 C 
BRANCH  24  25
ATOM     25  C   UNL A   1      33.857  34.680  29.321  1.00  0.00     0.188 C 
BRANCH  25  26
ATOM     26  O   UNL A   1      33.718  33.780  30.412  1.00  0.00    -0.376 OA
BRANCH  26  27
ATOM     27  C   UNL A   1      34.829  33.827  31.284  1.00  0.00     0.202 C 
BRANCH  27  28
ATOM     28  C   UNL A   1      35.208  32.409  31.726  1.00  0.00     0.261 C 
BRANCH  28  29
ATOM     29  O   UNL A   1      36.616  32.075  31.899  1.00  0.00    -0.460 OA
BRANCH  29  30
ATOM     30  C   UNL A   1      36.945  30.853  31.436  1.00  0.00     0.338 C 
ATOM     31  O   UNL A   1      36.191  29.904  31.476  1.00  0.00    -0.246 OA
BRANCH  30  32
ATOM     32  C   UNL A   1      38.276  30.699  30.814  1.00  0.00     0.060 A 
ATOM     33  C   UNL A   1      38.362  30.772  29.422  1.00  0.00     0.016 A 
ATOM     34  C   UNL A   1      39.331  30.137  31.530  1.00  0.00     0.016 A 
ATOM     35  C   UNL A   1      39.455  30.211  28.750  1.00  0.00     0.010 A 
ATOM     36  C   UNL A   1      40.441  29.605  30.866  1.00  0.00     0.010 A 
ATOM     37  C   UNL A   1      40.505  29.617  29.469  1.00  0.00    -0.014 A 
BRANCH  37  38
ATOM     38  C   UNL A   1      41.744  29.143  28.800  1.00  0.00     0.031 A 
ATOM     39  C   UNL A   1      41.926  27.715  28.361  1.00  0.00     0.074 A 
ATOM     40  C   UNL A   1      42.773  30.006  28.724  1.00  0.00     0.049 A 
ATOM     41  N   UNL A   1      43.022  27.107  27.974  1.00  0.00    -0.248 NA
ATOM     42  C   UNL A   1      40.734  26.854  28.367  1.00  0.00     0.031 C 
ATOM     43  C   UNL A   1      42.724  31.405  29.154  1.00  0.00     0.029 A 
ATOM     44  N   UNL A   1      44.066  29.826  28.310  1.00  0.00    -0.354 N 
ATOM     45  C   UNL A   1      42.664  25.787  27.723  1.00  0.00     0.074 A 
ATOM     46  C   UNL A   1      41.244  25.683  27.996  1.00  0.00     0.031 C 
ATOM     47  C   UNL A   1      43.935  31.954  28.998  1.00  0.00     0.029 A 
ATOM     48  C   UNL A   1      44.855  30.930  28.519  1.00  0.00     0.049 A 
ATOM     49  H   UNL A   1      44.396  28.993  27.904  1.00  0.00     0.167 HD
ATOM     50  C   UNL A   1      43.452  24.762  27.313  1.00  0.00     0.037 A 
ATOM     51  C   UNL A   1      46.183  31.098  28.395  1.00  0.00     0.037 A 
ATOM     52  C   UNL A   1      44.864  24.881  27.027  1.00  0.00     0.049 A 
ATOM     53  C   UNL A   1      47.029  29.955  27.939  1.00  0.00     0.074 A 
ATOM     54  C   UNL A   1      45.731  23.917  26.537  1.00  0.00     0.029 A 
ATOM     55  N   UNL A   1      45.617  26.030  27.215  1.00  0.00    -0.354 N 
ATOM     56  N   UNL A   1      46.672  28.722  27.679  1.00  0.00    -0.248 NA
ATOM     57  C   UNL A   1      48.460  30.225  27.760  1.00  0.00     0.031 C 
ATOM     58  C   UNL A   1      47.015  24.471  26.465  1.00  0.00     0.029 A 
ATOM     59  C   UNL A   1      46.940  25.793  26.873  1.00  0.00     0.049 A 
ATOM     60  H   UNL A   1      45.265  26.889  27.543  1.00  0.00     0.167 HD
ATOM     61  C   UNL A   1      47.833  28.067  27.300  1.00  0.00     0.074 A 
ATOM     62  C   UNL A   1      48.901  29.045  27.346  1.00  0.00     0.031 C 
ATOM     63  C   UNL A   1      47.997  26.769  26.945  1.00  0.00     0.037 A 
BRANCH  50  64
ATOM     64  C   UNL A   1      42.829  23.403  27.160  1.00  0.00     0.057 A 
ATOM     65  C   UNL A   1      42.559  22.846  25.904  1.00  0.00     0.134 A 
ATOM     66  C   UNL A   1      42.582  22.603  28.285  1.00  0.00     0.134 A 
ATOM     67  F   UNL A   1      42.773  23.556  24.786  1.00  0.00    -0.206 F 
ATOM     68  C   UNL A   1      42.054  21.548  25.772  1.00  0.00     0.040 A 
ATOM     69  C   UNL A   1      42.096  21.299  28.165  1.00  0.00     0.040 A 
ATOM     70  F   UNL A   1      42.831  23.067  29.519  1.00  0.00    -0.206 F 
ATOM     71  C   UNL A   1      41.830  20.768  26.905  1.00  0.00     0.006 A 
ENDBRANCH  50  64
BRANCH  51  72
ATOM     72  C   UNL A   1      46.765  32.416  28.733  1.00  0.00     0.057 A 
ATOM     73  C   UNL A   1      47.300  32.658  30.001  1.00  0.00     0.134 A 
ATOM     74  C   UNL A   1      46.894  33.422  27.766  1.00  0.00     0.134 A 
ATOM     75  F   UNL A   1      47.196  31.730  30.964  1.00  0.00    -0.206 F 
ATOM     76  C   UNL A   1      47.951  33.854  30.298  1.00  0.00     0.040 A 
ATOM     77  C   UNL A   1      47.561  34.613  28.043  1.00  0.00     0.040 A 
ATOM     78  F   UNL A   1      46.417  33.233  26.526  1.00  0.00    -0.206 F 
ATOM     79  C   UNL A   1      48.093  34.831  29.312  1.00  0.00     0.006 A 
ENDBRANCH  51  72
BRANCH  63  80
ATOM     80  C   UNL A   1      49.385  26.348  26.574  1.00  0.00     0.057 A 
ATOM     81  C   UNL A   1      49.881  26.521  25.275  1.00  0.00     0.134 A 
ATOM     82  C   UNL A   1      50.231  25.754  27.519  1.00  0.00     0.134 A 
ATOM     83  F   UNL A   1      49.111  27.067  24.321  1.00  0.00    -0.206 F 
ATOM     84  C   UNL A   1      51.162  26.095  24.923  1.00  0.00     0.040 A 
ATOM     85  C   UNL A   1      51.521  25.341  27.184  1.00  0.00     0.040 A 
ATOM     86  F   UNL A   1      49.814  25.562  28.779  1.00  0.00    -0.206 F 
ATOM     87  C   UNL A   1      51.987  25.505  25.880  1.00  0.00     0.006 A 
ENDBRANCH  63  80
ENDBRANCH  37  38
ENDBRANCH  30  32
ENDBRANCH  29  30
ENDBRANCH  28  29
ENDBRANCH  27  28
ENDBRANCH  26  27
ENDBRANCH  25  26
ENDBRANCH  24  25
ENDBRANCH   1  24
TORSDOF 22
ENDMDL
MODEL 3
REMARK VINA RESULT:      -8.9      4.436      7.560
REMARK SMILES CC(C)(C)OC(=O)Nc1ccc(SCC(=O)OCCOCCOCCOC(=O)c2ccc(-c3c4nc(c(-c5c(F)cccc5F)c5ccc([nH]5)c(-c5c(F)cccc5F)c5nc(c(-c6c(F)cccc6F)c6ccc3[nH]6)C=C5)C=C4)cc2)cc1
REMARK SMILES IDX 20 1 19 2 18 3 17 4 15 5 16 6 14 7 13 8 12 9 9 10 10 11
REMARK SMILES IDX 84 12 11 13 83 14 8 15 6 16 7 17 5 19 2 20 1 21 3 22 4 23
REMARK SMILES IDX 21 24 22 25 23 26 24 27 25 28 26 29 27 30 28 31 29 32 30 33
REMARK SMILES IDX 82 34 31 35 81 36 32 37 33 38 34 39 75 40 35 41 80 42 74 43
REMARK SMILES IDX 76 44 36 45 79 46 73 47 72 48 37 50 63 51 46 52 62 53 47 54
REMARK SMILES IDX 50 55 61 56 77 57 48 58 49 59 60 61 78 62 51 63 38 64 39 65
REMARK SMILES IDX 44 66 40 67 41 68 43 69 45 70 42 71 64 72 65 73 70 74 66 75
REMARK SMILES IDX 67 76 69 77 71 78 68 79 52 80 53 81 58 82 54 83 55 84 57 85
REMARK SMILES IDX 59 86 56 87
REMARK H PARENT 8 18 76 49 50 60
REMARK Flexibility Score: inf
ROOT
ATOM      1  O   UNL A   1      35.249  35.678  33.238  1.00  0.00    -0.376 OA
ENDROOT
BRANCH   1   2
ATOM      2  C   UNL A   1      36.333  34.779  33.006  1.00  0.00     0.202 C 
BRANCH   2   3
ATOM      3  C   UNL A   1      36.251  33.481  33.828  1.00  0.00     0.261 C 
BRANCH   3   4
ATOM      4  O   UNL A   1      37.404  32.638  33.577  1.00  0.00    -0.463 OA
BRANCH   4   5
ATOM      5  C   UNL A   1      38.380  32.579  34.522  1.00  0.00     0.316 C 
ATOM      6  O   UNL A   1      38.245  33.015  35.660  1.00  0.00    -0.251 OA
BRANCH   5   7
ATOM      7  C   UNL A   1      39.572  31.705  34.118  1.00  0.00     0.197 C 
BRANCH   7   8
ATOM      8  S   UNL A   1      39.233  29.909  33.983  1.00  0.00    -0.114 SA
BRANCH   8   9
ATOM      9  C   UNL A   1      40.841  29.107  34.191  1.00  0.00     0.008 A 
ATOM     10  C   UNL A   1      43.511  28.159  34.598  1.00  0.00     0.044 A 
ATOM     11  C   UNL A   1      42.851  28.874  35.596  1.00  0.00     0.027 A 
ATOM     12  C   UNL A   1      42.764  27.771  33.479  1.00  0.00     0.027 A 
ATOM     13  C   UNL A   1      41.533  29.345  35.390  1.00  0.00     0.017 A 
ATOM     14  C   UNL A   1      41.449  28.256  33.265  1.00  0.00     0.017 A 
BRANCH  10  15
ATOM     15  N   UNL A   1      44.803  27.644  34.800  1.00  0.00    -0.291 N 
ATOM     16  C   UNL A   1      45.291  26.412  35.213  1.00  0.00     0.412 C 
ATOM     17  O   UNL A   1      46.495  26.213  35.039  1.00  0.00    -0.224 OA
ATOM     18  H   UNL A   1      45.514  28.296  34.607  1.00  0.00     0.173 HD
BRANCH  16  19
ATOM     19  O   UNL A   1      44.467  25.498  35.831  1.00  0.00    -0.444 OA
BRANCH  19  20
ATOM     20  C   UNL A   1      43.863  24.412  35.027  1.00  0.00     0.106 C 
ATOM     21  C   UNL A   1      44.336  23.017  35.509  1.00  0.00     0.056 C 
ATOM     22  C   UNL A   1      44.272  24.495  33.545  1.00  0.00     0.056 C 
ATOM     23  C   UNL A   1      42.340  24.398  35.214  1.00  0.00     0.056 C 
ENDBRANCH  19  20
ENDBRANCH  16  19
ENDBRANCH  10  15
ENDBRANCH   8   9
ENDBRANCH   7   8
ENDBRANCH   5   7
ENDBRANCH   4   5
ENDBRANCH   3   4
ENDBRANCH   2   3
ENDBRANCH   1   2
BRANCH   1  24
ATOM     24  C   UNL A   1      34.018  35.356  32.596  1.00  0.00     0.188 C 
BRANCH  24  25
ATOM     25  C   UNL A   1      34.083  35.147  31.083  1.00  0.00     0.188 C 
BRANCH  25  26
ATOM     26  O   UNL A   1      33.727  33.810  30.757  1.00  0.00    -0.376 OA
BRANCH  26  27
ATOM     27  C   UNL A   1      34.733  33.160  30.007  1.00  0.00     0.202 C 
BRANCH  27  28
ATOM     28  C   UNL A   1      34.160  32.674  28.672  1.00  0.00     0.261 C 
BRANCH  28  29
ATOM     29  O   UNL A   1      35.046  32.018  27.719  1.00  0.00    -0.460 OA
BRANCH  29  30
ATOM     30  C   UNL A   1      34.979  30.672  27.753  1.00  0.00     0.338 C 
ATOM     31  O   UNL A   1      33.969  30.052  27.497  1.00  0.00    -0.246 OA
BRANCH  30  32
ATOM     32  C   UNL A   1      36.221  29.940  28.073  1.00  0.00     0.060 A 
ATOM     33  C   UNL A   1      36.398  29.488  29.382  1.00  0.00     0.016 A 
ATOM     34  C   UNL A   1      37.327  30.019  27.227  1.00  0.00     0.016 A 
ATOM     35  C   UNL A   1      37.681  29.200  29.864  1.00  0.00     0.010 A 
ATOM     36  C   UNL A   1      38.606  29.700  27.694  1.00  0.00     0.010 A 
ATOM     37  C   UNL A   1      38.800  29.308  29.023  1.00  0.00    -0.014 A 
BRANCH  37  38
ATOM     38  C   UNL A   1      40.152  28.873  29.456  1.00  0.00     0.031 A 
ATOM     39  C   UNL A   1      41.123  29.808  30.126  1.00  0.00     0.074 A 
ATOM     40  C   UNL A   1      40.547  27.638  29.098  1.00  0.00     0.049 A 
ATOM     41  N   UNL A   1      42.403  29.639  30.355  1.00  0.00    -0.248 NA
ATOM     42  C   UNL A   1      40.597  31.101  30.589  1.00  0.00     0.031 C 
ATOM     43  C   UNL A   1      39.705  26.657  28.410  1.00  0.00     0.029 A 
ATOM     44  N   UNL A   1      41.761  27.014  29.216  1.00  0.00    -0.354 N 
ATOM     45  C   UNL A   1      42.847  30.812  30.956  1.00  0.00     0.074 A 
ATOM     46  C   UNL A   1      41.694  31.685  31.062  1.00  0.00     0.031 C 
ATOM     47  C   UNL A   1      40.430  25.562  28.150  1.00  0.00     0.029 A 
ATOM     48  C   UNL A   1      41.798  25.790  28.596  1.00  0.00     0.049 A 
ATOM     49  H   UNL A   1      42.528  27.403  29.695  1.00  0.00     0.167 HD
ATOM     50  C   UNL A   1      44.100  31.127  31.369  1.00  0.00     0.037 A 
ATOM     51  C   UNL A   1      42.825  24.956  28.357  1.00  0.00     0.037 A 
ATOM     52  C   UNL A   1      45.238  30.242  31.273  1.00  0.00     0.049 A 
ATOM     53  C   UNL A   1      44.195  25.325  28.824  1.00  0.00     0.074 A 
ATOM     54  C   UNL A   1      46.532  30.444  31.730  1.00  0.00     0.029 A 
ATOM     55  N   UNL A   1      45.223  28.992  30.672  1.00  0.00    -0.354 N 
ATOM     56  N   UNL A   1      44.593  26.423  29.414  1.00  0.00    -0.248 NA
ATOM     57  C   UNL A   1      45.257  24.339  28.591  1.00  0.00     0.031 C 
ATOM     58  C   UNL A   1      47.306  29.334  31.371  1.00  0.00     0.029 A 
ATOM     59  C   UNL A   1      46.486  28.422  30.726  1.00  0.00     0.049 A 
ATOM     60  H   UNL A   1      44.431  28.570  30.267  1.00  0.00     0.167 HD
ATOM     61  C   UNL A   1      45.953  26.263  29.630  1.00  0.00     0.074 A 
ATOM     62  C   UNL A   1      46.306  24.952  29.123  1.00  0.00     0.031 C 
ATOM     63  C   UNL A   1      46.829  27.127  30.198  1.00  0.00     0.037 A 
BRANCH  50  64
ATOM     64  C   UNL A   1      44.334  32.494  31.948  1.00  0.00     0.057 A 
ATOM     65  C   UNL A   1      44.689  33.588  31.152  1.00  0.00     0.134 A 
ATOM     66  C   UNL A   1      44.109  32.737  33.311  1.00  0.00     0.134 A 
ATOM     67  F   UNL A   1      44.919  33.427  29.840  1.00  0.00    -0.206 F 
ATOM     68  C   UNL A   1      44.825  34.872  31.689  1.00  0.00     0.040 A 
ATOM     69  C   UNL A   1      44.221  34.017  33.856  1.00  0.00     0.040 A 
ATOM     70  F   UNL A   1      43.751  31.737  34.131  1.00  0.00    -0.206 F 
ATOM     71  C   UNL A   1      44.582  35.091  33.044  1.00  0.00     0.006 A 
ENDBRANCH  50  64
BRANCH  51  72
ATOM     72  C   UNL A   1      42.561  23.701  27.620  1.00  0.00     0.057 A 
ATOM     73  C   UNL A   1      42.211  22.532  28.301  1.00  0.00     0.134 A 
ATOM     74  C   UNL A   1      42.550  23.670  26.220  1.00  0.00     0.134 A 
ATOM     75  F   UNL A   1      42.213  22.507  29.642  1.00  0.00    -0.206 F 
ATOM     76  C   UNL A   1      41.851  21.373  27.615  1.00  0.00     0.040 A 
ATOM     77  C   UNL A   1      42.171  22.525  25.521  1.00  0.00     0.040 A 
ATOM     78  F   UNL A   1      42.857  24.771  25.516  1.00  0.00    -0.206 F 
ATOM     79  C   UNL A   1      41.819  21.372  26.220  1.00  0.00     0.006 A 
ENDBRANCH  51  72
BRANCH  63  80
ATOM     80  C   UNL A   1      48.250  26.666  30.302  1.00  0.00     0.057 A 
ATOM     81  C   UNL A   1      49.199  26.987  29.323  1.00  0.00     0.134 A 
ATOM     82  C   UNL A   1      48.672  25.885  31.385  1.00  0.00     0.134 A 
ATOM     83  F   UNL A   1      48.849  27.716  28.251  1.00  0.00    -0.206 F 
ATOM     84  C   UNL A   1      50.513  26.525  29.404  1.00  0.00     0.040 A 
ATOM     85  C   UNL A   1      49.989  25.434  31.488  1.00  0.00     0.040 A 
ATOM     86  F   UNL A   1      47.811  25.546  32.356  1.00  0.00    -0.206 F 
ATOM     87  C   UNL A   1      50.911  25.749  30.491  1.00  0.00     0.006 A 
ENDBRANCH  63  80
ENDBRANCH  37  38
ENDBRANCH  30  32
ENDBRANCH  29  30
ENDBRANCH  28  29
ENDBRANCH  27  28
ENDBRANCH  26  27
ENDBRANCH  25  26
ENDBRANCH  24  25
ENDBRANCH   1  24
TORSDOF 22
ENDMDL
