MODEL 1
REMARK VINA RESULT:     -10.8      0.000      0.000
REMARK SMILES CC1=C(C)C[C@@H](C(=O)OCCOCCOCCOC(=O)c2ccc(-c3c4nc(c(-c5c(F)cccc5F)c5ccc([nH]5)c(-c5c(F)cccc5F)c5nc(c(-c6c(F)cccc6F)c6ccc3[nH]6)C=C5)C=C4)cc2)[C@@H](C(=O)NCC[NH+]2CCOCC2)C1
REMARK SMILES IDX 13 1 12 2 11 3 10 4 9 5 7 6 8 7 6 8 1 9 2 10 3 11 87 12 4 13
REMARK SMILES IDX 5 14 75 15 76 16 77 17 78 18 79 20 80 21 81 22 82 23 86 24
REMARK SMILES IDX 83 26 85 27 84 28 14 29 15 30 16 31 17 32 18 33 19 34 20 35
REMARK SMILES IDX 21 36 22 37 74 38 23 39 73 40 24 41 25 42 26 43 67 44 27 45
REMARK SMILES IDX 72 46 66 47 68 48 28 49 71 50 65 51 64 52 29 54 55 55 38 56
REMARK SMILES IDX 54 57 39 58 42 59 53 60 69 61 40 62 41 63 52 65 70 66 43 67
REMARK SMILES IDX 30 68 31 69 36 70 32 71 33 72 35 73 37 74 34 75 56 76 57 77
REMARK SMILES IDX 62 78 58 79 59 80 61 81 63 82 60 83 44 84 45 85 50 86 46 87
REMARK SMILES IDX 47 88 49 89 51 90 48 91
REMARK H PARENT 78 19 81 25 68 53 42 64
REMARK Flexibility Score: inf
ROOT
ATOM      1  C   UNL A   1      39.156  22.142  26.042  1.00  0.00     0.188 C 
ENDROOT
BRANCH   1   2
ATOM      2  O   UNL A   1      38.149  21.372  25.387  1.00  0.00    -0.376 OA
BRANCH   2   3
ATOM      3  C   UNL A   1      36.779  21.613  25.683  1.00  0.00     0.202 C 
BRANCH   3   4
ATOM      4  C   UNL A   1      35.863  21.879  24.469  1.00  0.00     0.261 C 
BRANCH   4   5
ATOM      5  O   UNL A   1      34.716  22.744  24.663  1.00  0.00    -0.463 OA
BRANCH   5   6
ATOM      6  C   UNL A   1      34.105  23.165  23.538  1.00  0.00     0.310 C 
ATOM      7  O   UNL A   1      34.653  23.136  22.433  1.00  0.00    -0.252 OA
BRANCH   6   8
ATOM      8  C   UNL A   1      32.675  23.728  23.642  1.00  0.00     0.116 C 
ATOM      9  C   UNL A   1      31.488  26.771  26.525  1.00  0.00     0.039 C 
ATOM     10  C   UNL A   1      31.742  25.937  25.306  1.00  0.00    -0.074 C 
ATOM     11  C   UNL A   1      32.724  26.147  24.408  1.00  0.00    -0.073 C 
ATOM     12  C   UNL A   1      30.795  24.781  25.075  1.00  0.00     0.045 C 
ATOM     13  C   UNL A   1      33.729  27.261  24.419  1.00  0.00     0.039 C 
ATOM     14  C   UNL A   1      32.816  25.213  23.234  1.00  0.00     0.046 C 
ATOM     15  C   UNL A   1      31.529  23.470  24.702  1.00  0.00     0.097 C 
BRANCH  15  16
ATOM     16  C   UNL A   1      31.768  22.697  26.007  1.00  0.00     0.224 C 
ATOM     17  O   UNL A   1      31.523  23.179  27.111  1.00  0.00    -0.275 OA
ATOM     18  N   UNL A   1      32.239  21.395  25.975  1.00  0.00    -0.350 N 
ATOM     19  H   UNL A   1      32.683  21.106  26.804  1.00  0.00     0.163 HD
BRANCH  18  20
ATOM     20  C   UNL A   1      32.194  20.366  24.921  1.00  0.00     0.177 C 
BRANCH  20  21
ATOM     21  C   UNL A   1      32.845  18.980  25.242  1.00  0.00     0.283 C 
BRANCH  21  22
ATOM     22  N   UNL A   1      32.276  17.728  24.680  1.00  0.00    -0.330 N 
ATOM     23  C   UNL A   1      32.533  16.493  25.440  1.00  0.00     0.291 C 
ATOM     24  C   UNL A   1      32.762  17.484  23.290  1.00  0.00     0.291 C 
ATOM     25  H   UNL A   1      31.274  17.910  24.722  1.00  0.00     0.348 HD
ATOM     26  C   UNL A   1      33.983  16.033  25.360  1.00  0.00     0.221 C 
ATOM     27  C   UNL A   1      34.192  16.925  23.166  1.00  0.00     0.221 C 
ATOM     28  O   UNL A   1      34.428  15.801  24.021  1.00  0.00    -0.370 OA
ENDBRANCH  21  22
ENDBRANCH  20  21
ENDBRANCH  18  20
ENDBRANCH  15  16
ENDBRANCH   6   8
ENDBRANCH   5   6
ENDBRANCH   4   5
ENDBRANCH   3   4
ENDBRANCH   2   3
ENDBRANCH   1   2
BRANCH   1  29
ATOM     29  C   UNL A   1      40.219  21.424  26.865  1.00  0.00     0.188 C 
BRANCH  29  30
ATOM     30  O   UNL A   1      40.849  20.405  26.122  1.00  0.00    -0.376 OA
BRANCH  30  31
ATOM     31  C   UNL A   1      42.206  20.573  25.811  1.00  0.00     0.202 C 
BRANCH  31  32
ATOM     32  C   UNL A   1      42.974  21.494  26.771  1.00  0.00     0.261 C 
BRANCH  32  33
ATOM     33  O   UNL A   1      43.900  22.464  26.232  1.00  0.00    -0.460 OA
BRANCH  33  34
ATOM     34  C   UNL A   1      43.375  23.622  25.795  1.00  0.00     0.338 C 
ATOM     35  O   UNL A   1      42.982  23.860  24.676  1.00  0.00    -0.246 OA
BRANCH  34  36
ATOM     36  C   UNL A   1      43.120  24.592  26.854  1.00  0.00     0.060 A 
ATOM     37  C   UNL A   1      42.059  24.332  27.739  1.00  0.00     0.016 A 
ATOM     38  C   UNL A   1      43.811  25.797  26.881  1.00  0.00     0.016 A 
ATOM     39  C   UNL A   1      41.692  25.289  28.671  1.00  0.00     0.010 A 
ATOM     40  C   UNL A   1      43.447  26.751  27.822  1.00  0.00     0.010 A 
ATOM     41  C   UNL A   1      42.392  26.500  28.718  1.00  0.00    -0.014 A 
BRANCH  41  42
ATOM     42  C   UNL A   1      42.059  27.515  29.732  1.00  0.00     0.031 A 
ATOM     43  C   UNL A   1      42.794  27.537  31.033  1.00  0.00     0.074 A 
ATOM     44  C   UNL A   1      41.044  28.356  29.477  1.00  0.00     0.049 A 
ATOM     45  N   UNL A   1      42.525  28.208  32.120  1.00  0.00    -0.248 NA
ATOM     46  C   UNL A   1      43.985  26.678  31.129  1.00  0.00     0.031 C 
ATOM     47  C   UNL A   1      40.300  28.422  28.216  1.00  0.00     0.029 A 
ATOM     48  N   UNL A   1      40.444  29.295  30.270  1.00  0.00    -0.354 N 
ATOM     49  C   UNL A   1      43.499  27.844  33.039  1.00  0.00     0.074 A 
ATOM     50  C   UNL A   1      44.356  26.875  32.388  1.00  0.00     0.031 C 
ATOM     51  C   UNL A   1      39.333  29.343  28.327  1.00  0.00     0.029 A 
ATOM     52  C   UNL A   1      39.352  29.883  29.680  1.00  0.00     0.049 A 
ATOM     53  H   UNL A   1      40.763  29.526  31.173  1.00  0.00     0.167 HD
ATOM     54  C   UNL A   1      43.652  28.284  34.309  1.00  0.00     0.037 A 
ATOM     55  C   UNL A   1      38.443  30.728  30.197  1.00  0.00     0.037 A 
ATOM     56  C   UNL A   1      42.767  29.237  34.930  1.00  0.00     0.049 A 
ATOM     57  C   UNL A   1      38.593  31.143  31.632  1.00  0.00     0.074 A 
ATOM     58  C   UNL A   1      42.813  29.753  36.212  1.00  0.00     0.029 A 
ATOM     59  N   UNL A   1      41.667  29.810  34.306  1.00  0.00    -0.354 N 
ATOM     60  N   UNL A   1      39.510  30.789  32.502  1.00  0.00    -0.248 NA
ATOM     61  C   UNL A   1      37.585  32.069  32.158  1.00  0.00     0.031 C 
ATOM     62  C   UNL A   1      41.714  30.603  36.378  1.00  0.00     0.029 A 
ATOM     63  C   UNL A   1      41.016  30.663  35.182  1.00  0.00     0.049 A 
ATOM     64  H   UNL A   1      41.389  29.636  33.377  1.00  0.00     0.167 HD
ATOM     65  C   UNL A   1      39.207  31.472  33.672  1.00  0.00     0.074 A 
ATOM     66  C   UNL A   1      38.028  32.268  33.392  1.00  0.00     0.031 C 
ATOM     67  C   UNL A   1      39.844  31.445  34.868  1.00  0.00     0.037 A 
BRANCH  54  68
ATOM     68  C   UNL A   1      44.789  27.717  35.111  1.00  0.00     0.057 A 
ATOM     69  C   UNL A   1      44.651  26.546  35.870  1.00  0.00     0.134 A 
ATOM     70  C   UNL A   1      46.045  28.337  35.109  1.00  0.00     0.134 A 
ATOM     71  F   UNL A   1      43.471  25.911  35.930  1.00  0.00    -0.206 F 
ATOM     72  C   UNL A   1      45.713  26.027  36.614  1.00  0.00     0.040 A 
ATOM     73  C   UNL A   1      47.122  27.811  35.828  1.00  0.00     0.040 A 
ATOM     74  F   UNL A   1      46.251  29.460  34.406  1.00  0.00    -0.206 F 
ATOM     75  C   UNL A   1      46.956  26.656  36.588  1.00  0.00     0.006 A 
ENDBRANCH  54  68
BRANCH  55  76
ATOM     76  C   UNL A   1      37.328  31.220  29.354  1.00  0.00     0.057 A 
ATOM     77  C   UNL A   1      36.201  30.425  29.117  1.00  0.00     0.134 A 
ATOM     78  C   UNL A   1      37.341  32.502  28.791  1.00  0.00     0.134 A 
ATOM     79  F   UNL A   1      36.136  29.182  29.619  1.00  0.00    -0.206 F 
ATOM     80  C   UNL A   1      35.134  30.881  28.343  1.00  0.00     0.040 A 
ATOM     81  C   UNL A   1      36.268  32.982  28.039  1.00  0.00     0.040 A 
ATOM     82  F   UNL A   1      38.386  33.320  28.990  1.00  0.00    -0.206 F 
ATOM     83  C   UNL A   1      35.162  32.167  27.807  1.00  0.00     0.006 A 
ENDBRANCH  55  76
BRANCH  67  84
ATOM     84  C   UNL A   1      39.299  32.340  35.943  1.00  0.00     0.057 A 
ATOM     85  C   UNL A   1      39.734  33.662  36.100  1.00  0.00     0.134 A 
ATOM     86  C   UNL A   1      38.304  31.876  36.812  1.00  0.00     0.134 A 
ATOM     87  F   UNL A   1      40.696  34.160  35.309  1.00  0.00    -0.206 F 
ATOM     88  C   UNL A   1      39.216  34.483  37.102  1.00  0.00     0.040 A 
ATOM     89  C   UNL A   1      37.756  32.696  37.797  1.00  0.00     0.040 A 
ATOM     90  F   UNL A   1      37.838  30.622  36.708  1.00  0.00    -0.206 F 
ATOM     91  C   UNL A   1      38.218  34.003  37.949  1.00  0.00     0.006 A 
ENDBRANCH  67  84
ENDBRANCH  41  42
ENDBRANCH  34  36
ENDBRANCH  33  34
ENDBRANCH  32  33
ENDBRANCH  31  32
ENDBRANCH  30  31
ENDBRANCH  29  30
ENDBRANCH   1  29
TORSDOF 21
ENDMDL
MODEL 2
REMARK VINA RESULT:     -10.8      1.439      6.251
REMARK SMILES CC1=C(C)C[C@@H](C(=O)OCCOCCOCCOC(=O)c2ccc(-c3c4nc(c(-c5c(F)cccc5F)c5ccc([nH]5)c(-c5c(F)cccc5F)c5nc(c(-c6c(F)cccc6F)c6ccc3[nH]6)C=C5)C=C4)cc2)[C@@H](C(=O)NCC[NH+]2CCOCC2)C1
REMARK SMILES IDX 13 1 12 2 11 3 10 4 9 5 7 6 8 7 6 8 1 9 2 10 3 11 87 12 4 13
REMARK SMILES IDX 5 14 75 15 76 16 77 17 78 18 79 20 80 21 81 22 82 23 86 24
REMARK SMILES IDX 83 26 85 27 84 28 14 29 15 30 16 31 17 32 18 33 19 34 20 35
REMARK SMILES IDX 21 36 22 37 74 38 23 39 73 40 24 41 25 42 26 43 67 44 27 45
REMARK SMILES IDX 72 46 66 47 68 48 28 49 71 50 65 51 64 52 29 54 55 55 38 56
REMARK SMILES IDX 54 57 39 58 42 59 53 60 69 61 40 62 41 63 52 65 70 66 43 67
REMARK SMILES IDX 30 68 31 69 36 70 32 71 33 72 35 73 37 74 34 75 56 76 57 77
REMARK SMILES IDX 62 78 58 79 59 80 61 81 63 82 60 83 44 84 45 85 50 86 46 87
REMARK SMILES IDX 47 88 49 89 51 90 48 91
REMARK H PARENT 78 19 81 25 68 53 42 64
REMARK Flexibility Score: inf
ROOT
ATOM      1  C   UNL A   1      39.119  22.447  26.128  1.00  0.00     0.188 C 
ENDROOT
BRANCH   1   2
ATOM      2  O   UNL A   1      38.175  21.483  25.663  1.00  0.00    -0.376 OA
BRANCH   2   3
ATOM      3  C   UNL A   1      36.783  21.741  25.802  1.00  0.00     0.202 C 
BRANCH   3   4
ATOM      4  C   UNL A   1      36.019  22.043  24.495  1.00  0.00     0.261 C 
BRANCH   4   5
ATOM      5  O   UNL A   1      34.765  22.764  24.595  1.00  0.00    -0.463 OA
BRANCH   5   6
ATOM      6  C   UNL A   1      34.244  23.195  23.429  1.00  0.00     0.310 C 
ATOM      7  O   UNL A   1      34.917  23.302  22.400  1.00  0.00    -0.252 OA
BRANCH   6   8
ATOM      8  C   UNL A   1      32.757  23.591  23.387  1.00  0.00     0.116 C 
ATOM      9  C   UNL A   1      31.001  26.632  25.967  1.00  0.00     0.039 C 
ATOM     10  C   UNL A   1      31.447  25.766  24.828  1.00  0.00    -0.074 C 
ATOM     11  C   UNL A   1      32.470  26.039  23.995  1.00  0.00    -0.073 C 
ATOM     12  C   UNL A   1      30.658  24.496  24.602  1.00  0.00     0.045 C 
ATOM     13  C   UNL A   1      33.340  27.262  24.009  1.00  0.00     0.039 C 
ATOM     14  C   UNL A   1      32.764  25.057  22.894  1.00  0.00     0.046 C 
ATOM     15  C   UNL A   1      31.563  23.262  24.372  1.00  0.00     0.097 C 
BRANCH  15  16
ATOM     16  C   UNL A   1      31.780  22.596  25.740  1.00  0.00     0.224 C 
ATOM     17  O   UNL A   1      31.453  23.139  26.793  1.00  0.00    -0.275 OA
ATOM     18  N   UNL A   1      32.323  21.326  25.824  1.00  0.00    -0.350 N 
ATOM     19  H   UNL A   1      32.740  21.121  26.692  1.00  0.00     0.163 HD
BRANCH  18  20
ATOM     20  C   UNL A   1      32.387  20.225  24.846  1.00  0.00     0.177 C 
BRANCH  20  21
ATOM     21  C   UNL A   1      32.777  18.808  25.384  1.00  0.00     0.283 C 
BRANCH  21  22
ATOM     22  N   UNL A   1      32.236  17.580  24.745  1.00  0.00    -0.330 N 
ATOM     23  C   UNL A   1      32.536  16.306  25.419  1.00  0.00     0.291 C 
ATOM     24  C   UNL A   1      32.713  17.443  23.337  1.00  0.00     0.291 C 
ATOM     25  H   UNL A   1      31.230  17.730  24.809  1.00  0.00     0.348 HD
ATOM     26  C   UNL A   1      33.997  15.893  25.293  1.00  0.00     0.221 C 
ATOM     27  C   UNL A   1      34.156  16.935  23.163  1.00  0.00     0.221 C 
ATOM     28  O   UNL A   1      34.433  15.763  23.939  1.00  0.00    -0.370 OA
ENDBRANCH  21  22
ENDBRANCH  20  21
ENDBRANCH  18  20
ENDBRANCH  15  16
ENDBRANCH   6   8
ENDBRANCH   5   6
ENDBRANCH   4   5
ENDBRANCH   3   4
ENDBRANCH   2   3
ENDBRANCH   1   2
BRANCH   1  29
ATOM     29  C   UNL A   1      40.348  21.970  26.891  1.00  0.00     0.188 C 
BRANCH  29  30
ATOM     30  O   UNL A   1      41.338  21.471  26.019  1.00  0.00    -0.376 OA
BRANCH  30  31
ATOM     31  C   UNL A   1      42.473  22.266  25.802  1.00  0.00     0.202 C 
BRANCH  31  32
ATOM     32  C   UNL A   1      42.624  23.445  26.774  1.00  0.00     0.261 C 
BRANCH  32  33
ATOM     33  O   UNL A   1      42.880  24.767  26.248  1.00  0.00    -0.460 OA
BRANCH  33  34
ATOM     34  C   UNL A   1      41.825  25.594  26.150  1.00  0.00     0.338 C 
ATOM     35  O   UNL A   1      41.023  25.635  25.245  1.00  0.00    -0.246 OA
BRANCH  34  36
ATOM     36  C   UNL A   1      41.572  26.375  27.355  1.00  0.00     0.060 A 
ATOM     37  C   UNL A   1      40.469  26.015  28.149  1.00  0.00     0.016 A 
ATOM     38  C   UNL A   1      42.311  27.523  27.614  1.00  0.00     0.016 A 
ATOM     39  C   UNL A   1      40.108  26.811  29.224  1.00  0.00     0.010 A 
ATOM     40  C   UNL A   1      41.952  28.314  28.697  1.00  0.00     0.010 A 
ATOM     41  C   UNL A   1      40.855  27.960  29.504  1.00  0.00    -0.014 A 
BRANCH  41  42
ATOM     42  C   UNL A   1      40.528  28.797  30.670  1.00  0.00     0.031 A 
ATOM     43  C   UNL A   1      39.462  29.839  30.564  1.00  0.00     0.074 A 
ATOM     44  C   UNL A   1      41.257  28.641  31.788  1.00  0.00     0.049 A 
ATOM     45  N   UNL A   1      39.162  30.799  31.396  1.00  0.00    -0.248 NA
ATOM     46  C   UNL A   1      38.628  29.804  29.351  1.00  0.00     0.031 C 
ATOM     47  C   UNL A   1      42.291  27.622  31.983  1.00  0.00     0.029 A 
ATOM     48  N   UNL A   1      41.261  29.352  32.956  1.00  0.00    -0.354 N 
ATOM     49  C   UNL A   1      38.117  31.497  30.805  1.00  0.00     0.074 A 
ATOM     50  C   UNL A   1      37.848  30.862  29.533  1.00  0.00     0.031 C 
ATOM     51  C   UNL A   1      42.840  27.783  33.195  1.00  0.00     0.029 A 
ATOM     52  C   UNL A   1      42.240  28.950  33.830  1.00  0.00     0.049 A 
ATOM     53  H   UNL A   1      40.626  30.079  33.150  1.00  0.00     0.167 HD
ATOM     54  C   UNL A   1      37.454  32.572  31.292  1.00  0.00     0.037 A 
ATOM     55  C   UNL A   1      42.636  29.496  34.993  1.00  0.00     0.037 A 
ATOM     56  C   UNL A   1      37.762  33.188  32.557  1.00  0.00     0.049 A 
ATOM     57  C   UNL A   1      41.932  30.732  35.474  1.00  0.00     0.074 A 
ATOM     58  C   UNL A   1      37.167  34.285  33.153  1.00  0.00     0.029 A 
ATOM     59  N   UNL A   1      38.765  32.759  33.417  1.00  0.00    -0.354 N 
ATOM     60  N   UNL A   1      40.952  31.397  34.908  1.00  0.00    -0.248 NA
ATOM     61  C   UNL A   1      42.390  31.296  36.748  1.00  0.00     0.031 C 
ATOM     62  C   UNL A   1      37.840  34.547  34.352  1.00  0.00     0.029 A 
ATOM     63  C   UNL A   1      38.816  33.578  34.532  1.00  0.00     0.049 A 
ATOM     64  H   UNL A   1      39.353  31.985  33.258  1.00  0.00     0.167 HD
ATOM     65  C   UNL A   1      40.653  32.442  35.772  1.00  0.00     0.074 A 
ATOM     66  C   UNL A   1      41.552  32.311  36.903  1.00  0.00     0.031 C 
ATOM     67  C   UNL A   1      39.722  33.418  35.644  1.00  0.00     0.037 A 
BRANCH  54  68
ATOM     68  C   UNL A   1      36.362  33.159  30.443  1.00  0.00     0.057 A 
ATOM     69  C   UNL A   1      35.006  32.946  30.725  1.00  0.00     0.134 A 
ATOM     70  C   UNL A   1      36.669  33.967  29.340  1.00  0.00     0.134 A 
ATOM     71  F   UNL A   1      34.640  32.168  31.755  1.00  0.00    -0.206 F 
ATOM     72  C   UNL A   1      33.997  33.495  29.929  1.00  0.00     0.040 A 
ATOM     73  C   UNL A   1      35.669  34.543  28.554  1.00  0.00     0.040 A 
ATOM     74  F   UNL A   1      37.945  34.215  29.011  1.00  0.00    -0.206 F 
ATOM     75  C   UNL A   1      34.328  34.302  28.843  1.00  0.00     0.006 A 
ENDBRANCH  54  68
BRANCH  55  76
ATOM     76  C   UNL A   1      43.745  28.879  35.760  1.00  0.00     0.057 A 
ATOM     77  C   UNL A   1      43.502  27.836  36.660  1.00  0.00     0.134 A 
ATOM     78  C   UNL A   1      45.073  29.289  35.591  1.00  0.00     0.134 A 
ATOM     79  F   UNL A   1      42.249  27.408  36.873  1.00  0.00    -0.206 F 
ATOM     80  C   UNL A   1      44.537  27.231  37.374  1.00  0.00     0.040 A 
ATOM     81  C   UNL A   1      46.121  28.674  36.277  1.00  0.00     0.040 A 
ATOM     82  F   UNL A   1      45.375  30.277  34.735  1.00  0.00    -0.206 F 
ATOM     83  C   UNL A   1      45.853  27.644  37.177  1.00  0.00     0.006 A 
ENDBRANCH  55  76
BRANCH  67  84
ATOM     84  C   UNL A   1      39.605  34.391  36.781  1.00  0.00     0.057 A 
ATOM     85  C   UNL A   1      38.884  34.091  37.943  1.00  0.00     0.134 A 
ATOM     86  C   UNL A   1      40.249  35.633  36.718  1.00  0.00     0.134 A 
ATOM     87  F   UNL A   1      38.232  32.924  38.057  1.00  0.00    -0.206 F 
ATOM     88  C   UNL A   1      38.785  35.004  38.993  1.00  0.00     0.040 A 
ATOM     89  C   UNL A   1      40.184  36.541  37.774  1.00  0.00     0.040 A 
ATOM     90  F   UNL A   1      40.963  35.978  35.636  1.00  0.00    -0.206 F 
ATOM     91  C   UNL A   1      39.443  36.230  38.913  1.00  0.00     0.006 A 
ENDBRANCH  67  84
ENDBRANCH  41  42
ENDBRANCH  34  36
ENDBRANCH  33  34
ENDBRANCH  32  33
ENDBRANCH  31  32
ENDBRANCH  30  31
ENDBRANCH  29  30
ENDBRANCH   1  29
TORSDOF 21
ENDMDL
MODEL 3
REMARK VINA RESULT:     -10.7      5.345     10.621
REMARK SMILES CC1=C(C)C[C@@H](C(=O)OCCOCCOCCOC(=O)c2ccc(-c3c4nc(c(-c5c(F)cccc5F)c5ccc([nH]5)c(-c5c(F)cccc5F)c5nc(c(-c6c(F)cccc6F)c6ccc3[nH]6)C=C5)C=C4)cc2)[C@@H](C(=O)NCC[NH+]2CCOCC2)C1
REMARK SMILES IDX 13 1 12 2 11 3 10 4 9 5 7 6 8 7 6 8 1 9 2 10 3 11 87 12 4 13
REMARK SMILES IDX 5 14 75 15 76 16 77 17 78 18 79 20 80 21 81 22 82 23 86 24
REMARK SMILES IDX 83 26 85 27 84 28 14 29 15 30 16 31 17 32 18 33 19 34 20 35
REMARK SMILES IDX 21 36 22 37 74 38 23 39 73 40 24 41 25 42 26 43 67 44 27 45
REMARK SMILES IDX 72 46 66 47 68 48 28 49 71 50 65 51 64 52 29 54 55 55 38 56
REMARK SMILES IDX 54 57 39 58 42 59 53 60 69 61 40 62 41 63 52 65 70 66 43 67
REMARK SMILES IDX 30 68 31 69 36 70 32 71 33 72 35 73 37 74 34 75 56 76 57 77
REMARK SMILES IDX 62 78 58 79 59 80 61 81 63 82 60 83 44 84 45 85 50 86 46 87
REMARK SMILES IDX 47 88 49 89 51 90 48 91
REMARK H PARENT 78 19 81 25 68 53 42 64
REMARK Flexibility Score: inf
ROOT
ATOM      1  C   UNL A   1      33.923  31.432  27.866  1.00  0.00     0.188 C 
ENDROOT
BRANCH   1   2
ATOM      2  O   UNL A   1      33.528  30.534  26.830  1.00  0.00    -0.376 OA
BRANCH   2   3
ATOM      3  C   UNL A   1      32.543  29.544  27.099  1.00  0.00     0.202 C 
BRANCH   3   4
ATOM      4  C   UNL A   1      32.882  28.111  26.634  1.00  0.00     0.261 C 
BRANCH   4   5
ATOM      5  O   UNL A   1      32.205  27.604  25.457  1.00  0.00    -0.463 OA
BRANCH   5   6
ATOM      6  C   UNL A   1      31.367  26.569  25.666  1.00  0.00     0.310 C 
ATOM      7  O   UNL A   1      30.647  26.488  26.665  1.00  0.00    -0.252 OA
BRANCH   6   8
ATOM      8  C   UNL A   1      31.324  25.433  24.627  1.00  0.00     0.116 C 
ATOM      9  C   UNL A   1      34.878  23.409  23.126  1.00  0.00     0.039 C 
ATOM     10  C   UNL A   1      33.543  23.781  23.697  1.00  0.00    -0.074 C 
ATOM     11  C   UNL A   1      33.236  23.807  25.008  1.00  0.00    -0.073 C 
ATOM     12  C   UNL A   1      32.463  24.135  22.700  1.00  0.00     0.045 C 
ATOM     13  C   UNL A   1      34.137  23.441  26.151  1.00  0.00     0.039 C 
ATOM     14  C   UNL A   1      31.835  24.191  25.396  1.00  0.00     0.046 C 
ATOM     15  C   UNL A   1      31.686  25.416  23.087  1.00  0.00     0.097 C 
BRANCH  15  16
ATOM     16  C   UNL A   1      32.379  26.595  22.388  1.00  0.00     0.224 C 
ATOM     17  O   UNL A   1      33.472  26.482  21.836  1.00  0.00    -0.275 OA
ATOM     18  N   UNL A   1      31.762  27.833  22.323  1.00  0.00    -0.350 N 
ATOM     19  H   UNL A   1      32.381  28.586  22.185  1.00  0.00     0.163 HD
BRANCH  18  20
ATOM     20  C   UNL A   1      30.344  28.224  22.423  1.00  0.00     0.177 C 
BRANCH  20  21
ATOM     21  C   UNL A   1      29.976  29.694  22.034  1.00  0.00     0.283 C 
BRANCH  21  22
ATOM     22  N   UNL A   1      28.591  30.044  21.625  1.00  0.00    -0.330 N 
ATOM     23  C   UNL A   1      28.409  31.360  20.988  1.00  0.00     0.291 C 
ATOM     24  C   UNL A   1      27.652  29.997  22.785  1.00  0.00     0.291 C 
ATOM     25  H   UNL A   1      28.388  29.334  20.923  1.00  0.00     0.348 HD
ATOM     26  C   UNL A   1      28.563  32.521  21.963  1.00  0.00     0.221 C 
ATOM     27  C   UNL A   1      27.706  31.201  23.744  1.00  0.00     0.221 C 
ATOM     28  O   UNL A   1      27.653  32.459  23.062  1.00  0.00    -0.370 OA
ENDBRANCH  21  22
ENDBRANCH  20  21
ENDBRANCH  18  20
ENDBRANCH  15  16
ENDBRANCH   6   8
ENDBRANCH   5   6
ENDBRANCH   4   5
ENDBRANCH   3   4
ENDBRANCH   2   3
ENDBRANCH   1   2
BRANCH   1  29
ATOM     29  C   UNL A   1      35.399  31.784  28.018  1.00  0.00     0.188 C 
BRANCH  29  30
ATOM     30  O   UNL A   1      35.590  32.824  28.951  1.00  0.00    -0.376 OA
BRANCH  30  31
ATOM     31  C   UNL A   1      34.785  32.822  30.099  1.00  0.00     0.202 C 
BRANCH  31  32
ATOM     32  C   UNL A   1      35.367  32.047  31.289  1.00  0.00     0.261 C 
BRANCH  32  33
ATOM     33  O   UNL A   1      36.754  31.640  31.258  1.00  0.00    -0.460 OA
BRANCH  33  34
ATOM     34  C   UNL A   1      37.004  30.329  31.416  1.00  0.00     0.338 C 
ATOM     35  O   UNL A   1      36.278  29.514  31.937  1.00  0.00    -0.246 OA
BRANCH  34  36
ATOM     36  C   UNL A   1      38.200  29.867  30.721  1.00  0.00     0.060 A 
ATOM     37  C   UNL A   1      39.264  29.382  31.500  1.00  0.00     0.016 A 
ATOM     38  C   UNL A   1      38.326  30.047  29.348  1.00  0.00     0.016 A 
ATOM     39  C   UNL A   1      40.469  29.062  30.895  1.00  0.00     0.010 A 
ATOM     40  C   UNL A   1      39.532  29.718  28.743  1.00  0.00     0.010 A 
ATOM     41  C   UNL A   1      40.602  29.224  29.512  1.00  0.00    -0.014 A 
BRANCH  41  42
ATOM     42  C   UNL A   1      41.852  28.844  28.833  1.00  0.00     0.031 A 
ATOM     43  C   UNL A   1      42.056  27.434  28.381  1.00  0.00     0.074 A 
ATOM     44  C   UNL A   1      42.811  29.776  28.702  1.00  0.00     0.049 A 
ATOM     45  N   UNL A   1      43.145  26.856  27.952  1.00  0.00    -0.248 NA
ATOM     46  C   UNL A   1      40.879  26.552  28.431  1.00  0.00     0.031 C 
ATOM     47  C   UNL A   1      42.676  31.184  29.085  1.00  0.00     0.029 A 
ATOM     48  N   UNL A   1      44.094  29.676  28.240  1.00  0.00    -0.354 N 
ATOM     49  C   UNL A   1      42.794  25.538  27.695  1.00  0.00     0.074 A 
ATOM     50  C   UNL A   1      41.395  25.395  28.037  1.00  0.00     0.031 C 
ATOM     51  C   UNL A   1      43.836  31.813  28.855  1.00  0.00     0.029 A 
ATOM     52  C   UNL A   1      44.808  30.841  28.369  1.00  0.00     0.049 A 
ATOM     53  H   UNL A   1      44.468  28.851  27.853  1.00  0.00     0.167 HD
ATOM     54  C   UNL A   1      43.581  24.545  27.219  1.00  0.00     0.037 A 
ATOM     55  C   UNL A   1      46.115  31.080  28.161  1.00  0.00     0.037 A 
ATOM     56  C   UNL A   1      44.977  24.720  26.907  1.00  0.00     0.049 A 
ATOM     57  C   UNL A   1      46.982  29.943  27.704  1.00  0.00     0.074 A 
ATOM     58  C   UNL A   1      45.880  23.789  26.427  1.00  0.00     0.029 A 
ATOM     59  N   UNL A   1      45.672  25.914  27.053  1.00  0.00    -0.354 N 
ATOM     60  N   UNL A   1      46.651  28.694  27.473  1.00  0.00    -0.248 NA
ATOM     61  C   UNL A   1      48.400  30.243  27.484  1.00  0.00     0.031 C 
ATOM     62  C   UNL A   1      47.131  24.407  26.327  1.00  0.00     0.029 A 
ATOM     63  C   UNL A   1      46.996  25.740  26.688  1.00  0.00     0.049 A 
ATOM     64  H   UNL A   1      45.281  26.760  27.370  1.00  0.00     0.167 HD
ATOM     65  C   UNL A   1      47.813  28.064  27.051  1.00  0.00     0.074 A 
ATOM     66  C   UNL A   1      48.853  29.076  27.049  1.00  0.00     0.031 C 
ATOM     67  C   UNL A   1      48.006  26.771  26.696  1.00  0.00     0.037 A 
BRANCH  54  68
ATOM     68  C   UNL A   1      42.961  23.187  27.043  1.00  0.00     0.057 A 
ATOM     69  C   UNL A   1      42.598  22.695  25.783  1.00  0.00     0.134 A 
ATOM     70  C   UNL A   1      42.743  22.352  28.146  1.00  0.00     0.134 A 
ATOM     71  F   UNL A   1      42.763  23.449  24.685  1.00  0.00    -0.206 F 
ATOM     72  C   UNL A   1      42.020  21.433  25.628  1.00  0.00     0.040 A 
ATOM     73  C   UNL A   1      42.191  21.077  28.001  1.00  0.00     0.040 A 
ATOM     74  F   UNL A   1      43.066  22.757  29.383  1.00  0.00    -0.206 F 
ATOM     75  C   UNL A   1      41.821  20.617  26.740  1.00  0.00     0.006 A 
ENDBRANCH  54  68
BRANCH  55  76
ATOM     76  C   UNL A   1      46.663  32.439  28.388  1.00  0.00     0.057 A 
ATOM     77  C   UNL A   1      47.153  32.815  29.643  1.00  0.00     0.134 A 
ATOM     78  C   UNL A   1      46.742  33.382  27.356  1.00  0.00     0.134 A 
ATOM     79  F   UNL A   1      47.093  31.959  30.675  1.00  0.00    -0.206 F 
ATOM     80  C   UNL A   1      47.692  34.082  29.868  1.00  0.00     0.040 A 
ATOM     81  C   UNL A   1      47.304  34.643  27.560  1.00  0.00     0.040 A 
ATOM     82  F   UNL A   1      46.300  33.080  26.126  1.00  0.00    -0.206 F 
ATOM     83  C   UNL A   1      47.776  34.999  28.822  1.00  0.00     0.006 A 
ENDBRANCH  55  76
BRANCH  67  84
ATOM     84  C   UNL A   1      49.384  26.396  26.234  1.00  0.00     0.057 A 
ATOM     85  C   UNL A   1      49.835  26.678  24.938  1.00  0.00     0.134 A 
ATOM     86  C   UNL A   1      50.278  25.771  27.111  1.00  0.00     0.134 A 
ATOM     87  F   UNL A   1      49.020  27.261  24.046  1.00  0.00    -0.206 F 
ATOM     88  C   UNL A   1      51.120  26.326  24.524  1.00  0.00     0.040 A 
ATOM     89  C   UNL A   1      51.575  25.442  26.719  1.00  0.00     0.040 A 
ATOM     90  F   UNL A   1      49.910  25.481  28.369  1.00  0.00    -0.206 F 
ATOM     91  C   UNL A   1      51.996  25.714  25.418  1.00  0.00     0.006 A 
ENDBRANCH  67  84
ENDBRANCH  41  42
ENDBRANCH  34  36
ENDBRANCH  33  34
ENDBRANCH  32  33
ENDBRANCH  31  32
ENDBRANCH  30  31
ENDBRANCH  29  30
ENDBRANCH   1  29
TORSDOF 21
ENDMDL
