MODEL 1
REMARK VINA RESULT:     -10.3      0.000      0.000
REMARK SMILES O=C(OCCOCCOCCOC(=O)c1ccc(C[N@H+]2CC[N@H+]3CCCC[C@@H]3C2)c(F)c1)c1ccc(-c2c3nc(c(-c4c(F)cccc4F)c4ccc([nH]4)c(-c4c(F)cccc4F)c4nc(c(-c5c(F)cccc5F)c5ccc2[nH]5)C=C4)C=C3)cc1
REMARK SMILES IDX 7 1 6 2 5 3 4 4 3 5 2 6 1 7 33 8 34 9 86 10 35 11 85 12
REMARK SMILES IDX 36 13 37 14 38 15 79 16 39 17 84 18 78 19 80 20 40 21 83 22
REMARK SMILES IDX 77 23 76 24 41 26 67 27 50 28 66 29 51 30 54 31 65 32 81 33
REMARK SMILES IDX 52 34 53 35 64 37 82 38 55 39 42 40 43 41 48 42 44 43 45 44
REMARK SMILES IDX 47 45 49 46 46 47 68 48 69 49 74 50 70 51 71 52 73 53 75 54
REMARK SMILES IDX 72 55 56 56 57 57 62 58 58 59 59 60 61 61 63 62 60 63 8 64
REMARK SMILES IDX 9 65 10 66 11 67 12 68 13 69 14 70 15 71 16 72 32 73 17 74
REMARK SMILES IDX 30 75 18 76 31 77 19 78 20 79 21 80 29 81 22 83 28 84 23 85
REMARK SMILES IDX 27 86 24 87 26 89 25 90
REMARK H PARENT 80 25 54 36 20 82 23 88
REMARK Flexibility Score: inf
ROOT
ATOM      1  C   UNL A   1      32.978  29.548  26.935  1.00  0.00     0.188 C 
ENDROOT
BRANCH   1   2
ATOM      2  O   UNL A   1      32.673  30.768  26.256  1.00  0.00    -0.376 OA
BRANCH   2   3
ATOM      3  C   UNL A   1      31.673  31.563  26.888  1.00  0.00     0.202 C 
BRANCH   3   4
ATOM      4  C   UNL A   1      31.748  33.066  26.578  1.00  0.00     0.261 C 
BRANCH   4   5
ATOM      5  O   UNL A   1      32.108  33.893  27.697  1.00  0.00    -0.460 OA
BRANCH   5   6
ATOM      6  C   UNL A   1      33.324  34.304  28.131  1.00  0.00     0.338 C 
ATOM      7  O   UNL A   1      33.533  35.518  28.153  1.00  0.00    -0.246 OA
BRANCH   6   8
ATOM      8  C   UNL A   1      34.440  33.404  28.586  1.00  0.00     0.060 A 
ATOM      9  C   UNL A   1      34.305  32.174  29.232  1.00  0.00     0.016 A 
ATOM     10  C   UNL A   1      35.750  33.863  28.350  1.00  0.00     0.016 A 
ATOM     11  C   UNL A   1      35.413  31.463  29.702  1.00  0.00     0.010 A 
ATOM     12  C   UNL A   1      36.867  33.140  28.787  1.00  0.00     0.010 A 
ATOM     13  C   UNL A   1      36.701  31.946  29.502  1.00  0.00    -0.014 A 
BRANCH  13  14
ATOM     14  C   UNL A   1      37.860  31.300  30.162  1.00  0.00     0.031 A 
ATOM     15  C   UNL A   1      38.275  31.785  31.507  1.00  0.00     0.074 A 
ATOM     16  C   UNL A   1      38.462  30.197  29.683  1.00  0.00     0.049 A 
ATOM     17  N   UNL A   1      39.227  31.319  32.266  1.00  0.00    -0.248 NA
ATOM     18  C   UNL A   1      37.440  32.823  32.129  1.00  0.00     0.031 C 
ATOM     19  C   UNL A   1      37.940  29.371  28.618  1.00  0.00     0.029 A 
ATOM     20  N   UNL A   1      39.655  29.593  29.997  1.00  0.00    -0.354 N 
ATOM     21  C   UNL A   1      39.018  31.900  33.500  1.00  0.00     0.074 A 
ATOM     22  C   UNL A   1      37.941  32.856  33.354  1.00  0.00     0.031 C 
ATOM     23  C   UNL A   1      38.879  28.499  28.224  1.00  0.00     0.029 A 
ATOM     24  C   UNL A   1      40.050  28.678  29.044  1.00  0.00     0.049 A 
ATOM     25  H   UNL A   1      40.170  29.791  30.812  1.00  0.00     0.167 HD
ATOM     26  C   UNL A   1      39.622  31.580  34.663  1.00  0.00     0.037 A 
ATOM     27  C   UNL A   1      41.222  28.054  28.845  1.00  0.00     0.037 A 
ATOM     28  C   UNL A   1      40.727  30.664  34.765  1.00  0.00     0.049 A 
ATOM     29  C   UNL A   1      42.160  28.055  29.996  1.00  0.00     0.074 A 
ATOM     30  C   UNL A   1      41.477  30.340  35.878  1.00  0.00     0.029 A 
ATOM     31  N   UNL A   1      41.259  29.944  33.699  1.00  0.00    -0.354 N 
ATOM     32  N   UNL A   1      42.007  28.656  31.148  1.00  0.00    -0.248 NA
ATOM     33  C   UNL A   1      43.334  27.187  29.897  1.00  0.00     0.031 C 
ATOM     34  C   UNL A   1      42.504  29.477  35.474  1.00  0.00     0.029 A 
ATOM     35  C   UNL A   1      42.367  29.223  34.118  1.00  0.00     0.049 A 
ATOM     36  H   UNL A   1      40.901  29.946  32.782  1.00  0.00     0.167 HD
ATOM     37  C   UNL A   1      43.003  28.157  31.958  1.00  0.00     0.074 A 
ATOM     38  C   UNL A   1      43.796  27.255  31.139  1.00  0.00     0.031 C 
ATOM     39  C   UNL A   1      43.184  28.377  33.281  1.00  0.00     0.037 A 
BRANCH  26  40
ATOM     40  C   UNL A   1      39.088  32.261  35.880  1.00  0.00     0.057 A 
ATOM     41  C   UNL A   1      38.189  31.603  36.724  1.00  0.00     0.134 A 
ATOM     42  C   UNL A   1      39.525  33.539  36.256  1.00  0.00     0.134 A 
ATOM     43  F   UNL A   1      37.757  30.369  36.428  1.00  0.00    -0.206 F 
ATOM     44  C   UNL A   1      37.745  32.193  37.907  1.00  0.00     0.040 A 
ATOM     45  C   UNL A   1      39.100  34.132  37.446  1.00  0.00     0.040 A 
ATOM     46  F   UNL A   1      40.420  34.202  35.508  1.00  0.00    -0.206 F 
ATOM     47  C   UNL A   1      38.204  33.457  38.274  1.00  0.00     0.006 A 
ENDBRANCH  26  40
BRANCH  27  48
ATOM     48  C   UNL A   1      41.521  27.315  27.595  1.00  0.00     0.057 A 
ATOM     49  C   UNL A   1      41.010  26.026  27.396  1.00  0.00     0.134 A 
ATOM     50  C   UNL A   1      42.325  27.847  26.584  1.00  0.00     0.134 A 
ATOM     51  F   UNL A   1      40.217  25.464  28.321  1.00  0.00    -0.206 F 
ATOM     52  C   UNL A   1      41.303  25.285  26.248  1.00  0.00     0.040 A 
ATOM     53  C   UNL A   1      42.630  27.118  25.431  1.00  0.00     0.040 A 
ATOM     54  F   UNL A   1      42.836  29.080  26.709  1.00  0.00    -0.206 F 
ATOM     55  C   UNL A   1      42.123  25.830  25.262  1.00  0.00     0.006 A 
ENDBRANCH  27  48
BRANCH  39  56
ATOM     56  C   UNL A   1      44.302  27.620  33.913  1.00  0.00     0.057 A 
ATOM     57  C   UNL A   1      45.576  28.188  34.014  1.00  0.00     0.134 A 
ATOM     58  C   UNL A   1      44.110  26.336  34.435  1.00  0.00     0.134 A 
ATOM     59  F   UNL A   1      45.815  29.421  33.541  1.00  0.00    -0.206 F 
ATOM     60  C   UNL A   1      46.629  27.498  34.609  1.00  0.00     0.040 A 
ATOM     61  C   UNL A   1      45.148  25.648  35.058  1.00  0.00     0.040 A 
ATOM     62  F   UNL A   1      42.899  25.759  34.396  1.00  0.00    -0.206 F 
ATOM     63  C   UNL A   1      46.414  26.226  35.139  1.00  0.00     0.006 A 
ENDBRANCH  39  56
ENDBRANCH  13  14
ENDBRANCH   6   8
ENDBRANCH   5   6
ENDBRANCH   4   5
ENDBRANCH   3   4
ENDBRANCH   2   3
ENDBRANCH   1   2
BRANCH   1  64
ATOM     64  C   UNL A   1      34.038  28.645  26.288  1.00  0.00     0.188 C 
BRANCH  64  65
ATOM     65  O   UNL A   1      33.773  27.257  26.442  1.00  0.00    -0.376 OA
BRANCH  65  66
ATOM     66  C   UNL A   1      32.740  26.752  25.597  1.00  0.00     0.202 C 
BRANCH  66  67
ATOM     67  C   UNL A   1      33.246  25.822  24.493  1.00  0.00     0.261 C 
BRANCH  67  68
ATOM     68  O   UNL A   1      34.420  25.076  24.884  1.00  0.00    -0.460 OA
BRANCH  68  69
ATOM     69  C   UNL A   1      34.375  23.733  24.701  1.00  0.00     0.338 C 
ATOM     70  O   UNL A   1      33.420  23.091  24.294  1.00  0.00    -0.246 OA
BRANCH  69  71
ATOM     71  C   UNL A   1      35.608  23.128  25.263  1.00  0.00     0.063 A 
ATOM     72  C   UNL A   1      36.506  23.973  25.923  1.00  0.00     0.016 A 
ATOM     73  C   UNL A   1      35.963  21.799  25.020  1.00  0.00     0.055 A 
ATOM     74  C   UNL A   1      37.810  23.538  26.185  1.00  0.00     0.013 A 
ATOM     75  C   UNL A   1      37.266  21.379  25.285  1.00  0.00     0.132 A 
ATOM     76  C   UNL A   1      38.234  22.268  25.756  1.00  0.00     0.042 A 
ATOM     77  F   UNL A   1      37.612  20.127  24.951  1.00  0.00    -0.206 F 
BRANCH  76  78
ATOM     78  C   UNL A   1      39.708  21.928  25.679  1.00  0.00     0.302 C 
BRANCH  78  79
ATOM     79  N   UNL A   1      40.311  21.139  26.772  1.00  0.00    -0.322 N 
ATOM     80  C   UNL A   1      41.274  20.112  26.358  1.00  0.00     0.324 C 
ATOM     81  C   UNL A   1      40.865  21.872  27.920  1.00  0.00     0.328 C 
ATOM     82  H   UNL A   1      39.458  20.685  27.101  1.00  0.00     0.348 HD
ATOM     83  C   UNL A   1      42.732  20.587  26.154  1.00  0.00     0.324 C 
ATOM     84  C   UNL A   1      42.259  22.489  27.674  1.00  0.00     0.239 C 
ATOM     85  N   UNL A   1      43.255  21.581  27.101  1.00  0.00    -0.323 N 
ATOM     86  C   UNL A   1      42.873  23.132  28.922  1.00  0.00     0.071 C 
ATOM     87  C   UNL A   1      44.371  22.354  26.546  1.00  0.00     0.262 C 
ATOM     88  H   UNL A   1      43.591  21.006  27.873  1.00  0.00     0.348 HD
ATOM     89  C   UNL A   1      44.126  23.931  28.548  1.00  0.00     0.012 C 
ATOM     90  C   UNL A   1      45.084  23.169  27.630  1.00  0.00     0.062 C 
ENDBRANCH  78  79
ENDBRANCH  76  78
ENDBRANCH  69  71
ENDBRANCH  68  69
ENDBRANCH  67  68
ENDBRANCH  66  67
ENDBRANCH  65  66
ENDBRANCH  64  65
ENDBRANCH   1  64
TORSDOF 19
ENDMDL
MODEL 2
REMARK VINA RESULT:     -10.3      0.353      6.100
REMARK SMILES O=C(OCCOCCOCCOC(=O)c1ccc(C[N@H+]2CC[N@H+]3CCCC[C@@H]3C2)c(F)c1)c1ccc(-c2c3nc(c(-c4c(F)cccc4F)c4ccc([nH]4)c(-c4c(F)cccc4F)c4nc(c(-c5c(F)cccc5F)c5ccc2[nH]5)C=C4)C=C3)cc1
REMARK SMILES IDX 7 1 6 2 5 3 4 4 3 5 2 6 1 7 33 8 34 9 86 10 35 11 85 12
REMARK SMILES IDX 36 13 37 14 38 15 79 16 39 17 84 18 78 19 80 20 40 21 83 22
REMARK SMILES IDX 77 23 76 24 41 26 67 27 50 28 66 29 51 30 54 31 65 32 81 33
REMARK SMILES IDX 52 34 53 35 64 37 82 38 55 39 42 40 43 41 48 42 44 43 45 44
REMARK SMILES IDX 47 45 49 46 46 47 68 48 69 49 74 50 70 51 71 52 73 53 75 54
REMARK SMILES IDX 72 55 56 56 57 57 62 58 58 59 59 60 61 61 63 62 60 63 8 64
REMARK SMILES IDX 9 65 10 66 11 67 12 68 13 69 14 70 15 71 16 72 32 73 17 74
REMARK SMILES IDX 30 75 18 76 31 77 19 78 20 79 21 80 29 81 22 83 28 84 23 85
REMARK SMILES IDX 27 86 24 87 26 89 25 90
REMARK H PARENT 80 25 54 36 20 82 23 88
REMARK Flexibility Score: inf
ROOT
ATOM      1  C   UNL A   1      33.037  29.526  26.953  1.00  0.00     0.188 C 
ENDROOT
BRANCH   1   2
ATOM      2  O   UNL A   1      32.760  30.759  26.286  1.00  0.00    -0.376 OA
BRANCH   2   3
ATOM      3  C   UNL A   1      31.741  31.545  26.898  1.00  0.00     0.202 C 
BRANCH   3   4
ATOM      4  C   UNL A   1      31.800  33.047  26.577  1.00  0.00     0.261 C 
BRANCH   4   5
ATOM      5  O   UNL A   1      32.161  33.885  27.687  1.00  0.00    -0.460 OA
BRANCH   5   6
ATOM      6  C   UNL A   1      33.379  34.280  28.130  1.00  0.00     0.338 C 
ATOM      7  O   UNL A   1      33.618  35.489  28.120  1.00  0.00    -0.246 OA
BRANCH   6   8
ATOM      8  C   UNL A   1      34.465  33.367  28.632  1.00  0.00     0.060 A 
ATOM      9  C   UNL A   1      34.290  32.164  29.317  1.00  0.00     0.016 A 
ATOM     10  C   UNL A   1      35.790  33.784  28.398  1.00  0.00     0.016 A 
ATOM     11  C   UNL A   1      35.373  31.441  29.827  1.00  0.00     0.010 A 
ATOM     12  C   UNL A   1      36.882  33.048  28.876  1.00  0.00     0.010 A 
ATOM     13  C   UNL A   1      36.675  31.884  29.629  1.00  0.00    -0.014 A 
BRANCH  13  14
ATOM     14  C   UNL A   1      37.808  31.232  30.327  1.00  0.00     0.031 A 
ATOM     15  C   UNL A   1      38.512  30.111  29.647  1.00  0.00     0.074 A 
ATOM     16  C   UNL A   1      38.334  31.695  31.474  1.00  0.00     0.049 A 
ATOM     17  N   UNL A   1      39.552  29.447  30.068  1.00  0.00    -0.248 NA
ATOM     18  C   UNL A   1      38.086  29.786  28.278  1.00  0.00     0.031 C 
ATOM     19  C   UNL A   1      38.038  32.987  32.053  1.00  0.00     0.029 A 
ATOM     20  N   UNL A   1      39.200  31.133  32.380  1.00  0.00    -0.354 N 
ATOM     21  C   UNL A   1      39.991  28.734  28.972  1.00  0.00     0.074 A 
ATOM     22  C   UNL A   1      39.029  28.934  27.909  1.00  0.00     0.031 C 
ATOM     23  C   UNL A   1      38.534  33.046  33.296  1.00  0.00     0.029 A 
ATOM     24  C   UNL A   1      39.222  31.812  33.580  1.00  0.00     0.049 A 
ATOM     25  H   UNL A   1      39.743  30.334  32.193  1.00  0.00     0.167 HD
ATOM     26  C   UNL A   1      41.151  28.053  28.854  1.00  0.00     0.037 A 
ATOM     27  C   UNL A   1      39.734  31.483  34.777  1.00  0.00     0.037 A 
ATOM     28  C   UNL A   1      42.060  27.828  29.945  1.00  0.00     0.049 A 
ATOM     29  C   UNL A   1      40.732  30.384  34.774  1.00  0.00     0.074 A 
ATOM     30  C   UNL A   1      43.215  27.071  29.962  1.00  0.00     0.029 A 
ATOM     31  N   UNL A   1      41.897  28.340  31.230  1.00  0.00    -0.354 N 
ATOM     32  N   UNL A   1      41.111  29.653  33.757  1.00  0.00    -0.248 NA
ATOM     33  C   UNL A   1      41.480  30.162  36.012  1.00  0.00     0.031 C 
ATOM     34  C   UNL A   1      43.714  27.070  31.271  1.00  0.00     0.029 A 
ATOM     35  C   UNL A   1      42.900  27.865  32.062  1.00  0.00     0.049 A 
ATOM     36  H   UNL A   1      41.176  28.951  31.507  1.00  0.00     0.167 HD
ATOM     37  C   UNL A   1      42.218  28.959  34.193  1.00  0.00     0.074 A 
ATOM     38  C   UNL A   1      42.404  29.308  35.592  1.00  0.00     0.031 C 
ATOM     39  C   UNL A   1      43.040  28.169  33.466  1.00  0.00     0.037 A 
BRANCH  26  40
ATOM     40  C   UNL A   1      41.446  27.507  27.496  1.00  0.00     0.057 A 
ATOM     41  C   UNL A   1      42.334  28.167  26.643  1.00  0.00     0.134 A 
ATOM     42  C   UNL A   1      40.911  26.284  27.066  1.00  0.00     0.134 A 
ATOM     43  F   UNL A   1      42.895  29.327  27.012  1.00  0.00    -0.206 F 
ATOM     44  C   UNL A   1      42.683  27.628  25.406  1.00  0.00     0.040 A 
ATOM     45  C   UNL A   1      41.267  25.726  25.837  1.00  0.00     0.040 A 
ATOM     46  F   UNL A   1      40.087  25.582  27.860  1.00  0.00    -0.206 F 
ATOM     47  C   UNL A   1      42.156  26.402  25.002  1.00  0.00     0.006 A 
ENDBRANCH  26  40
BRANCH  27  48
ATOM     48  C   UNL A   1      39.409  32.238  36.010  1.00  0.00     0.057 A 
ATOM     49  C   UNL A   1      40.101  33.416  36.321  1.00  0.00     0.134 A 
ATOM     50  C   UNL A   1      38.432  31.813  36.913  1.00  0.00     0.134 A 
ATOM     51  F   UNL A   1      41.040  33.888  35.487  1.00  0.00    -0.206 F 
ATOM     52  C   UNL A   1      39.847  34.133  37.494  1.00  0.00     0.040 A 
ATOM     53  C   UNL A   1      38.168  32.518  38.092  1.00  0.00     0.040 A 
ATOM     54  F   UNL A   1      37.727  30.700  36.668  1.00  0.00    -0.206 F 
ATOM     55  C   UNL A   1      38.881  33.679  38.389  1.00  0.00     0.006 A 
ENDBRANCH  27  48
BRANCH  39  56
ATOM     56  C   UNL A   1      44.221  27.624  34.195  1.00  0.00     0.057 A 
ATOM     57  C   UNL A   1      44.160  26.365  34.804  1.00  0.00     0.134 A 
ATOM     58  C   UNL A   1      45.421  28.338  34.280  1.00  0.00     0.134 A 
ATOM     59  F   UNL A   1      43.038  25.631  34.745  1.00  0.00    -0.206 F 
ATOM     60  C   UNL A   1      45.255  25.837  35.482  1.00  0.00     0.040 A 
ATOM     61  C   UNL A   1      46.532  27.808  34.931  1.00  0.00     0.040 A 
ATOM     62  F   UNL A   1      45.544  29.534  33.684  1.00  0.00    -0.206 F 
ATOM     63  C   UNL A   1      46.448  26.558  35.541  1.00  0.00     0.006 A 
ENDBRANCH  39  56
ENDBRANCH  13  14
ENDBRANCH   6   8
ENDBRANCH   5   6
ENDBRANCH   4   5
ENDBRANCH   3   4
ENDBRANCH   2   3
ENDBRANCH   1   2
BRANCH   1  64
ATOM     64  C   UNL A   1      34.124  28.636  26.332  1.00  0.00     0.188 C 
BRANCH  64  65
ATOM     65  O   UNL A   1      33.844  27.246  26.428  1.00  0.00    -0.376 OA
BRANCH  65  66
ATOM     66  C   UNL A   1      32.803  26.789  25.564  1.00  0.00     0.202 C 
BRANCH  66  67
ATOM     67  C   UNL A   1      33.301  25.931  24.400  1.00  0.00     0.261 C 
BRANCH  67  68
ATOM     68  O   UNL A   1      34.467  25.149  24.739  1.00  0.00    -0.460 OA
BRANCH  68  69
ATOM     69  C   UNL A   1      34.403  23.819  24.482  1.00  0.00     0.338 C 
ATOM     70  O   UNL A   1      33.463  23.226  23.978  1.00  0.00    -0.246 OA
BRANCH  69  71
ATOM     71  C   UNL A   1      35.580  23.151  25.093  1.00  0.00     0.063 A 
ATOM     72  C   UNL A   1      36.511  23.954  25.759  1.00  0.00     0.016 A 
ATOM     73  C   UNL A   1      35.856  21.798  24.890  1.00  0.00     0.055 A 
ATOM     74  C   UNL A   1      37.777  23.444  26.068  1.00  0.00     0.013 A 
ATOM     75  C   UNL A   1      37.122  21.303  25.202  1.00  0.00     0.132 A 
ATOM     76  C   UNL A   1      38.132  22.140  25.680  1.00  0.00     0.042 A 
ATOM     77  F   UNL A   1      37.398  20.024  24.906  1.00  0.00    -0.206 F 
BRANCH  76  78
ATOM     78  C   UNL A   1      39.582  21.707  25.653  1.00  0.00     0.302 C 
BRANCH  78  79
ATOM     79  N   UNL A   1      40.188  21.184  26.894  1.00  0.00    -0.322 N 
ATOM     80  C   UNL A   1      41.104  20.050  26.724  1.00  0.00     0.324 C 
ATOM     81  C   UNL A   1      40.798  22.150  27.818  1.00  0.00     0.328 C 
ATOM     82  H   UNL A   1      39.330  20.857  27.339  1.00  0.00     0.348 HD
ATOM     83  C   UNL A   1      42.572  20.403  26.383  1.00  0.00     0.324 C 
ATOM     84  C   UNL A   1      42.206  22.634  27.403  1.00  0.00     0.239 C 
ATOM     85  N   UNL A   1      43.154  21.576  27.050  1.00  0.00    -0.323 N 
ATOM     86  C   UNL A   1      42.875  23.535  28.445  1.00  0.00     0.071 C 
ATOM     87  C   UNL A   1      44.280  22.146  26.302  1.00  0.00     0.262 C 
ATOM     88  H   UNL A   1      43.492  21.192  27.933  1.00  0.00     0.348 HD
ATOM     89  C   UNL A   1      44.143  24.171  27.865  1.00  0.00     0.012 C 
ATOM     90  C   UNL A   1      45.050  23.171  27.142  1.00  0.00     0.062 C 
ENDBRANCH  78  79
ENDBRANCH  76  78
ENDBRANCH  69  71
ENDBRANCH  68  69
ENDBRANCH  67  68
ENDBRANCH  66  67
ENDBRANCH  65  66
ENDBRANCH  64  65
ENDBRANCH   1  64
TORSDOF 19
ENDMDL
MODEL 3
REMARK VINA RESULT:     -10.2      2.132      7.171
REMARK SMILES O=C(OCCOCCOCCOC(=O)c1ccc(C[N@H+]2CC[N@H+]3CCCC[C@@H]3C2)c(F)c1)c1ccc(-c2c3nc(c(-c4c(F)cccc4F)c4ccc([nH]4)c(-c4c(F)cccc4F)c4nc(c(-c5c(F)cccc5F)c5ccc2[nH]5)C=C4)C=C3)cc1
REMARK SMILES IDX 7 1 6 2 5 3 4 4 3 5 2 6 1 7 33 8 34 9 86 10 35 11 85 12
REMARK SMILES IDX 36 13 37 14 38 15 79 16 39 17 84 18 78 19 80 20 40 21 83 22
REMARK SMILES IDX 77 23 76 24 41 26 67 27 50 28 66 29 51 30 54 31 65 32 81 33
REMARK SMILES IDX 52 34 53 35 64 37 82 38 55 39 42 40 43 41 48 42 44 43 45 44
REMARK SMILES IDX 47 45 49 46 46 47 68 48 69 49 74 50 70 51 71 52 73 53 75 54
REMARK SMILES IDX 72 55 56 56 57 57 62 58 58 59 59 60 61 61 63 62 60 63 8 64
REMARK SMILES IDX 9 65 10 66 11 67 12 68 13 69 14 70 15 71 16 72 32 73 17 74
REMARK SMILES IDX 30 75 18 76 31 77 19 78 20 79 21 80 29 81 22 83 28 84 23 85
REMARK SMILES IDX 27 86 24 87 26 89 25 90
REMARK H PARENT 80 25 54 36 20 82 23 88
REMARK Flexibility Score: inf
ROOT
ATOM      1  C   UNL A   1      33.411  29.807  27.194  1.00  0.00     0.188 C 
ENDROOT
BRANCH   1   2
ATOM      2  O   UNL A   1      33.320  31.189  26.844  1.00  0.00    -0.376 OA
BRANCH   2   3
ATOM      3  C   UNL A   1      32.065  31.793  27.147  1.00  0.00     0.202 C 
BRANCH   3   4
ATOM      4  C   UNL A   1      31.993  33.305  26.882  1.00  0.00     0.261 C 
BRANCH   4   5
ATOM      5  O   UNL A   1      32.356  34.130  28.001  1.00  0.00    -0.460 OA
BRANCH   5   6
ATOM      6  C   UNL A   1      33.576  34.489  28.469  1.00  0.00     0.338 C 
ATOM      7  O   UNL A   1      33.852  35.690  28.459  1.00  0.00    -0.246 OA
BRANCH   6   8
ATOM      8  C   UNL A   1      34.622  33.546  28.999  1.00  0.00     0.060 A 
ATOM      9  C   UNL A   1      34.424  32.517  29.921  1.00  0.00     0.016 A 
ATOM     10  C   UNL A   1      35.934  33.739  28.525  1.00  0.00     0.016 A 
ATOM     11  C   UNL A   1      35.488  31.762  30.422  1.00  0.00     0.010 A 
ATOM     12  C   UNL A   1      37.001  32.963  28.997  1.00  0.00     0.010 A 
ATOM     13  C   UNL A   1      36.786  31.988  29.981  1.00  0.00    -0.014 A 
BRANCH  13  14
ATOM     14  C   UNL A   1      37.934  31.328  30.645  1.00  0.00     0.031 A 
ATOM     15  C   UNL A   1      38.563  30.154  29.980  1.00  0.00     0.074 A 
ATOM     16  C   UNL A   1      38.539  31.823  31.740  1.00  0.00     0.049 A 
ATOM     17  N   UNL A   1      39.603  29.474  30.374  1.00  0.00    -0.248 NA
ATOM     18  C   UNL A   1      38.050  29.785  28.653  1.00  0.00     0.031 C 
ATOM     19  C   UNL A   1      38.318  33.148  32.274  1.00  0.00     0.029 A 
ATOM     20  N   UNL A   1      39.435  31.271  32.622  1.00  0.00    -0.354 N 
ATOM     21  C   UNL A   1      39.956  28.699  29.289  1.00  0.00     0.074 A 
ATOM     22  C   UNL A   1      38.944  28.885  28.272  1.00  0.00     0.031 C 
ATOM     23  C   UNL A   1      38.884  33.244  33.485  1.00  0.00     0.029 A 
ATOM     24  C   UNL A   1      39.547  32.001  33.787  1.00  0.00     0.049 A 
ATOM     25  H   UNL A   1      39.941  30.446  32.443  1.00  0.00     0.167 HD
ATOM     26  C   UNL A   1      41.085  27.974  29.140  1.00  0.00     0.037 A 
ATOM     27  C   UNL A   1      40.114  31.707  34.968  1.00  0.00     0.037 A 
ATOM     28  C   UNL A   1      42.046  27.765  30.189  1.00  0.00     0.049 A 
ATOM     29  C   UNL A   1      41.074  30.575  34.961  1.00  0.00     0.074 A 
ATOM     30  C   UNL A   1      43.175  26.970  30.178  1.00  0.00     0.029 A 
ATOM     31  N   UNL A   1      41.972  28.338  31.456  1.00  0.00    -0.354 N 
ATOM     32  N   UNL A   1      41.371  29.787  33.959  1.00  0.00    -0.248 NA
ATOM     33  C   UNL A   1      41.882  30.382  36.165  1.00  0.00     0.031 C 
ATOM     34  C   UNL A   1      43.746  27.008  31.456  1.00  0.00     0.029 A 
ATOM     35  C   UNL A   1      43.004  27.865  32.253  1.00  0.00     0.049 A 
ATOM     36  H   UNL A   1      41.288  28.985  31.744  1.00  0.00     0.167 HD
ATOM     37  C   UNL A   1      42.478  29.075  34.366  1.00  0.00     0.074 A 
ATOM     38  C   UNL A   1      42.754  29.478  35.735  1.00  0.00     0.031 C 
ATOM     39  C   UNL A   1      43.232  28.226  33.632  1.00  0.00     0.037 A 
BRANCH  26  40
ATOM     40  C   UNL A   1      41.286  27.358  27.794  1.00  0.00     0.057 A 
ATOM     41  C   UNL A   1      42.021  28.025  26.811  1.00  0.00     0.134 A 
ATOM     42  C   UNL A   1      40.818  26.069  27.501  1.00  0.00     0.134 A 
ATOM     43  F   UNL A   1      42.515  29.249  27.045  1.00  0.00    -0.206 F 
ATOM     44  C   UNL A   1      42.288  27.429  25.579  1.00  0.00     0.040 A 
ATOM     45  C   UNL A   1      41.093  25.456  26.278  1.00  0.00     0.040 A 
ATOM     46  F   UNL A   1      40.143  25.362  28.421  1.00  0.00    -0.206 F 
ATOM     47  C   UNL A   1      41.830  26.140  25.312  1.00  0.00     0.006 A 
ENDBRANCH  26  40
BRANCH  27  48
ATOM     48  C   UNL A   1      39.882  32.527  36.181  1.00  0.00     0.057 A 
ATOM     49  C   UNL A   1      40.759  33.570  36.507  1.00  0.00     0.134 A 
ATOM     50  C   UNL A   1      38.814  32.294  37.050  1.00  0.00     0.134 A 
ATOM     51  F   UNL A   1      41.796  33.857  35.705  1.00  0.00    -0.206 F 
ATOM     52  C   UNL A   1      40.594  34.338  37.664  1.00  0.00     0.040 A 
ATOM     53  C   UNL A   1      38.637  33.052  38.212  1.00  0.00     0.040 A 
ATOM     54  F   UNL A   1      37.934  31.318  36.789  1.00  0.00    -0.206 F 
ATOM     55  C   UNL A   1      39.532  34.074  38.525  1.00  0.00     0.006 A 
ENDBRANCH  27  48
BRANCH  39  56
ATOM     56  C   UNL A   1      44.434  27.672  34.321  1.00  0.00     0.057 A 
ATOM     57  C   UNL A   1      44.359  26.458  35.011  1.00  0.00     0.134 A 
ATOM     58  C   UNL A   1      45.666  28.334  34.285  1.00  0.00     0.134 A 
ATOM     59  F   UNL A   1      43.205  25.774  35.069  1.00  0.00    -0.206 F 
ATOM     60  C   UNL A   1      45.472  25.922  35.653  1.00  0.00     0.040 A 
ATOM     61  C   UNL A   1      46.793  27.794  34.898  1.00  0.00     0.040 A 
ATOM     62  F   UNL A   1      45.800  29.484  33.606  1.00  0.00    -0.206 F 
ATOM     63  C   UNL A   1      46.696  26.589  35.591  1.00  0.00     0.006 A 
ENDBRANCH  39  56
ENDBRANCH  13  14
ENDBRANCH   6   8
ENDBRANCH   5   6
ENDBRANCH   4   5
ENDBRANCH   3   4
ENDBRANCH   2   3
ENDBRANCH   1   2
BRANCH   1  64
ATOM     64  C   UNL A   1      34.016  28.867  26.140  1.00  0.00     0.188 C 
BRANCH  64  65
ATOM     65  O   UNL A   1      33.048  28.281  25.279  1.00  0.00    -0.376 OA
BRANCH  65  66
ATOM     66  C   UNL A   1      32.420  29.197  24.382  1.00  0.00     0.202 C 
BRANCH  66  67
ATOM     67  C   UNL A   1      32.753  28.943  22.911  1.00  0.00     0.261 C 
BRANCH  67  68
ATOM     68  O   UNL A   1      32.323  27.642  22.455  1.00  0.00    -0.460 OA
BRANCH  68  69
ATOM     69  C   UNL A   1      30.992  27.387  22.511  1.00  0.00     0.338 C 
ATOM     70  O   UNL A   1      30.100  28.120  22.117  1.00  0.00    -0.246 OA
BRANCH  69  71
ATOM     71  C   UNL A   1      30.769  26.157  23.311  1.00  0.00     0.063 A 
ATOM     72  C   UNL A   1      30.216  26.303  24.587  1.00  0.00     0.016 A 
ATOM     73  C   UNL A   1      31.229  24.906  22.898  1.00  0.00     0.055 A 
ATOM     74  C   UNL A   1      30.279  25.243  25.500  1.00  0.00     0.013 A 
ATOM     75  C   UNL A   1      31.287  23.859  23.817  1.00  0.00     0.132 A 
ATOM     76  C   UNL A   1      30.927  24.045  25.153  1.00  0.00     0.042 A 
ATOM     77  F   UNL A   1      31.826  22.694  23.425  1.00  0.00    -0.206 F 
BRANCH  76  78
ATOM     78  C   UNL A   1      31.344  23.053  26.218  1.00  0.00     0.302 C 
BRANCH  78  79
ATOM     79  N   UNL A   1      32.515  23.369  27.061  1.00  0.00    -0.322 N 
ATOM     80  C   UNL A   1      33.037  22.258  27.865  1.00  0.00     0.324 C 
ATOM     81  C   UNL A   1      33.644  24.068  26.430  1.00  0.00     0.328 C 
ATOM     82  H   UNL A   1      32.063  24.045  27.677  1.00  0.00     0.348 HD
ATOM     83  C   UNL A   1      34.041  21.316  27.159  1.00  0.00     0.324 C 
ATOM     84  C   UNL A   1      34.568  23.162  25.586  1.00  0.00     0.239 C 
ATOM     85  N   UNL A   1      35.015  21.933  26.247  1.00  0.00    -0.323 N 
ATOM     86  C   UNL A   1      35.808  23.883  25.049  1.00  0.00     0.071 C 
ATOM     87  C   UNL A   1      35.524  20.988  25.247  1.00  0.00     0.262 C 
ATOM     88  H   UNL A   1      35.772  22.207  26.873  1.00  0.00     0.348 HD
ATOM     89  C   UNL A   1      36.537  23.000  24.029  1.00  0.00     0.012 C 
ATOM     90  C   UNL A   1      36.736  21.558  24.502  1.00  0.00     0.062 C 
ENDBRANCH  78  79
ENDBRANCH  76  78
ENDBRANCH  69  71
ENDBRANCH  68  69
ENDBRANCH  67  68
ENDBRANCH  66  67
ENDBRANCH  65  66
ENDBRANCH  64  65
ENDBRANCH   1  64
TORSDOF 19
ENDMDL
