MODEL 1
REMARK VINA RESULT:     -12.6      0.000      0.000
REMARK SMILES Cc1ccc(S(=O)(=O)N2c3ccc(C(=O)OCCOCCOCCOC(=O)c4ccc(-c5c6nc(c(-c7c(F)cccc7F)c7ccc([nH]7)c(-c7c(F)cccc7F)c7nc(c(-c8c(F)cccc8F)c8ccc5[nH]8)C=C7)C=C6)cc4)cc3C[C@H]2C)cc1
REMARK SMILES IDX 20 1 19 2 18 3 17 4 16 5 14 6 15 7 13 8 9 9 10 10 85 11
REMARK SMILES IDX 11 12 83 13 84 14 86 15 12 16 82 17 6 18 7 19 8 20 5 21 1 22
REMARK SMILES IDX 2 23 3 24 88 25 4 26 87 27 21 28 22 29 23 30 24 31 25 32
REMARK SMILES IDX 26 33 27 34 28 35 29 36 81 37 30 38 80 39 31 40 32 41 33 42
REMARK SMILES IDX 74 43 34 44 79 45 73 46 75 47 35 48 78 49 72 50 71 51 36 53
REMARK SMILES IDX 62 54 45 55 61 56 46 57 49 58 60 59 76 60 47 61 48 62 59 64
REMARK SMILES IDX 77 65 50 66 37 67 38 68 43 69 39 70 40 71 42 72 44 73 41 74
REMARK SMILES IDX 63 75 64 76 69 77 65 78 66 79 68 80 70 81 67 82 51 83 52 84
REMARK SMILES IDX 57 85 53 86 54 87 56 88 58 89 55 90
REMARK H PARENT 75 52 49 63
REMARK Flexibility Score: inf
ROOT
ATOM      1  C   UNL A   1      43.215  18.883  25.637  1.00  0.00     0.188 C 
ENDROOT
BRANCH   1   2
ATOM      2  O   UNL A   1      41.994  19.611  25.378  1.00  0.00    -0.376 OA
BRANCH   2   3
ATOM      3  C   UNL A   1      40.863  19.594  26.246  1.00  0.00     0.202 C 
BRANCH   3   4
ATOM      4  C   UNL A   1      39.262  19.343  25.736  1.00  0.00     0.261 C 
BRANCH   4   5
ATOM      5  O   UNL A   1      38.163  20.339  24.994  1.00  0.00    -0.460 OA
BRANCH   5   6
ATOM      6  C   UNL A   1      37.486  21.543  25.267  1.00  0.00     0.338 C 
ATOM      7  O   UNL A   1      37.938  22.603  25.677  1.00  0.00    -0.246 OA
BRANCH   6   8
ATOM      8  C   UNL A   1      36.029  21.788  25.054  1.00  0.00     0.060 A 
ATOM      9  N   UNL A   1      32.416  24.037  24.888  1.00  0.00    -0.263 N 
ATOM     10  C   UNL A   1      33.614  23.243  25.066  1.00  0.00     0.055 A 
ATOM     11  C   UNL A   1      32.276  24.140  23.368  1.00  0.00     0.101 C 
ATOM     12  C   UNL A   1      34.057  22.636  26.232  1.00  0.00     0.028 A 
ATOM     13  C   UNL A   1      34.356  23.176  23.898  1.00  0.00    -0.021 A 
ATOM     14  C   UNL A   1      33.721  24.012  22.821  1.00  0.00     0.063 C 
ATOM     15  C   UNL A   1      31.403  22.971  22.883  1.00  0.00     0.032 C 
ATOM     16  C   UNL A   1      35.264  21.911  26.223  1.00  0.00     0.018 A 
ATOM     17  C   UNL A   1      35.580  22.509  23.902  1.00  0.00     0.021 A 
BRANCH   9  18
ATOM     18  S   UNL A   1      32.529  25.588  25.673  1.00  0.00     0.264 S 
ATOM     19  O   UNL A   1      33.922  25.986  25.705  1.00  0.00    -0.201 OA
ATOM     20  O   UNL A   1      31.724  25.559  26.879  1.00  0.00    -0.201 OA
BRANCH  18  21
ATOM     21  C   UNL A   1      31.709  26.755  24.599  1.00  0.00     0.088 A 
ATOM     22  C   UNL A   1      29.963  29.704  21.990  1.00  0.00     0.044 C 
ATOM     23  C   UNL A   1      30.568  28.671  22.895  1.00  0.00    -0.051 A 
ATOM     24  C   UNL A   1      31.946  28.673  23.135  1.00  0.00     0.005 A 
ATOM     25  C   UNL A   1      29.765  27.721  23.541  1.00  0.00     0.005 A 
ATOM     26  C   UNL A   1      32.516  27.717  23.977  1.00  0.00     0.022 A 
ATOM     27  C   UNL A   1      30.331  26.768  24.396  1.00  0.00     0.022 A 
ENDBRANCH  18  21
ENDBRANCH   9  18
ENDBRANCH   6   8
ENDBRANCH   5   6
ENDBRANCH   4   5
ENDBRANCH   3   4
ENDBRANCH   2   3
ENDBRANCH   1   2
BRANCH   1  28
ATOM     28  C   UNL A   1      44.500  19.272  24.903  1.00  0.00     0.188 C 
BRANCH  28  29
ATOM     29  O   UNL A   1      44.233  20.404  24.095  1.00  0.00    -0.376 OA
BRANCH  29  30
ATOM     30  C   UNL A   1      45.109  21.503  24.264  1.00  0.00     0.202 C 
BRANCH  30  31
ATOM     31  C   UNL A   1      44.360  22.842  24.173  1.00  0.00     0.261 C 
BRANCH  31  32
ATOM     32  O   UNL A   1      43.026  22.705  24.728  1.00  0.00    -0.460 OA
BRANCH  32  33
ATOM     33  C   UNL A   1      42.872  22.935  26.071  1.00  0.00     0.338 C 
ATOM     34  O   UNL A   1      43.335  22.227  26.957  1.00  0.00    -0.246 OA
BRANCH  33  35
ATOM     35  C   UNL A   1      41.852  24.020  26.311  1.00  0.00     0.060 A 
ATOM     36  C   UNL A   1      41.922  25.332  25.814  1.00  0.00     0.016 A 
ATOM     37  C   UNL A   1      41.042  23.858  27.386  1.00  0.00     0.016 A 
ATOM     38  C   UNL A   1      41.299  26.459  26.509  1.00  0.00     0.010 A 
ATOM     39  C   UNL A   1      40.742  25.023  28.110  1.00  0.00     0.010 A 
ATOM     40  C   UNL A   1      40.724  26.365  27.783  1.00  0.00    -0.014 A 
BRANCH  40  41
ATOM     41  C   UNL A   1      40.478  27.505  28.862  1.00  0.00     0.031 A 
ATOM     42  C   UNL A   1      39.387  28.654  29.063  1.00  0.00     0.074 A 
ATOM     43  C   UNL A   1      41.403  27.597  29.846  1.00  0.00     0.049 A 
ATOM     44  N   UNL A   1      39.663  29.945  29.155  1.00  0.00    -0.248 NA
ATOM     45  C   UNL A   1      37.934  28.495  29.300  1.00  0.00     0.031 C 
ATOM     46  C   UNL A   1      41.387  28.476  31.015  1.00  0.00     0.029 A 
ATOM     47  N   UNL A   1      42.675  27.020  29.870  1.00  0.00    -0.354 N 
ATOM     48  C   UNL A   1      38.472  30.645  29.410  1.00  0.00     0.074 A 
ATOM     49  C   UNL A   1      37.417  29.717  29.310  1.00  0.00     0.031 C 
ATOM     50  C   UNL A   1      42.652  28.647  31.424  1.00  0.00     0.029 A 
ATOM     51  C   UNL A   1      43.516  27.952  30.487  1.00  0.00     0.049 A 
ATOM     52  H   UNL A   1      42.930  26.135  29.520  1.00  0.00     0.167 HD
ATOM     53  C   UNL A   1      38.322  31.900  29.911  1.00  0.00     0.037 A 
ATOM     54  C   UNL A   1      44.601  28.464  29.846  1.00  0.00     0.037 A 
ATOM     55  C   UNL A   1      39.538  32.321  30.524  1.00  0.00     0.049 A 
ATOM     56  C   UNL A   1      44.624  29.971  29.798  1.00  0.00     0.074 A 
ATOM     57  C   UNL A   1      40.004  32.160  31.816  1.00  0.00     0.029 A 
ATOM     58  N   UNL A   1      40.616  32.611  29.723  1.00  0.00    -0.354 N 
ATOM     59  N   UNL A   1      43.594  30.732  30.035  1.00  0.00    -0.248 NA
ATOM     60  C   UNL A   1      45.814  30.740  29.448  1.00  0.00     0.031 C 
ATOM     61  C   UNL A   1      41.405  32.327  31.784  1.00  0.00     0.029 A 
ATOM     62  C   UNL A   1      41.759  32.650  30.486  1.00  0.00     0.049 A 
ATOM     63  H   UNL A   1      40.576  32.767  28.752  1.00  0.00     0.167 HD
ATOM     64  C   UNL A   1      43.931  32.045  29.805  1.00  0.00     0.074 A 
ATOM     65  C   UNL A   1      45.342  31.998  29.487  1.00  0.00     0.031 C 
ATOM     66  C   UNL A   1      43.002  33.043  29.867  1.00  0.00     0.037 A 
BRANCH  53  67
ATOM     67  C   UNL A   1      36.946  32.487  30.155  1.00  0.00     0.057 A 
ATOM     68  C   UNL A   1      36.265  33.261  29.204  1.00  0.00     0.134 A 
ATOM     69  C   UNL A   1      36.293  32.358  31.400  1.00  0.00     0.134 A 
ATOM     70  F   UNL A   1      36.743  33.421  27.964  1.00  0.00    -0.206 F 
ATOM     71  C   UNL A   1      35.076  33.948  29.503  1.00  0.00     0.040 A 
ATOM     72  C   UNL A   1      35.121  33.063  31.722  1.00  0.00     0.040 A 
ATOM     73  F   UNL A   1      36.816  31.589  32.368  1.00  0.00    -0.206 F 
ATOM     74  C   UNL A   1      34.517  33.880  30.774  1.00  0.00     0.006 A 
ENDBRANCH  53  67
BRANCH  54  75
ATOM     75  C   UNL A   1      45.211  27.553  28.836  1.00  0.00     0.057 A 
ATOM     76  C   UNL A   1      45.998  26.474  29.285  1.00  0.00     0.134 A 
ATOM     77  C   UNL A   1      44.810  27.519  27.496  1.00  0.00     0.134 A 
ATOM     78  F   UNL A   1      46.415  26.431  30.562  1.00  0.00    -0.206 F 
ATOM     79  C   UNL A   1      46.292  25.372  28.477  1.00  0.00     0.040 A 
ATOM     80  C   UNL A   1      45.110  26.422  26.669  1.00  0.00     0.040 A 
ATOM     81  F   UNL A   1      44.014  28.474  26.996  1.00  0.00    -0.206 F 
ATOM     82  C   UNL A   1      45.828  25.334  27.168  1.00  0.00     0.006 A 
ENDBRANCH  54  75
BRANCH  66  83
ATOM     83  C   UNL A   1      43.103  34.477  29.384  1.00  0.00     0.057 A 
ATOM     84  C   UNL A   1      43.106  35.601  30.216  1.00  0.00     0.134 A 
ATOM     85  C   UNL A   1      43.390  34.755  28.018  1.00  0.00     0.134 A 
ATOM     86  F   UNL A   1      42.932  35.503  31.538  1.00  0.00    -0.206 F 
ATOM     87  C   UNL A   1      43.352  36.895  29.732  1.00  0.00     0.040 A 
ATOM     88  C   UNL A   1      43.706  36.028  27.540  1.00  0.00     0.040 A 
ATOM     89  F   UNL A   1      43.409  33.794  27.082  1.00  0.00    -0.206 F 
ATOM     90  C   UNL A   1      43.676  37.111  28.398  1.00  0.00     0.006 A 
ENDBRANCH  66  83
ENDBRANCH  40  41
ENDBRANCH  33  35
ENDBRANCH  32  33
ENDBRANCH  31  32
ENDBRANCH  30  31
ENDBRANCH  29  30
ENDBRANCH  28  29
ENDBRANCH   1  28
TORSDOF 19
ENDMDL
MODEL 2
REMARK VINA RESULT:     -12.2      4.232     10.123
REMARK SMILES Cc1ccc(S(=O)(=O)N2c3ccc(C(=O)OCCOCCOCCOC(=O)c4ccc(-c5c6nc(c(-c7c(F)cccc7F)c7ccc([nH]7)c(-c7c(F)cccc7F)c7nc(c(-c8c(F)cccc8F)c8ccc5[nH]8)C=C7)C=C6)cc4)cc3C[C@H]2C)cc1
REMARK SMILES IDX 20 1 19 2 18 3 17 4 16 5 14 6 15 7 13 8 9 9 10 10 85 11
REMARK SMILES IDX 11 12 83 13 84 14 86 15 12 16 82 17 6 18 7 19 8 20 5 21 1 22
REMARK SMILES IDX 2 23 3 24 88 25 4 26 87 27 21 28 22 29 23 30 24 31 25 32
REMARK SMILES IDX 26 33 27 34 28 35 29 36 81 37 30 38 80 39 31 40 32 41 33 42
REMARK SMILES IDX 74 43 34 44 79 45 73 46 75 47 35 48 78 49 72 50 71 51 36 53
REMARK SMILES IDX 62 54 45 55 61 56 46 57 49 58 60 59 76 60 47 61 48 62 59 64
REMARK SMILES IDX 77 65 50 66 37 67 38 68 43 69 39 70 40 71 42 72 44 73 41 74
REMARK SMILES IDX 63 75 64 76 69 77 65 78 66 79 68 80 70 81 67 82 51 83 52 84
REMARK SMILES IDX 57 85 53 86 54 87 56 88 58 89 55 90
REMARK H PARENT 75 52 49 63
REMARK Flexibility Score: inf
ROOT
ATOM      1  C   UNL A   1      33.235  36.143  29.050  1.00  0.00     0.188 C 
ENDROOT
BRANCH   1   2
ATOM      2  O   UNL A   1      33.517  34.893  28.382  1.00  0.00    -0.376 OA
BRANCH   2   3
ATOM      3  C   UNL A   1      34.618  34.050  28.711  1.00  0.00     0.202 C 
BRANCH   3   4
ATOM      4  C   UNL A   1      34.473  32.462  29.296  1.00  0.00     0.261 C 
BRANCH   4   5
ATOM      5  O   UNL A   1      35.171  31.035  28.821  1.00  0.00    -0.460 OA
BRANCH   5   6
ATOM      6  C   UNL A   1      35.185  30.201  27.686  1.00  0.00     0.338 C 
ATOM      7  O   UNL A   1      36.045  30.091  26.823  1.00  0.00    -0.246 OA
BRANCH   6   8
ATOM      8  C   UNL A   1      34.131  29.207  27.325  1.00  0.00     0.060 A 
ATOM      9  N   UNL A   1      31.792  26.728  24.771  1.00  0.00    -0.263 N 
ATOM     10  C   UNL A   1      32.496  27.661  25.626  1.00  0.00     0.055 A 
ATOM     11  C   UNL A   1      32.421  25.378  25.117  1.00  0.00     0.101 C 
ATOM     12  C   UNL A   1      32.151  28.976  25.903  1.00  0.00     0.028 A 
ATOM     13  C   UNL A   1      33.653  27.100  26.144  1.00  0.00    -0.021 A 
ATOM     14  C   UNL A   1      33.857  25.714  25.598  1.00  0.00     0.063 C 
ATOM     15  C   UNL A   1      31.602  24.739  26.250  1.00  0.00     0.032 C 
ATOM     16  C   UNL A   1      32.970  29.745  26.752  1.00  0.00     0.018 A 
ATOM     17  C   UNL A   1      34.496  27.879  26.936  1.00  0.00     0.021 A 
BRANCH   9  18
ATOM     18  S   UNL A   1      31.936  27.140  23.084  1.00  0.00     0.264 S 
ATOM     19  O   UNL A   1      31.605  25.970  22.295  1.00  0.00    -0.201 OA
ATOM     20  O   UNL A   1      33.180  27.857  22.886  1.00  0.00    -0.201 OA
BRANCH  18  21
ATOM     21  C   UNL A   1      30.655  28.337  22.749  1.00  0.00     0.088 A 
ATOM     22  C   UNL A   1      27.384  31.049  22.042  1.00  0.00     0.044 C 
ATOM     23  C   UNL A   1      28.528  30.109  22.291  1.00  0.00    -0.051 A 
ATOM     24  C   UNL A   1      28.317  28.927  23.007  1.00  0.00     0.005 A 
ATOM     25  C   UNL A   1      29.804  30.380  21.782  1.00  0.00     0.005 A 
ATOM     26  C   UNL A   1      29.374  28.046  23.241  1.00  0.00     0.022 A 
ATOM     27  C   UNL A   1      30.866  29.494  22.004  1.00  0.00     0.022 A 
ENDBRANCH  18  21
ENDBRANCH   9  18
ENDBRANCH   6   8
ENDBRANCH   5   6
ENDBRANCH   4   5
ENDBRANCH   3   4
ENDBRANCH   2   3
ENDBRANCH   1   2
BRANCH   1  28
ATOM     28  C   UNL A   1      32.794  36.138  30.515  1.00  0.00     0.188 C 
BRANCH  28  29
ATOM     29  O   UNL A   1      32.816  37.467  30.999  1.00  0.00    -0.376 OA
BRANCH  29  30
ATOM     30  C   UNL A   1      33.635  37.700  32.129  1.00  0.00     0.202 C 
BRANCH  30  31
ATOM     31  C   UNL A   1      33.635  36.498  33.086  1.00  0.00     0.261 C 
BRANCH  31  32
ATOM     32  O   UNL A   1      34.998  36.086  33.367  1.00  0.00    -0.460 OA
BRANCH  32  33
ATOM     33  C   UNL A   1      35.181  34.856  33.947  1.00  0.00     0.338 C 
ATOM     34  O   UNL A   1      35.157  34.645  35.153  1.00  0.00    -0.246 OA
BRANCH  33  35
ATOM     35  C   UNL A   1      35.667  33.854  32.929  1.00  0.00     0.060 A 
ATOM     36  C   UNL A   1      35.763  32.467  33.129  1.00  0.00     0.016 A 
ATOM     37  C   UNL A   1      36.431  34.343  31.921  1.00  0.00     0.016 A 
ATOM     38  C   UNL A   1      36.741  31.648  32.412  1.00  0.00     0.010 A 
ATOM     39  C   UNL A   1      37.504  33.532  31.517  1.00  0.00     0.010 A 
ATOM     40  C   UNL A   1      37.751  32.175  31.598  1.00  0.00    -0.014 A 
BRANCH  40  41
ATOM     41  C   UNL A   1      39.143  31.533  31.177  1.00  0.00     0.031 A 
ATOM     42  C   UNL A   1      39.592  30.350  30.202  1.00  0.00     0.074 A 
ATOM     43  C   UNL A   1      40.238  32.044  31.786  1.00  0.00     0.049 A 
ATOM     44  N   UNL A   1      40.298  29.296  30.577  1.00  0.00    -0.248 NA
ATOM     45  C   UNL A   1      39.419  30.269  28.735  1.00  0.00     0.031 C 
ATOM     46  C   UNL A   1      41.641  31.720  31.531  1.00  0.00     0.029 A 
ATOM     47  N   UNL A   1      40.275  32.845  32.930  1.00  0.00    -0.354 N 
ATOM     48  C   UNL A   1      40.576  28.513  29.444  1.00  0.00     0.074 A 
ATOM     49  C   UNL A   1      39.856  29.070  28.369  1.00  0.00     0.031 C 
ATOM     50  C   UNL A   1      42.342  32.006  32.637  1.00  0.00     0.029 A 
ATOM     51  C   UNL A   1      41.402  32.444  33.654  1.00  0.00     0.049 A 
ATOM     52  H   UNL A   1      39.634  33.552  33.178  1.00  0.00     0.167 HD
ATOM     53  C   UNL A   1      41.534  27.560  29.292  1.00  0.00     0.037 A 
ATOM     54  C   UNL A   1      41.299  31.970  34.925  1.00  0.00     0.037 A 
ATOM     55  C   UNL A   1      42.512  27.693  30.320  1.00  0.00     0.049 A 
ATOM     56  C   UNL A   1      41.925  30.612  35.121  1.00  0.00     0.074 A 
ATOM     57  C   UNL A   1      43.667  28.451  30.377  1.00  0.00     0.029 A 
ATOM     58  N   UNL A   1      42.170  27.352  31.606  1.00  0.00    -0.354 N 
ATOM     59  N   UNL A   1      42.248  29.803  34.153  1.00  0.00    -0.248 NA
ATOM     60  C   UNL A   1      42.211  30.048  36.436  1.00  0.00     0.031 C 
ATOM     61  C   UNL A   1      44.011  28.595  31.739  1.00  0.00     0.029 A 
ATOM     62  C   UNL A   1      43.096  27.870  32.480  1.00  0.00     0.049 A 
ATOM     63  H   UNL A   1      41.383  26.820  31.862  1.00  0.00     0.167 HD
ATOM     64  C   UNL A   1      42.697  28.614  34.680  1.00  0.00     0.074 A 
ATOM     65  C   UNL A   1      42.698  28.838  36.109  1.00  0.00     0.031 C 
ATOM     66  C   UNL A   1      42.993  27.546  33.883  1.00  0.00     0.037 A 
BRANCH  53  67
ATOM     67  C   UNL A   1      41.713  26.832  27.974  1.00  0.00     0.057 A 
ATOM     68  C   UNL A   1      42.360  27.402  26.867  1.00  0.00     0.134 A 
ATOM     69  C   UNL A   1      41.159  25.554  27.750  1.00  0.00     0.134 A 
ATOM     70  F   UNL A   1      42.977  28.586  26.955  1.00  0.00    -0.206 F 
ATOM     71  C   UNL A   1      42.363  26.794  25.601  1.00  0.00     0.040 A 
ATOM     72  C   UNL A   1      41.128  24.949  26.482  1.00  0.00     0.040 A 
ATOM     73  F   UNL A   1      40.570  24.880  28.751  1.00  0.00    -0.206 F 
ATOM     74  C   UNL A   1      41.716  25.581  25.394  1.00  0.00     0.006 A 
ENDBRANCH  53  67
BRANCH  54  75
ATOM     75  C   UNL A   1      40.146  32.515  35.698  1.00  0.00     0.057 A 
ATOM     76  C   UNL A   1      38.948  31.773  35.740  1.00  0.00     0.134 A 
ATOM     77  C   UNL A   1      40.270  33.556  36.624  1.00  0.00     0.134 A 
ATOM     78  F   UNL A   1      38.759  30.751  34.887  1.00  0.00    -0.206 F 
ATOM     79  C   UNL A   1      37.967  31.988  36.712  1.00  0.00     0.040 A 
ATOM     80  C   UNL A   1      39.284  33.791  37.599  1.00  0.00     0.040 A 
ATOM     81  F   UNL A   1      41.396  34.279  36.694  1.00  0.00    -0.206 F 
ATOM     82  C   UNL A   1      38.144  32.988  37.660  1.00  0.00     0.006 A 
ENDBRANCH  54  75
BRANCH  66  83
ATOM     83  C   UNL A   1      43.224  26.098  34.270  1.00  0.00     0.057 A 
ATOM     84  C   UNL A   1      42.290  25.288  34.924  1.00  0.00     0.134 A 
ATOM     85  C   UNL A   1      44.381  25.410  33.811  1.00  0.00     0.134 A 
ATOM     86  F   UNL A   1      41.114  25.763  35.347  1.00  0.00    -0.206 F 
ATOM     87  C   UNL A   1      42.496  23.914  35.125  1.00  0.00     0.040 A 
ATOM     88  C   UNL A   1      44.562  24.032  33.943  1.00  0.00     0.040 A 
ATOM     89  F   UNL A   1      45.384  26.039  33.180  1.00  0.00    -0.206 F 
ATOM     90  C   UNL A   1      43.620  23.276  34.615  1.00  0.00     0.006 A 
ENDBRANCH  66  83
ENDBRANCH  40  41
ENDBRANCH  33  35
ENDBRANCH  32  33
ENDBRANCH  31  32
ENDBRANCH  30  31
ENDBRANCH  29  30
ENDBRANCH  28  29
ENDBRANCH   1  28
TORSDOF 19
ENDMDL
MODEL 3
REMARK VINA RESULT:     -12.2      1.843      2.609
REMARK SMILES Cc1ccc(S(=O)(=O)N2c3ccc(C(=O)OCCOCCOCCOC(=O)c4ccc(-c5c6nc(c(-c7c(F)cccc7F)c7ccc([nH]7)c(-c7c(F)cccc7F)c7nc(c(-c8c(F)cccc8F)c8ccc5[nH]8)C=C7)C=C6)cc4)cc3C[C@H]2C)cc1
REMARK SMILES IDX 20 1 19 2 18 3 17 4 16 5 14 6 15 7 13 8 9 9 10 10 85 11
REMARK SMILES IDX 11 12 83 13 84 14 86 15 12 16 82 17 6 18 7 19 8 20 5 21 1 22
REMARK SMILES IDX 2 23 3 24 88 25 4 26 87 27 21 28 22 29 23 30 24 31 25 32
REMARK SMILES IDX 26 33 27 34 28 35 29 36 81 37 30 38 80 39 31 40 32 41 33 42
REMARK SMILES IDX 74 43 34 44 79 45 73 46 75 47 35 48 78 49 72 50 71 51 36 53
REMARK SMILES IDX 62 54 45 55 61 56 46 57 49 58 60 59 76 60 47 61 48 62 59 64
REMARK SMILES IDX 77 65 50 66 37 67 38 68 43 69 39 70 40 71 42 72 44 73 41 74
REMARK SMILES IDX 63 75 64 76 69 77 65 78 66 79 68 80 70 81 67 82 51 83 52 84
REMARK SMILES IDX 57 85 53 86 54 87 56 88 58 89 55 90
REMARK H PARENT 75 52 49 63
REMARK Flexibility Score: inf
ROOT
ATOM      1  C   UNL A   1      38.466  22.088  25.768  1.00  0.00     0.188 C 
ENDROOT
BRANCH   1   2
ATOM      2  O   UNL A   1      37.095  21.637  25.845  1.00  0.00    -0.376 OA
BRANCH   2   3
ATOM      3  C   UNL A   1      36.436  20.923  24.802  1.00  0.00     0.202 C 
BRANCH   3   4
ATOM      4  C   UNL A   1      36.163  19.246  24.807  1.00  0.00     0.261 C 
BRANCH   4   5
ATOM      5  O   UNL A   1      34.816  18.339  24.471  1.00  0.00    -0.460 OA
BRANCH   5   6
ATOM      6  C   UNL A   1      33.420  18.514  24.419  1.00  0.00     0.338 C 
ATOM      7  O   UNL A   1      32.541  17.667  24.346  1.00  0.00    -0.246 OA
BRANCH   6   8
ATOM      8  C   UNL A   1      32.705  19.822  24.495  1.00  0.00     0.060 A 
ATOM      9  N   UNL A   1      32.293  24.051  24.798  1.00  0.00    -0.263 N 
ATOM     10  C   UNL A   1      32.423  22.609  24.823  1.00  0.00     0.055 A 
ATOM     11  C   UNL A   1      31.916  24.352  23.347  1.00  0.00     0.101 C 
ATOM     12  C   UNL A   1      32.499  21.789  25.940  1.00  0.00     0.028 A 
ATOM     13  C   UNL A   1      32.516  22.085  23.544  1.00  0.00    -0.021 A 
ATOM     14  C   UNL A   1      32.526  23.190  22.522  1.00  0.00     0.063 C 
ATOM     15  C   UNL A   1      30.383  24.354  23.236  1.00  0.00     0.032 C 
ATOM     16  C   UNL A   1      32.641  20.398  25.772  1.00  0.00     0.018 A 
ATOM     17  C   UNL A   1      32.716  20.716  23.377  1.00  0.00     0.021 A 
BRANCH   9  18
ATOM     18  S   UNL A   1      33.752  24.854  25.310  1.00  0.00     0.264 S 
ATOM     19  O   UNL A   1      34.631  24.984  24.164  1.00  0.00    -0.201 OA
ATOM     20  O   UNL A   1      34.207  24.248  26.546  1.00  0.00    -0.201 OA
BRANCH  18  21
ATOM     21  C   UNL A   1      33.278  26.516  25.758  1.00  0.00     0.088 A 
ATOM     22  C   UNL A   1      31.898  30.427  26.919  1.00  0.00     0.044 C 
ATOM     23  C   UNL A   1      32.385  29.066  26.518  1.00  0.00    -0.051 A 
ATOM     24  C   UNL A   1      31.630  27.932  26.834  1.00  0.00     0.005 A 
ATOM     25  C   UNL A   1      33.573  28.913  25.791  1.00  0.00     0.005 A 
ATOM     26  C   UNL A   1      32.075  26.662  26.462  1.00  0.00     0.022 A 
ATOM     27  C   UNL A   1      34.018  27.642  25.406  1.00  0.00     0.022 A 
ENDBRANCH  18  21
ENDBRANCH   9  18
ENDBRANCH   6   8
ENDBRANCH   5   6
ENDBRANCH   4   5
ENDBRANCH   3   4
ENDBRANCH   2   3
ENDBRANCH   1   2
BRANCH   1  28
ATOM     28  C   UNL A   1      39.605  21.107  26.052  1.00  0.00     0.188 C 
BRANCH  28  29
ATOM     29  O   UNL A   1      40.115  21.369  27.346  1.00  0.00    -0.376 OA
BRANCH  29  30
ATOM     30  C   UNL A   1      41.442  20.942  27.585  1.00  0.00     0.202 C 
BRANCH  30  31
ATOM     31  C   UNL A   1      42.463  21.829  26.855  1.00  0.00     0.261 C 
BRANCH  31  32
ATOM     32  O   UNL A   1      42.297  23.213  27.260  1.00  0.00    -0.460 OA
BRANCH  32  33
ATOM     33  C   UNL A   1      42.277  24.165  26.272  1.00  0.00     0.338 C 
ATOM     34  O   UNL A   1      43.143  24.296  25.415  1.00  0.00    -0.246 OA
BRANCH  33  35
ATOM     35  C   UNL A   1      41.191  25.178  26.530  1.00  0.00     0.060 A 
ATOM     36  C   UNL A   1      41.113  26.457  25.955  1.00  0.00     0.016 A 
ATOM     37  C   UNL A   1      40.481  25.021  27.675  1.00  0.00     0.016 A 
ATOM     38  C   UNL A   1      40.451  27.573  26.633  1.00  0.00     0.010 A 
ATOM     39  C   UNL A   1      40.140  26.202  28.352  1.00  0.00     0.010 A 
ATOM     40  C   UNL A   1      39.984  27.515  27.951  1.00  0.00    -0.014 A 
BRANCH  40  41
ATOM     41  C   UNL A   1      39.725  28.698  28.980  1.00  0.00     0.031 A 
ATOM     42  C   UNL A   1      38.626  29.848  29.127  1.00  0.00     0.074 A 
ATOM     43  C   UNL A   1      40.644  28.838  29.964  1.00  0.00     0.049 A 
ATOM     44  N   UNL A   1      38.894  31.143  29.164  1.00  0.00    -0.248 NA
ATOM     45  C   UNL A   1      37.174  29.689  29.362  1.00  0.00     0.031 C 
ATOM     46  C   UNL A   1      40.617  29.765  31.094  1.00  0.00     0.029 A 
ATOM     47  N   UNL A   1      41.920  28.271  30.018  1.00  0.00    -0.354 N 
ATOM     48  C   UNL A   1      37.698  31.845  29.384  1.00  0.00     0.074 A 
ATOM     49  C   UNL A   1      36.648  30.907  29.318  1.00  0.00     0.031 C 
ATOM     50  C   UNL A   1      41.879  29.962  31.502  1.00  0.00     0.029 A 
ATOM     51  C   UNL A   1      42.752  29.233  30.600  1.00  0.00     0.049 A 
ATOM     52  H   UNL A   1      42.182  27.373  29.708  1.00  0.00     0.167 HD
ATOM     53  C   UNL A   1      37.537  33.120  29.830  1.00  0.00     0.037 A 
ATOM     54  C   UNL A   1      43.837  29.724  29.943  1.00  0.00     0.037 A 
ATOM     55  C   UNL A   1      38.747  33.574  30.431  1.00  0.00     0.049 A 
ATOM     56  C   UNL A   1      43.852  31.228  29.831  1.00  0.00     0.074 A 
ATOM     57  C   UNL A   1      39.207  33.471  31.731  1.00  0.00     0.029 A 
ATOM     58  N   UNL A   1      39.827  33.837  29.623  1.00  0.00    -0.354 N 
ATOM     59  N   UNL A   1      42.815  31.991  30.031  1.00  0.00    -0.248 NA
ATOM     60  C   UNL A   1      45.038  31.989  29.455  1.00  0.00     0.031 C 
ATOM     61  C   UNL A   1      40.607  33.646  31.698  1.00  0.00     0.029 A 
ATOM     62  C   UNL A   1      40.966  33.916  30.390  1.00  0.00     0.049 A 
ATOM     63  H   UNL A   1      39.792  33.951  28.647  1.00  0.00     0.167 HD
ATOM     64  C   UNL A   1      43.146  33.296  29.746  1.00  0.00     0.074 A 
ATOM     65  C   UNL A   1      44.558  33.244  29.437  1.00  0.00     0.031 C 
ATOM     66  C   UNL A   1      42.210  34.289  29.761  1.00  0.00     0.037 A 
BRANCH  53  67
ATOM     67  C   UNL A   1      36.156  33.708  30.042  1.00  0.00     0.057 A 
ATOM     68  C   UNL A   1      35.364  34.197  28.993  1.00  0.00     0.134 A 
ATOM     69  C   UNL A   1      35.610  33.877  31.333  1.00  0.00     0.134 A 
ATOM     70  F   UNL A   1      35.734  34.054  27.715  1.00  0.00    -0.206 F 
ATOM     71  C   UNL A   1      34.168  34.901  29.216  1.00  0.00     0.040 A 
ATOM     72  C   UNL A   1      34.432  34.605  31.573  1.00  0.00     0.040 A 
ATOM     73  F   UNL A   1      36.246  33.392  32.411  1.00  0.00    -0.206 F 
ATOM     74  C   UNL A   1      33.715  35.138  30.509  1.00  0.00     0.006 A 
ENDBRANCH  53  67
BRANCH  54  75
ATOM     75  C   UNL A   1      44.458  28.775  28.975  1.00  0.00     0.057 A 
ATOM     76  C   UNL A   1      45.327  27.779  29.467  1.00  0.00     0.134 A 
ATOM     77  C   UNL A   1      44.005  28.616  27.661  1.00  0.00     0.134 A 
ATOM     78  F   UNL A   1      45.797  27.857  30.723  1.00  0.00    -0.206 F 
ATOM     79  C   UNL A   1      45.652  26.637  28.729  1.00  0.00     0.040 A 
ATOM     80  C   UNL A   1      44.335  27.479  26.904  1.00  0.00     0.040 A 
ATOM     81  F   UNL A   1      43.133  29.484  27.130  1.00  0.00    -0.206 F 
ATOM     82  C   UNL A   1      45.137  26.474  27.448  1.00  0.00     0.006 A 
ENDBRANCH  54  75
BRANCH  66  83
ATOM     83  C   UNL A   1      42.305  35.703  29.218  1.00  0.00     0.057 A 
ATOM     84  C   UNL A   1      43.079  36.723  29.779  1.00  0.00     0.134 A 
ATOM     85  C   UNL A   1      41.727  36.026  27.958  1.00  0.00     0.134 A 
ATOM     86  F   UNL A   1      43.754  36.552  30.920  1.00  0.00    -0.206 F 
ATOM     87  C   UNL A   1      43.250  37.968  29.154  1.00  0.00     0.040 A 
ATOM     88  C   UNL A   1      41.949  37.235  27.296  1.00  0.00     0.040 A 
ATOM     89  F   UNL A   1      40.940  35.168  27.291  1.00  0.00    -0.206 F 
ATOM     90  C   UNL A   1      42.706  38.220  27.900  1.00  0.00     0.006 A 
ENDBRANCH  66  83
ENDBRANCH  40  41
ENDBRANCH  33  35
ENDBRANCH  32  33
ENDBRANCH  31  32
ENDBRANCH  30  31
ENDBRANCH  29  30
ENDBRANCH  28  29
ENDBRANCH   1  28
TORSDOF 19
ENDMDL
