MODEL 1
REMARK VINA RESULT:     -10.5      0.000      0.000
REMARK SMILES CC(=O)c1cc(C(=O)N(CC(=O)OCCOCCOCCOC(=O)c2ccc(-c3c4nc(c(-c5c(F)cccc5F)c5ccc([nH]5)c(-c5c(F)cccc5F)c5nc(c(-c6c(F)cccc6F)c6ccc3[nH]6)C=C5)C=C4)cc2)C(C)(C)C)n(C)c1
REMARK SMILES IDX 17 1 16 2 15 3 14 4 13 5 11 6 12 7 10 8 9 9 7 10 8 11 6 12
REMARK SMILES IDX 4 13 5 14 85 15 83 16 84 17 2 18 1 19 3 20 79 21 80 22 81 23
REMARK SMILES IDX 82 24 18 25 19 26 20 27 21 28 22 29 23 30 24 31 25 32 26 33
REMARK SMILES IDX 78 34 27 35 77 36 28 37 29 38 30 39 71 40 31 41 76 42 70 43
REMARK SMILES IDX 72 44 32 45 75 46 69 47 68 48 33 50 59 51 42 52 58 53 43 54
REMARK SMILES IDX 46 55 57 56 73 57 44 58 45 59 56 61 74 62 47 63 34 64 35 65
REMARK SMILES IDX 40 66 36 67 37 68 39 69 41 70 38 71 60 72 61 73 66 74 62 75
REMARK SMILES IDX 63 76 65 77 67 78 64 79 48 80 49 81 54 82 50 83 51 84 53 85
REMARK SMILES IDX 55 86 52 87
REMARK H PARENT 72 49 46 60
REMARK Flexibility Score: inf
ROOT
ATOM      1  C   UNL A   1      38.864  20.920  25.655  1.00  0.00     0.188 C 
ENDROOT
BRANCH   1   2
ATOM      2  O   UNL A   1      37.657  20.406  25.098  1.00  0.00    -0.376 OA
BRANCH   2   3
ATOM      3  C   UNL A   1      36.448  21.116  25.312  1.00  0.00     0.202 C 
BRANCH   3   4
ATOM      4  C   UNL A   1      36.633  22.565  25.778  1.00  0.00     0.261 C 
BRANCH   4   5
ATOM      5  O   UNL A   1      36.911  23.529  24.734  1.00  0.00    -0.462 OA
BRANCH   5   6
ATOM      6  C   UNL A   1      36.046  23.486  23.690  1.00  0.00     0.325 C 
ATOM      7  O   UNL A   1      36.326  23.038  22.580  1.00  0.00    -0.250 OA
BRANCH   6   8
ATOM      8  C   UNL A   1      34.779  24.325  23.869  1.00  0.00     0.243 C 
BRANCH   8   9
ATOM      9  N   UNL A   1      33.455  24.350  23.213  1.00  0.00    -0.321 N 
BRANCH   9  10
ATOM     10  C   UNL A   1      33.089  25.352  22.299  1.00  0.00     0.271 C 
ATOM     11  O   UNL A   1      33.340  25.202  21.101  1.00  0.00    -0.267 OA
BRANCH  10  12
ATOM     12  C   UNL A   1      32.396  26.578  22.706  1.00  0.00     0.107 A 
ATOM     13  C   UNL A   1      30.730  28.164  22.670  1.00  0.00     0.036 A 
ATOM     14  C   UNL A   1      31.202  26.961  22.100  1.00  0.00     0.045 A 
ATOM     15  C   UNL A   1      31.670  28.516  23.613  1.00  0.00     0.097 A 
ATOM     16  N   UNL A   1      32.720  27.627  23.555  1.00  0.00    -0.346 N 
ATOM     17  C   UNL A   1      33.952  27.897  24.270  1.00  0.00     0.150 C 
BRANCH  13  18
ATOM     18  C   UNL A   1      29.520  28.912  22.349  1.00  0.00     0.161 C 
ATOM     19  C   UNL A   1      28.241  28.487  23.027  1.00  0.00     0.093 C 
ATOM     20  O   UNL A   1      29.537  29.866  21.573  1.00  0.00    -0.294 OA
ENDBRANCH  13  18
ENDBRANCH  10  12
ENDBRANCH   9  10
BRANCH   9  21
ATOM     21  C   UNL A   1      32.453  23.253  23.472  1.00  0.00     0.036 C 
ATOM     22  C   UNL A   1      32.663  22.627  24.866  1.00  0.00     0.034 C 
ATOM     23  C   UNL A   1      30.979  23.747  23.377  1.00  0.00     0.034 C 
ATOM     24  C   UNL A   1      32.536  22.153  22.407  1.00  0.00     0.034 C 
ENDBRANCH   9  21
ENDBRANCH   8   9
ENDBRANCH   6   8
ENDBRANCH   5   6
ENDBRANCH   4   5
ENDBRANCH   3   4
ENDBRANCH   2   3
ENDBRANCH   1   2
BRANCH   1  25
ATOM     25  C   UNL A   1      39.996  19.959  26.022  1.00  0.00     0.188 C 
BRANCH  25  26
ATOM     26  O   UNL A   1      40.983  20.619  26.811  1.00  0.00    -0.376 OA
BRANCH  26  27
ATOM     27  C   UNL A   1      42.292  20.111  26.579  1.00  0.00     0.202 C 
BRANCH  27  28
ATOM     28  C   UNL A   1      43.087  21.092  25.713  1.00  0.00     0.261 C 
BRANCH  28  29
ATOM     29  O   UNL A   1      42.346  22.269  25.321  1.00  0.00    -0.460 OA
BRANCH  29  30
ATOM     30  C   UNL A   1      43.053  23.411  25.228  1.00  0.00     0.338 C 
ATOM     31  O   UNL A   1      44.005  23.627  24.489  1.00  0.00    -0.246 OA
BRANCH  30  32
ATOM     32  C   UNL A   1      42.433  24.456  26.064  1.00  0.00     0.060 A 
ATOM     33  C   UNL A   1      42.882  25.766  25.916  1.00  0.00     0.016 A 
ATOM     34  C   UNL A   1      41.532  24.149  27.079  1.00  0.00     0.016 A 
ATOM     35  C   UNL A   1      42.517  26.764  26.818  1.00  0.00     0.010 A 
ATOM     36  C   UNL A   1      41.125  25.159  27.963  1.00  0.00     0.010 A 
ATOM     37  C   UNL A   1      41.645  26.467  27.870  1.00  0.00    -0.014 A 
BRANCH  37  38
ATOM     38  C   UNL A   1      41.365  27.473  28.936  1.00  0.00     0.031 A 
ATOM     39  C   UNL A   1      42.216  27.479  30.180  1.00  0.00     0.074 A 
ATOM     40  C   UNL A   1      40.391  28.394  28.806  1.00  0.00     0.049 A 
ATOM     41  N   UNL A   1      42.013  28.078  31.325  1.00  0.00    -0.248 NA
ATOM     42  C   UNL A   1      43.461  26.697  30.122  1.00  0.00     0.031 C 
ATOM     43  C   UNL A   1      39.552  28.587  27.623  1.00  0.00     0.029 A 
ATOM     44  N   UNL A   1      39.936  29.342  29.693  1.00  0.00    -0.354 N 
ATOM     45  C   UNL A   1      43.068  27.692  32.145  1.00  0.00     0.074 A 
ATOM     46  C   UNL A   1      43.914  26.819  31.362  1.00  0.00     0.031 C 
ATOM     47  C   UNL A   1      38.691  29.591  27.854  1.00  0.00     0.029 A 
ATOM     48  C   UNL A   1      38.856  30.055  29.229  1.00  0.00     0.049 A 
ATOM     49  H   UNL A   1      40.344  29.495  30.576  1.00  0.00     0.167 HD
ATOM     50  C   UNL A   1      43.302  28.029  33.436  1.00  0.00     0.037 A 
ATOM     51  C   UNL A   1      38.054  30.938  29.855  1.00  0.00     0.037 A 
ATOM     52  C   UNL A   1      42.486  28.941  34.196  1.00  0.00     0.049 A 
ATOM     53  C   UNL A   1      38.289  31.251  31.307  1.00  0.00     0.074 A 
ATOM     54  C   UNL A   1      42.632  29.339  35.514  1.00  0.00     0.029 A 
ATOM     55  N   UNL A   1      41.381  29.612  33.694  1.00  0.00    -0.354 N 
ATOM     56  N   UNL A   1      39.232  30.812  32.106  1.00  0.00    -0.248 NA
ATOM     57  C   UNL A   1      37.332  32.162  31.955  1.00  0.00     0.031 C 
ATOM     58  C   UNL A   1      41.595  30.227  35.820  1.00  0.00     0.029 A 
ATOM     59  C   UNL A   1      40.830  30.413  34.680  1.00  0.00     0.049 A 
ATOM     60  H   UNL A   1      41.040  29.531  32.775  1.00  0.00     0.167 HD
ATOM     61  C   UNL A   1      38.992  31.402  33.340  1.00  0.00     0.074 A 
ATOM     62  C   UNL A   1      37.825  32.243  33.184  1.00  0.00     0.031 C 
ATOM     63  C   UNL A   1      39.675  31.256  34.502  1.00  0.00     0.037 A 
BRANCH  50  64
ATOM     64  C   UNL A   1      44.459  27.367  34.125  1.00  0.00     0.057 A 
ATOM     65  C   UNL A   1      44.348  26.116  34.743  1.00  0.00     0.134 A 
ATOM     66  C   UNL A   1      45.714  27.992  34.150  1.00  0.00     0.134 A 
ATOM     67  F   UNL A   1      43.171  25.474  34.769  1.00  0.00    -0.206 F 
ATOM     68  C   UNL A   1      45.437  25.520  35.381  1.00  0.00     0.040 A 
ATOM     69  C   UNL A   1      46.815  27.394  34.764  1.00  0.00     0.040 A 
ATOM     70  F   UNL A   1      45.891  29.190  33.573  1.00  0.00    -0.206 F 
ATOM     71  C   UNL A   1      46.677  26.157  35.388  1.00  0.00     0.006 A 
ENDBRANCH  50  64
BRANCH  51  72
ATOM     72  C   UNL A   1      36.907  31.546  29.130  1.00  0.00     0.057 A 
ATOM     73  C   UNL A   1      35.734  30.821  28.890  1.00  0.00     0.134 A 
ATOM     74  C   UNL A   1      36.962  32.860  28.648  1.00  0.00     0.134 A 
ATOM     75  F   UNL A   1      35.632  29.548  29.299  1.00  0.00    -0.206 F 
ATOM     76  C   UNL A   1      34.660  31.378  28.194  1.00  0.00     0.040 A 
ATOM     77  C   UNL A   1      35.885  33.439  27.974  1.00  0.00     0.040 A 
ATOM     78  F   UNL A   1      38.060  33.605  28.839  1.00  0.00    -0.206 F 
ATOM     79  C   UNL A   1      34.731  32.694  27.741  1.00  0.00     0.006 A 
ENDBRANCH  51  72
BRANCH  63  80
ATOM     80  C   UNL A   1      39.202  32.052  35.682  1.00  0.00     0.057 A 
ATOM     81  C   UNL A   1      39.586  33.385  35.875  1.00  0.00     0.134 A 
ATOM     82  C   UNL A   1      38.318  31.490  36.611  1.00  0.00     0.134 A 
ATOM     83  F   UNL A   1      40.441  33.974  35.026  1.00  0.00    -0.206 F 
ATOM     84  C   UNL A   1      39.117  34.127  36.960  1.00  0.00     0.040 A 
ATOM     85  C   UNL A   1      37.826  32.227  37.688  1.00  0.00     0.040 A 
ATOM     86  F   UNL A   1      37.906  30.220  36.477  1.00  0.00    -0.206 F 
ATOM     87  C   UNL A   1      38.230  33.549  37.867  1.00  0.00     0.006 A 
ENDBRANCH  63  80
ENDBRANCH  37  38
ENDBRANCH  30  32
ENDBRANCH  29  30
ENDBRANCH  28  29
ENDBRANCH  27  28
ENDBRANCH  26  27
ENDBRANCH  25  26
ENDBRANCH   1  25
TORSDOF 22
ENDMDL
MODEL 2
REMARK VINA RESULT:     -10.1      1.050      2.022
REMARK SMILES CC(=O)c1cc(C(=O)N(CC(=O)OCCOCCOCCOC(=O)c2ccc(-c3c4nc(c(-c5c(F)cccc5F)c5ccc([nH]5)c(-c5c(F)cccc5F)c5nc(c(-c6c(F)cccc6F)c6ccc3[nH]6)C=C5)C=C4)cc2)C(C)(C)C)n(C)c1
REMARK SMILES IDX 17 1 16 2 15 3 14 4 13 5 11 6 12 7 10 8 9 9 7 10 8 11 6 12
REMARK SMILES IDX 4 13 5 14 85 15 83 16 84 17 2 18 1 19 3 20 79 21 80 22 81 23
REMARK SMILES IDX 82 24 18 25 19 26 20 27 21 28 22 29 23 30 24 31 25 32 26 33
REMARK SMILES IDX 78 34 27 35 77 36 28 37 29 38 30 39 71 40 31 41 76 42 70 43
REMARK SMILES IDX 72 44 32 45 75 46 69 47 68 48 33 50 59 51 42 52 58 53 43 54
REMARK SMILES IDX 46 55 57 56 73 57 44 58 45 59 56 61 74 62 47 63 34 64 35 65
REMARK SMILES IDX 40 66 36 67 37 68 39 69 41 70 38 71 60 72 61 73 66 74 62 75
REMARK SMILES IDX 63 76 65 77 67 78 64 79 48 80 49 81 54 82 50 83 51 84 53 85
REMARK SMILES IDX 55 86 52 87
REMARK H PARENT 72 49 46 60
REMARK Flexibility Score: inf
ROOT
ATOM      1  C   UNL A   1      38.581  21.296  25.672  1.00  0.00     0.188 C 
ENDROOT
BRANCH   1   2
ATOM      2  O   UNL A   1      37.426  20.812  24.992  1.00  0.00    -0.376 OA
BRANCH   2   3
ATOM      3  C   UNL A   1      36.200  21.509  25.144  1.00  0.00     0.202 C 
BRANCH   3   4
ATOM      4  C   UNL A   1      36.334  22.910  25.756  1.00  0.00     0.261 C 
BRANCH   4   5
ATOM      5  O   UNL A   1      36.179  24.014  24.832  1.00  0.00    -0.462 OA
BRANCH   5   6
ATOM      6  C   UNL A   1      34.899  24.238  24.441  1.00  0.00     0.325 C 
ATOM      7  O   UNL A   1      34.518  24.197  23.273  1.00  0.00    -0.250 OA
BRANCH   6   8
ATOM      8  C   UNL A   1      34.000  24.867  25.507  1.00  0.00     0.243 C 
BRANCH   8   9
ATOM      9  N   UNL A   1      32.613  25.375  25.520  1.00  0.00    -0.321 N 
BRANCH   9  10
ATOM     10  C   UNL A   1      32.315  26.737  25.700  1.00  0.00     0.271 C 
ATOM     11  O   UNL A   1      32.335  27.217  26.835  1.00  0.00    -0.267 OA
BRANCH  10  12
ATOM     12  C   UNL A   1      31.992  27.629  24.583  1.00  0.00     0.107 A 
ATOM     13  C   UNL A   1      30.642  28.945  23.264  1.00  0.00     0.036 A 
ATOM     14  C   UNL A   1      30.694  28.100  24.394  1.00  0.00     0.045 A 
ATOM     15  C   UNL A   1      31.923  28.959  22.758  1.00  0.00     0.097 A 
ATOM     16  N   UNL A   1      32.702  28.085  23.482  1.00  0.00    -0.346 N 
ATOM     17  C   UNL A   1      34.028  27.724  23.017  1.00  0.00     0.150 C 
BRANCH  13  18
ATOM     18  C   UNL A   1      29.497  29.658  22.711  1.00  0.00     0.161 C 
ATOM     19  C   UNL A   1      28.975  30.842  23.488  1.00  0.00     0.093 C 
ATOM     20  O   UNL A   1      28.983  29.327  21.644  1.00  0.00    -0.294 OA
ENDBRANCH  13  18
ENDBRANCH  10  12
ENDBRANCH   9  10
BRANCH   9  21
ATOM     21  C   UNL A   1      31.453  24.440  25.289  1.00  0.00     0.036 C 
ATOM     22  C   UNL A   1      31.059  24.403  23.797  1.00  0.00     0.034 C 
ATOM     23  C   UNL A   1      31.752  22.982  25.750  1.00  0.00     0.034 C 
ATOM     24  C   UNL A   1      30.232  24.841  26.124  1.00  0.00     0.034 C 
ENDBRANCH   9  21
ENDBRANCH   8   9
ENDBRANCH   6   8
ENDBRANCH   5   6
ENDBRANCH   4   5
ENDBRANCH   3   4
ENDBRANCH   2   3
ENDBRANCH   1   2
BRANCH   1  25
ATOM     25  C   UNL A   1      39.709  20.327  26.029  1.00  0.00     0.188 C 
BRANCH  25  26
ATOM     26  O   UNL A   1      40.588  20.907  26.990  1.00  0.00    -0.376 OA
BRANCH  26  27
ATOM     27  C   UNL A   1      41.889  20.332  26.950  1.00  0.00     0.202 C 
BRANCH  27  28
ATOM     28  C   UNL A   1      42.742  21.042  25.895  1.00  0.00     0.261 C 
BRANCH  28  29
ATOM     29  O   UNL A   1      42.154  22.258  25.380  1.00  0.00    -0.460 OA
BRANCH  29  30
ATOM     30  C   UNL A   1      42.951  23.342  25.369  1.00  0.00     0.338 C 
ATOM     31  O   UNL A   1      43.973  23.496  24.711  1.00  0.00    -0.246 OA
BRANCH  30  32
ATOM     32  C   UNL A   1      42.347  24.419  26.177  1.00  0.00     0.060 A 
ATOM     33  C   UNL A   1      42.875  25.702  26.058  1.00  0.00     0.016 A 
ATOM     34  C   UNL A   1      41.379  24.159  27.142  1.00  0.00     0.016 A 
ATOM     35  C   UNL A   1      42.518  26.717  26.945  1.00  0.00     0.010 A 
ATOM     36  C   UNL A   1      40.983  25.189  28.010  1.00  0.00     0.010 A 
ATOM     37  C   UNL A   1      41.579  26.467  27.949  1.00  0.00    -0.014 A 
BRANCH  37  38
ATOM     38  C   UNL A   1      41.300  27.484  29.004  1.00  0.00     0.031 A 
ATOM     39  C   UNL A   1      42.143  27.495  30.253  1.00  0.00     0.074 A 
ATOM     40  C   UNL A   1      40.333  28.411  28.860  1.00  0.00     0.049 A 
ATOM     41  N   UNL A   1      41.939  28.107  31.392  1.00  0.00    -0.248 NA
ATOM     42  C   UNL A   1      43.383  26.704  30.209  1.00  0.00     0.031 C 
ATOM     43  C   UNL A   1      39.503  28.599  27.671  1.00  0.00     0.029 A 
ATOM     44  N   UNL A   1      39.880  29.370  29.736  1.00  0.00    -0.354 N 
ATOM     45  C   UNL A   1      42.985  27.721  32.221  1.00  0.00     0.074 A 
ATOM     46  C   UNL A   1      43.830  26.834  31.451  1.00  0.00     0.031 C 
ATOM     47  C   UNL A   1      38.648  29.611  27.888  1.00  0.00     0.029 A 
ATOM     48  C   UNL A   1      38.808  30.087  29.259  1.00  0.00     0.049 A 
ATOM     49  H   UNL A   1      40.285  29.528  30.619  1.00  0.00     0.167 HD
ATOM     50  C   UNL A   1      43.214  28.068  33.510  1.00  0.00     0.037 A 
ATOM     51  C   UNL A   1      38.009  30.982  29.872  1.00  0.00     0.037 A 
ATOM     52  C   UNL A   1      42.401  28.992  34.257  1.00  0.00     0.049 A 
ATOM     53  C   UNL A   1      38.238  31.306  31.323  1.00  0.00     0.074 A 
ATOM     54  C   UNL A   1      42.542  29.401  35.572  1.00  0.00     0.029 A 
ATOM     55  N   UNL A   1      41.304  29.666  33.743  1.00  0.00    -0.354 N 
ATOM     56  N   UNL A   1      39.173  30.867  32.131  1.00  0.00    -0.248 NA
ATOM     57  C   UNL A   1      37.284  32.229  31.957  1.00  0.00     0.031 C 
ATOM     58  C   UNL A   1      41.511  30.300  35.864  1.00  0.00     0.029 A 
ATOM     59  C   UNL A   1      40.753  30.481  34.718  1.00  0.00     0.049 A 
ATOM     60  H   UNL A   1      40.968  29.580  32.823  1.00  0.00     0.167 HD
ATOM     61  C   UNL A   1      38.930  31.470  33.359  1.00  0.00     0.074 A 
ATOM     62  C   UNL A   1      37.770  32.319  33.187  1.00  0.00     0.031 C 
ATOM     63  C   UNL A   1      39.605  31.330  34.525  1.00  0.00     0.037 A 
BRANCH  50  64
ATOM     64  C   UNL A   1      44.363  27.403  34.212  1.00  0.00     0.057 A 
ATOM     65  C   UNL A   1      45.637  27.979  34.276  1.00  0.00     0.134 A 
ATOM     66  C   UNL A   1      44.177  26.171  34.854  1.00  0.00     0.134 A 
ATOM     67  F   UNL A   1      45.885  29.148  33.668  1.00  0.00    -0.206 F 
ATOM     68  C   UNL A   1      46.692  27.341  34.931  1.00  0.00     0.040 A 
ATOM     69  C   UNL A   1      45.218  25.536  35.533  1.00  0.00     0.040 A 
ATOM     70  F   UNL A   1      42.979  25.566  34.836  1.00  0.00    -0.206 F 
ATOM     71  C   UNL A   1      46.482  26.118  35.568  1.00  0.00     0.006 A 
ENDBRANCH  50  64
BRANCH  51  72
ATOM     72  C   UNL A   1      36.871  31.590  29.135  1.00  0.00     0.057 A 
ATOM     73  C   UNL A   1      36.925  32.914  28.681  1.00  0.00     0.134 A 
ATOM     74  C   UNL A   1      35.697  30.870  28.878  1.00  0.00     0.134 A 
ATOM     75  F   UNL A   1      38.009  33.666  28.922  1.00  0.00    -0.206 F 
ATOM     76  C   UNL A   1      35.854  33.499  28.004  1.00  0.00     0.040 A 
ATOM     77  C   UNL A   1      34.629  31.434  28.179  1.00  0.00     0.040 A 
ATOM     78  F   UNL A   1      35.579  29.600  29.293  1.00  0.00    -0.206 F 
ATOM     79  C   UNL A   1      34.705  32.755  27.744  1.00  0.00     0.006 A 
ENDBRANCH  51  72
BRANCH  63  80
ATOM     80  C   UNL A   1      39.132  32.140  35.695  1.00  0.00     0.057 A 
ATOM     81  C   UNL A   1      38.260  31.611  36.655  1.00  0.00     0.134 A 
ATOM     82  C   UNL A   1      39.590  33.450  35.886  1.00  0.00     0.134 A 
ATOM     83  F   UNL A   1      37.777  30.367  36.521  1.00  0.00    -0.206 F 
ATOM     84  C   UNL A   1      37.848  32.363  37.757  1.00  0.00     0.040 A 
ATOM     85  C   UNL A   1      39.202  34.203  36.994  1.00  0.00     0.040 A 
ATOM     86  F   UNL A   1      40.433  34.011  35.006  1.00  0.00    -0.206 F 
ATOM     87  C   UNL A   1      38.324  33.661  37.931  1.00  0.00     0.006 A 
ENDBRANCH  63  80
ENDBRANCH  37  38
ENDBRANCH  30  32
ENDBRANCH  29  30
ENDBRANCH  28  29
ENDBRANCH  27  28
ENDBRANCH  26  27
ENDBRANCH  25  26
ENDBRANCH   1  25
TORSDOF 22
ENDMDL
MODEL 3
REMARK VINA RESULT:      -9.8      1.983      6.735
REMARK SMILES CC(=O)c1cc(C(=O)N(CC(=O)OCCOCCOCCOC(=O)c2ccc(-c3c4nc(c(-c5c(F)cccc5F)c5ccc([nH]5)c(-c5c(F)cccc5F)c5nc(c(-c6c(F)cccc6F)c6ccc3[nH]6)C=C5)C=C4)cc2)C(C)(C)C)n(C)c1
REMARK SMILES IDX 17 1 16 2 15 3 14 4 13 5 11 6 12 7 10 8 9 9 7 10 8 11 6 12
REMARK SMILES IDX 4 13 5 14 85 15 83 16 84 17 2 18 1 19 3 20 79 21 80 22 81 23
REMARK SMILES IDX 82 24 18 25 19 26 20 27 21 28 22 29 23 30 24 31 25 32 26 33
REMARK SMILES IDX 78 34 27 35 77 36 28 37 29 38 30 39 71 40 31 41 76 42 70 43
REMARK SMILES IDX 72 44 32 45 75 46 69 47 68 48 33 50 59 51 42 52 58 53 43 54
REMARK SMILES IDX 46 55 57 56 73 57 44 58 45 59 56 61 74 62 47 63 34 64 35 65
REMARK SMILES IDX 40 66 36 67 37 68 39 69 41 70 38 71 60 72 61 73 66 74 62 75
REMARK SMILES IDX 63 76 65 77 67 78 64 79 48 80 49 81 54 82 50 83 51 84 53 85
REMARK SMILES IDX 55 86 52 87
REMARK H PARENT 72 49 46 60
REMARK Flexibility Score: inf
ROOT
ATOM      1  C   UNL A   1      36.740  21.991  25.407  1.00  0.00     0.188 C 
ENDROOT
BRANCH   1   2
ATOM      2  O   UNL A   1      36.484  23.287  24.871  1.00  0.00    -0.376 OA
BRANCH   2   3
ATOM      3  C   UNL A   1      35.526  23.422  23.834  1.00  0.00     0.202 C 
BRANCH   3   4
ATOM      4  C   UNL A   1      34.089  23.078  24.244  1.00  0.00     0.261 C 
BRANCH   4   5
ATOM      5  O   UNL A   1      33.188  24.204  24.373  1.00  0.00    -0.462 OA
BRANCH   5   6
ATOM      6  C   UNL A   1      33.084  24.693  25.634  1.00  0.00     0.325 C 
ATOM      7  O   UNL A   1      32.417  24.170  26.524  1.00  0.00    -0.250 OA
BRANCH   6   8
ATOM      8  C   UNL A   1      33.589  26.126  25.813  1.00  0.00     0.243 C 
BRANCH   8   9
ATOM      9  N   UNL A   1      33.087  27.457  25.409  1.00  0.00    -0.321 N 
BRANCH   9  10
ATOM     10  C   UNL A   1      32.644  27.727  24.103  1.00  0.00     0.271 C 
ATOM     11  O   UNL A   1      33.466  27.812  23.189  1.00  0.00    -0.267 OA
BRANCH  10  12
ATOM     12  C   UNL A   1      31.227  27.898  23.770  1.00  0.00     0.107 A 
ATOM     13  C   UNL A   1      29.385  28.972  22.907  1.00  0.00     0.036 A 
ATOM     14  C   UNL A   1      30.778  29.049  23.125  1.00  0.00     0.045 A 
ATOM     15  C   UNL A   1      28.994  27.767  23.450  1.00  0.00     0.097 A 
ATOM     16  N   UNL A   1      30.078  27.180  24.064  1.00  0.00    -0.346 N 
ATOM     17  C   UNL A   1      29.899  26.022  24.919  1.00  0.00     0.150 C 
BRANCH  13  18
ATOM     18  C   UNL A   1      28.508  29.941  22.260  1.00  0.00     0.161 C 
ATOM     19  C   UNL A   1      27.642  30.796  23.152  1.00  0.00     0.093 C 
ATOM     20  O   UNL A   1      28.485  30.078  21.038  1.00  0.00    -0.294 OA
ENDBRANCH  13  18
ENDBRANCH  10  12
ENDBRANCH   9  10
BRANCH   9  21
ATOM     21  C   UNL A   1      32.989  28.574  26.416  1.00  0.00     0.036 C 
ATOM     22  C   UNL A   1      34.289  28.697  27.238  1.00  0.00     0.034 C 
ATOM     23  C   UNL A   1      32.697  29.956  25.758  1.00  0.00     0.034 C 
ATOM     24  C   UNL A   1      31.807  28.370  27.370  1.00  0.00     0.034 C 
ENDBRANCH   9  21
ENDBRANCH   8   9
ENDBRANCH   6   8
ENDBRANCH   5   6
ENDBRANCH   4   5
ENDBRANCH   3   4
ENDBRANCH   2   3
ENDBRANCH   1   2
BRANCH   1  25
ATOM     25  C   UNL A   1      38.162  21.430  25.381  1.00  0.00     0.188 C 
BRANCH  25  26
ATOM     26  O   UNL A   1      38.958  22.026  26.403  1.00  0.00    -0.376 OA
BRANCH  26  27
ATOM     27  C   UNL A   1      40.270  21.478  26.457  1.00  0.00     0.202 C 
BRANCH  27  28
ATOM     28  C   UNL A   1      41.309  22.603  26.404  1.00  0.00     0.261 C 
BRANCH  28  29
ATOM     29  O   UNL A   1      40.749  23.913  26.162  1.00  0.00    -0.460 OA
BRANCH  29  30
ATOM     30  C   UNL A   1      41.603  24.949  26.259  1.00  0.00     0.338 C 
ATOM     31  O   UNL A   1      42.613  25.133  25.591  1.00  0.00    -0.246 OA
BRANCH  30  32
ATOM     32  C   UNL A   1      41.081  25.943  27.215  1.00  0.00     0.060 A 
ATOM     33  C   UNL A   1      41.780  27.139  27.363  1.00  0.00     0.016 A 
ATOM     34  C   UNL A   1      40.013  25.661  28.061  1.00  0.00     0.016 A 
ATOM     35  C   UNL A   1      41.488  28.025  28.401  1.00  0.00     0.010 A 
ATOM     36  C   UNL A   1      39.686  26.570  29.079  1.00  0.00     0.010 A 
ATOM     37  C   UNL A   1      40.446  27.740  29.287  1.00  0.00    -0.014 A 
BRANCH  37  38
ATOM     38  C   UNL A   1      40.218  28.588  30.493  1.00  0.00     0.031 A 
ATOM     39  C   UNL A   1      39.152  29.653  30.450  1.00  0.00     0.074 A 
ATOM     40  C   UNL A   1      40.919  28.411  31.630  1.00  0.00     0.049 A 
ATOM     41  N   UNL A   1      38.942  30.655  31.265  1.00  0.00    -0.248 NA
ATOM     42  C   UNL A   1      38.200  29.576  29.332  1.00  0.00     0.031 C 
ATOM     43  C   UNL A   1      41.908  27.360  31.866  1.00  0.00     0.029 A 
ATOM     44  N   UNL A   1      40.910  29.127  32.804  1.00  0.00    -0.354 N 
ATOM     45  C   UNL A   1      37.878  31.365  30.722  1.00  0.00     0.074 A 
ATOM     46  C   UNL A   1      37.478  30.673  29.517  1.00  0.00     0.031 C 
ATOM     47  C   UNL A   1      42.405  27.494  33.106  1.00  0.00     0.029 A 
ATOM     48  C   UNL A   1      41.835  28.689  33.722  1.00  0.00     0.049 A 
ATOM     49  H   UNL A   1      40.297  29.879  32.972  1.00  0.00     0.167 HD
ATOM     50  C   UNL A   1      37.295  32.498  31.183  1.00  0.00     0.037 A 
ATOM     51  C   UNL A   1      42.225  29.222  34.897  1.00  0.00     0.037 A 
ATOM     52  C   UNL A   1      37.660  33.155  32.411  1.00  0.00     0.049 A 
ATOM     53  C   UNL A   1      41.613  30.515  35.362  1.00  0.00     0.074 A 
ATOM     54  C   UNL A   1      37.139  34.314  32.961  1.00  0.00     0.029 A 
ATOM     55  N   UNL A   1      38.629  32.696  33.290  1.00  0.00    -0.354 N 
ATOM     56  N   UNL A   1      40.672  31.235  34.799  1.00  0.00    -0.248 NA
ATOM     57  C   UNL A   1      42.136  31.086  36.613  1.00  0.00     0.031 C 
ATOM     58  C   UNL A   1      37.815  34.573  34.158  1.00  0.00     0.029 A 
ATOM     59  C   UNL A   1      38.728  33.554  34.373  1.00  0.00     0.049 A 
ATOM     60  H   UNL A   1      39.166  31.882  33.164  1.00  0.00     0.167 HD
ATOM     61  C   UNL A   1      40.480  32.331  35.630  1.00  0.00     0.074 A 
ATOM     62  C   UNL A   1      41.390  32.175  36.746  1.00  0.00     0.031 C 
ATOM     63  C   UNL A   1      39.630  33.375  35.482  1.00  0.00     0.037 A 
BRANCH  50  64
ATOM     64  C   UNL A   1      36.235  33.128  30.328  1.00  0.00     0.057 A 
ATOM     65  C   UNL A   1      36.536  33.829  29.154  1.00  0.00     0.134 A 
ATOM     66  C   UNL A   1      34.883  33.011  30.682  1.00  0.00     0.134 A 
ATOM     67  F   UNL A   1      37.810  33.992  28.769  1.00  0.00    -0.206 F 
ATOM     68  C   UNL A   1      35.534  34.411  28.376  1.00  0.00     0.040 A 
ATOM     69  C   UNL A   1      33.871  33.567  29.899  1.00  0.00     0.040 A 
ATOM     70  F   UNL A   1      34.525  32.348  31.792  1.00  0.00    -0.206 F 
ATOM     71  C   UNL A   1      34.196  34.275  28.745  1.00  0.00     0.006 A 
ENDBRANCH  50  64
BRANCH  51  72
ATOM     72  C   UNL A   1      43.297  28.568  35.691  1.00  0.00     0.057 A 
ATOM     73  C   UNL A   1      43.003  27.556  36.613  1.00  0.00     0.134 A 
ATOM     74  C   UNL A   1      44.639  28.946  35.558  1.00  0.00     0.134 A 
ATOM     75  F   UNL A   1      41.734  27.171  36.810  1.00  0.00    -0.206 F 
ATOM     76  C   UNL A   1      44.002  26.950  37.377  1.00  0.00     0.040 A 
ATOM     77  C   UNL A   1      45.651  28.330  36.295  1.00  0.00     0.040 A 
ATOM     78  F   UNL A   1      44.986  29.913  34.697  1.00  0.00    -0.206 F 
ATOM     79  C   UNL A   1      45.332  27.331  37.212  1.00  0.00     0.006 A 
ENDBRANCH  51  72
BRANCH  63  80
ATOM     80  C   UNL A   1      39.615  34.409  36.568  1.00  0.00     0.057 A 
ATOM     81  C   UNL A   1      38.868  34.237  37.741  1.00  0.00     0.134 A 
ATOM     82  C   UNL A   1      40.392  35.569  36.457  1.00  0.00     0.134 A 
ATOM     83  F   UNL A   1      38.095  33.153  37.900  1.00  0.00    -0.206 F 
ATOM     84  C   UNL A   1      38.883  35.191  38.759  1.00  0.00     0.040 A 
ATOM     85  C   UNL A   1      40.432  36.520  37.477  1.00  0.00     0.040 A 
ATOM     86  F   UNL A   1      41.135  35.789  35.362  1.00  0.00    -0.206 F 
ATOM     87  C   UNL A   1      39.672  36.334  38.631  1.00  0.00     0.006 A 
ENDBRANCH  63  80
ENDBRANCH  37  38
ENDBRANCH  30  32
ENDBRANCH  29  30
ENDBRANCH  28  29
ENDBRANCH  27  28
ENDBRANCH  26  27
ENDBRANCH  25  26
ENDBRANCH   1  25
TORSDOF 22
ENDMDL
