MODEL 1
REMARK VINA RESULT:      -9.4      0.000      0.000
REMARK SMILES CC(C)[C@H](NC(=O)[C@H](C)NC(=O)C[NH3+])C(=O)OCCOCCOCCOC(=O)c1ccc(-c2c3nc(c(-c4c(F)cccc4F)c4ccc([nH]4)c(-c4c(F)cccc4F)c4nc(c(-c5c(F)cccc5F)c5ccc2[nH]5)C=C4)C=C3)cc1
REMARK SMILES IDX 20 1 19 2 18 3 17 4 15 5 16 6 4 7 2 8 1 9 3 10 5 11 6 12
REMARK SMILES IDX 7 14 8 15 9 16 10 17 11 18 12 20 13 21 14 22 21 26 22 27
REMARK SMILES IDX 23 28 24 29 25 30 26 31 27 32 28 33 29 34 30 35 82 36 31 37
REMARK SMILES IDX 81 38 32 39 33 40 34 41 75 42 35 43 80 44 74 45 76 46 36 47
REMARK SMILES IDX 79 48 73 49 72 50 37 52 63 53 46 54 62 55 47 56 50 57 61 58
REMARK SMILES IDX 77 59 48 60 49 61 60 63 78 64 51 65 38 66 39 67 44 68 40 69
REMARK SMILES IDX 41 70 43 71 45 72 42 73 64 74 65 75 70 76 66 77 67 78 69 79
REMARK SMILES IDX 71 80 68 81 52 82 53 83 58 84 54 85 55 86 57 87 59 88 56 89
REMARK H PARENT 5 13 10 19 14 23 14 24 14 25 76 51 50 62
REMARK Flexibility Score: inf
ROOT
ATOM      1  O   UNL A   1      39.707  22.289  26.811  1.00  0.00    -0.376 OA
ENDROOT
BRANCH   1   2
ATOM      2  C   UNL A   1      38.519  22.544  26.084  1.00  0.00     0.202 C 
BRANCH   2   3
ATOM      3  C   UNL A   1      38.010  23.965  26.288  1.00  0.00     0.261 C 
BRANCH   3   4
ATOM      4  O   UNL A   1      36.524  24.066  26.078  1.00  0.00    -0.462 OA
BRANCH   4   5
ATOM      5  C   UNL A   1      35.427  24.113  25.287  1.00  0.00     0.328 C 
ATOM      6  O   UNL A   1      35.629  23.849  24.092  1.00  0.00    -0.250 OA
BRANCH   5   7
ATOM      7  C   UNL A   1      33.950  24.445  25.676  1.00  0.00     0.194 C 
BRANCH   7   8
ATOM      8  C   UNL A   1      33.342  25.882  25.336  1.00  0.00     0.017 C 
ATOM      9  C   UNL A   1      31.948  26.051  25.991  1.00  0.00     0.010 C 
ATOM     10  C   UNL A   1      34.112  27.138  25.765  1.00  0.00     0.010 C 
ENDBRANCH   7   8
BRANCH   7  11
ATOM     11  N   UNL A   1      33.311  23.886  26.834  1.00  0.00    -0.341 N 
ATOM     12  C   UNL A   1      33.084  22.586  27.123  1.00  0.00     0.243 C 
ATOM     13  H   UNL A   1      32.996  24.535  27.505  1.00  0.00     0.164 HD
ATOM     14  O   UNL A   1      32.926  22.315  28.315  1.00  0.00    -0.273 OA
BRANCH  12  15
ATOM     15  C   UNL A   1      32.770  21.597  25.972  1.00  0.00     0.168 C 
ATOM     16  C   UNL A   1      31.471  22.082  25.326  1.00  0.00     0.041 C 
BRANCH  15  17
ATOM     17  N   UNL A   1      32.789  20.093  25.963  1.00  0.00    -0.340 N 
ATOM     18  C   UNL A   1      32.630  18.938  25.263  1.00  0.00     0.275 C 
ATOM     19  H   UNL A   1      33.023  19.822  26.880  1.00  0.00     0.164 HD
ATOM     20  O   UNL A   1      32.397  17.980  26.023  1.00  0.00    -0.268 OA
BRANCH  18  21
ATOM     21  C   UNL A   1      32.751  18.576  23.760  1.00  0.00     0.360 C 
BRANCH  21  22
ATOM     22  N   UNL A   1      32.535  17.160  23.439  1.00  0.00    -0.350 N 
ATOM     23  H   UNL A   1      31.928  17.085  22.623  1.00  0.00     0.344 HD
ATOM     24  H   UNL A   1      32.097  16.694  24.234  1.00  0.00     0.344 HD
ATOM     25  H   UNL A   1      33.431  16.716  23.237  1.00  0.00     0.344 HD
ENDBRANCH  21  22
ENDBRANCH  18  21
ENDBRANCH  15  17
ENDBRANCH  12  15
ENDBRANCH   7  11
ENDBRANCH   5   7
ENDBRANCH   4   5
ENDBRANCH   3   4
ENDBRANCH   2   3
ENDBRANCH   1   2
BRANCH   1  26
ATOM     26  C   UNL A   1      40.578  21.362  26.185  1.00  0.00     0.188 C 
BRANCH  26  27
ATOM     27  C   UNL A   1      41.900  21.075  26.954  1.00  0.00     0.188 C 
BRANCH  27  28
ATOM     28  O   UNL A   1      42.971  22.008  26.972  1.00  0.00    -0.376 OA
BRANCH  28  29
ATOM     29  C   UNL A   1      43.975  21.950  25.974  1.00  0.00     0.202 C 
BRANCH  29  30
ATOM     30  C   UNL A   1      43.690  22.581  24.602  1.00  0.00     0.261 C 
BRANCH  30  31
ATOM     31  O   UNL A   1      43.184  23.928  24.642  1.00  0.00    -0.460 OA
BRANCH  31  32
ATOM     32  C   UNL A   1      43.985  24.857  25.224  1.00  0.00     0.338 C 
ATOM     33  O   UNL A   1      45.129  25.140  24.901  1.00  0.00    -0.246 OA
BRANCH  32  34
ATOM     34  C   UNL A   1      43.178  25.701  26.151  1.00  0.00     0.060 A 
ATOM     35  C   UNL A   1      43.526  27.058  26.284  1.00  0.00     0.016 A 
ATOM     36  C   UNL A   1      42.047  25.208  26.810  1.00  0.00     0.016 A 
ATOM     37  C   UNL A   1      42.791  27.907  27.109  1.00  0.00     0.010 A 
ATOM     38  C   UNL A   1      41.333  26.047  27.675  1.00  0.00     0.010 A 
ATOM     39  C   UNL A   1      41.746  27.379  27.876  1.00  0.00    -0.014 A 
BRANCH  39  40
ATOM     40  C   UNL A   1      41.420  28.055  29.157  1.00  0.00     0.031 A 
ATOM     41  C   UNL A   1      40.203  28.949  29.143  1.00  0.00     0.074 A 
ATOM     42  C   UNL A   1      42.107  27.863  30.296  1.00  0.00     0.049 A 
ATOM     43  N   UNL A   1      39.704  29.704  30.086  1.00  0.00    -0.248 NA
ATOM     44  C   UNL A   1      39.448  28.996  27.878  1.00  0.00     0.031 C 
ATOM     45  C   UNL A   1      43.253  26.974  30.467  1.00  0.00     0.029 A 
ATOM     46  N   UNL A   1      41.925  28.423  31.537  1.00  0.00    -0.354 N 
ATOM     47  C   UNL A   1      38.592  30.318  29.520  1.00  0.00     0.074 A 
ATOM     48  C   UNL A   1      38.507  29.882  28.148  1.00  0.00     0.031 C 
ATOM     49  C   UNL A   1      43.684  27.063  31.740  1.00  0.00     0.029 A 
ATOM     50  C   UNL A   1      42.860  28.033  32.463  1.00  0.00     0.049 A 
ATOM     51  H   UNL A   1      41.191  29.046  31.744  1.00  0.00     0.167 HD
ATOM     52  C   UNL A   1      37.706  31.164  30.091  1.00  0.00     0.037 A 
ATOM     53  C   UNL A   1      43.034  28.433  33.738  1.00  0.00     0.037 A 
ATOM     54  C   UNL A   1      37.786  31.604  31.454  1.00  0.00     0.049 A 
ATOM     55  C   UNL A   1      42.082  29.443  34.334  1.00  0.00     0.074 A 
ATOM     56  C   UNL A   1      36.948  32.470  32.131  1.00  0.00     0.029 A 
ATOM     57  N   UNL A   1      38.771  31.212  32.347  1.00  0.00    -0.354 N 
ATOM     58  N   UNL A   1      41.034  30.018  33.794  1.00  0.00    -0.248 NA
ATOM     59  C   UNL A   1      42.337  29.855  35.723  1.00  0.00     0.031 C 
ATOM     60  C   UNL A   1      37.454  32.638  33.424  1.00  0.00     0.029 A 
ATOM     61  C   UNL A   1      38.572  31.831  33.567  1.00  0.00     0.049 A 
ATOM     62  H   UNL A   1      39.503  30.585  32.142  1.00  0.00     0.167 HD
ATOM     63  C   UNL A   1      40.487  30.828  34.785  1.00  0.00     0.074 A 
ATOM     64  C   UNL A   1      41.311  30.658  35.962  1.00  0.00     0.031 C 
ATOM     65  C   UNL A   1      39.400  31.637  34.730  1.00  0.00     0.037 A 
BRANCH  52  66
ATOM     66  C   UNL A   1      36.604  31.687  29.219  1.00  0.00     0.057 A 
ATOM     67  C   UNL A   1      36.626  32.986  28.693  1.00  0.00     0.134 A 
ATOM     68  C   UNL A   1      35.495  30.886  28.918  1.00  0.00     0.134 A 
ATOM     69  F   UNL A   1      37.643  33.816  28.970  1.00  0.00    -0.206 F 
ATOM     70  C   UNL A   1      35.572  33.477  27.919  1.00  0.00     0.040 A 
ATOM     71  C   UNL A   1      34.452  31.355  28.121  1.00  0.00     0.040 A 
ATOM     72  F   UNL A   1      35.408  29.636  29.400  1.00  0.00    -0.206 F 
ATOM     73  C   UNL A   1      34.485  32.657  27.625  1.00  0.00     0.006 A 
ENDBRANCH  52  66
BRANCH  53  74
ATOM     74  C   UNL A   1      44.161  27.900  34.551  1.00  0.00     0.057 A 
ATOM     75  C   UNL A   1      45.421  28.512  34.538  1.00  0.00     0.134 A 
ATOM     76  C   UNL A   1      44.021  26.735  35.316  1.00  0.00     0.134 A 
ATOM     77  F   UNL A   1      45.630  29.611  33.800  1.00  0.00    -0.206 F 
ATOM     78  C   UNL A   1      46.504  27.973  35.237  1.00  0.00     0.040 A 
ATOM     79  C   UNL A   1      45.087  26.201  36.041  1.00  0.00     0.040 A 
ATOM     80  F   UNL A   1      42.843  26.096  35.366  1.00  0.00    -0.206 F 
ATOM     81  C   UNL A   1      46.338  26.815  35.994  1.00  0.00     0.006 A 
ENDBRANCH  53  74
BRANCH  65  82
ATOM     82  C   UNL A   1      39.010  32.359  35.989  1.00  0.00     0.057 A 
ATOM     83  C   UNL A   1      38.234  31.753  36.985  1.00  0.00     0.134 A 
ATOM     84  C   UNL A   1      39.451  33.669  36.221  1.00  0.00     0.134 A 
ATOM     85  F   UNL A   1      37.776  30.502  36.823  1.00  0.00    -0.206 F 
ATOM     86  C   UNL A   1      37.880  32.437  38.150  1.00  0.00     0.040 A 
ATOM     87  C   UNL A   1      39.130  34.350  37.394  1.00  0.00     0.040 A 
ATOM     88  F   UNL A   1      40.213  34.302  35.317  1.00  0.00    -0.206 F 
ATOM     89  C   UNL A   1      38.333  33.737  38.359  1.00  0.00     0.006 A 
ENDBRANCH  65  82
ENDBRANCH  39  40
ENDBRANCH  32  34
ENDBRANCH  31  32
ENDBRANCH  30  31
ENDBRANCH  29  30
ENDBRANCH  28  29
ENDBRANCH  27  28
ENDBRANCH  26  27
ENDBRANCH   1  26
TORSDOF 23
ENDMDL
MODEL 2
REMARK VINA RESULT:      -9.4      1.813      3.419
REMARK SMILES CC(C)[C@H](NC(=O)[C@H](C)NC(=O)C[NH3+])C(=O)OCCOCCOCCOC(=O)c1ccc(-c2c3nc(c(-c4c(F)cccc4F)c4ccc([nH]4)c(-c4c(F)cccc4F)c4nc(c(-c5c(F)cccc5F)c5ccc2[nH]5)C=C4)C=C3)cc1
REMARK SMILES IDX 20 1 19 2 18 3 17 4 15 5 16 6 4 7 2 8 1 9 3 10 5 11 6 12
REMARK SMILES IDX 7 14 8 15 9 16 10 17 11 18 12 20 13 21 14 22 21 26 22 27
REMARK SMILES IDX 23 28 24 29 25 30 26 31 27 32 28 33 29 34 30 35 82 36 31 37
REMARK SMILES IDX 81 38 32 39 33 40 34 41 75 42 35 43 80 44 74 45 76 46 36 47
REMARK SMILES IDX 79 48 73 49 72 50 37 52 63 53 46 54 62 55 47 56 50 57 61 58
REMARK SMILES IDX 77 59 48 60 49 61 60 63 78 64 51 65 38 66 39 67 44 68 40 69
REMARK SMILES IDX 41 70 43 71 45 72 42 73 64 74 65 75 70 76 66 77 67 78 69 79
REMARK SMILES IDX 71 80 68 81 52 82 53 83 58 84 54 85 55 86 57 87 59 88 56 89
REMARK H PARENT 5 13 10 19 14 23 14 24 14 25 76 51 50 62
REMARK Flexibility Score: inf
ROOT
ATOM      1  O   UNL A   1      39.632  22.094  26.422  1.00  0.00    -0.376 OA
ENDROOT
BRANCH   1   2
ATOM      2  C   UNL A   1      38.387  22.164  25.751  1.00  0.00     0.202 C 
BRANCH   2   3
ATOM      3  C   UNL A   1      37.650  23.467  26.035  1.00  0.00     0.261 C 
BRANCH   3   4
ATOM      4  O   UNL A   1      36.378  23.578  25.241  1.00  0.00    -0.462 OA
BRANCH   4   5
ATOM      5  C   UNL A   1      35.142  24.084  25.024  1.00  0.00     0.328 C 
ATOM      6  O   UNL A   1      34.838  25.052  25.737  1.00  0.00    -0.250 OA
BRANCH   5   7
ATOM      7  C   UNL A   1      34.058  23.622  23.996  1.00  0.00     0.194 C 
BRANCH   7   8
ATOM      8  C   UNL A   1      33.738  22.067  23.825  1.00  0.00     0.017 C 
ATOM      9  C   UNL A   1      33.553  21.395  25.209  1.00  0.00     0.010 C 
ATOM     10  C   UNL A   1      32.492  21.645  23.035  1.00  0.00     0.010 C 
ENDBRANCH   7   8
BRANCH   7  11
ATOM     11  N   UNL A   1      33.798  24.330  22.775  1.00  0.00    -0.341 N 
ATOM     12  C   UNL A   1      33.181  25.520  22.608  1.00  0.00     0.243 C 
ATOM     13  H   UNL A   1      34.111  23.891  21.950  1.00  0.00     0.164 HD
ATOM     14  O   UNL A   1      33.443  26.126  21.568  1.00  0.00    -0.273 OA
BRANCH  12  15
ATOM     15  C   UNL A   1      32.017  25.909  23.555  1.00  0.00     0.168 C 
ATOM     16  C   UNL A   1      30.817  25.055  23.142  1.00  0.00     0.041 C 
BRANCH  15  17
ATOM     17  N   UNL A   1      31.529  27.269  23.971  1.00  0.00    -0.340 N 
ATOM     18  C   UNL A   1      31.016  28.476  23.608  1.00  0.00     0.275 C 
ATOM     19  H   UNL A   1      31.620  27.299  24.951  1.00  0.00     0.164 HD
ATOM     20  O   UNL A   1      31.229  29.335  24.483  1.00  0.00    -0.268 OA
BRANCH  18  21
ATOM     21  C   UNL A   1      30.182  28.959  22.394  1.00  0.00     0.360 C 
BRANCH  21  22
ATOM     22  N   UNL A   1      30.776  30.060  21.626  1.00  0.00    -0.350 N 
ATOM     23  H   UNL A   1      31.791  30.027  21.714  1.00  0.00     0.344 HD
ATOM     24  H   UNL A   1      30.431  30.950  21.985  1.00  0.00     0.344 HD
ATOM     25  H   UNL A   1      30.518  29.967  20.643  1.00  0.00     0.344 HD
ENDBRANCH  21  22
ENDBRANCH  18  21
ENDBRANCH  15  17
ENDBRANCH  12  15
ENDBRANCH   7  11
ENDBRANCH   5   7
ENDBRANCH   4   5
ENDBRANCH   3   4
ENDBRANCH   2   3
ENDBRANCH   1   2
BRANCH   1  26
ATOM     26  C   UNL A   1      40.160  20.782  26.523  1.00  0.00     0.188 C 
BRANCH  26  27
ATOM     27  C   UNL A   1      41.713  20.690  26.489  1.00  0.00     0.188 C 
BRANCH  27  28
ATOM     28  O   UNL A   1      42.516  21.783  26.064  1.00  0.00    -0.376 OA
BRANCH  28  29
ATOM     29  C   UNL A   1      43.770  21.539  25.451  1.00  0.00     0.202 C 
BRANCH  29  30
ATOM     30  C   UNL A   1      44.570  22.734  24.906  1.00  0.00     0.261 C 
BRANCH  30  31
ATOM     31  O   UNL A   1      43.848  23.977  24.851  1.00  0.00    -0.460 OA
BRANCH  31  32
ATOM     32  C   UNL A   1      44.501  25.077  25.308  1.00  0.00     0.338 C 
ATOM     33  O   UNL A   1      45.543  25.542  24.870  1.00  0.00    -0.246 OA
BRANCH  32  34
ATOM     34  C   UNL A   1      43.624  25.819  26.257  1.00  0.00     0.060 A 
ATOM     35  C   UNL A   1      43.764  27.217  26.332  1.00  0.00     0.016 A 
ATOM     36  C   UNL A   1      42.618  25.183  26.992  1.00  0.00     0.016 A 
ATOM     37  C   UNL A   1      42.950  27.973  27.175  1.00  0.00     0.010 A 
ATOM     38  C   UNL A   1      41.829  25.934  27.874  1.00  0.00     0.010 A 
ATOM     39  C   UNL A   1      42.042  27.319  28.015  1.00  0.00    -0.014 A 
BRANCH  39  40
ATOM     40  C   UNL A   1      41.682  27.982  29.293  1.00  0.00     0.031 A 
ATOM     41  C   UNL A   1      40.435  28.833  29.271  1.00  0.00     0.074 A 
ATOM     42  C   UNL A   1      42.367  27.813  30.438  1.00  0.00     0.049 A 
ATOM     43  N   UNL A   1      39.903  29.570  30.210  1.00  0.00    -0.248 NA
ATOM     44  C   UNL A   1      39.689  28.856  27.999  1.00  0.00     0.031 C 
ATOM     45  C   UNL A   1      43.542  26.965  30.617  1.00  0.00     0.029 A 
ATOM     46  N   UNL A   1      42.156  28.366  31.677  1.00  0.00    -0.354 N 
ATOM     47  C   UNL A   1      38.775  30.146  29.636  1.00  0.00     0.074 A 
ATOM     48  C   UNL A   1      38.716  29.708  28.263  1.00  0.00     0.031 C 
ATOM     49  C   UNL A   1      43.960  27.068  31.893  1.00  0.00     0.029 A 
ATOM     50  C   UNL A   1      43.097  28.008  32.611  1.00  0.00     0.049 A 
ATOM     51  H   UNL A   1      41.399  28.964  31.879  1.00  0.00     0.167 HD
ATOM     52  C   UNL A   1      37.856  30.960  30.201  1.00  0.00     0.037 A 
ATOM     53  C   UNL A   1      43.248  28.413  33.887  1.00  0.00     0.037 A 
ATOM     54  C   UNL A   1      37.910  31.402  31.565  1.00  0.00     0.049 A 
ATOM     55  C   UNL A   1      42.257  29.389  34.476  1.00  0.00     0.074 A 
ATOM     56  C   UNL A   1      37.038  32.237  32.235  1.00  0.00     0.029 A 
ATOM     57  N   UNL A   1      38.902  31.043  32.464  1.00  0.00    -0.354 N 
ATOM     58  N   UNL A   1      41.193  29.928  33.928  1.00  0.00    -0.248 NA
ATOM     59  C   UNL A   1      42.487  29.808  35.867  1.00  0.00     0.031 C 
ATOM     60  C   UNL A   1      37.527  32.422  33.532  1.00  0.00     0.029 A 
ATOM     61  C   UNL A   1      38.672  31.654  33.683  1.00  0.00     0.049 A 
ATOM     62  H   UNL A   1      39.657  30.443  32.265  1.00  0.00     0.167 HD
ATOM     63  C   UNL A   1      40.611  30.717  34.915  1.00  0.00     0.074 A 
ATOM     64  C   UNL A   1      41.432  30.576  36.099  1.00  0.00     0.031 C 
ATOM     65  C   UNL A   1      39.497  31.489  34.852  1.00  0.00     0.037 A 
BRANCH  52  66
ATOM     66  C   UNL A   1      36.743  31.446  29.320  1.00  0.00     0.057 A 
ATOM     67  C   UNL A   1      35.650  30.634  28.988  1.00  0.00     0.134 A 
ATOM     68  C   UNL A   1      36.777  32.738  28.781  1.00  0.00     0.134 A 
ATOM     69  F   UNL A   1      35.573  29.374  29.445  1.00  0.00    -0.206 F 
ATOM     70  C   UNL A   1      34.644  31.082  28.131  1.00  0.00     0.040 A 
ATOM     71  C   UNL A   1      35.762  33.207  27.948  1.00  0.00     0.040 A 
ATOM     72  F   UNL A   1      37.801  33.562  29.051  1.00  0.00    -0.206 F 
ATOM     73  C   UNL A   1      34.694  32.375  27.614  1.00  0.00     0.006 A 
ENDBRANCH  52  66
BRANCH  53  74
ATOM     74  C   UNL A   1      44.386  27.919  34.708  1.00  0.00     0.057 A 
ATOM     75  C   UNL A   1      45.632  28.558  34.685  1.00  0.00     0.134 A 
ATOM     76  C   UNL A   1      44.272  26.764  35.492  1.00  0.00     0.134 A 
ATOM     77  F   UNL A   1      45.816  29.650  33.928  1.00  0.00    -0.206 F 
ATOM     78  C   UNL A   1      46.727  28.056  35.392  1.00  0.00     0.040 A 
ATOM     79  C   UNL A   1      45.350  26.266  36.225  1.00  0.00     0.040 A 
ATOM     80  F   UNL A   1      43.109  26.099  35.553  1.00  0.00    -0.206 F 
ATOM     81  C   UNL A   1      46.586  26.907  36.168  1.00  0.00     0.006 A 
ENDBRANCH  53  74
BRANCH  65  82
ATOM     82  C   UNL A   1      39.073  32.195  36.109  1.00  0.00     0.057 A 
ATOM     83  C   UNL A   1      39.497  33.496  36.412  1.00  0.00     0.134 A 
ATOM     84  C   UNL A   1      38.199  31.574  37.011  1.00  0.00     0.134 A 
ATOM     85  F   UNL A   1      40.339  34.144  35.593  1.00  0.00    -0.206 F 
ATOM     86  C   UNL A   1      39.094  34.139  37.584  1.00  0.00     0.040 A 
ATOM     87  C   UNL A   1      37.765  32.219  38.169  1.00  0.00     0.040 A 
ATOM     88  F   UNL A   1      37.740  30.336  36.773  1.00  0.00    -0.206 F 
ATOM     89  C   UNL A   1      38.222  33.501  38.463  1.00  0.00     0.006 A 
ENDBRANCH  65  82
ENDBRANCH  39  40
ENDBRANCH  32  34
ENDBRANCH  31  32
ENDBRANCH  30  31
ENDBRANCH  29  30
ENDBRANCH  28  29
ENDBRANCH  27  28
ENDBRANCH  26  27
ENDBRANCH   1  26
TORSDOF 23
ENDMDL
MODEL 3
REMARK VINA RESULT:      -9.0      1.396      6.496
REMARK SMILES CC(C)[C@H](NC(=O)[C@H](C)NC(=O)C[NH3+])C(=O)OCCOCCOCCOC(=O)c1ccc(-c2c3nc(c(-c4c(F)cccc4F)c4ccc([nH]4)c(-c4c(F)cccc4F)c4nc(c(-c5c(F)cccc5F)c5ccc2[nH]5)C=C4)C=C3)cc1
REMARK SMILES IDX 20 1 19 2 18 3 17 4 15 5 16 6 4 7 2 8 1 9 3 10 5 11 6 12
REMARK SMILES IDX 7 14 8 15 9 16 10 17 11 18 12 20 13 21 14 22 21 26 22 27
REMARK SMILES IDX 23 28 24 29 25 30 26 31 27 32 28 33 29 34 30 35 82 36 31 37
REMARK SMILES IDX 81 38 32 39 33 40 34 41 75 42 35 43 80 44 74 45 76 46 36 47
REMARK SMILES IDX 79 48 73 49 72 50 37 52 63 53 46 54 62 55 47 56 50 57 61 58
REMARK SMILES IDX 77 59 48 60 49 61 60 63 78 64 51 65 38 66 39 67 44 68 40 69
REMARK SMILES IDX 41 70 43 71 45 72 42 73 64 74 65 75 70 76 66 77 67 78 69 79
REMARK SMILES IDX 71 80 68 81 52 82 53 83 58 84 54 85 55 86 57 87 59 88 56 89
REMARK H PARENT 5 13 10 19 14 23 14 24 14 25 76 51 50 62
REMARK Flexibility Score: inf
ROOT
ATOM      1  O   UNL A   1      40.892  22.227  26.973  1.00  0.00    -0.376 OA
ENDROOT
BRANCH   1   2
ATOM      2  C   UNL A   1      39.480  22.324  26.921  1.00  0.00     0.202 C 
BRANCH   2   3
ATOM      3  C   UNL A   1      38.898  21.639  25.691  1.00  0.00     0.261 C 
BRANCH   3   4
ATOM      4  O   UNL A   1      37.394  21.659  25.695  1.00  0.00    -0.462 OA
BRANCH   4   5
ATOM      5  C   UNL A   1      36.193  21.443  25.113  1.00  0.00     0.328 C 
ATOM      6  O   UNL A   1      35.796  20.269  25.147  1.00  0.00    -0.250 OA
BRANCH   5   7
ATOM      7  C   UNL A   1      35.241  22.469  24.416  1.00  0.00     0.194 C 
BRANCH   7   8
ATOM      8  C   UNL A   1      34.836  23.816  25.171  1.00  0.00     0.017 C 
ATOM      9  C   UNL A   1      36.094  24.515  25.746  1.00  0.00     0.010 C 
ATOM     10  C   UNL A   1      34.119  24.924  24.387  1.00  0.00     0.010 C 
ENDBRANCH   7   8
BRANCH   7  11
ATOM     11  N   UNL A   1      34.207  22.069  23.503  1.00  0.00    -0.341 N 
ATOM     12  C   UNL A   1      32.883  21.942  23.737  1.00  0.00     0.243 C 
ATOM     13  H   UNL A   1      34.502  21.860  22.587  1.00  0.00     0.164 HD
ATOM     14  O   UNL A   1      32.149  22.012  22.749  1.00  0.00    -0.273 OA
BRANCH  12  15
ATOM     15  C   UNL A   1      32.401  21.458  25.128  1.00  0.00     0.168 C 
ATOM     16  C   UNL A   1      32.153  19.954  25.002  1.00  0.00     0.041 C 
BRANCH  15  17
ATOM     17  N   UNL A   1      31.369  22.048  26.048  1.00  0.00    -0.340 N 
ATOM     18  C   UNL A   1      30.719  23.155  26.502  1.00  0.00     0.275 C 
ATOM     19  H   UNL A   1      30.991  21.290  26.549  1.00  0.00     0.164 HD
ATOM     20  O   UNL A   1      30.222  22.954  27.626  1.00  0.00    -0.268 OA
BRANCH  18  21
ATOM     21  C   UNL A   1      30.421  24.545  25.884  1.00  0.00     0.360 C 
BRANCH  21  22
ATOM     22  N   UNL A   1      31.083  25.677  26.545  1.00  0.00    -0.350 N 
ATOM     23  H   UNL A   1      31.841  25.332  27.133  1.00  0.00     0.344 HD
ATOM     24  H   UNL A   1      30.406  26.178  27.120  1.00  0.00     0.344 HD
ATOM     25  H   UNL A   1      31.462  26.308  25.838  1.00  0.00     0.344 HD
ENDBRANCH  21  22
ENDBRANCH  18  21
ENDBRANCH  15  17
ENDBRANCH  12  15
ENDBRANCH   7  11
ENDBRANCH   5   7
ENDBRANCH   4   5
ENDBRANCH   3   4
ENDBRANCH   2   3
ENDBRANCH   1   2
BRANCH   1  26
ATOM     26  C   UNL A   1      41.472  21.638  25.821  1.00  0.00     0.188 C 
BRANCH  26  27
ATOM     27  C   UNL A   1      42.655  20.667  26.100  1.00  0.00     0.188 C 
BRANCH  27  28
ATOM     28  O   UNL A   1      43.569  20.291  25.079  1.00  0.00    -0.376 OA
BRANCH  28  29
ATOM     29  C   UNL A   1      44.903  20.769  25.115  1.00  0.00     0.202 C 
BRANCH  29  30
ATOM     30  C   UNL A   1      45.167  22.246  24.779  1.00  0.00     0.261 C 
BRANCH  30  31
ATOM     31  O   UNL A   1      44.781  23.182  25.801  1.00  0.00    -0.460 OA
BRANCH  31  32
ATOM     32  C   UNL A   1      44.944  24.499  25.508  1.00  0.00     0.338 C 
ATOM     33  O   UNL A   1      45.644  24.968  24.624  1.00  0.00    -0.246 OA
BRANCH  32  34
ATOM     34  C   UNL A   1      43.924  25.302  26.240  1.00  0.00     0.060 A 
ATOM     35  C   UNL A   1      43.963  26.702  26.104  1.00  0.00     0.016 A 
ATOM     36  C   UNL A   1      42.891  24.705  26.970  1.00  0.00     0.016 A 
ATOM     37  C   UNL A   1      43.016  27.508  26.735  1.00  0.00     0.010 A 
ATOM     38  C   UNL A   1      41.965  25.514  27.643  1.00  0.00     0.010 A 
ATOM     39  C   UNL A   1      42.070  26.918  27.580  1.00  0.00    -0.014 A 
BRANCH  39  40
ATOM     40  C   UNL A   1      41.535  27.736  28.697  1.00  0.00     0.031 A 
ATOM     41  C   UNL A   1      42.281  27.639  30.007  1.00  0.00     0.074 A 
ATOM     42  C   UNL A   1      40.488  28.570  28.574  1.00  0.00     0.049 A 
ATOM     43  N   UNL A   1      42.023  28.190  31.163  1.00  0.00    -0.248 NA
ATOM     44  C   UNL A   1      43.487  26.791  30.004  1.00  0.00     0.031 C 
ATOM     45  C   UNL A   1      39.725  28.814  27.352  1.00  0.00     0.029 A 
ATOM     46  N   UNL A   1      39.887  29.370  29.514  1.00  0.00    -0.354 N 
ATOM     47  C   UNL A   1      43.026  27.744  32.018  1.00  0.00     0.074 A 
ATOM     48  C   UNL A   1      43.873  26.852  31.265  1.00  0.00     0.031 C 
ATOM     49  C   UNL A   1      38.743  29.694  27.624  1.00  0.00     0.029 A 
ATOM     50  C   UNL A   1      38.794  30.054  29.042  1.00  0.00     0.049 A 
ATOM     51  H   UNL A   1      40.210  29.447  30.442  1.00  0.00     0.167 HD
ATOM     52  C   UNL A   1      43.237  28.056  33.316  1.00  0.00     0.037 A 
ATOM     53  C   UNL A   1      37.929  30.858  29.692  1.00  0.00     0.037 A 
ATOM     54  C   UNL A   1      42.397  28.940  34.072  1.00  0.00     0.049 A 
ATOM     55  C   UNL A   1      38.134  31.129  31.164  1.00  0.00     0.074 A 
ATOM     56  C   UNL A   1      42.513  29.316  35.396  1.00  0.00     0.029 A 
ATOM     57  N   UNL A   1      41.279  29.583  33.563  1.00  0.00    -0.354 N 
ATOM     58  N   UNL A   1      39.083  30.706  31.965  1.00  0.00    -0.248 NA
ATOM     59  C   UNL A   1      37.146  31.998  31.821  1.00  0.00     0.031 C 
ATOM     60  C   UNL A   1      41.435  30.153  35.704  1.00  0.00     0.029 A 
ATOM     61  C   UNL A   1      40.684  30.342  34.554  1.00  0.00     0.049 A 
ATOM     62  H   UNL A   1      40.957  29.509  32.635  1.00  0.00     0.167 HD
ATOM     63  C   UNL A   1      38.827  31.283  33.204  1.00  0.00     0.074 A 
ATOM     64  C   UNL A   1      37.641  32.098  33.046  1.00  0.00     0.031 C 
ATOM     65  C   UNL A   1      39.509  31.156  34.369  1.00  0.00     0.037 A 
BRANCH  52  66
ATOM     66  C   UNL A   1      44.403  27.400  33.994  1.00  0.00     0.057 A 
ATOM     67  C   UNL A   1      45.673  27.991  34.026  1.00  0.00     0.134 A 
ATOM     68  C   UNL A   1      44.255  26.148  34.606  1.00  0.00     0.134 A 
ATOM     69  F   UNL A   1      45.889  29.174  33.430  1.00  0.00    -0.206 F 
ATOM     70  C   UNL A   1      46.760  27.349  34.621  1.00  0.00     0.040 A 
ATOM     71  C   UNL A   1      45.327  25.512  35.230  1.00  0.00     0.040 A 
ATOM     72  F   UNL A   1      43.068  25.523  34.601  1.00  0.00    -0.206 F 
ATOM     73  C   UNL A   1      46.587  26.109  35.232  1.00  0.00     0.006 A 
ENDBRANCH  52  66
BRANCH  53  74
ATOM     74  C   UNL A   1      36.774  31.463  28.976  1.00  0.00     0.057 A 
ATOM     75  C   UNL A   1      36.769  32.815  28.612  1.00  0.00     0.134 A 
ATOM     76  C   UNL A   1      35.624  30.717  28.689  1.00  0.00     0.134 A 
ATOM     77  F   UNL A   1      37.827  33.591  28.888  1.00  0.00    -0.206 F 
ATOM     78  C   UNL A   1      35.657  33.408  28.010  1.00  0.00     0.040 A 
ATOM     79  C   UNL A   1      34.516  31.290  28.063  1.00  0.00     0.040 A 
ATOM     80  F   UNL A   1      35.559  29.418  29.018  1.00  0.00    -0.206 F 
ATOM     81  C   UNL A   1      34.526  32.644  27.730  1.00  0.00     0.006 A 
ENDBRANCH  53  74
BRANCH  65  82
ATOM     82  C   UNL A   1      39.023  31.952  35.547  1.00  0.00     0.057 A 
ATOM     83  C   UNL A   1      39.355  33.302  35.722  1.00  0.00     0.134 A 
ATOM     84  C   UNL A   1      38.180  31.365  36.500  1.00  0.00     0.134 A 
ATOM     85  F   UNL A   1      40.163  33.922  34.849  1.00  0.00    -0.206 F 
ATOM     86  C   UNL A   1      38.895  34.028  36.822  1.00  0.00     0.040 A 
ATOM     87  C   UNL A   1      37.688  32.090  37.586  1.00  0.00     0.040 A 
ATOM     88  F   UNL A   1      37.807  30.082  36.383  1.00  0.00    -0.206 F 
ATOM     89  C   UNL A   1      38.055  33.424  37.754  1.00  0.00     0.006 A 
ENDBRANCH  65  82
ENDBRANCH  39  40
ENDBRANCH  32  34
ENDBRANCH  31  32
ENDBRANCH  30  31
ENDBRANCH  29  30
ENDBRANCH  28  29
ENDBRANCH  27  28
ENDBRANCH  26  27
ENDBRANCH   1  26
TORSDOF 23
ENDMDL
