MODEL 1
REMARK VINA RESULT:     -11.8      0.000      0.000
REMARK SMILES O=C(OCCOCCOCCOC(=O)c1ccn(-c2cc(-c3ccncc3)nc(-c3ccccc3F)n2)n1)c1ccc(-c2c3nc(c(-c4c(F)cccc4F)c4ccc([nH]4)c(-c4c(F)cccc4F)c4nc(c(-c5c(F)cccc5F)c5ccc2[nH]5)C=C4)C=C3)cc1
REMARK SMILES IDX 7 1 6 2 5 3 4 4 3 5 2 6 1 7 39 8 40 9 92 10 41 11 91 12
REMARK SMILES IDX 42 13 43 14 44 15 85 16 45 17 90 18 84 19 86 20 46 21 89 22
REMARK SMILES IDX 83 23 82 24 47 26 73 27 56 28 72 29 57 30 60 31 71 32 87 33
REMARK SMILES IDX 58 34 59 35 70 37 88 38 61 39 48 40 49 41 54 42 50 43 51 44
REMARK SMILES IDX 53 45 55 46 52 47 74 48 75 49 80 50 76 51 77 52 79 53 81 54
REMARK SMILES IDX 78 55 62 56 63 57 68 58 64 59 65 60 67 61 69 62 66 63 8 64
REMARK SMILES IDX 9 65 10 66 11 67 12 68 13 69 14 70 15 71 16 72 38 73 17 74
REMARK SMILES IDX 18 75 19 76 20 77 37 78 21 79 29 80 28 81 22 82 23 83 27 84
REMARK SMILES IDX 24 85 26 86 25 87 30 88 31 89 35 90 32 91 34 92 36 93 33 94
REMARK H PARENT 86 25 60 36
REMARK Flexibility Score: inf
ROOT
ATOM      1  C   UNL A   1      32.187  31.630  27.172  1.00  0.00     0.188 C 
ENDROOT
BRANCH   1   2
ATOM      2  O   UNL A   1      33.518  31.878  27.603  1.00  0.00    -0.376 OA
BRANCH   2   3
ATOM      3  C   UNL A   1      33.809  33.231  27.904  1.00  0.00     0.202 C 
BRANCH   3   4
ATOM      4  C   UNL A   1      34.631  33.367  29.183  1.00  0.00     0.261 C 
BRANCH   4   5
ATOM      5  O   UNL A   1      34.669  32.187  30.010  1.00  0.00    -0.460 OA
BRANCH   5   6
ATOM      6  C   UNL A   1      35.556  31.796  30.943  1.00  0.00     0.338 C 
ATOM      7  O   UNL A   1      35.572  32.351  32.039  1.00  0.00    -0.246 OA
BRANCH   6   8
ATOM      8  C   UNL A   1      36.661  30.854  30.633  1.00  0.00     0.060 A 
ATOM      9  C   UNL A   1      36.599  29.473  30.802  1.00  0.00     0.016 A 
ATOM     10  C   UNL A   1      37.880  31.439  30.238  1.00  0.00     0.016 A 
ATOM     11  C   UNL A   1      37.742  28.694  30.628  1.00  0.00     0.010 A 
ATOM     12  C   UNL A   1      39.026  30.664  30.074  1.00  0.00     0.010 A 
ATOM     13  C   UNL A   1      38.969  29.293  30.326  1.00  0.00    -0.014 A 
BRANCH  13  14
ATOM     14  C   UNL A   1      40.170  28.457  30.433  1.00  0.00     0.031 A 
ATOM     15  C   UNL A   1      40.901  28.394  31.741  1.00  0.00     0.074 A 
ATOM     16  C   UNL A   1      40.608  27.729  29.383  1.00  0.00     0.049 A 
ATOM     17  N   UNL A   1      42.175  28.492  31.970  1.00  0.00    -0.248 NA
ATOM     18  C   UNL A   1      40.107  28.176  32.957  1.00  0.00     0.031 C 
ATOM     19  C   UNL A   1      39.918  27.455  28.117  1.00  0.00     0.029 A 
ATOM     20  N   UNL A   1      41.766  27.016  29.266  1.00  0.00    -0.354 N 
ATOM     21  C   UNL A   1      42.363  28.187  33.320  1.00  0.00     0.074 A 
ATOM     22  C   UNL A   1      41.051  28.000  33.883  1.00  0.00     0.031 C 
ATOM     23  C   UNL A   1      40.581  26.489  27.447  1.00  0.00     0.029 A 
ATOM     24  C   UNL A   1      41.805  26.180  28.162  1.00  0.00     0.049 A 
ATOM     25  H   UNL A   1      42.508  27.088  29.909  1.00  0.00     0.167 HD
ATOM     26  C   UNL A   1      43.592  28.028  33.886  1.00  0.00     0.037 A 
ATOM     27  C   UNL A   1      42.755  25.267  27.862  1.00  0.00     0.037 A 
ATOM     28  C   UNL A   1      44.601  28.745  33.166  1.00  0.00     0.049 A 
ATOM     29  C   UNL A   1      43.987  25.621  28.600  1.00  0.00     0.074 A 
ATOM     30  C   UNL A   1      44.853  30.080  32.928  1.00  0.00     0.029 A 
ATOM     31  N   UNL A   1      45.449  28.050  32.346  1.00  0.00    -0.354 N 
ATOM     32  N   UNL A   1      44.739  26.657  28.351  1.00  0.00    -0.248 NA
ATOM     33  C   UNL A   1      44.261  24.937  29.855  1.00  0.00     0.031 C 
ATOM     34  C   UNL A   1      45.522  30.124  31.675  1.00  0.00     0.029 A 
ATOM     35  C   UNL A   1      45.625  28.809  31.217  1.00  0.00     0.049 A 
ATOM     36  H   UNL A   1      45.855  27.173  32.532  1.00  0.00     0.167 HD
ATOM     37  C   UNL A   1      45.309  26.981  29.570  1.00  0.00     0.074 A 
ATOM     38  C   UNL A   1      45.105  25.809  30.409  1.00  0.00     0.031 C 
ATOM     39  C   UNL A   1      45.647  28.267  29.876  1.00  0.00     0.037 A 
BRANCH  26  40
ATOM     40  C   UNL A   1      43.933  27.071  35.001  1.00  0.00     0.057 A 
ATOM     41  C   UNL A   1      43.972  27.447  36.357  1.00  0.00     0.134 A 
ATOM     42  C   UNL A   1      43.949  25.682  34.768  1.00  0.00     0.134 A 
ATOM     43  F   UNL A   1      43.913  28.730  36.731  1.00  0.00    -0.206 F 
ATOM     44  C   UNL A   1      43.995  26.515  37.403  1.00  0.00     0.040 A 
ATOM     45  C   UNL A   1      43.946  24.741  35.806  1.00  0.00     0.040 A 
ATOM     46  F   UNL A   1      43.904  25.191  33.521  1.00  0.00    -0.206 F 
ATOM     47  C   UNL A   1      43.958  25.156  37.130  1.00  0.00     0.006 A 
ENDBRANCH  26  40
BRANCH  27  48
ATOM     48  C   UNL A   1      42.608  23.993  27.128  1.00  0.00     0.057 A 
ATOM     49  C   UNL A   1      42.348  22.785  27.799  1.00  0.00     0.134 A 
ATOM     50  C   UNL A   1      42.969  23.884  25.778  1.00  0.00     0.134 A 
ATOM     51  F   UNL A   1      42.062  22.765  29.110  1.00  0.00    -0.206 F 
ATOM     52  C   UNL A   1      42.447  21.542  27.169  1.00  0.00     0.040 A 
ATOM     53  C   UNL A   1      43.081  22.643  25.136  1.00  0.00     0.040 A 
ATOM     54  F   UNL A   1      43.274  24.976  25.063  1.00  0.00    -0.206 F 
ATOM     55  C   UNL A   1      42.829  21.467  25.835  1.00  0.00     0.006 A 
ENDBRANCH  27  48
BRANCH  39  56
ATOM     56  C   UNL A   1      45.713  29.269  28.759  1.00  0.00     0.057 A 
ATOM     57  C   UNL A   1      44.532  29.884  28.327  1.00  0.00     0.134 A 
ATOM     58  C   UNL A   1      46.863  29.485  27.988  1.00  0.00     0.134 A 
ATOM     59  F   UNL A   1      43.377  29.667  28.977  1.00  0.00    -0.206 F 
ATOM     60  C   UNL A   1      44.495  30.679  27.178  1.00  0.00     0.040 A 
ATOM     61  C   UNL A   1      46.846  30.305  26.856  1.00  0.00     0.040 A 
ATOM     62  F   UNL A   1      48.011  28.853  28.265  1.00  0.00    -0.206 F 
ATOM     63  C   UNL A   1      45.656  30.898  26.442  1.00  0.00     0.006 A 
ENDBRANCH  39  56
ENDBRANCH  13  14
ENDBRANCH   6   8
ENDBRANCH   5   6
ENDBRANCH   4   5
ENDBRANCH   3   4
ENDBRANCH   2   3
ENDBRANCH   1   2
BRANCH   1  64
ATOM     64  C   UNL A   1      32.042  30.449  26.190  1.00  0.00     0.188 C 
BRANCH  64  65
ATOM     65  O   UNL A   1      31.101  30.468  25.119  1.00  0.00    -0.376 OA
BRANCH  65  66
ATOM     66  C   UNL A   1      30.878  29.307  24.341  1.00  0.00     0.202 C 
BRANCH  66  67
ATOM     67  C   UNL A   1      31.734  28.089  24.687  1.00  0.00     0.261 C 
BRANCH  67  68
ATOM     68  O   UNL A   1      32.389  27.510  23.548  1.00  0.00    -0.458 OA
BRANCH  68  69
ATOM     69  C   UNL A   1      31.646  26.615  22.833  1.00  0.00     0.358 C 
ATOM     70  O   UNL A   1      31.026  26.885  21.813  1.00  0.00    -0.244 OA
BRANCH  69  71
ATOM     71  C   UNL A   1      31.548  25.290  23.465  1.00  0.00     0.170 A 
ATOM     72  C   UNL A   1      30.501  24.380  23.184  1.00  0.00     0.058 A 
ATOM     73  N   UNL A   1      32.496  24.722  24.255  1.00  0.00    -0.159 NA
ATOM     74  C   UNL A   1      30.944  23.177  23.658  1.00  0.00     0.118 A 
ATOM     75  N   UNL A   1      32.190  23.390  24.207  1.00  0.00    -0.222 N 
BRANCH  75  76
ATOM     76  C   UNL A   1      33.102  22.340  24.532  1.00  0.00     0.158 A 
ATOM     77  C   UNL A   1      32.681  21.027  24.644  1.00  0.00     0.078 A 
ATOM     78  N   UNL A   1      34.394  22.720  24.684  1.00  0.00    -0.209 NA
ATOM     79  C   UNL A   1      33.695  20.103  24.857  1.00  0.00     0.077 A 
ATOM     80  C   UNL A   1      35.271  21.762  24.998  1.00  0.00     0.165 A 
ATOM     81  N   UNL A   1      34.975  20.463  25.077  1.00  0.00    -0.228 NA
BRANCH  79  82
ATOM     82  C   UNL A   1      33.545  18.650  24.755  1.00  0.00     0.003 A 
ATOM     83  C   UNL A   1      34.471  17.903  24.015  1.00  0.00     0.030 A 
ATOM     84  C   UNL A   1      32.611  17.950  25.525  1.00  0.00     0.030 A 
ATOM     85  C   UNL A   1      34.407  16.518  24.057  1.00  0.00     0.111 A 
ATOM     86  C   UNL A   1      32.626  16.561  25.500  1.00  0.00     0.111 A 
ATOM     87  N   UNL A   1      33.500  15.833  24.776  1.00  0.00    -0.265 NA
ENDBRANCH  79  82
BRANCH  80  88
ATOM     88  C   UNL A   1      36.604  22.162  25.408  1.00  0.00     0.055 A 
ATOM     89  C   UNL A   1      36.835  23.444  25.938  1.00  0.00     0.015 A 
ATOM     90  C   UNL A   1      37.680  21.276  25.333  1.00  0.00     0.134 A 
ATOM     91  C   UNL A   1      38.105  23.814  26.391  1.00  0.00     0.001 A 
ATOM     92  C   UNL A   1      38.951  21.639  25.775  1.00  0.00     0.040 A 
ATOM     93  F   UNL A   1      37.510  20.046  24.822  1.00  0.00    -0.206 F 
ATOM     94  C   UNL A   1      39.163  22.910  26.310  1.00  0.00     0.003 A 
ENDBRANCH  80  88
ENDBRANCH  75  76
ENDBRANCH  69  71
ENDBRANCH  68  69
ENDBRANCH  67  68
ENDBRANCH  66  67
ENDBRANCH  65  66
ENDBRANCH  64  65
ENDBRANCH   1  64
TORSDOF 20
ENDMDL
MODEL 2
REMARK VINA RESULT:     -10.9      3.939      9.273
REMARK SMILES O=C(OCCOCCOCCOC(=O)c1ccn(-c2cc(-c3ccncc3)nc(-c3ccccc3F)n2)n1)c1ccc(-c2c3nc(c(-c4c(F)cccc4F)c4ccc([nH]4)c(-c4c(F)cccc4F)c4nc(c(-c5c(F)cccc5F)c5ccc2[nH]5)C=C4)C=C3)cc1
REMARK SMILES IDX 7 1 6 2 5 3 4 4 3 5 2 6 1 7 39 8 40 9 92 10 41 11 91 12
REMARK SMILES IDX 42 13 43 14 44 15 85 16 45 17 90 18 84 19 86 20 46 21 89 22
REMARK SMILES IDX 83 23 82 24 47 26 73 27 56 28 72 29 57 30 60 31 71 32 87 33
REMARK SMILES IDX 58 34 59 35 70 37 88 38 61 39 48 40 49 41 54 42 50 43 51 44
REMARK SMILES IDX 53 45 55 46 52 47 74 48 75 49 80 50 76 51 77 52 79 53 81 54
REMARK SMILES IDX 78 55 62 56 63 57 68 58 64 59 65 60 67 61 69 62 66 63 8 64
REMARK SMILES IDX 9 65 10 66 11 67 12 68 13 69 14 70 15 71 16 72 38 73 17 74
REMARK SMILES IDX 18 75 19 76 20 77 37 78 21 79 29 80 28 81 22 82 23 83 27 84
REMARK SMILES IDX 24 85 26 86 25 87 30 88 31 89 35 90 32 91 34 92 36 93 33 94
REMARK H PARENT 86 25 60 36
REMARK Flexibility Score: inf
ROOT
ATOM      1  C   UNL A   1      37.611  21.021  24.961  1.00  0.00     0.188 C 
ENDROOT
BRANCH   1   2
ATOM      2  O   UNL A   1      38.298  21.634  26.043  1.00  0.00    -0.376 OA
BRANCH   2   3
ATOM      3  C   UNL A   1      39.674  21.312  26.140  1.00  0.00     0.202 C 
BRANCH   3   4
ATOM      4  C   UNL A   1      40.419  22.263  27.073  1.00  0.00     0.261 C 
BRANCH   4   5
ATOM      5  O   UNL A   1      40.829  23.507  26.472  1.00  0.00    -0.460 OA
BRANCH   5   6
ATOM      6  C   UNL A   1      42.022  24.129  26.468  1.00  0.00     0.338 C 
ATOM      7  O   UNL A   1      43.039  23.495  26.201  1.00  0.00    -0.246 OA
BRANCH   6   8
ATOM      8  C   UNL A   1      42.190  25.515  26.977  1.00  0.00     0.060 A 
ATOM      9  C   UNL A   1      42.704  25.844  28.229  1.00  0.00     0.016 A 
ATOM     10  C   UNL A   1      41.690  26.541  26.153  1.00  0.00     0.016 A 
ATOM     11  C   UNL A   1      42.676  27.165  28.672  1.00  0.00     0.010 A 
ATOM     12  C   UNL A   1      41.651  27.861  26.598  1.00  0.00     0.010 A 
ATOM     13  C   UNL A   1      42.094  28.164  27.885  1.00  0.00    -0.014 A 
BRANCH  13  14
ATOM     14  C   UNL A   1      41.848  29.464  28.522  1.00  0.00     0.031 A 
ATOM     15  C   UNL A   1      42.938  30.494  28.522  1.00  0.00     0.074 A 
ATOM     16  C   UNL A   1      40.654  29.749  29.082  1.00  0.00     0.049 A 
ATOM     17  N   UNL A   1      43.367  31.229  29.502  1.00  0.00    -0.248 NA
ATOM     18  C   UNL A   1      43.632  30.753  27.253  1.00  0.00     0.031 C 
ATOM     19  C   UNL A   1      39.397  28.997  28.976  1.00  0.00     0.029 A 
ATOM     20  N   UNL A   1      40.301  30.838  29.827  1.00  0.00    -0.354 N 
ATOM     21  C   UNL A   1      44.260  32.150  28.949  1.00  0.00     0.074 A 
ATOM     22  C   UNL A   1      44.387  31.810  27.556  1.00  0.00     0.031 C 
ATOM     23  C   UNL A   1      38.386  29.745  29.468  1.00  0.00     0.029 A 
ATOM     24  C   UNL A   1      38.939  30.956  30.045  1.00  0.00     0.049 A 
ATOM     25  H   UNL A   1      40.957  31.482  30.178  1.00  0.00     0.167 HD
ATOM     26  C   UNL A   1      44.788  33.191  29.651  1.00  0.00     0.037 A 
ATOM     27  C   UNL A   1      38.291  31.989  30.628  1.00  0.00     0.037 A 
ATOM     28  C   UNL A   1      44.816  32.920  31.057  1.00  0.00     0.049 A 
ATOM     29  C   UNL A   1      39.267  32.748  31.441  1.00  0.00     0.074 A 
ATOM     30  C   UNL A   1      45.484  32.011  31.851  1.00  0.00     0.029 A 
ATOM     31  N   UNL A   1      43.883  33.511  31.864  1.00  0.00    -0.354 N 
ATOM     32  N   UNL A   1      39.818  32.319  32.543  1.00  0.00    -0.248 NA
ATOM     33  C   UNL A   1      39.867  33.941  30.864  1.00  0.00     0.031 C 
ATOM     34  C   UNL A   1      44.636  31.789  32.971  1.00  0.00     0.029 A 
ATOM     35  C   UNL A   1      43.494  32.569  32.781  1.00  0.00     0.049 A 
ATOM     36  H   UNL A   1      43.553  34.436  31.799  1.00  0.00     0.167 HD
ATOM     37  C   UNL A   1      41.050  32.949  32.589  1.00  0.00     0.074 A 
ATOM     38  C   UNL A   1      40.957  34.038  31.627  1.00  0.00     0.031 C 
ATOM     39  C   UNL A   1      42.123  32.365  33.197  1.00  0.00     0.037 A 
BRANCH  26  40
ATOM     40  C   UNL A   1      45.124  34.552  29.093  1.00  0.00     0.057 A 
ATOM     41  C   UNL A   1      44.227  35.635  29.104  1.00  0.00     0.134 A 
ATOM     42  C   UNL A   1      46.459  34.888  28.791  1.00  0.00     0.134 A 
ATOM     43  F   UNL A   1      42.937  35.474  29.422  1.00  0.00    -0.206 F 
ATOM     44  C   UNL A   1      44.626  36.957  28.863  1.00  0.00     0.040 A 
ATOM     45  C   UNL A   1      46.876  36.208  28.575  1.00  0.00     0.040 A 
ATOM     46  F   UNL A   1      47.417  33.950  28.760  1.00  0.00    -0.206 F 
ATOM     47  C   UNL A   1      45.960  37.250  28.621  1.00  0.00     0.006 A 
ENDBRANCH  26  40
BRANCH  27  48
ATOM     48  C   UNL A   1      36.922  32.480  30.371  1.00  0.00     0.057 A 
ATOM     49  C   UNL A   1      36.637  33.333  29.290  1.00  0.00     0.134 A 
ATOM     50  C   UNL A   1      35.903  32.330  31.323  1.00  0.00     0.134 A 
ATOM     51  F   UNL A   1      37.563  33.604  28.357  1.00  0.00    -0.206 F 
ATOM     52  C   UNL A   1      35.418  34.004  29.165  1.00  0.00     0.040 A 
ATOM     53  C   UNL A   1      34.679  33.003  31.215  1.00  0.00     0.040 A 
ATOM     54  F   UNL A   1      36.092  31.568  32.409  1.00  0.00    -0.206 F 
ATOM     55  C   UNL A   1      34.437  33.851  30.138  1.00  0.00     0.006 A 
ENDBRANCH  27  48
BRANCH  39  56
ATOM     56  C   UNL A   1      41.875  31.196  34.106  1.00  0.00     0.057 A 
ATOM     57  C   UNL A   1      41.959  31.381  35.491  1.00  0.00     0.134 A 
ATOM     58  C   UNL A   1      41.752  29.877  33.646  1.00  0.00     0.134 A 
ATOM     59  F   UNL A   1      42.147  32.609  36.001  1.00  0.00    -0.206 F 
ATOM     60  C   UNL A   1      41.924  30.304  36.381  1.00  0.00     0.040 A 
ATOM     61  C   UNL A   1      41.682  28.794  34.527  1.00  0.00     0.040 A 
ATOM     62  F   UNL A   1      41.771  29.597  32.337  1.00  0.00    -0.206 F 
ATOM     63  C   UNL A   1      41.778  29.005  35.900  1.00  0.00     0.006 A 
ENDBRANCH  39  56
ENDBRANCH  13  14
ENDBRANCH   6   8
ENDBRANCH   5   6
ENDBRANCH   4   5
ENDBRANCH   3   4
ENDBRANCH   2   3
ENDBRANCH   1   2
BRANCH   1  64
ATOM     64  C   UNL A   1      36.210  20.480  25.316  1.00  0.00     0.188 C 
BRANCH  64  65
ATOM     65  O   UNL A   1      35.056  20.807  24.545  1.00  0.00    -0.376 OA
BRANCH  65  66
ATOM     66  C   UNL A   1      33.924  19.958  24.556  1.00  0.00     0.202 C 
BRANCH  66  67
ATOM     67  C   UNL A   1      32.595  20.601  24.163  1.00  0.00     0.261 C 
BRANCH  67  68
ATOM     68  O   UNL A   1      31.730  20.853  25.281  1.00  0.00    -0.458 OA
BRANCH  68  69
ATOM     69  C   UNL A   1      32.062  21.928  26.053  1.00  0.00     0.358 C 
ATOM     70  O   UNL A   1      32.944  21.929  26.902  1.00  0.00    -0.244 OA
BRANCH  69  71
ATOM     71  C   UNL A   1      31.174  23.087  25.866  1.00  0.00     0.170 A 
ATOM     72  C   UNL A   1      30.080  23.363  26.719  1.00  0.00     0.058 A 
ATOM     73  N   UNL A   1      31.372  24.094  24.975  1.00  0.00    -0.159 NA
ATOM     74  C   UNL A   1      29.746  24.662  26.455  1.00  0.00     0.118 A 
ATOM     75  N   UNL A   1      30.604  25.110  25.474  1.00  0.00    -0.222 N 
BRANCH  75  76
ATOM     76  C   UNL A   1      30.775  26.488  25.142  1.00  0.00     0.158 A 
ATOM     77  C   UNL A   1      30.097  27.066  24.084  1.00  0.00     0.078 A 
ATOM     78  N   UNL A   1      31.613  27.181  25.952  1.00  0.00    -0.209 NA
ATOM     79  C   UNL A   1      30.280  28.435  23.948  1.00  0.00     0.077 A 
ATOM     80  C   UNL A   1      31.802  28.472  25.662  1.00  0.00     0.165 A 
ATOM     81  N   UNL A   1      31.157  29.132  24.698  1.00  0.00    -0.228 NA
BRANCH  79  82
ATOM     82  C   UNL A   1      29.485  29.310  23.083  1.00  0.00     0.003 A 
ATOM     83  C   UNL A   1      28.232  29.765  23.513  1.00  0.00     0.030 A 
ATOM     84  C   UNL A   1      30.011  29.863  21.911  1.00  0.00     0.030 A 
ATOM     85  C   UNL A   1      27.563  30.714  22.755  1.00  0.00     0.111 A 
ATOM     86  C   UNL A   1      29.263  30.807  21.220  1.00  0.00     0.111 A 
ATOM     87  N   UNL A   1      28.048  31.237  21.614  1.00  0.00    -0.265 NA
ENDBRANCH  79  82
BRANCH  80  88
ATOM     88  C   UNL A   1      32.869  29.178  26.347  1.00  0.00     0.055 A 
ATOM     89  C   UNL A   1      32.652  30.465  26.875  1.00  0.00     0.015 A 
ATOM     90  C   UNL A   1      34.118  28.588  26.541  1.00  0.00     0.134 A 
ATOM     91  C   UNL A   1      33.657  31.125  27.587  1.00  0.00     0.001 A 
ATOM     92  C   UNL A   1      35.129  29.243  27.244  1.00  0.00     0.040 A 
ATOM     93  F   UNL A   1      34.375  27.368  26.044  1.00  0.00    -0.206 F 
ATOM     94  C   UNL A   1      34.895  30.512  27.772  1.00  0.00     0.003 A 
ENDBRANCH  80  88
ENDBRANCH  75  76
ENDBRANCH  69  71
ENDBRANCH  68  69
ENDBRANCH  67  68
ENDBRANCH  66  67
ENDBRANCH  65  66
ENDBRANCH  64  65
ENDBRANCH   1  64
TORSDOF 20
ENDMDL
MODEL 3
REMARK VINA RESULT:     -10.8      4.229      8.265
REMARK SMILES O=C(OCCOCCOCCOC(=O)c1ccn(-c2cc(-c3ccncc3)nc(-c3ccccc3F)n2)n1)c1ccc(-c2c3nc(c(-c4c(F)cccc4F)c4ccc([nH]4)c(-c4c(F)cccc4F)c4nc(c(-c5c(F)cccc5F)c5ccc2[nH]5)C=C4)C=C3)cc1
REMARK SMILES IDX 7 1 6 2 5 3 4 4 3 5 2 6 1 7 39 8 40 9 92 10 41 11 91 12
REMARK SMILES IDX 42 13 43 14 44 15 85 16 45 17 90 18 84 19 86 20 46 21 89 22
REMARK SMILES IDX 83 23 82 24 47 26 73 27 56 28 72 29 57 30 60 31 71 32 87 33
REMARK SMILES IDX 58 34 59 35 70 37 88 38 61 39 48 40 49 41 54 42 50 43 51 44
REMARK SMILES IDX 53 45 55 46 52 47 74 48 75 49 80 50 76 51 77 52 79 53 81 54
REMARK SMILES IDX 78 55 62 56 63 57 68 58 64 59 65 60 67 61 69 62 66 63 8 64
REMARK SMILES IDX 9 65 10 66 11 67 12 68 13 69 14 70 15 71 16 72 38 73 17 74
REMARK SMILES IDX 18 75 19 76 20 77 37 78 21 79 29 80 28 81 22 82 23 83 27 84
REMARK SMILES IDX 24 85 26 86 25 87 30 88 31 89 35 90 32 91 34 92 36 93 33 94
REMARK H PARENT 86 25 60 36
REMARK Flexibility Score: inf
ROOT
ATOM      1  C   UNL A   1      35.929  31.732  32.725  1.00  0.00     0.188 C 
ENDROOT
BRANCH   1   2
ATOM      2  O   UNL A   1      36.921  32.302  33.567  1.00  0.00    -0.376 OA
BRANCH   2   3
ATOM      3  C   UNL A   1      37.376  33.585  33.175  1.00  0.00     0.202 C 
BRANCH   3   4
ATOM      4  C   UNL A   1      38.175  34.271  34.281  1.00  0.00     0.261 C 
BRANCH   4   5
ATOM      5  O   UNL A   1      39.346  34.983  33.833  1.00  0.00    -0.460 OA
BRANCH   5   6
ATOM      6  C   UNL A   1      40.653  34.684  33.948  1.00  0.00     0.338 C 
ATOM      7  O   UNL A   1      41.463  35.575  34.186  1.00  0.00    -0.246 OA
BRANCH   6   8
ATOM      8  C   UNL A   1      41.188  33.344  33.595  1.00  0.00     0.060 A 
ATOM      9  C   UNL A   1      42.014  32.578  34.414  1.00  0.00     0.016 A 
ATOM     10  C   UNL A   1      40.906  32.889  32.292  1.00  0.00     0.016 A 
ATOM     11  C   UNL A   1      42.588  31.404  33.928  1.00  0.00     0.010 A 
ATOM     12  C   UNL A   1      41.487  31.722  31.801  1.00  0.00     0.010 A 
ATOM     13  C   UNL A   1      42.377  31.008  32.604  1.00  0.00    -0.014 A 
BRANCH  13  14
ATOM     14  C   UNL A   1      43.224  29.930  32.081  1.00  0.00     0.031 A 
ATOM     15  C   UNL A   1      44.243  30.248  31.027  1.00  0.00     0.074 A 
ATOM     16  C   UNL A   1      43.116  28.669  32.551  1.00  0.00     0.049 A 
ATOM     17  N   UNL A   1      44.498  29.618  29.921  1.00  0.00    -0.248 NA
ATOM     18  C   UNL A   1      45.106  31.417  31.244  1.00  0.00     0.031 C 
ATOM     19  C   UNL A   1      42.377  28.199  33.730  1.00  0.00     0.029 A 
ATOM     20  N   UNL A   1      43.718  27.533  32.090  1.00  0.00    -0.354 N 
ATOM     21  C   UNL A   1      45.648  30.203  29.385  1.00  0.00     0.074 A 
ATOM     22  C   UNL A   1      45.981  31.311  30.242  1.00  0.00     0.031 C 
ATOM     23  C   UNL A   1      42.728  26.923  33.997  1.00  0.00     0.029 A 
ATOM     24  C   UNL A   1      43.599  26.446  32.939  1.00  0.00     0.049 A 
ATOM     25  H   UNL A   1      44.196  27.491  31.230  1.00  0.00     0.167 HD
ATOM     26  C   UNL A   1      46.310  29.697  28.307  1.00  0.00     0.037 A 
ATOM     27  C   UNL A   1      44.196  25.240  32.811  1.00  0.00     0.037 A 
ATOM     28  C   UNL A   1      45.442  28.922  27.471  1.00  0.00     0.049 A 
ATOM     29  C   UNL A   1      44.598  25.070  31.399  1.00  0.00     0.074 A 
ATOM     30  C   UNL A   1      44.340  29.213  26.693  1.00  0.00     0.029 A 
ATOM     31  N   UNL A   1      45.520  27.557  27.521  1.00  0.00    -0.354 N 
ATOM     32  N   UNL A   1      43.776  24.898  30.401  1.00  0.00    -0.248 NA
ATOM     33  C   UNL A   1      45.973  25.370  31.030  1.00  0.00     0.031 C 
ATOM     34  C   UNL A   1      43.563  28.022  26.676  1.00  0.00     0.029 A 
ATOM     35  C   UNL A   1      44.235  27.082  27.459  1.00  0.00     0.049 A 
ATOM     36  H   UNL A   1      46.341  27.019  27.588  1.00  0.00     0.167 HD
ATOM     37  C   UNL A   1      44.430  25.438  29.306  1.00  0.00     0.074 A 
ATOM     38  C   UNL A   1      45.820  25.565  29.720  1.00  0.00     0.031 C 
ATOM     39  C   UNL A   1      43.740  25.989  28.267  1.00  0.00     0.037 A 
BRANCH  26  40
ATOM     40  C   UNL A   1      47.801  29.744  28.085  1.00  0.00     0.057 A 
ATOM     41  C   UNL A   1      48.433  30.716  27.288  1.00  0.00     0.134 A 
ATOM     42  C   UNL A   1      48.667  28.988  28.900  1.00  0.00     0.134 A 
ATOM     43  F   UNL A   1      47.733  31.541  26.500  1.00  0.00    -0.206 F 
ATOM     44  C   UNL A   1      49.816  30.941  27.316  1.00  0.00     0.040 A 
ATOM     45  C   UNL A   1      50.048  29.221  28.957  1.00  0.00     0.040 A 
ATOM     46  F   UNL A   1      48.191  28.037  29.717  1.00  0.00    -0.206 F 
ATOM     47  C   UNL A   1      50.625  30.208  28.171  1.00  0.00     0.006 A 
ENDBRANCH  26  40
BRANCH  27  48
ATOM     48  C   UNL A   1      44.619  24.306  33.875  1.00  0.00     0.057 A 
ATOM     49  C   UNL A   1      45.688  24.609  34.737  1.00  0.00     0.134 A 
ATOM     50  C   UNL A   1      44.153  22.985  33.912  1.00  0.00     0.134 A 
ATOM     51  F   UNL A   1      46.260  25.824  34.735  1.00  0.00    -0.206 F 
ATOM     52  C   UNL A   1      46.265  23.656  35.579  1.00  0.00     0.040 A 
ATOM     53  C   UNL A   1      44.728  22.016  34.745  1.00  0.00     0.040 A 
ATOM     54  F   UNL A   1      43.163  22.588  33.100  1.00  0.00    -0.206 F 
ATOM     55  C   UNL A   1      45.794  22.348  35.576  1.00  0.00     0.006 A 
ENDBRANCH  27  48
BRANCH  39  56
ATOM     56  C   UNL A   1      42.269  25.700  28.159  1.00  0.00     0.057 A 
ATOM     57  C   UNL A   1      41.821  24.808  27.177  1.00  0.00     0.134 A 
ATOM     58  C   UNL A   1      41.292  26.420  28.860  1.00  0.00     0.134 A 
ATOM     59  F   UNL A   1      42.702  24.136  26.420  1.00  0.00    -0.206 F 
ATOM     60  C   UNL A   1      40.461  24.639  26.903  1.00  0.00     0.040 A 
ATOM     61  C   UNL A   1      39.928  26.236  28.617  1.00  0.00     0.040 A 
ATOM     62  F   UNL A   1      41.631  27.370  29.741  1.00  0.00    -0.206 F 
ATOM     63  C   UNL A   1      39.509  25.349  27.629  1.00  0.00     0.006 A 
ENDBRANCH  39  56
ENDBRANCH  13  14
ENDBRANCH   6   8
ENDBRANCH   5   6
ENDBRANCH   4   5
ENDBRANCH   3   4
ENDBRANCH   2   3
ENDBRANCH   1   2
BRANCH   1  64
ATOM     64  C   UNL A   1      35.129  32.757  31.893  1.00  0.00     0.188 C 
BRANCH  64  65
ATOM     65  O   UNL A   1      33.828  33.192  32.279  1.00  0.00    -0.376 OA
BRANCH  65  66
ATOM     66  C   UNL A   1      33.672  34.209  33.251  1.00  0.00     0.202 C 
BRANCH  66  67
ATOM     67  C   UNL A   1      33.273  35.587  32.725  1.00  0.00     0.261 C 
BRANCH  67  68
ATOM     68  O   UNL A   1      32.459  35.534  31.543  1.00  0.00    -0.458 OA
BRANCH  68  69
ATOM     69  C   UNL A   1      32.916  36.256  30.479  1.00  0.00     0.358 C 
ATOM     70  O   UNL A   1      32.904  37.478  30.411  1.00  0.00    -0.244 OA
BRANCH  69  71
ATOM     71  C   UNL A   1      33.329  35.427  29.336  1.00  0.00     0.170 A 
ATOM     72  C   UNL A   1      34.269  35.861  28.371  1.00  0.00     0.058 A 
ATOM     73  N   UNL A   1      32.995  34.124  29.147  1.00  0.00    -0.159 NA
ATOM     74  C   UNL A   1      34.651  34.724  27.715  1.00  0.00     0.118 A 
ATOM     75  N   UNL A   1      33.945  33.679  28.269  1.00  0.00    -0.222 N 
BRANCH  75  76
ATOM     76  C   UNL A   1      34.277  32.305  28.067  1.00  0.00     0.158 A 
ATOM     77  C   UNL A   1      33.393  31.428  27.465  1.00  0.00     0.078 A 
ATOM     78  N   UNL A   1      35.518  31.942  28.474  1.00  0.00    -0.209 NA
ATOM     79  C   UNL A   1      33.893  30.154  27.239  1.00  0.00     0.077 A 
ATOM     80  C   UNL A   1      35.856  30.660  28.308  1.00  0.00     0.165 A 
ATOM     81  N   UNL A   1      35.097  29.752  27.693  1.00  0.00    -0.228 NA
BRANCH  79  82
ATOM     82  C   UNL A   1      33.258  29.136  26.398  1.00  0.00     0.003 A 
ATOM     83  C   UNL A   1      31.967  29.349  25.899  1.00  0.00     0.030 A 
ATOM     84  C   UNL A   1      33.968  28.031  25.917  1.00  0.00     0.030 A 
ATOM     85  C   UNL A   1      31.443  28.452  24.981  1.00  0.00     0.111 A 
ATOM     86  C   UNL A   1      33.356  27.188  24.998  1.00  0.00     0.111 A 
ATOM     87  N   UNL A   1      32.106  27.373  24.527  1.00  0.00    -0.265 NA
ENDBRANCH  79  82
BRANCH  80  88
ATOM     88  C   UNL A   1      37.068  30.183  28.948  1.00  0.00     0.055 A 
ATOM     89  C   UNL A   1      38.327  30.425  28.368  1.00  0.00     0.015 A 
ATOM     90  C   UNL A   1      37.024  29.517  30.174  1.00  0.00     0.134 A 
ATOM     91  C   UNL A   1      39.501  30.021  29.010  1.00  0.00     0.001 A 
ATOM     92  C   UNL A   1      38.190  29.103  30.817  1.00  0.00     0.040 A 
ATOM     93  F   UNL A   1      35.845  29.252  30.758  1.00  0.00    -0.206 F 
ATOM     94  C   UNL A   1      39.431  29.361  30.236  1.00  0.00     0.003 A 
ENDBRANCH  80  88
ENDBRANCH  75  76
ENDBRANCH  69  71
ENDBRANCH  68  69
ENDBRANCH  67  68
ENDBRANCH  66  67
ENDBRANCH  65  66
ENDBRANCH  64  65
ENDBRANCH   1  64
TORSDOF 20
ENDMDL
